#------------------------------------------------------------------------------
#$Date: 2017-06-02 03:47:44 +0300 (Fri, 02 Jun 2017) $
#$Revision: 197135 $
#$URL: file:///home/coder/svn-repositories/cod/cif/1/54/61/1546182.cif $
#------------------------------------------------------------------------------
#
# This file is available in the Crystallography Open Database (COD),
# http://www.crystallography.net/
#
# All data on this site have been placed in the public domain by the
# contributors.
#
data_1546182
loop_
_publ_author_name
'Kirk, Martin L.'
'Shultz, David A.'
'Zhang, Jinyuan'
'Dangi, Ranjana'
'Ingersol, Laura'
'Yang, Jing'
'Finney, Nathaniel S.'
'Sommer, Roger D.'
'Wojtas, Lukasz'
_publ_section_title
;
 Heterospin biradicals provide insight into molecular conductance and
 rectification
;
_journal_name_full               'Chem. Sci.'
_journal_paper_doi               10.1039/C7SC00073A
_journal_year                    2017
_chemical_formula_moiety         'C65 H74 B N9 O4 S Zn'
_chemical_formula_sum            'C65 H74 B N9 O4 S Zn'
_chemical_formula_weight         1153.57
_chemical_name_common            TP-DCM
_space_group_crystal_system      monoclinic
_space_group_IT_number           14
_space_group_name_Hall           '-P 2ybc'
_space_group_name_H-M_alt        'P 1 21/c 1'
_symmetry_space_group_name_Hall  '-P 2ybc'
_symmetry_space_group_name_H-M   'P 1 21/c 1'
_atom_sites_solution_hydrogens   geom
_atom_sites_solution_primary     direct
_atom_sites_solution_secondary   difmap
_audit_update_record
;
2017-01-06 deposited with the CCDC.
2017-05-16 downloaded from the CCDC.
;
_cell_angle_alpha                90
_cell_angle_beta                 112.792(2)
_cell_angle_gamma                90
_cell_formula_units_Z            4
_cell_length_a                   22.0024(13)
_cell_length_b                   16.5492(12)
_cell_length_c                   21.1852(8)
_cell_measurement_reflns_used    9827
_cell_measurement_temperature    110.(2)
_cell_measurement_theta_max      24.9134
_cell_measurement_theta_min      2.2388
_cell_volume                     7111.7(7)
_computing_cell_refinement       'SAINT V7.68A (Bruker AXS Inc., 2009)'
_computing_data_collection       'Bruker Instrument Service v2012.12.0.3'
_computing_data_reduction        'SAINT V7.68A (Bruker AXS Inc., 2009)'
_computing_structure_refinement  'SHELXL-2013 (Sheldrick, 2013)'
_computing_structure_solution    'SHELXS-97 (Sheldrick, 2008)'
_diffrn_ambient_temperature      110.(2)
_diffrn_detector_area_resol_mean 8.3333
_diffrn_measured_fraction_theta_full 1.000
_diffrn_measured_fraction_theta_max 1.000
_diffrn_measurement_device_type  'Bruker-Nonius X8 Kappa APEX II'
_diffrn_measurement_method       'phi and omega scans'
_diffrn_radiation_monochromator  graphite
_diffrn_radiation_type           MoK\a
_diffrn_radiation_wavelength     0.71073
_diffrn_reflns_av_R_equivalents  0.0365
_diffrn_reflns_av_sigmaI/netI    0.0269
_diffrn_reflns_limit_h_max       24
_diffrn_reflns_limit_h_min       -24
_diffrn_reflns_limit_k_max       18
_diffrn_reflns_limit_k_min       -18
_diffrn_reflns_limit_l_max       23
_diffrn_reflns_limit_l_min       -23
_diffrn_reflns_number            106893
_diffrn_reflns_theta_full        23.25
_diffrn_reflns_theta_max         23.25
_diffrn_reflns_theta_min         1.67
_diffrn_source                   'fine-focus sealed tube'
_exptl_absorpt_coefficient_mu    0.422
_exptl_absorpt_correction_T_max  0.95
_exptl_absorpt_correction_T_min  0.88
_exptl_absorpt_correction_type   multi-scan
_exptl_absorpt_process_details   'SADABS V2008/1 (Bruker AXS Inc.)'
_exptl_crystal_colour            brown
_exptl_crystal_density_diffrn    1.077
_exptl_crystal_density_method    'not measured'
_exptl_crystal_description       plate
_exptl_crystal_F_000             2440
_exptl_crystal_preparation       ', Magnetic properties'
_exptl_crystal_size_max          0.244
_exptl_crystal_size_mid          0.228
_exptl_crystal_size_min          0.126
_refine_diff_density_max         0.714
_refine_diff_density_min         -0.558
_refine_ls_extinction_method     none
_refine_ls_goodness_of_fit_ref   1.059
_refine_ls_hydrogen_treatment    constr
_refine_ls_matrix_type           full
_refine_ls_number_parameters     746
_refine_ls_number_reflns         10221
_refine_ls_number_restraints     744
_refine_ls_restrained_S_all      1.056
_refine_ls_R_factor_all          0.0673
_refine_ls_R_factor_gt           0.0528
_refine_ls_shift/su_max          0.001
_refine_ls_shift/su_mean         0.000
_refine_ls_structure_factor_coef Fsqd
_refine_ls_weighting_details
;
w=1/[\s^2^(Fo^2^)+(0.0834P)^2^+9.3916P]
where P=(Fo^2^+2Fc^2^)/3
;
_refine_ls_weighting_scheme      calc
_refine_ls_wR_factor_gt          0.1472
_refine_ls_wR_factor_ref         0.1604
_reflns_number_gt                8308
_reflns_number_total             10221
_reflns_threshold_expression     'I > 2\s(I)'
_cod_data_source_file            c7sc00073a2.cif
_cod_data_source_block           I
_cod_database_code               1546182
_shelx_res_file
;
TITL rds210_0ma in P2(1)/c
CELL 0.71073 22.0024 16.5492 21.1852 90 112.792 90
ZERR 4 0.0013 0.0012 0.0008 0 0.002 0
LATT 1
SYMM -X,0.5+Y,0.5-Z

SFAC C H N O B S Zn
UNIT 260 296 36 16 4 4 4
DFIX 1.54 C23 C21 C24 C21 C26 C22
DFIX 1.54 0.008 C25 C22
DFIX 1.5 C22 C21
DANG 2 H25b H23c
RIGU

L.S. 21
PLAN  -10 0 0
SIZE 0.126 0.228 0.244
TEMP -163
MPLA C1 C2 C3 C4 C5 C6
MPLA C11 C12 C13 C14 S1
MPLA C15 C16 C17 C18 N7 C19
MPLA C20 N8 C21 C22 N9
HTAB
BOND $H
CONF
ABIN
fmap 2
acta
SHEL 999 0.9
OMIT 1 1 1
REM <HKL>C:/frames/rsommer/rds210/work/rds210_0ma.hkl</HKL>

WGHT    0.083400    9.391602
FVAR       0.06756
ZN1   7    0.676413    0.366556    0.519375    11.00000    0.02895    0.04389 =
         0.03241    0.00051    0.00982    0.00054
S1    6    0.374295    0.304514    0.232779    11.00000    0.02779    0.04396 =
         0.04178   -0.00712    0.01266   -0.00074
O1    4    0.584562    0.363960    0.452767    11.00000    0.02984    0.05076 =
         0.03283   -0.00200    0.01138    0.00132
O2    4    0.690345    0.311741    0.435723    11.00000    0.02909    0.04669 =
         0.03674   -0.00124    0.01059   -0.00020
O3    4    0.022120    0.319596    0.134018    11.00000    0.09459    0.31529 =
         0.40148   -0.13701    0.11131    0.00719
O4    4    0.043013    0.107812   -0.000072    11.00000    0.09481    0.27830 =
         0.38806   -0.18377    0.06501   -0.04399
N1    3    0.741028    0.460329    0.532289    11.00000    0.03076    0.04774 =
         0.03463   -0.00164    0.01209   -0.00207
N2    3    0.782877    0.471185    0.599320    11.00000    0.03328    0.05338 =
         0.03727   -0.00095    0.00917   -0.00576
N3    3    0.739359    0.291893    0.592068    11.00000    0.03198    0.04864 =
         0.03558    0.00127    0.01245    0.00181
N4    3    0.781649    0.331932    0.648963    11.00000    0.02936    0.05173 =
         0.03556    0.00157    0.00966    0.00131
N5    3    0.649290    0.408768    0.600745    11.00000    0.02852    0.04626 =
         0.02905    0.00137    0.00793    0.00111
N6    3    0.702618    0.439882    0.654028    11.00000    0.03466    0.04496 =
         0.03358   -0.00010    0.01086    0.00036
N7    3    0.148048    0.226287    0.048098    11.00000    0.03273    0.08984 =
         0.05277   -0.00867    0.01012    0.00263
N8    3    0.006894    0.258448    0.084486    11.00000    0.05370    0.24254 =
         0.24083   -0.05607    0.07564   -0.01341
N9    3    0.016161    0.168361    0.021041    11.00000    0.03262    0.16530 =
         0.14006   -0.02961    0.00503   -0.01211
C1    1    0.576488    0.331470    0.394358    11.00000    0.03314    0.03647 =
         0.03638    0.00180    0.01545   -0.00136
C2    1    0.636209    0.304945    0.384857    11.00000    0.02716    0.03723 =
         0.03816   -0.00043    0.01151   -0.00293
C3    1    0.630171    0.273668    0.318880    11.00000    0.02860    0.03715 =
         0.03794   -0.00506    0.01329   -0.00262
C4    1    0.567972    0.265112    0.270145    11.00000    0.03315    0.03936 =
         0.03686   -0.00454    0.01403   -0.00161
AFIX  43
H4    2    0.563181    0.244154    0.226723    11.00000   -1.20000
AFIX   0
C5    1    0.509397    0.286076    0.280959    11.00000    0.03072    0.03606 =
         0.03619    0.00123    0.01239   -0.00208
C6    1    0.514902    0.320330    0.342195    11.00000    0.02660    0.04171 =
         0.03714    0.00020    0.01327    0.00080
AFIX  43
H6    2    0.476348    0.336443    0.348813    11.00000   -1.20000
AFIX   0
C7    1    0.691864    0.249977    0.306549    11.00000    0.03002    0.04599 =
         0.04861   -0.01139    0.01658   -0.00231
C8    1    0.740541    0.321055    0.323307    11.00000    0.03182    0.04991 =
         0.05115   -0.00694    0.02004   -0.00258
AFIX 137
H8A   2    0.718814    0.367956    0.295466    11.00000   -1.50000
H8B   2    0.778854    0.305763    0.313197    11.00000   -1.50000
H8C   2    0.754994    0.334767    0.371942    11.00000   -1.50000
AFIX   0
C9    1    0.724116    0.177646    0.351769    11.00000    0.03691    0.04772 =
         0.07266   -0.00760    0.02170    0.00277
AFIX 137
H9A   2    0.737186    0.192632    0.399995    11.00000   -1.50000
H9B   2    0.763175    0.161136    0.343506    11.00000   -1.50000
H9C   2    0.692706    0.132705    0.340855    11.00000   -1.50000
AFIX   0
C10   1    0.674521    0.227894    0.231526    11.00000    0.03497    0.07088 =
         0.06160   -0.02424    0.02401   -0.00825
AFIX 137
H10A  2    0.644405    0.181590    0.219270    11.00000   -1.50000
H10B  2    0.714849    0.213847    0.224763    11.00000   -1.50000
H10C  2    0.653186    0.274086    0.202434    11.00000   -1.50000
AFIX   0
C11   1    0.445775    0.268126    0.227147    11.00000    0.03009    0.03778 =
         0.03726   -0.00012    0.01326    0.00062
C12   1    0.430416    0.219481    0.170815    11.00000    0.02836    0.05101 =
         0.04158   -0.00765    0.01210    0.00280
AFIX  43
H12   2    0.462774    0.194288    0.158072    11.00000   -1.20000
AFIX   0
C13   1    0.362490    0.210318    0.133697    11.00000    0.03067    0.04959 =
         0.04342   -0.01063    0.00988   -0.00010
AFIX  43
H13   2    0.344381    0.178089    0.093604    11.00000   -1.20000
AFIX   0
C14   1    0.325010    0.252142    0.160745    11.00000    0.02830    0.04072 =
         0.04119   -0.00270    0.00954    0.00055
C15   1    0.253133    0.252035    0.138113    11.00000    0.03125    0.04020 =
         0.05036   -0.00507    0.01328    0.00067
C16   1    0.221979    0.265291    0.182510    11.00000    0.03646    0.06322 =
         0.05203   -0.01077    0.01574   -0.00282
AFIX  43
H16   2    0.246976    0.279552    0.228815    11.00000   -1.20000
AFIX   0
C17   1    0.155028    0.257836    0.159651    11.00000    0.03705    0.08074 =
         0.06157   -0.00988    0.02449   -0.00370
AFIX  43
H17   2    0.133160    0.266665    0.189901    11.00000   -1.20000
AFIX   0
C18   1    0.120008    0.237632    0.093101    11.00000    0.03139    0.06858 =
         0.05699    0.00036    0.01630    0.00171
C19   1    0.213375    0.234696    0.070860    11.00000    0.02881    0.07988 =
         0.04958   -0.01038    0.01172    0.00579
AFIX  43
H19   2    0.233760    0.228401    0.038989    11.00000   -1.20000
AFIX   0
C20   1    0.048601    0.222648    0.067068    11.00000    0.02748    0.11357 =
         0.07095    0.02232    0.01669    0.00192
C21   1   -0.060620    0.222696    0.055217    11.00000    0.04593    0.29687 =
         0.21151    0.02487    0.05521   -0.01512
C22   1   -0.056134    0.180632   -0.001682    11.00000    0.03429    0.27421 =
         0.15382    0.02104    0.01325   -0.03099
C23   1   -0.114209    0.286556    0.042562    11.00000    0.07509    0.38343 =
         0.26680    0.04972    0.08178    0.05299
AFIX 137
H23A  2   -0.105452    0.317302    0.084720    11.00000   -1.50000
H23B  2   -0.157265    0.260042    0.028599    11.00000   -1.50000
H23C  2   -0.114283    0.323288    0.006248    11.00000   -1.50000
AFIX   0
C24   1   -0.071057    0.161010    0.105677    11.00000    0.13139    0.34795 =
         0.20496    0.06721    0.08559   -0.06185
AFIX 137
H24A  2   -0.053266    0.108305    0.100402    11.00000   -1.50000
H24B  2   -0.118278    0.155802    0.095574    11.00000   -1.50000
H24C  2   -0.048193    0.180126    0.152792    11.00000   -1.50000
AFIX   0
C25   1   -0.078436    0.250436   -0.057678    11.00000    0.07558    0.32325 =
         0.17118    0.08313   -0.01266   -0.01567
AFIX 137
H25A  2   -0.057581    0.301408   -0.036810    11.00000   -1.50000
H25B  2   -0.126475    0.256374   -0.075368    11.00000   -1.50000
H25C  2   -0.064987    0.236521   -0.095348    11.00000   -1.50000
AFIX   0
C26   1   -0.091521    0.100790   -0.027679    11.00000    0.06650    0.26527 =
         0.28967    0.00127    0.01453   -0.05491
AFIX 137
H26A  2   -0.085161    0.084414   -0.069156    11.00000   -1.50000
H26B  2   -0.138713    0.107405   -0.038218    11.00000   -1.50000
H26C  2   -0.073440    0.059216    0.007621    11.00000   -1.50000
AFIX   0
C27   1    0.762568    0.508745    0.494047    11.00000    0.03677    0.04558 =
         0.04420    0.00048    0.01749   -0.00003
C28   1    0.818053    0.550650    0.537147    11.00000    0.04768    0.06291 =
         0.05420    0.00461    0.01729   -0.01504
AFIX  43
H28   2    0.843085    0.588826    0.523828    11.00000   -1.20000
AFIX   0
C29   1    0.829412    0.526071    0.602347    11.00000    0.04428    0.06383 =
         0.05160    0.00109    0.01218   -0.01532
C30   1    0.729453    0.514238    0.418853    11.00000    0.04581    0.04314 =
         0.04204    0.00042    0.02026    0.00140
C31   1    0.663112    0.496781    0.384651    11.00000    0.04646    0.04526 =
         0.04287    0.00307    0.01780    0.00562
AFIX  43
H31   2    0.637796    0.481184    0.410171    11.00000   -1.20000
AFIX   0
C32   1    0.633069    0.501610    0.314192    11.00000    0.05560    0.05353 =
         0.04317   -0.00152    0.01474    0.00951
AFIX  43
H32   2    0.587577    0.488836    0.292142    11.00000   -1.20000
AFIX   0
C33   1    0.668141    0.524810    0.274926    11.00000    0.07412    0.04647 =
         0.04463    0.00037    0.02295    0.01271
C34   1    0.733683    0.544176    0.309190    11.00000    0.08360    0.04864 =
         0.05093    0.00334    0.04114    0.00475
AFIX  43
H34   2    0.758469    0.561848    0.283707    11.00000   -1.20000
AFIX   0
C35   1    0.764501    0.538568    0.379949    11.00000    0.05834    0.05236 =
         0.05582    0.00027    0.03130   -0.00200
AFIX  43
H35   2    0.809969    0.551491    0.401943    11.00000   -1.20000
AFIX   0
C36   1    0.633068    0.527539    0.197034    11.00000    0.10918    0.05949 =
         0.04147    0.00136    0.02554    0.02025
AFIX  13
H36   2    0.593893    0.491504    0.186633    11.00000   -1.20000
AFIX   0
C37   1    0.670477    0.491087    0.160947    11.00000    0.15922    0.15701 =
         0.04522   -0.00595    0.03080    0.08043
AFIX 137
H37A  2    0.710332    0.523014    0.169131    11.00000   -1.50000
H37B  2    0.643402    0.489820    0.111754    11.00000   -1.50000
H37C  2    0.682917    0.435853    0.177628    11.00000   -1.50000
AFIX   0
C38   1    0.604789    0.608411    0.172782    11.00000    0.10284    0.06535 =
         0.04778    0.00575    0.02392    0.00806
AFIX 137
H38A  2    0.575170    0.623710    0.195403    11.00000   -1.50000
H38B  2    0.580033    0.606898    0.123116    11.00000   -1.50000
H38C  2    0.640456    0.648125    0.183786    11.00000   -1.50000
AFIX   0
C39   1    0.882661    0.551751    0.669388    11.00000    0.06996    0.10751 =
         0.06007    0.00019    0.00583   -0.04875
AFIX 137
H39A  2    0.862345    0.574342    0.699294    11.00000   -1.50000
H39B  2    0.910617    0.592776    0.660725    11.00000   -1.50000
H39C  2    0.909573    0.504798    0.691645    11.00000   -1.50000
AFIX   0
C40   1    0.753960    0.213116    0.601279    11.00000    0.03803    0.04813 =
         0.04263    0.00548    0.01687    0.00783
C41   1    0.806441    0.202760    0.664136    11.00000    0.04283    0.05584 =
         0.04943    0.00911    0.01119    0.01120
AFIX  43
H41   2    0.827026    0.153161    0.683427    11.00000   -1.20000
AFIX   0
C42   1    0.822532    0.278040    0.692649    11.00000    0.03180    0.06322 =
         0.04160    0.00795    0.01012    0.00788
C43   1    0.715140    0.152642    0.550461    11.00000    0.04538    0.04448 =
         0.04125    0.00793    0.01754    0.00438
C44   1    0.648768    0.164351    0.510959    11.00000    0.04369    0.04164 =
         0.04888    0.00407    0.01875    0.00550
AFIX  43
H44   2    0.628138    0.212886    0.516196    11.00000   -1.20000
AFIX   0
C45   1    0.611962    0.107468    0.464328    11.00000    0.04466    0.04569 =
         0.04859    0.00237    0.01742    0.00191
AFIX  43
H45   2    0.566760    0.117937    0.437722    11.00000   -1.20000
AFIX   0
C46   1    0.639700    0.035002    0.455447    11.00000    0.05755    0.04114 =
         0.04948    0.00524    0.02087    0.00416
C47   1    0.705429    0.023090    0.494981    11.00000    0.06382    0.04341 =
         0.06258    0.00255    0.02399    0.01018
AFIX  43
H47   2    0.725725   -0.025948    0.490270    11.00000   -1.20000
AFIX   0
C48   1    0.742947    0.080403    0.541459    11.00000    0.04973    0.05492 =
         0.05623    0.00597    0.01669    0.01141
AFIX  43
H48   2    0.788300    0.070153    0.567520    11.00000   -1.20000
AFIX   0
C49   1    0.598941   -0.028216    0.405439    11.00000    0.06803    0.04257 =
         0.06222   -0.00393    0.02196    0.00008
AFIX  13
H49   2    0.628658   -0.074525    0.406915    11.00000   -1.20000
AFIX   0
C50   1    0.543639   -0.060414    0.426340    11.00000    0.07871    0.04946 =
         0.06881    0.00567    0.02125   -0.01252
AFIX 137
H50A  2    0.562944   -0.081640    0.473136    11.00000   -1.50000
H50B  2    0.519721   -0.103655    0.394937    11.00000   -1.50000
H50C  2    0.513106   -0.016408    0.424230    11.00000   -1.50000
AFIX   0
C51   1    0.570117    0.003758    0.331977    11.00000    0.07441    0.06004 =
         0.05538   -0.01041    0.02467   -0.01058
AFIX 137
H51A  2    0.539494    0.048067    0.328716    11.00000   -1.50000
H51B  2    0.546535   -0.039846    0.300814    11.00000   -1.50000
H51C  2    0.605856    0.023539    0.319334    11.00000   -1.50000
AFIX   0
C52   1    0.874557    0.302191    0.760027    11.00000    0.04430    0.07931 =
         0.04954    0.00358    0.00270    0.01029
AFIX 137
H52A  2    0.904836    0.340708    0.752357    11.00000   -1.50000
H52B  2    0.899123    0.254201    0.783373    11.00000   -1.50000
H52C  2    0.853766    0.327472    0.788453    11.00000   -1.50000
AFIX   0
C53   1    0.595612    0.429621    0.612292    11.00000    0.03589    0.04011 =
         0.03365    0.00430    0.01457    0.00312
C54   1    0.614358    0.476220    0.671708    11.00000    0.04042    0.04418 =
         0.03791    0.00072    0.01568    0.00473
AFIX  43
H54   2    0.585971    0.500024    0.690721    11.00000   -1.20000
AFIX   0
C55   1    0.681859    0.480885    0.697255    11.00000    0.04424    0.04112 =
         0.03378    0.00138    0.01272    0.00200
C56   1    0.529578    0.397391    0.569643    11.00000    0.03518    0.04128 =
         0.03310    0.00471    0.01630    0.00051
C57   1    0.521908    0.316663    0.551117    11.00000    0.03776    0.04268 =
         0.04356    0.00709    0.01607    0.00251
AFIX  43
H57   2    0.559552    0.282568    0.564717    11.00000   -1.20000
AFIX   0
C58   1    0.459926    0.284494    0.512856    11.00000    0.04775    0.03820 =
         0.04977    0.00473    0.01265   -0.00454
AFIX  43
H58   2    0.455882    0.228978    0.500497    11.00000   -1.20000
AFIX   0
C59   1    0.403690    0.333199    0.492525    11.00000    0.04160    0.04841 =
         0.04399    0.00819    0.01081   -0.00409
C60   1    0.412308    0.413779    0.510785    11.00000    0.03703    0.04921 =
         0.04223    0.01028    0.01355    0.00264
AFIX  43
H60   2    0.374997    0.448468    0.496313    11.00000   -1.20000
AFIX   0
C61   1    0.473708    0.445467    0.549550    11.00000    0.04012    0.04114 =
         0.03571    0.00404    0.01783    0.00117
AFIX  43
H61   2    0.477596    0.500777    0.562525    11.00000   -1.20000
AFIX   0
C62   1    0.333723    0.303193    0.452351    11.00000    0.04511    0.06003 =
         0.05908    0.00917    0.00944   -0.00763
AFIX  13
H62   2    0.304810    0.332341    0.471431    11.00000   -1.20000
AFIX   0
C63   1    0.310503    0.325941    0.380059    11.00000    0.07182    0.08731 =
         0.05972    0.01381    0.00349   -0.02389
AFIX 137
H63A  2    0.315323    0.384416    0.376340    11.00000   -1.50000
H63B  2    0.263988    0.311000    0.356858    11.00000   -1.50000
H63C  2    0.336649    0.297638    0.358573    11.00000   -1.50000
AFIX   0
C64   1    0.324177    0.213451    0.461321    11.00000    0.04808    0.05758 =
         0.06308    0.00596    0.00756   -0.00996
AFIX 137
H64A  2    0.350602    0.181996    0.442020    11.00000   -1.50000
H64B  2    0.277513    0.199509    0.437551    11.00000   -1.50000
H64C  2    0.338271    0.201069    0.510168    11.00000   -1.50000
AFIX   0
C65   1    0.729182    0.519854    0.761336    11.00000    0.04824    0.04664 =
         0.04427   -0.00305    0.01234    0.00172
AFIX 137
H65A  2    0.759215    0.478854    0.790366    11.00000   -1.50000
H65B  2    0.704602    0.544830    0.786165    11.00000   -1.50000
H65C  2    0.754663    0.561351    0.749364    11.00000   -1.50000
AFIX   0
B1    5    0.773045    0.423632    0.657363    11.00000    0.03117    0.05654 =
         0.03208    0.00014    0.00541   -0.00389
AFIX  13
H1    2    0.806065    0.442080    0.702599    11.00000   -1.20000
AFIX   0
HKLF 4

REM  rds210_0ma in P2(1)/c
REM R1 =  0.0528 for    8308 Fo > 4sig(Fo)  and  0.0673 for all   10221 data
REM    746 parameters refined using    744 restraints

END

WGHT      0.0834      9.3915

REM Instructions for potential hydrogen bonds
HTAB C17 O3
EQIV $1 -x+1, -y+1, -z+1
HTAB C65 S1_$1

REM Highest difference peak  0.714,  deepest hole -0.558,  1-sigma level  0.063
Q1    1   0.3576  0.2826  0.4203  11.00000  0.05    0.71
Q2    1  -0.0520  0.1460  0.0426  11.00000  0.05    0.71
Q3    1  -0.0426  0.0756  0.0689  11.00000  0.05    0.65
Q4    1   0.0196  0.1856  0.0975  11.00000  0.05    0.64
Q5    1  -0.0673  0.2468  0.0084  11.00000  0.05    0.62
Q6    1  -0.0788  0.1219 -0.0806  11.00000  0.05    0.51
Q7    1   0.2836  0.3463  0.4119  11.00000  0.05    0.49
Q8    1   0.0273  0.2156  0.1595  11.00000  0.05    0.42
Q9    1   0.6279  0.4462  0.1681  11.00000  0.05    0.33
Q10   1  -0.0033  0.8513  0.4342  11.00000  0.05    0.33
;
_shelx_res_checksum              1327
_shelx_fab_file
;
    2    0    0    117.63      0.15
    3    0    0     37.09      0.15
    4    0    0    -10.20      0.01
    5    0    0    -22.36     -0.22
    6    0    0    -17.26     -0.35
    7    0    0    -11.64     -0.31
    8    0    0    -10.69     -0.18
    9    0    0    -11.30     -0.05
   10    0    0    -10.03      0.01
   11    0    0     -6.95      0.02
   12    0    0     -4.02     -0.01
   13    0    0     -2.30     -0.03
   14    0    0     -1.61     -0.02
   15    0    0     -1.49     -0.01
   16    0    0     -1.62      0.00
   17    0    0     -1.66      0.01
   18    0    0     -1.43      0.02
   19    0    0     -1.23      0.02
   20    0    0     -1.33      0.00
   21    0    0     -1.34      0.00
   22    0    0     -0.74      0.01
   23    0    0      0.23      0.02
   24    0    0      0.77      0.02
    2    1    0    -51.99     -0.01
    3    1    0    -43.72     -0.03
    4    1    0    -23.17     -0.05
    5    1    0     -6.04     -0.09
    6    1    0      0.66     -0.13
    7    1    0      0.32     -0.13
    8    1    0     -0.38     -0.09
    9    1    0      1.31     -0.02
   10    1    0      3.67      0.03
   11    1    0      4.51      0.00
   12    1    0      3.77     -0.08
   13    1    0      2.57     -0.14
   14    1    0      1.63     -0.14
   15    1    0      1.08     -0.09
   16    1    0      0.87     -0.04
   17    1    0      0.85     -0.01
   18    1    0      0.80      0.00
   19    1    0      0.58      0.01
   20    1    0      0.37      0.00
   21    1    0      0.37     -0.02
   22    1    0      0.49     -0.02
   23    1    0      0.43     -0.01
   24    1    0      0.12      0.00
    0    2    0     60.14     -0.01
    1    2    0     49.83      0.04
    2    2    0     25.97      0.10
    3    2    0      3.06      0.12
    4    2    0     -9.19      0.04
    5    2    0    -10.65     -0.10
    6    2    0     -6.38     -0.17
    7    2    0     -1.19     -0.11
    8    2    0      2.29      0.01
    9    2    0      3.41      0.10
   10    2    0      2.94      0.13
   11    2    0      2.00      0.09
   12    2    0      1.20      0.01
   13    2    0      0.72     -0.07
   14    2    0      0.60     -0.11
   15    2    0      0.59     -0.11
   16    2    0      0.42     -0.08
   17    2    0      0.19     -0.04
   18    2    0      0.12     -0.01
   19    2    0      0.04      0.00
   20    2    0     -0.26     -0.02
   21    2    0     -0.64     -0.03
   22    2    0     -0.73     -0.01
   23    2    0     -0.43      0.00
   24    2    0      0.01      0.00
    1    3    0     -6.35      0.00
    2    3    0     -1.11      0.01
    3    3    0     15.40      0.03
    4    3    0     31.71      0.03
    5    3    0     36.71      0.00
    6    3    0     29.18      0.00
    7    3    0     16.75      0.04
    8    3    0      7.54      0.07
    9    3    0      3.73      0.04
   10    3    0      2.39     -0.10
   11    3    0      0.73     -0.31
   12    3    0     -1.11     -0.51
   13    3    0     -1.89     -0.57
   14    3    0     -1.67     -0.47
   15    3    0     -1.25     -0.26
   16    3    0     -0.90     -0.07
   17    3    0     -0.55      0.03
   18    3    0     -0.41      0.04
   19    3    0     -0.68      0.00
   20    3    0     -1.07     -0.03
   21    3    0     -1.12     -0.02
   22    3    0     -0.65      0.01
   23    3    0      0.10      0.02
   24    3    0      0.60      0.01
    0    4    0     43.43     -0.02
    1    4    0     39.14      0.01
    2    4    0     26.85      0.05
    3    4    0      9.09      0.07
    4    4    0     -8.88      0.02
    5    4    0    -20.51     -0.05
    6    4    0    -21.84     -0.06
    7    4    0    -14.72     -0.03
    8    4    0     -5.64     -0.02
    9    4    0     -0.47     -0.07
   10    4    0     -0.04     -0.13
   11    4    0     -1.08     -0.16
   12    4    0     -0.83     -0.14
   13    4    0      0.60     -0.06
   14    4    0      1.68      0.06
   15    4    0      1.63      0.15
   16    4    0      0.86      0.16
   17    4    0      0.12      0.09
   18    4    0     -0.19      0.01
   19    4    0     -0.23     -0.02
   20    4    0     -0.36      0.00
   21    4    0     -0.56      0.03
   22    4    0     -0.49      0.04
   23    4    0     -0.13      0.02
   24    4    0      0.16     -0.01
    1    5    0    -14.20     -0.03
    2    5    0    -21.44      0.00
    3    5    0    -19.19      0.02
    4    5    0    -10.66      0.02
    5    5    0     -2.14      0.03
    6    5    0      1.54      0.05
    7    5    0     -0.22      0.05
    8    5    0     -4.45      0.03
    9    5    0     -7.53     -0.02
   10    5    0     -7.72     -0.07
   11    5    0     -5.67     -0.11
   12    5    0     -3.14     -0.15
   13    5    0     -1.60     -0.17
   14    5    0     -1.39     -0.14
   15    5    0     -1.74     -0.10
   16    5    0     -1.57     -0.05
   17    5    0     -0.69     -0.03
   18    5    0      0.05     -0.03
   19    5    0     -0.03     -0.03
   20    5    0     -0.60     -0.02
   21    5    0     -0.88     -0.02
   22    5    0     -0.51     -0.03
   23    5    0      0.14     -0.04
    0    6    0     -5.77      0.01
    1    6    0     -3.70     -0.01
    2    6    0      0.87     -0.01
    3    6    0      4.57      0.01
    4    6    0      5.42      0.01
    5    6    0      4.20      0.00
    6    6    0      3.27     -0.01
    7    6    0      4.17      0.00
    8    6    0      6.48      0.01
    9    6    0      8.43      0.01
   10    6    0      8.66     -0.01
   11    6    0      7.26     -0.04
   12    6    0      5.21     -0.06
   13    6    0      3.19     -0.06
   14    6    0      1.50     -0.03
   15    6    0      0.39      0.00
   16    6    0     -0.10      0.01
   17    6    0     -0.36      0.00
   18    6    0     -0.65     -0.01
   19    6    0     -0.90     -0.01
   20    6    0     -0.96      0.00
   21    6    0     -0.79      0.00
   22    6    0     -0.44      0.00
   23    6    0     -0.15      0.00
    1    7    0      1.91     -0.06
    2    7    0      3.23      0.00
    3    7    0      3.85      0.03
    4    7    0      3.85      0.01
    5    7    0      3.09     -0.01
    6    7    0      1.42      0.00
    7    7    0     -0.79      0.03
    8    7    0     -2.83      0.04
    9    7    0     -4.05      0.02
   10    7    0     -4.08     -0.01
   11    7    0     -3.06     -0.03
   12    7    0     -1.74     -0.05
   13    7    0     -0.90     -0.06
   14    7    0     -0.53     -0.06
   15    7    0     -0.10     -0.05
   16    7    0      0.58     -0.02
   17    7    0      1.31      0.00
   18    7    0      1.72     -0.01
   19    7    0      1.58     -0.03
   20    7    0      1.07     -0.03
   21    7    0      0.65     -0.01
   22    7    0      0.53      0.01
   23    7    0      0.46      0.00
    0    8    0      2.11      0.08
    1    8    0      1.77      0.06
    2    8    0      0.77      0.03
    3    8    0     -0.72     -0.01
    4    8    0     -2.34     -0.02
    5    8    0     -3.75     -0.01
    6    8    0     -4.53      0.02
    7    8    0     -4.20      0.04
    8    8    0     -2.74      0.04
    9    8    0     -0.96      0.03
   10    8    0      0.03      0.01
   11    8    0     -0.21     -0.02
   12    8    0     -1.12     -0.03
   13    8    0     -1.77     -0.03
   14    8    0     -1.70     -0.02
   15    8    0     -1.16      0.00
   16    8    0     -0.55      0.02
   17    8    0     -0.05      0.02
   18    8    0      0.19      0.02
   19    8    0      0.13      0.02
   20    8    0      0.03      0.03
   21    8    0      0.09      0.03
   22    8    0      0.11      0.01
    1    9    0     -1.22     -0.02
    2    9    0     -1.45     -0.01
    3    9    0     -0.52      0.00
    4    9    0      0.73      0.01
    5    9    0      1.49      0.02
    6    9    0      1.78      0.03
    7    9    0      1.97      0.03
    8    9    0      1.92      0.03
    9    9    0      1.32      0.01
   10    9    0      0.48     -0.02
   11    9    0      0.08     -0.05
   12    9    0      0.32     -0.06
   13    9    0      0.87     -0.06
   14    9    0      1.28     -0.04
   15    9    0      1.39     -0.02
   16    9    0      1.31     -0.01
   17    9    0      1.17      0.00
   18    9    0      0.95     -0.01
   19    9    0      0.61     -0.03
   20    9    0      0.28     -0.02
   21    9    0      0.12     -0.01
   22    9    0      0.12      0.00
    0   10    0     -4.14      0.05
    1   10    0     -3.27      0.02
    2   10    0     -1.33     -0.01
    3   10    0      0.24     -0.01
    4   10    0      0.51      0.00
    5   10    0     -0.29      0.01
    6   10    0     -1.26      0.02
    7   10    0     -1.84      0.02
    8   10    0     -1.93      0.02
    9   10    0     -1.65      0.01
   10   10    0     -1.22      0.01
   11   10    0     -0.87      0.01
   12   10    0     -0.59      0.02
   13   10    0     -0.24      0.02
   14   10    0      0.06      0.02
   15   10    0      0.16      0.01
   16   10    0      0.23      0.02
   17   10    0      0.44      0.02
   18   10    0      0.66      0.01
   19   10    0      0.79      0.00
   20   10    0      0.95      0.02
   21   10    0      1.12      0.02
    1   11    0      2.06     -0.02
    2   11    0      3.17     -0.03
    3   11    0      2.99     -0.02
    4   11    0      2.02      0.00
    5   11    0      1.13      0.02
    6   11    0      0.70      0.01
    7   11    0      0.46     -0.02
    8   11    0      0.08     -0.01
    9   11    0     -0.40      0.03
   10   11    0     -0.81      0.04
   11   11    0     -1.07      0.03
   12   11    0     -1.14      0.00
   13   11    0     -0.96      0.00
   14   11    0     -0.68      0.01
   15   11    0     -0.48      0.01
   16   11    0     -0.39      0.00
   17   11    0     -0.24     -0.01
   18   11    0      0.06     -0.01
   19   11    0      0.40     -0.01
   20   11    0      0.54     -0.01
    0   12    0      2.86     -0.04
    1   12    0      2.48     -0.05
    2   12    0      1.52     -0.02
    3   12    0      0.33      0.01
    4   12    0     -0.70      0.02
    5   12    0     -1.33      0.00
    6   12    0     -1.52     -0.02
    7   12    0     -1.43     -0.01
    8   12    0     -1.20      0.02
    9   12    0     -0.91      0.04
   10   12    0     -0.65      0.03
   11   12    0     -0.37      0.02
   12   12    0      0.07      0.01
   13   12    0      0.55      0.00
   14   12    0      0.63     -0.01
   15   12    0      0.27      0.01
   16   12    0      0.01      0.02
   17   12    0      0.26      0.02
   18   12    0      0.72      0.01
   19   12    0      0.90      0.01
    1   13    0     -0.31      0.06
    2   13    0     -0.65      0.03
    3   13    0     -0.95     -0.01
    4   13    0     -0.85     -0.01
    5   13    0     -0.06      0.00
    6   13    0      0.91     -0.01
    7   13    0      1.22     -0.03
    8   13    0      0.85     -0.02
    9   13    0      0.48      0.02
   10   13    0      0.45      0.04
   11   13    0      0.45      0.02
   12   13    0      0.17      0.01
   13   13    0     -0.27      0.05
   14   13    0     -0.54      0.08
   15   13    0     -0.48      0.06
   16   13    0     -0.20      0.01
   17   13    0      0.09     -0.02
   18   13    0      0.24      0.00
    0   14    0     -0.86      0.05
    1   14    0     -0.97      0.01
    2   14    0     -1.27     -0.01
    3   14    0     -1.51      0.00
    4   14    0     -1.32      0.01
    5   14    0     -0.79      0.01
    6   14    0     -0.40      0.00
    7   14    0     -0.25      0.00
    8   14    0     -0.01      0.01
    9   14    0      0.37      0.02
   10   14    0      0.66      0.01
   11   14    0      0.69      0.01
   12   14    0      0.51      0.01
   13   14    0      0.21      0.01
   14   14    0     -0.18     -0.01
   15   14    0     -0.58     -0.02
   16   14    0     -0.80     -0.02
   17   14    0     -0.68     -0.01
    1   15    0      0.19      0.03
    2   15    0      0.36      0.02
    3   15    0      0.57      0.03
    4   15    0      0.88      0.03
    5   15    0      1.26      0.02
    6   15    0      1.48     -0.01
    7   15    0      1.23     -0.03
    8   15    0      0.56     -0.01
    9   15    0     -0.02      0.03
   10   15    0     -0.24      0.03
   11   15    0     -0.43      0.00
   12   15    0     -0.90     -0.02
   13   15    0     -1.36      0.00
   14   15    0     -1.42      0.02
   15   15    0     -1.02      0.01
   16   15    0     -0.38     -0.01
    0   16    0      0.36     -0.10
    1   16    0      0.26     -0.04
    2   16    0     -0.14      0.01
    3   16    0     -0.77      0.01
    4   16    0     -1.14     -0.01
    5   16    0     -0.94     -0.01
    6   16    0     -0.53      0.00
    7   16    0     -0.36      0.01
    8   16    0     -0.20      0.00
    9   16    0      0.35     -0.02
   10   16    0      1.15     -0.04
   11   16    0      1.61     -0.04
   12   16    0      1.45     -0.02
   13   16    0      0.91     -0.01
   14   16    0      0.44     -0.01
   15   16    0      0.30     -0.02
    1   17    0     -0.18      0.06
    2   17    0     -0.38      0.04
    3   17    0     -0.41      0.02
    4   17    0     -0.15      0.03
    5   17    0      0.19      0.04
    6   17    0      0.34      0.02
    7   17    0      0.31     -0.02
    8   17    0      0.32     -0.03
    9   17    0      0.48     -0.01
   10   17    0      0.53      0.01
   11   17    0      0.19      0.01
   12   17    0     -0.53      0.00
   13   17    0     -1.07     -0.01
    0   18    0     -0.57      0.00
    1   18    0     -0.72      0.01
    2   18    0     -1.06      0.01
    3   18    0     -1.35     -0.01
    4   18    0     -1.25     -0.03
    5   18    0     -0.77     -0.04
    6   18    0     -0.27     -0.04
    7   18    0     -0.11     -0.04
    8   18    0     -0.16     -0.03
    9   18    0     -0.04     -0.03
   10   18    0      0.24     -0.03
   11   18    0      0.34     -0.03
    1   19    0     -0.31     -0.01
    2   19    0     -0.18     -0.03
    3   19    0      0.43     -0.02
    4   19    0      1.11      0.01
    5   19    0      1.37      0.04
    6   19    0      1.17      0.05
    7   19    0      0.88      0.04
    8   19    0      0.78      0.02
    0   20    0     -0.29      0.03
    1   20    0     -0.29      0.04
    2   20    0     -0.30      0.06
    3   20    0     -0.34      0.06
  -25    1    1     -0.19      0.03
  -24    1    1     -0.06      0.03
  -23    1    1      0.21      0.03
  -22    1    1      0.44      0.00
  -21    1    1      0.44      0.00
  -20    1    1      0.35      0.01
  -19    1    1      0.41      0.04
  -18    1    1      0.39      0.06
  -17    1    1     -0.21      0.09
  -16    1    1     -1.19      0.11
  -15    1    1     -1.61      0.11
  -14    1    1     -0.85      0.07
  -13    1    1      0.68     -0.01
  -12    1    1      2.12     -0.07
  -11    1    1      2.85     -0.06
  -10    1    1      2.61      0.02
   -9    1    1      1.62      0.11
   -8    1    1      0.90      0.13
   -7    1    1      3.19      0.09
   -6    1    1     12.67      0.06
   -5    1    1     30.89      0.09
   -4    1    1     50.31      0.15
   -3    1    1     54.79      0.16
   -2    1    1     32.29      0.10
   -1    1    1    -10.57      0.03
    1    1    1    -66.86     -0.19
    2    1    1    -57.78     -0.31
    3    1    1    -37.71     -0.33
    4    1    1    -22.16     -0.24
    5    1    1    -16.52     -0.10
    6    1    1    -16.20      0.02
    7    1    1    -14.09      0.11
    8    1    1     -7.84      0.15
    9    1    1     -0.97      0.12
   10    1    1      2.19      0.01
   11    1    1      1.17     -0.09
   12    1    1     -1.20     -0.11
   13    1    1     -2.42     -0.05
   14    1    1     -1.99      0.02
   15    1    1     -0.69      0.05
   16    1    1      0.46      0.06
   17    1    1      0.83      0.05
   18    1    1      0.60      0.02
   19    1    1      0.43      0.01
   20    1    1      0.67      0.01
   21    1    1      0.96     -0.01
   22    1    1      0.82     -0.02
   23    1    1      0.32     -0.01
   24    1    1     -0.07      0.01
  -25    2    1      0.31      0.00
  -24    2    1      0.24     -0.01
  -23    2    1      0.11     -0.04
  -22    2    1     -0.04     -0.05
  -21    2    1     -0.30     -0.04
  -20    2    1     -0.66     -0.03
  -19    2    1     -1.03     -0.04
  -18    2    1     -1.50     -0.05
  -17    2    1     -1.89     -0.06
  -16    2    1     -1.72     -0.08
  -15    2    1     -0.92     -0.10
  -14    2    1     -0.25     -0.10
  -13    2    1     -0.22     -0.05
  -12    2    1     -0.38      0.04
  -11    2    1     -0.25      0.13
  -10    2    1     -0.39      0.13
   -9    2    1     -1.39      0.04
   -8    2    1     -1.69     -0.06
   -7    2    1      2.19     -0.09
   -6    2    1     11.53     -0.03
   -5    2    1     21.38      0.04
   -4    2    1     22.60      0.06
   -3    2    1     10.71      0.01
   -2    2    1     -6.62     -0.04
   -1    2    1    -13.78     -0.06
    0    2    1     -1.68     -0.04
    1    2    1     22.33     -0.01
    2    2    1     40.42     -0.02
    3    2    1     40.37     -0.08
    4    2    1     25.21     -0.15
    5    2    1      8.11     -0.17
    6    2    1     -0.48     -0.12
    7    2    1     -0.56     -0.06
    8    2    1      1.01     -0.07
    9    2    1     -0.55     -0.17
   10    2    1     -4.03     -0.27
   11    2    1     -5.95     -0.23
   12    2    1     -5.06     -0.06
   13    2    1     -2.63      0.13
   14    2    1     -0.45      0.21
   15    2    1      0.50      0.19
   16    2    1      0.37      0.11
   17    2    1     -0.01      0.05
   18    2    1     -0.03      0.02
   19    2    1      0.23      0.03
   20    2    1      0.43      0.05
   21    2    1      0.34      0.05
   22    2    1     -0.03      0.04
   23    2    1     -0.40      0.02
   24    2    1     -0.46      0.01
  -24    3    1      0.02      0.00
  -23    3    1      0.39     -0.01
  -22    3    1      0.56     -0.02
  -21    3    1      0.34     -0.03
  -20    3    1      0.19     -0.03
  -19    3    1      0.48      0.00
  -18    3    1      0.94      0.02
  -17    3    1      1.00      0.01
  -16    3    1      0.50     -0.04
  -15    3    1     -0.14     -0.08
  -14    3    1     -0.15     -0.11
  -13    3    1      0.78     -0.11
  -12    3    1      1.94     -0.10
  -11    3    1      1.62     -0.08
  -10    3    1     -1.35     -0.04
   -9    3    1     -5.84      0.02
   -8    3    1     -8.40      0.07
   -7    3    1     -6.03      0.09
   -6    3    1      0.68      0.10
   -5    3    1      6.98      0.08
   -4    3    1      6.85      0.07
   -3    3    1     -2.06      0.07
   -2    3    1    -15.13      0.08
   -1    3    1    -23.59      0.09
    0    3    1    -22.61      0.06
    1    3    1    -15.90     -0.03
    2    3    1    -10.81     -0.12
    3    3    1    -10.07     -0.13
    4    3    1    -10.19     -0.02
    5    3    1     -7.40      0.11
    6    3    1     -2.36      0.16
    7    3    1      1.56      0.13
    8    3    1      2.76      0.05
    9    3    1      2.46     -0.01
   10    3    1      2.23     -0.01
   11    3    1      2.32      0.08
   12    3    1      2.33      0.20
   13    3    1      2.03      0.24
   14    3    1      1.54      0.16
   15    3    1      1.12      0.05
   16    3    1      0.91     -0.02
   17    3    1      0.66     -0.03
   18    3    1      0.13      0.00
   19    3    1     -0.33      0.02
   20    3    1     -0.35      0.02
   21    3    1     -0.11      0.01
   22    3    1      0.02      0.00
   23    3    1      0.04      0.00
   24    3    1      0.03      0.01
  -24    4    1      0.96     -0.01
  -23    4    1      0.88     -0.02
  -22    4    1      0.65     -0.02
  -21    4    1      0.61     -0.02
  -20    4    1      0.84      0.00
  -19    4    1      0.98      0.00
  -18    4    1      0.56     -0.03
  -17    4    1     -0.35     -0.09
  -16    4    1     -0.94     -0.10
  -15    4    1     -0.63      0.01
  -14    4    1     -0.06      0.18
  -13    4    1     -0.52      0.30
  -12    4    1     -2.72      0.28
  -11    4    1     -6.64      0.17
  -10    4    1    -11.78      0.06
   -9    4    1    -16.67      0.01
   -8    4    1    -19.08      0.01
   -7    4    1    -17.96      0.01
   -6    4    1    -15.07     -0.02
   -5    4    1    -13.99     -0.03
   -4    4    1    -16.68     -0.02
   -3    4    1    -20.52      0.01
   -2    4    1    -19.36      0.02
   -1    4    1     -9.39      0.00
    0    4    1      5.69      0.02
    1    4    1     16.68      0.06
    2    4    1     16.65      0.09
    3    4    1      6.57      0.09
    4    4    1     -6.15      0.04
    5    4    1    -14.09     -0.03
    6    4    1    -15.09     -0.08
    7    4    1    -12.12     -0.10
    8    4    1     -9.11     -0.10
    9    4    1     -7.38     -0.10
   10    4    1     -6.07     -0.07
   11    4    1     -4.32      0.00
   12    4    1     -2.33      0.09
   13    4    1     -0.68      0.13
   14    4    1      0.33      0.11
   15    4    1      0.65      0.07
   16    4    1      0.29      0.04
   17    4    1     -0.30      0.04
   18    4    1     -0.37      0.05
   19    4    1      0.32      0.06
   20    4    1      1.20      0.04
   21    4    1      1.66      0.02
   22    4    1      1.49      0.00
   23    4    1      0.91      0.00
  -24    5    1     -0.34      0.01
  -23    5    1     -0.17      0.00
  -22    5    1      0.02      0.01
  -21    5    1      0.08      0.00
  -20    5    1      0.10      0.00
  -19    5    1      0.23      0.01
  -18    5    1      0.38      0.03
  -17    5    1      0.43      0.06
  -16    5    1      0.41      0.13
  -15    5    1      0.18      0.21
  -14    5    1     -0.46      0.20
  -13    5    1     -1.44      0.05
  -12    5    1     -2.76     -0.13
  -11    5    1     -4.93     -0.19
  -10    5    1     -8.00     -0.11
   -9    5    1    -10.75      0.02
   -8    5    1    -11.26      0.06
   -7    5    1     -8.39      0.01
   -6    5    1     -2.88     -0.05
   -5    5    1      2.44     -0.05
   -4    5    1      4.39     -0.02
   -3    5    1      2.38     -0.01
   -2    5    1     -0.74     -0.02
   -1    5    1     -1.87      0.00
    0    5    1     -1.01      0.03
    1    5    1     -0.53      0.04
    2    5    1     -1.45      0.01
    3    5    1     -1.68     -0.03
    4    5    1      1.39     -0.02
    5    5    1      7.00      0.01
    6    5    1     11.10      0.02
    7    5    1     10.73      0.01
    8    5    1      7.17      0.00
    9    5    1      3.96      0.01
   10    5    1      2.78      0.03
   11    5    1      2.54      0.06
   12    5    1      1.79      0.10
   13    5    1      0.43      0.09
   14    5    1     -0.71      0.04
   15    5    1     -1.21     -0.01
   16    5    1     -1.16     -0.03
   17    5    1     -0.81     -0.02
   18    5    1     -0.32      0.00
   19    5    1      0.18      0.00
   20    5    1      0.57     -0.02
   21    5    1      0.72     -0.03
   22    5    1      0.58     -0.02
   23    5    1      0.40      0.00
  -24    6    1      0.17     -0.02
  -23    6    1     -0.13      0.00
  -22    6    1     -0.38      0.01
  -21    6    1     -0.16      0.01
  -20    6    1      0.49      0.01
  -19    6    1      1.00      0.03
  -18    6    1      0.96      0.04
  -17    6    1      0.59      0.04
  -16    6    1      0.41      0.05
  -15    6    1      0.66      0.06
  -14    6    1      1.29      0.04
  -13    6    1      2.00      0.00
  -12    6    1      2.19     -0.04
  -11    6    1      1.28     -0.04
  -10    6    1     -0.47     -0.01
   -9    6    1     -1.52      0.01
   -8    6    1     -0.23     -0.01
   -7    6    1      2.99     -0.05
   -6    6    1      4.76     -0.08
   -5    6    1      1.42     -0.08
   -4    6    1     -6.57     -0.07
   -3    6    1    -13.78     -0.07
   -2    6    1    -14.53     -0.06
   -1    6    1     -8.27     -0.03
    0    6    1      0.17      0.00
    1    6    1      5.08      0.00
    2    6    1      4.31     -0.01
    3    6    1     -0.26     -0.01
    4    6    1     -5.32      0.00
    5    6    1     -8.72      0.01
    6    6    1     -9.76      0.00
    7    6    1     -8.36      0.00
    8    6    1     -4.89      0.02
    9    6    1     -0.67      0.03
   10    6    1      2.37      0.03
   11    6    1      3.13      0.04
   12    6    1      2.30      0.04
   13    6    1      1.45      0.03
   14    6    1      1.40      0.00
   15    6    1      1.64     -0.03
   16    6    1      1.50     -0.05
   17    6    1      1.06     -0.04
   18    6    1      0.91     -0.01
   19    6    1      1.22      0.00
   20    6    1      1.47     -0.01
   21    6    1      1.21     -0.02
   22    6    1      0.58     -0.01
   23    6    1      0.04      0.01
  -23    7    1     -0.18      0.02
  -22    7    1      0.20      0.01
  -21    7    1      0.65     -0.01
  -20    7    1      0.85     -0.01
  -19    7    1      0.80      0.02
  -18    7    1      0.75      0.03
  -17    7    1      0.98      0.03
  -16    7    1      1.58      0.03
  -15    7    1      2.56      0.05
  -14    7    1      3.82      0.06
  -13    7    1      4.75      0.03
  -12    7    1      4.47      0.01
  -11    7    1      2.95      0.02
  -10    7    1      1.51      0.05
   -9    7    1      1.62      0.06
   -8    7    1      2.95      0.05
   -7    7    1      3.48      0.03
   -6    7    1      1.73      0.02
   -5    7    1     -1.51      0.02
   -4    7    1     -3.73      0.03
   -3    7    1     -2.94      0.03
   -2    7    1      0.53      0.02
   -1    7    1      4.20      0.01
    0    7    1      5.48      0.03
    1    7    1      3.81      0.04
    2    7    1      0.82      0.06
    3    7    1     -1.39      0.07
    4    7    1     -1.86      0.08
    5    7    1     -1.02      0.06
    6    7    1      0.03      0.03
    7    7    1      0.27     -0.01
    8    7    1     -0.60     -0.03
    9    7    1     -2.10     -0.04
   10    7    1     -3.52     -0.01
   11    7    1     -4.35      0.04
   12    7    1     -4.35      0.09
   13    7    1     -3.52      0.09
   14    7    1     -2.25      0.06
   15    7    1     -1.13      0.02
   16    7    1     -0.44      0.02
   17    7    1     -0.08      0.05
   18    7    1      0.08      0.05
   19    7    1      0.05      0.02
   20    7    1     -0.19     -0.01
   21    7    1     -0.41     -0.01
   22    7    1     -0.39      0.00
  -23    8    1     -0.73     -0.02
  -22    8    1     -0.77     -0.01
  -21    8    1     -0.43      0.01
  -20    8    1      0.18      0.02
  -19    8    1      0.59      0.03
  -18    8    1      0.59      0.01
  -17    8    1      0.51     -0.01
  -16    8    1      0.71     -0.01
  -15    8    1      1.13      0.00
  -14    8    1      1.38      0.01
  -13    8    1      1.12     -0.02
  -12    8    1      0.40     -0.05
  -11    8    1     -0.12     -0.05
  -10    8    1      0.31     -0.02
   -9    8    1      1.52      0.02
   -8    8    1      2.49      0.04
   -7    8    1      2.41      0.04
   -6    8    1      1.17      0.04
   -5    8    1     -0.74      0.03
   -4    8    1     -2.25      0.02
   -3    8    1     -2.19     -0.01
   -2    8    1     -0.33     -0.03
   -1    8    1      2.09     -0.01
    0    8    1      3.42      0.03
    1    8    1      2.71      0.05
    2    8    1      0.18      0.04
    3    8    1     -2.81      0.01
    4    8    1     -4.49     -0.02
    5    8    1     -3.95     -0.03
    6    8    1     -1.83     -0.03
    7    8    1      0.62     -0.02
    8    8    1      2.65      0.01
    9    8    1      4.00      0.06
   10    8    1      4.47      0.10
   11    8    1      4.08      0.11
   12    8    1      3.29      0.07
   13    8    1      2.69      0.01
   14    8    1      2.41     -0.02
   15    8    1      2.06     -0.03
   16    8    1      1.35     -0.03
   17    8    1      0.45     -0.03
   18    8    1     -0.08     -0.03
   19    8    1      0.01     -0.02
   20    8    1      0.31     -0.02
   21    8    1      0.26     -0.02
   22    8    1     -0.08     -0.02
  -22    9    1      0.62      0.02
  -21    9    1      0.79      0.02
  -20    9    1      0.49      0.01
  -19    9    1     -0.34      0.00
  -18    9    1     -1.26     -0.01
  -17    9    1     -1.84     -0.01
  -16    9    1     -2.14      0.00
  -15    9    1     -2.26      0.00
  -14    9    1     -2.22     -0.03
  -13    9    1     -2.22     -0.04
  -12    9    1     -2.40     -0.03
  -11    9    1     -2.45      0.01
  -10    9    1     -1.99      0.05
   -9    9    1     -1.23      0.06
   -8    9    1     -0.71      0.04
   -7    9    1     -0.63      0.00
   -6    9    1     -0.79     -0.02
   -5    9    1     -0.71     -0.03
   -4    9    1      0.14     -0.03
   -3    9    1      1.73     -0.04
   -2    9    1      3.21     -0.03
   -1    9    1      3.49     -0.02
    0    9    1      2.17     -0.02
    1    9    1      0.05     -0.03
    2    9    1     -1.34     -0.02
    3    9    1     -0.97      0.00
    4    9    1      0.69      0.01
    5    9    1      2.23      0.00
    6    9    1      2.59     -0.01
    7    9    1      1.67     -0.02
    8    9    1      0.11     -0.01
    9    9    1     -1.23      0.01
   10    9    1     -1.65      0.00
   11    9    1     -1.11     -0.01
   12    9    1     -0.08     -0.02
   13    9    1      0.89     -0.01
   14    9    1      1.51      0.01
   15    9    1      1.61      0.01
   16    9    1      1.16      0.00
   17    9    1      0.50     -0.01
   18    9    1      0.05     -0.01
   19    9    1     -0.20     -0.02
   20    9    1     -0.57     -0.03
   21    9    1     -0.96     -0.02
  -21   10    1     -0.17     -0.01
  -20   10    1     -0.10     -0.01
  -19   10    1     -0.22     -0.02
  -18   10    1     -0.49     -0.04
  -17   10    1     -0.59     -0.05
  -16   10    1     -0.39     -0.05
  -15   10    1     -0.08     -0.03
  -14   10    1     -0.09     -0.02
  -13   10    1     -0.58     -0.01
  -12   10    1     -1.25     -0.01
  -11   10    1     -1.56     -0.02
  -10   10    1     -1.32     -0.02
   -9   10    1     -0.72     -0.03
   -8   10    1      0.00     -0.03
   -7   10    1      0.64     -0.03
   -6   10    1      1.09     -0.01
   -5   10    1      1.27      0.01
   -4   10    1      1.12      0.01
   -3   10    1      0.61      0.01
   -2   10    1     -0.05      0.00
   -1   10    1     -0.51     -0.01
    0   10    1     -0.66      0.00
    1   10    1     -0.60      0.02
    2   10    1     -0.55      0.04
    3   10    1     -0.77      0.02
    4   10    1     -1.31     -0.01
    5   10    1     -1.85     -0.03
    6   10    1     -2.04      0.00
    7   10    1     -1.66      0.03
    8   10    1     -0.75      0.03
    9   10    1      0.30      0.00
   10   10    1      0.90     -0.03
   11   10    1      0.80     -0.03
   12   10    1      0.32     -0.02
   13   10    1     -0.20      0.00
   14   10    1     -0.64      0.01
   15   10    1     -0.96      0.00
   16   10    1     -1.07     -0.01
   17   10    1     -0.87     -0.02
   18   10    1     -0.36     -0.01
   19   10    1      0.28      0.00
   20   10    1      0.68      0.01
   21   10    1      0.74      0.02
  -21   11    1      0.27     -0.01
  -20   11    1      0.06     -0.01
  -19   11    1     -0.32     -0.02
  -18   11    1     -0.48     -0.02
  -17   11    1     -0.32     -0.01
  -16   11    1     -0.16      0.01
  -15   11    1     -0.35      0.03
  -14   11    1     -0.90      0.03
  -13   11    1     -1.56      0.01
  -12   11    1     -1.88     -0.01
  -11   11    1     -1.53      0.00
  -10   11    1     -0.56      0.01
   -9   11    1      0.66      0.02
   -8   11    1      1.73      0.01
   -7   11    1      2.43      0.00
   -6   11    1      2.60     -0.01
   -5   11    1      2.02      0.00
   -4   11    1      0.89      0.00
   -3   11    1     -0.06      0.00
   -2   11    1     -0.27     -0.01
   -1   11    1      0.05     -0.01
    0   11    1      0.26      0.00
    1   11    1      0.04      0.02
    2   11    1     -0.47      0.03
    3   11    1     -0.86      0.02
    4   11    1     -0.88      0.00
    5   11    1     -0.60      0.00
    6   11    1     -0.30      0.00
    7   11    1     -0.17      0.00
    8   11    1     -0.31     -0.02
    9   11    1     -0.60     -0.04
   10   11    1     -0.60     -0.06
   11   11    1     -0.10     -0.05
   12   11    1      0.47     -0.01
   13   11    1      0.65      0.02
   14   11    1      0.69      0.02
   15   11    1      0.93      0.00
   16   11    1      1.15     -0.02
   17   11    1      1.05     -0.02
   18   11    1      0.73      0.00
   19   11    1      0.31      0.00
   20   11    1     -0.20     -0.02
  -20   12    1      0.75      0.02
  -19   12    1      1.14     -0.01
  -18   12    1      1.27     -0.04
  -17   12    1      1.23     -0.05
  -16   12    1      1.14     -0.02
  -15   12    1      0.96      0.02
  -14   12    1      0.62      0.02
  -13   12    1      0.35      0.00
  -12   12    1      0.42     -0.03
  -11   12    1      0.74     -0.05
  -10   12    1      1.02     -0.04
   -9   12    1      1.09     -0.03
   -8   12    1      0.90     -0.03
   -7   12    1      0.37     -0.03
   -6   12    1     -0.49     -0.03
   -5   12    1     -1.34     -0.02
   -4   12    1     -1.70     -0.02
   -3   12    1     -1.43     -0.02
   -2   12    1     -0.79     -0.02
   -1   12    1     -0.27     -0.01
    0   12    1     -0.33     -0.01
    1   12    1     -1.03     -0.01
    2   12    1     -1.71      0.01
    3   12    1     -1.62      0.01
    4   12    1     -0.87      0.01
    5   12    1     -0.28      0.02
    6   12    1     -0.14      0.05
    7   12    1     -0.01      0.06
    8   12    1      0.32      0.03
    9   12    1      0.61      0.00
   10   12    1      0.63      0.01
   11   12    1      0.38      0.05
   12   12    1      0.00      0.07
   13   12    1     -0.19      0.03
   14   12    1      0.00     -0.02
   15   12    1      0.38     -0.03
   16   12    1      0.64      0.00
   17   12    1      0.75      0.02
   18   12    1      0.77      0.02
   19   12    1      0.70      0.01
  -19   13    1     -0.57     -0.03
  -18   13    1     -0.86     -0.04
  -17   13    1     -0.56     -0.03
  -16   13    1      0.12     -0.01
  -15   13    1      0.61     -0.01
  -14   13    1      0.61     -0.03
  -13   13    1      0.21     -0.05
  -12   13    1     -0.28     -0.03
  -11   13    1     -0.63      0.00
  -10   13    1     -0.82      0.02
   -9   13    1     -0.91      0.02
   -8   13    1     -0.84      0.00
   -7   13    1     -0.47     -0.01
   -6   13    1      0.12      0.00
   -5   13    1      0.67      0.01
   -4   13    1      0.95      0.03
   -3   13    1      0.99      0.03
   -2   13    1      0.84      0.02
   -1   13    1      0.39      0.01
    0   13    1     -0.33      0.00
    1   13    1     -0.75      0.00
    2   13    1     -0.25      0.00
    3   13    1      0.87     -0.01
    4   13    1      1.64     -0.03
    5   13    1      1.56     -0.04
    6   13    1      0.99     -0.02
    7   13    1      0.39      0.01
    8   13    1     -0.10      0.03
    9   13    1     -0.42      0.04
   10   13    1     -0.40      0.03
   11   13    1     -0.16      0.00
   12   13    1     -0.04     -0.01
   13   13    1     -0.16     -0.01
   14   13    1     -0.24      0.00
   15   13    1     -0.05      0.01
   16   13    1      0.29      0.01
   17   13    1      0.42      0.01
   18   13    1      0.18      0.00
  -18   14    1      1.16      0.00
  -17   14    1      1.83     -0.02
  -16   14    1      1.90     -0.03
  -15   14    1      1.17     -0.02
  -14   14    1      0.03      0.00
  -13   14    1     -0.83      0.00
  -12   14    1     -1.09     -0.01
  -11   14    1     -1.07     -0.01
  -10   14    1     -1.03      0.00
   -9   14    1     -0.71      0.02
   -8   14    1      0.07      0.02
   -7   14    1      0.88      0.01
   -6   14    1      1.22      0.00
   -5   14    1      1.13      0.01
   -4   14    1      0.95      0.02
   -3   14    1      0.69      0.03
   -2   14    1      0.27      0.02
   -1   14    1     -0.18      0.00
    0   14    1     -0.39     -0.02
    1   14    1     -0.21     -0.04
    2   14    1      0.37     -0.03
    3   14    1      1.03     -0.02
    4   14    1      1.06      0.00
    5   14    1      0.18      0.06
    6   14    1     -0.98      0.13
    7   14    1     -1.46      0.15
    8   14    1     -1.08      0.09
    9   14    1     -0.51      0.01
   10   14    1     -0.31     -0.02
   11   14    1     -0.48      0.02
   12   14    1     -0.71      0.03
   13   14    1     -0.68      0.00
   14   14    1     -0.25     -0.02
   15   14    1      0.41     -0.01
   16   14    1      0.84      0.02
   17   14    1      0.77      0.03
  -16   15    1     -0.30     -0.05
  -15   15    1     -0.48     -0.02
  -14   15    1     -0.55     -0.02
  -13   15    1     -0.68     -0.04
  -12   15    1     -1.00     -0.02
  -11   15    1     -1.34      0.01
  -10   15    1     -1.29      0.01
   -9   15    1     -0.72     -0.01
   -8   15    1     -0.05     -0.03
   -7   15    1      0.31     -0.02
   -6   15    1      0.37      0.00
   -5   15    1      0.31      0.02
   -4   15    1      0.05      0.01
   -3   15    1     -0.38     -0.01
   -2   15    1     -0.66     -0.01
   -1   15    1     -0.52      0.00
    0   15    1      0.01     -0.02
    1   15    1      0.79     -0.04
    2   15    1      1.58     -0.05
    3   15    1      1.86     -0.02
    4   15    1      1.26      0.02
    5   15    1      0.29      0.04
    6   15    1     -0.08      0.03
    7   15    1      0.36     -0.01
    8   15    1      0.98     -0.04
    9   15    1      1.18     -0.04
   10   15    1      0.87     -0.02
   11   15    1      0.26     -0.02
   12   15    1     -0.29     -0.01
   13   15    1     -0.52      0.00
   14   15    1     -0.42      0.01
   15   15    1     -0.22      0.02
   16   15    1     -0.09      0.02
  -15   16    1      0.54      0.01
  -14   16    1      0.14      0.01
  -13   16    1     -0.18      0.01
  -12   16    1     -0.25      0.00
  -11   16    1     -0.11      0.00
  -10   16    1      0.15     -0.01
   -9   16    1      0.53      0.01
   -8   16    1      0.81      0.03
   -7   16    1      0.72      0.03
   -6   16    1      0.31      0.02
   -5   16    1     -0.05      0.02
   -4   16    1     -0.04      0.04
   -3   16    1      0.23      0.05
   -2   16    1      0.50      0.04
   -1   16    1      0.55      0.00
    0   16    1      0.32     -0.02
    1   16    1     -0.05     -0.01
    2   16    1     -0.44      0.02
    3   16    1     -0.80      0.04
    4   16    1     -1.09      0.05
    5   16    1     -1.14      0.05
    6   16    1     -0.75      0.06
    7   16    1     -0.04      0.05
    8   16    1      0.55      0.03
    9   16    1      0.50      0.00
   10   16    1     -0.17      0.02
   11   16    1     -0.79      0.06
   12   16    1     -0.80      0.06
   13   16    1     -0.29      0.02
   14   16    1      0.28     -0.02
  -13   17    1      0.06     -0.06
  -12   17    1     -0.18     -0.05
  -11   17    1     -0.35     -0.01
  -10   17    1     -0.24      0.01
   -9   17    1      0.05      0.01
   -8   17    1      0.21      0.00
   -7   17    1      0.19      0.01
   -6   17    1      0.35      0.03
   -5   17    1      0.80      0.04
   -4   17    1      1.02      0.01
   -3   17    1      0.61     -0.02
   -2   17    1     -0.18     -0.03
   -1   17    1     -0.80     -0.01
    0   17    1     -0.86      0.01
    1   17    1     -0.31      0.01
    2   17    1      0.54     -0.01
    3   17    1      1.19     -0.01
    4   17    1      1.34      0.00
    5   17    1      1.19      0.00
    6   17    1      1.07      0.00
    7   17    1      0.99      0.00
    8   17    1      0.62      0.01
    9   17    1     -0.16      0.05
   10   17    1     -0.99      0.07
   11   17    1     -1.33      0.06
   12   17    1     -1.03      0.01
  -11   18    1     -0.01      0.02
  -10   18    1      0.11     -0.01
   -9   18    1      0.49     -0.02
   -8   18    1      0.94     -0.01
   -7   18    1      1.28      0.00
   -6   18    1      1.43      0.00
   -5   18    1      1.22     -0.01
   -4   18    1      0.65     -0.01
   -3   18    1      0.05      0.00
   -2   18    1     -0.25      0.00
   -1   18    1     -0.22      0.00
    0   18    1      0.04     -0.01
    1   18    1      0.36     -0.01
    2   18    1      0.52      0.01
    3   18    1      0.41      0.02
    4   18    1      0.22      0.02
    5   18    1      0.14      0.03
    6   18    1      0.18      0.04
    7   18    1      0.23      0.04
    8   18    1      0.18      0.02
    9   18    1      0.00      0.00
   10   18    1     -0.11     -0.01
   -8   19    1      1.09      0.00
   -7   19    1      1.09      0.00
   -6   19    1      0.82      0.00
   -5   19    1      0.43     -0.01
   -4   19    1      0.09     -0.01
   -3   19    1     -0.08      0.00
   -2   19    1     -0.15      0.00
   -1   19    1     -0.14      0.01
    0   19    1      0.06      0.00
    1   19    1      0.48     -0.01
    2   19    1      0.99     -0.01
    3   19    1      1.31     -0.01
    4   19    1      1.19     -0.01
    5   19    1      0.71     -0.01
    6   19    1      0.33     -0.01
    7   19    1      0.30      0.00
   -3   20    1      1.21      0.03
   -2   20    1      0.98      0.02
   -1   20    1      0.71      0.01
    0   20    1      0.70      0.00
    1   20    1      0.93      0.01
    2   20    1      1.01      0.00
  -25    0    2     -0.07      0.00
  -24    0    2     -0.23      0.00
  -23    0    2     -0.24      0.02
  -22    0    2     -0.14      0.05
  -21    0    2     -0.01      0.05
  -20    0    2     -0.05      0.03
  -19    0    2     -0.40      0.03
  -18    0    2     -0.62      0.07
  -17    0    2      0.10      0.12
  -16    0    2      1.82      0.12
  -15    0    2      3.43      0.06
  -14    0    2      3.69     -0.02
  -13    0    2      2.40     -0.05
  -12    0    2      0.48     -0.02
  -11    0    2     -0.78      0.02
  -10    0    2     -0.96      0.01
   -9    0    2     -0.88     -0.01
   -8    0    2     -0.95      0.02
   -7    0    2     -0.40      0.09
   -6    0    2      0.17      0.12
   -5    0    2     -3.00      0.08
   -4    0    2    -13.48      0.01
   -3    0    2    -29.55     -0.04
   -2    0    2    -44.43     -0.07
    0    0    2    -48.07     -0.11
    1    0    2    -37.17     -0.14
    2    0    2    -24.20     -0.26
    3    0    2    -13.56     -0.43
    4    0    2     -5.31     -0.45
    5    0    2      3.21     -0.16
    6    0    2     12.17      0.27
    7    0    2     17.40      0.55
    8    0    2     15.40      0.53
    9    0    2      8.33      0.35
   10    0    2      1.82      0.21
   11    0    2     -0.65      0.17
   12    0    2      0.27      0.15
   13    0    2      2.09      0.10
   14    0    2      2.89      0.02
   15    0    2      2.28     -0.03
   16    0    2      1.19     -0.03
   17    0    2      0.55      0.00
   18    0    2      0.35      0.00
   19    0    2      0.08     -0.03
   20    0    2     -0.39     -0.05
   21    0    2     -0.78     -0.03
   22    0    2     -0.79      0.00
   23    0    2     -0.45      0.01
  -25    1    2     -0.09     -0.01
  -24    1    2      0.05      0.00
  -23    1    2     -0.01      0.01
  -22    1    2     -0.36      0.00
  -21    1    2     -0.61     -0.02
  -20    1    2     -0.46     -0.03
  -19    1    2      0.00      0.00
  -18    1    2      0.67      0.03
  -17    1    2      1.36      0.02
  -16    1    2      1.65     -0.05
  -15    1    2      1.27     -0.11
  -14    1    2      0.48     -0.09
  -13    1    2     -0.26      0.03
  -12    1    2     -0.73      0.13
  -11    1    2     -1.19      0.15
  -10    1    2     -2.05      0.08
   -9    1    2     -3.13      0.02
   -8    1    2     -3.31      0.01
   -7    1    2     -2.03      0.04
   -6    1    2     -0.50      0.03
   -5    1    2      0.01     -0.01
   -4    1    2      1.33     -0.04
   -3    1    2      7.99     -0.05
   -2    1    2     22.16     -0.02
   -1    1    2     39.00     -0.01
    0    1    2     48.55     -0.02
    1    1    2     43.66     -0.07
    2    1    2     26.56     -0.10
    3    1    2      7.03     -0.07
    4    1    2     -5.78      0.05
    5    1    2     -9.83      0.16
    6    1    2     -9.22      0.17
    7    1    2     -8.54      0.07
    8    1    2     -8.89     -0.07
    9    1    2     -8.80     -0.13
   10    1    2     -7.16     -0.08
   11    1    2     -4.45      0.00
   12    1    2     -1.97      0.04
   13    1    2     -0.73      0.03
   14    1    2     -0.73      0.02
   15    1    2     -1.16      0.02
   16    1    2     -1.34      0.03
   17    1    2     -1.32      0.03
   18    1    2     -1.38      0.03
   19    1    2     -1.46      0.01
   20    1    2     -1.37     -0.01
   21    1    2     -1.04      0.00
   22    1    2     -0.48      0.01
   23    1    2      0.01      0.02
  -25    2    2      0.21     -0.01
  -24    2    2     -0.11     -0.01
  -23    2    2     -0.39     -0.01
  -22    2    2     -0.21     -0.01
  -21    2    2      0.33     -0.01
  -20    2    2      0.53     -0.02
  -19    2    2     -0.02     -0.01
  -18    2    2     -0.76      0.00
  -17    2    2     -0.90     -0.03
  -16    2    2     -0.34     -0.07
  -15    2    2      0.23     -0.07
  -14    2    2     -0.07      0.00
  -13    2    2     -1.54      0.09
  -12    2    2     -3.59      0.12
  -11    2    2     -4.84      0.07
  -10    2    2     -3.86      0.01
   -9    2    2      0.14      0.02
   -8    2    2      6.92      0.10
   -7    2    2     15.28      0.15
   -6    2    2     23.69      0.12
   -5    2    2     31.42      0.06
   -4    2    2     38.76      0.04
   -3    2    2     44.73      0.04
   -2    2    2     44.23      0.03
   -1    2    2     30.55     -0.02
    0    2    2      3.37     -0.06
    1    2    2    -26.94     -0.08
    2    2    2    -45.98     -0.13
    3    2    2    -46.41     -0.23
    4    2    2    -31.96     -0.30
    5    2    2    -12.55     -0.24
    6    2    2      2.45     -0.07
    7    2    2      8.36      0.05
    8    2    2      6.46      0.07
    9    2    2      1.91      0.07
   10    2    2     -0.61      0.08
   11    2    2      0.01      0.08
   12    2    2      1.84      0.05
   13    2    2      2.74      0.02
   14    2    2      2.11     -0.01
   15    2    2      0.71     -0.02
   16    2    2     -0.42     -0.03
   17    2    2     -0.77     -0.03
   18    2    2     -0.59     -0.03
   19    2    2     -0.38     -0.03
   20    2    2     -0.26     -0.02
   21    2    2     -0.02      0.00
   22    2    2      0.30      0.01
   23    2    2      0.30      0.00
  -25    3    2      0.11     -0.01
  -24    3    2      0.27     -0.01
  -23    3    2      0.27     -0.01
  -22    3    2     -0.26     -0.01
  -21    3    2     -1.14      0.00
  -20    3    2     -1.88      0.01
  -19    3    2     -1.98      0.02
  -18    3    2     -1.26      0.02
  -17    3    2     -0.12      0.02
  -16    3    2      0.47      0.03
  -15    3    2     -0.09      0.05
  -14    3    2     -1.35      0.07
  -13    3    2     -2.05      0.09
  -12    3    2     -1.03      0.09
  -11    3    2      2.09      0.07
  -10    3    2      6.72      0.04
   -9    3    2     11.84      0.03
   -8    3    2     17.14      0.03
   -7    3    2     22.84      0.03
   -6    3    2     28.20      0.02
   -5    3    2     30.94      0.00
   -4    3    2     28.82     -0.03
   -3    3    2     21.33     -0.03
   -2    3    2      9.48      0.00
   -1    3    2     -4.77      0.03
    0    3    2    -18.35      0.00
    1    3    2    -27.17     -0.09
    2    3    2    -27.92     -0.19
    3    3    2    -20.55     -0.21
    4    3    2     -9.35     -0.11
    5    3    2     -0.71      0.02
    6    3    2      1.54      0.07
    7    3    2     -0.86      0.00
    8    3    2     -3.00     -0.07
    9    3    2     -1.77     -0.05
   10    3    2      1.93      0.03
   11    3    2      5.18      0.10
   12    3    2      5.85      0.13
   13    3    2      3.91      0.11
   14    3    2      1.21      0.08
   15    3    2     -0.31      0.06
   16    3    2     -0.26      0.04
   17    3    2      0.31      0.04
   18    3    2      0.52      0.03
   19    3    2      0.45      0.02
   20    3    2      0.45      0.00
   21    3    2      0.50     -0.01
   22    3    2      0.40     -0.01
   23    3    2      0.16      0.00
  -24    4    2     -0.12      0.00
  -23    4    2     -0.61     -0.02
  -22    4    2     -0.73     -0.03
  -21    4    2     -0.37     -0.03
  -20    4    2     -0.06     -0.02
  -19    4    2     -0.11     -0.01
  -18    4    2     -0.32     -0.01
  -17    4    2     -0.51     -0.03
  -16    4    2     -0.70     -0.10
  -15    4    2     -0.87     -0.18
  -14    4    2     -0.83     -0.19
  -13    4    2     -0.56     -0.11
  -12    4    2     -0.26     -0.02
  -11    4    2     -0.06      0.01
  -10    4    2      0.44      0.00
   -9    4    2      2.09     -0.01
   -8    4    2      4.87      0.01
   -7    4    2      6.61      0.04
   -6    4    2      4.29      0.04
   -5    4    2     -1.81      0.03
   -4    4    2     -6.73      0.04
   -3    4    2     -5.51      0.08
   -2    4    2      0.68      0.10
   -1    4    2      5.35      0.05
    0    4    2      4.13     -0.01
    1    4    2     -0.01     -0.03
    2    4    2     -0.56     -0.02
    3    4    2      4.58     -0.02
    4    4    2     11.00     -0.04
    5    4    2     13.19     -0.07
    6    4    2     10.25     -0.06
    7    4    2      5.60     -0.02
    8    4    2      2.45      0.03
    9    4    2      1.25      0.06
   10    4    2      0.61      0.04
   11    4    2     -0.55     -0.04
   12    4    2     -2.07     -0.14
   13    4    2     -3.06     -0.16
   14    4    2     -2.94     -0.11
   15    4    2     -2.03     -0.05
   16    4    2     -1.00     -0.02
   17    4    2     -0.17     -0.01
   18    4    2      0.41     -0.01
   19    4    2      0.56     -0.02
   20    4    2      0.26     -0.02
   21    4    2     -0.10     -0.01
   22    4    2     -0.22      0.01
   23    4    2     -0.24      0.00
  -24    5    2     -0.37     -0.02
  -23    5    2     -0.27     -0.03
  -22    5    2     -0.39     -0.03
  -21    5    2     -0.88      0.00
  -20    5    2     -1.47      0.01
  -19    5    2     -1.69     -0.02
  -18    5    2     -1.38     -0.07
  -17    5    2     -0.96     -0.11
  -16    5    2     -1.00     -0.14
  -15    5    2     -1.75     -0.13
  -14    5    2     -3.17     -0.06
  -13    5    2     -5.10      0.01
  -12    5    2     -7.17      0.05
  -11    5    2     -8.60      0.04
  -10    5    2     -8.75      0.02
   -9    5    2     -8.34      0.01
   -8    5    2     -9.12      0.01
   -7    5    2    -11.37      0.03
   -6    5    2    -11.99      0.05
   -5    5    2     -6.50      0.06
   -4    5    2      5.94      0.06
   -3    5    2     19.81      0.06
   -2    5    2     26.68      0.05
   -1    5    2     22.34      0.04
    0    5    2     10.66      0.03
    1    5    2      0.01      0.02
    2    5    2     -4.13     -0.01
    3    5    2     -2.66     -0.04
    4    5    2      0.06     -0.04
    5    5    2      1.26      0.00
    6    5    2      1.60      0.04
    7    5    2      2.87      0.03
    8    5    2      5.08     -0.03
    9    5    2      6.57     -0.08
   10    5    2      6.28     -0.10
   11    5    2      4.91     -0.08
   12    5    2      3.57     -0.05
   13    5    2      2.66      0.00
   14    5    2      2.10      0.05
   15    5    2      1.93      0.08
   16    5    2      2.09      0.08
   17    5    2      2.09      0.05
   18    5    2      1.47      0.00
   19    5    2      0.44     -0.02
   20    5    2     -0.30      0.00
   21    5    2     -0.44      0.01
   22    5    2     -0.26      0.01
   23    5    2     -0.14      0.00
  -24    6    2      0.51      0.01
  -23    6    2      0.29     -0.02
  -22    6    2      0.26     -0.02
  -21    6    2      0.38     -0.01
  -20    6    2      0.36      0.00
  -19    6    2      0.11     -0.02
  -18    6    2     -0.21     -0.03
  -17    6    2     -0.50     -0.03
  -16    6    2     -0.98     -0.03
  -15    6    2     -2.02     -0.02
  -14    6    2     -3.71      0.01
  -13    6    2     -5.56      0.04
  -12    6    2     -6.71      0.06
  -11    6    2     -6.63      0.03
  -10    6    2     -5.67      0.00
   -9    6    2     -4.46     -0.02
   -8    6    2     -2.94     -0.01
   -7    6    2     -0.38      0.01
   -6    6    2      3.52      0.02
   -5    6    2      8.13      0.01
   -4    6    2     11.89     -0.02
   -3    6    2     12.62     -0.03
   -2    6    2      8.62     -0.01
   -1    6    2      0.70      0.01
    0    6    2     -7.58      0.01
    1    6    2    -12.39      0.01
    2    6    2    -12.31     -0.01
    3    6    2     -8.96     -0.02
    4    6    2     -5.30     -0.02
    5    6    2     -3.27     -0.01
    6    6    2     -2.62     -0.02
    7    6    2     -2.36     -0.04
    8    6    2     -2.37     -0.04
    9    6    2     -2.97     -0.03
   10    6    2     -3.73     -0.02
   11    6    2     -3.79     -0.05
   12    6    2     -2.95     -0.07
   13    6    2     -1.67     -0.04
   14    6    2     -0.54      0.01
   15    6    2      0.18      0.04
   16    6    2      0.47      0.03
   17    6    2      0.45     -0.02
   18    6    2      0.22     -0.03
   19    6    2     -0.06     -0.01
   20    6    2     -0.16      0.01
   21    6    2     -0.04      0.00
   22    6    2      0.10     -0.02
  -23    7    2     -0.08     -0.02
  -22    7    2      0.34     -0.01
  -21    7    2      0.15      0.01
  -20    7    2     -0.32      0.01
  -19    7    2     -0.32      0.00
  -18    7    2      0.41     -0.01
  -17    7    2      1.26     -0.02
  -16    7    2      1.50     -0.03
  -15    7    2      1.14     -0.03
  -14    7    2      0.85     -0.02
  -13    7    2      1.11      0.01
  -12    7    2      1.89      0.01
  -11    7    2      2.89      0.00
  -10    7    2      3.76     -0.03
   -9    7    2      4.08     -0.04
   -8    7    2      3.27     -0.04
   -7    7    2      1.45      0.00
   -6    7    2      0.25      0.02
   -5    7    2      1.70      0.02
   -4    7    2      5.22      0.01
   -3    7    2      6.99      0.01
   -2    7    2      3.75      0.02
   -1    7    2     -3.44      0.04
    0    7    2     -9.90      0.04
    1    7    2    -11.34      0.03
    2    7    2     -7.17      0.03
    3    7    2     -0.56      0.03
    4    7    2      4.56      0.04
    5    7    2      6.75      0.04
    6    7    2      6.93      0.03
    7    7    2      6.14      0.01
    8    7    2      4.57     -0.01
    9    7    2      2.59     -0.03
   10    7    2      1.10     -0.05
   11    7    2      0.63     -0.06
   12    7    2      0.82     -0.05
   13    7    2      0.91     -0.02
   14    7    2      0.56      0.02
   15    7    2      0.07      0.04
   16    7    2     -0.15      0.03
   17    7    2     -0.24      0.01
   18    7    2     -0.56      0.00
   19    7    2     -0.97      0.00
   20    7    2     -1.02      0.01
   21    7    2     -0.63      0.00
   22    7    2     -0.22      0.00
  -23    8    2      0.97     -0.04
  -22    8    2      0.46     -0.04
  -21    8    2     -0.13     -0.03
  -20    8    2     -0.21     -0.02
  -19    8    2      0.36     -0.03
  -18    8    2      1.21     -0.04
  -17    8    2      2.00     -0.04
  -16    8    2      2.64     -0.04
  -15    8    2      3.09     -0.03
  -14    8    2      3.17     -0.01
  -13    8    2      2.91      0.00
  -12    8    2      2.71     -0.01
  -11    8    2      2.75     -0.04
  -10    8    2      2.65     -0.05
   -9    8    2      2.02     -0.03
   -8    8    2      1.09      0.01
   -7    8    2      0.63      0.03
   -6    8    2      1.20      0.01
   -5    8    2      2.14     -0.04
   -4    8    2      1.62     -0.06
   -3    8    2     -1.47     -0.06
   -2    8    2     -5.69     -0.04
   -1    8    2     -7.79     -0.04
    0    8    2     -5.68     -0.05
    1    8    2     -0.52     -0.04
    2    8    2      4.23     -0.04
    3    8    2      5.76     -0.03
    4    8    2      4.05     -0.03
    5    8    2      1.17     -0.02
    6    8    2     -0.93     -0.02
    7    8    2     -1.53     -0.01
    8    8    2     -0.86      0.00
    9    8    2      0.40      0.01
   10    8    2      1.56      0.02
   11    8    2      2.28      0.02
   12    8    2      2.45      0.03
   13    8    2      1.95      0.04
   14    8    2      0.97      0.04
   15    8    2      0.10      0.04
   16    8    2     -0.35      0.02
   17    8    2     -0.55     -0.01
   18    8    2     -0.66     -0.01
   19    8    2     -0.54      0.01
   20    8    2     -0.18      0.02
   21    8    2      0.12      0.01
  -22    9    2     -0.21     -0.01
  -21    9    2     -0.14     -0.01
  -20    9    2      0.11     -0.02
  -19    9    2      0.74     -0.01
  -18    9    2      1.58      0.01
  -17    9    2      2.15      0.01
  -16    9    2      2.11      0.00
  -15    9    2      1.50      0.00
  -14    9    2      0.71      0.00
  -13    9    2      0.37      0.01
  -12    9    2      0.66      0.01
  -11    9    2      1.02      0.01
  -10    9    2      0.78      0.01
   -9    9    2     -0.18      0.00
   -8    9    2     -1.57     -0.01
   -7    9    2     -2.94     -0.02
   -6    9    2     -3.65     -0.01
   -5    9    2     -3.30      0.01
   -4    9    2     -2.18      0.03
   -3    9    2     -0.95      0.03
   -2    9    2      0.13      0.03
   -1    9    2      1.10      0.03
    0    9    2      1.82      0.04
    1    9    2      1.81      0.03
    2    9    2      0.89      0.02
    3    9    2     -0.40      0.01
    4    9    2     -1.25      0.03
    5    9    2     -1.23      0.05
    6    9    2     -0.69      0.05
    7    9    2     -0.47      0.03
    8    9    2     -1.08      0.02
    9    9    2     -2.22      0.01
   10    9    2     -3.02      0.01
   11    9    2     -3.03      0.01
   12    9    2     -2.55      0.01
   13    9    2     -2.00      0.02
   14    9    2     -1.46      0.02
   15    9    2     -0.89      0.02
   16    9    2     -0.31      0.02
   17    9    2      0.14      0.00
   18    9    2      0.33      0.00
   19    9    2      0.24      0.01
   20    9    2      0.17      0.01
   21    9    2      0.32      0.00
  -22   10    2     -0.11     -0.02
  -21   10    2     -0.46     -0.03
  -20   10    2     -0.40     -0.02
  -19   10    2     -0.10      0.01
  -18   10    2     -0.05      0.02
  -17   10    2     -0.31      0.00
  -16   10    2     -0.66     -0.04
  -15   10    2     -0.94     -0.06
  -14   10    2     -0.97     -0.05
  -13   10    2     -0.51     -0.03
  -12   10    2      0.15     -0.02
  -11   10    2      0.32     -0.01
  -10   10    2     -0.21     -0.02
   -9   10    2     -0.88     -0.02
   -8   10    2     -0.98     -0.01
   -7   10    2     -0.26      0.02
   -6   10    2      0.99      0.04
   -5   10    2      2.15      0.05
   -4   10    2      2.67      0.03
   -3   10    2      2.46      0.02
   -2   10    2      1.85      0.01
   -1   10    2      1.28      0.00
    0   10    2      0.98     -0.01
    1   10    2      0.85     -0.02
    2   10    2      0.61     -0.03
    3   10    2      0.09     -0.03
    4   10    2     -0.56     -0.01
    5   10    2     -1.07      0.01
    6   10    2     -1.28      0.01
    7   10    2     -1.10      0.00
    8   10    2     -0.38      0.00
    9   10    2      0.78      0.01
   10   10    2      1.84      0.04
   11   10    2      2.35      0.06
   12   10    2      2.25      0.06
   13   10    2      1.62      0.03
   14   10    2      0.54      0.01
   15   10    2     -0.51      0.01
   16   10    2     -0.98      0.00
   17   10    2     -0.90      0.00
   18   10    2     -0.66      0.00
   19   10    2     -0.34      0.01
   20   10    2      0.12      0.01
  -21   11    2      0.32     -0.02
  -20   11    2      0.11     -0.02
  -19   11    2     -0.20      0.00
  -18   11    2     -0.35      0.01
  -17   11    2     -0.31      0.01
  -16   11    2     -0.26      0.01
  -15   11    2     -0.37      0.03
  -14   11    2     -0.59      0.04
  -13   11    2     -0.77      0.05
  -12   11    2     -0.92      0.03
  -11   11    2     -1.12      0.01
  -10   11    2     -1.30      0.00
   -9   11    2     -1.28      0.01
   -8   11    2     -0.93      0.02
   -7   11    2     -0.38      0.03
   -6   11    2      0.01      0.02
   -5   11    2      0.05      0.01
   -4   11    2     -0.11      0.01
   -3   11    2     -0.27      0.01
   -2   11    2     -0.55      0.02
   -1   11    2     -1.08      0.03
    0   11    2     -1.57      0.03
    1   11    2     -1.59      0.02
    2   11    2     -1.16      0.01
    3   11    2     -0.61      0.03
    4   11    2     -0.15      0.05
    5   11    2      0.23      0.04
    6   11    2      0.49      0.00
    7   11    2      0.56      0.00
    8   11    2      0.41      0.02
    9   11    2      0.13      0.05
   10   11    2     -0.10      0.04
   11   11    2     -0.09      0.01
   12   11    2      0.10     -0.02
   13   11    2      0.28     -0.03
   14   11    2      0.38     -0.04
   15   11    2      0.59     -0.03
   16   11    2      0.92     -0.02
   17   11    2      1.10     -0.01
   18   11    2      0.93     -0.01
   19   11    2      0.53     -0.01
  -20   12    2     -0.86      0.00
  -19   12    2     -0.43      0.04
  -18   12    2      0.25      0.07
  -17   12    2      0.66      0.04
  -16   12    2      0.47      0.00
  -15   12    2     -0.15     -0.02
  -14   12    2     -0.55     -0.02
  -13   12    2     -0.27     -0.01
  -12   12    2      0.38     -0.01
  -11   12    2      0.67     -0.01
  -10   12    2      0.42      0.00
   -9   12    2      0.02      0.00
   -8   12    2     -0.27      0.00
   -7   12    2     -0.59      0.00
   -6   12    2     -1.10      0.01
   -5   12    2     -1.57      0.03
   -4   12    2     -1.74      0.04
   -3   12    2     -1.63      0.03
   -2   12    2     -1.44      0.02
   -1   12    2     -1.04      0.02
    0   12    2     -0.15      0.01
    1   12    2      0.97      0.01
    2   12    2      1.58      0.01
    3   12    2      1.24      0.02
    4   12    2      0.27      0.02
    5   12    2     -0.64      0.01
    6   12    2     -1.06      0.00
    7   12    2     -0.96     -0.02
    8   12    2     -0.53     -0.03
    9   12    2     -0.08     -0.01
   10   12    2      0.11      0.02
   11   12    2     -0.05      0.03
   12   12    2     -0.42      0.02
   13   12    2     -0.80     -0.01
   14   12    2     -1.12     -0.02
   15   12    2     -1.29     -0.01
   16   12    2     -1.22      0.01
   17   12    2     -0.97      0.02
   18   12    2     -0.68      0.01
   19   12    2     -0.30      0.01
  -19   13    2      0.86     -0.01
  -18   13    2      0.81     -0.01
  -17   13    2      0.41      0.00
  -16   13    2      0.00      0.01
  -15   13    2      0.04      0.00
  -14   13    2      0.51     -0.02
  -13   13    2      0.79     -0.03
  -12   13    2      0.50     -0.02
  -11   13    2     -0.02     -0.01
  -10   13    2     -0.36     -0.01
   -9   13    2     -0.52     -0.01
   -8   13    2     -0.53     -0.01
   -7   13    2     -0.26     -0.01
   -6   13    2      0.19      0.00
   -5   13    2      0.50      0.00
   -4   13    2      0.66      0.01
   -3   13    2      0.89      0.02
   -2   13    2      1.19      0.02
   -1   13    2      1.41      0.01
    0   13    2      1.47      0.00
    1   13    2      1.25     -0.01
    2   13    2      0.59     -0.01
    3   13    2     -0.42      0.01
    4   13    2     -1.19      0.00
    5   13    2     -1.22     -0.07
    6   13    2     -0.68     -0.12
    7   13    2     -0.09     -0.09
    8   13    2      0.23      0.03
    9   13    2      0.27      0.13
   10   13    2      0.10      0.12
   11   13    2      0.04      0.06
   12   13    2      0.41      0.01
   13   13    2      1.11      0.01
   14   13    2      1.65      0.02
   15   13    2      1.85      0.02
   16   13    2      1.84      0.03
   17   13    2      1.66      0.02
   18   13    2      1.30      0.01
  -18   14    2      1.05      0.06
  -17   14    2      1.39      0.02
  -16   14    2      1.46     -0.05
  -15   14    2      1.20     -0.09
  -14   14    2      0.70     -0.06
  -13   14    2      0.15     -0.01
  -12   14    2     -0.15      0.01
  -11   14    2     -0.08      0.00
  -10   14    2      0.14     -0.02
   -9   14    2      0.29     -0.03
   -8   14    2      0.28     -0.03
   -7   14    2      0.08     -0.02
   -6   14    2     -0.12     -0.01
   -5   14    2      0.07      0.00
   -4   14    2      0.68      0.01
   -3   14    2      1.19      0.01
   -2   14    2      1.16      0.01
   -1   14    2      0.78      0.01
    0   14    2      0.38      0.03
    1   14    2     -0.09      0.05
    2   14    2     -0.75      0.07
    3   14    2     -1.24      0.06
    4   14    2     -1.11      0.03
    5   14    2     -0.41      0.01
    6   14    2      0.26      0.01
    7   14    2      0.51      0.02
    8   14    2      0.35      0.01
    9   14    2     -0.06     -0.01
   10   14    2     -0.52     -0.02
   11   14    2     -0.75     -0.02
   12   14    2     -0.61     -0.01
   13   14    2     -0.28      0.00
   14   14    2      0.00      0.01
   15   14    2      0.14      0.00
   16   14    2      0.04     -0.01
  -17   15    2     -0.42      0.03
  -16   15    2     -1.13      0.03
  -15   15    2     -1.45      0.02
  -14   15    2     -1.38      0.00
  -13   15    2     -1.22     -0.02
  -12   15    2     -0.95     -0.02
  -11   15    2     -0.45     -0.01
  -10   15    2      0.11     -0.01
   -9   15    2      0.38     -0.03
   -8   15    2      0.39     -0.03
   -7   15    2      0.58     -0.02
   -6   15    2      1.11      0.01
   -5   15    2      1.46      0.01
   -4   15    2      1.08      0.00
   -3   15    2      0.19      0.01
   -2   15    2     -0.56      0.03
   -1   15    2     -0.80      0.04
    0   15    2     -0.61      0.02
    1   15    2     -0.37     -0.01
    2   15    2     -0.39     -0.03
    3   15    2     -0.53     -0.05
    4   15    2     -0.35     -0.08
    5   15    2      0.21     -0.13
    6   15    2      0.71     -0.16
    7   15    2      0.78     -0.12
    8   15    2      0.50     -0.01
    9   15    2      0.15      0.08
   10   15    2     -0.03      0.10
   11   15    2      0.19      0.06
   12   15    2      0.83      0.04
   13   15    2      1.55      0.04
   14   15    2      1.82      0.04
   15   15    2      1.41      0.02
  -15   16    2      0.44     -0.12
  -14   16    2      0.58     -0.09
  -13   16    2      0.52     -0.03
  -12   16    2      0.48      0.01
  -11   16    2      0.67      0.00
  -10   16    2      0.93     -0.01
   -9   16    2      0.87     -0.01
   -8   16    2      0.38     -0.01
   -7   16    2     -0.30     -0.02
   -6   16    2     -0.86     -0.03
   -5   16    2     -1.11     -0.03
   -4   16    2     -0.97     -0.02
   -3   16    2     -0.52      0.01
   -2   16    2      0.09      0.02
   -1   16    2      0.70      0.01
    0   16    2      0.97      0.00
    1   16    2      0.50     -0.01
    2   16    2     -0.43      0.00
    3   16    2     -0.86      0.00
    4   16    2     -0.37     -0.01
    5   16    2      0.32     -0.03
    6   16    2      0.39     -0.03
    7   16    2     -0.13     -0.02
    8   16    2     -0.69      0.00
    9   16    2     -0.91      0.00
   10   16    2     -0.71     -0.02
   11   16    2     -0.25     -0.04
   12   16    2      0.21     -0.04
   13   16    2      0.42     -0.03
   14   16    2      0.33     -0.03
  -14   17    2     -0.14      0.02
  -13   17    2     -0.36      0.04
  -12   17    2     -0.16      0.03
  -11   17    2      0.34      0.02
  -10   17    2      0.53     -0.01
   -9   17    2      0.12     -0.03
   -8   17    2     -0.48     -0.04
   -7   17    2     -0.67     -0.02
   -6   17    2     -0.31      0.01
   -5   17    2      0.26      0.02
   -4   17    2      0.69      0.01
   -3   17    2      0.84      0.00
   -2   17    2      0.84      0.00
   -1   17    2      0.80      0.01
    0   17    2      0.69      0.02
    1   17    2      0.52      0.02
    2   17    2      0.50      0.03
    3   17    2      0.69      0.02
    4   17    2      0.95     -0.01
    5   17    2      1.09     -0.04
    6   17    2      1.07     -0.06
    7   17    2      0.88     -0.04
    8   17    2      0.56      0.01
    9   17    2      0.37      0.03
   10   17    2      0.45      0.01
   11   17    2      0.63     -0.04
   12   17    2      0.69     -0.06
  -11   18    2      0.61      0.02
  -10   18    2      0.24      0.00
   -9   18    2     -0.08      0.00
   -8   18    2     -0.33      0.00
   -7   18    2     -0.58      0.01
   -6   18    2     -0.73      0.01
   -5   18    2     -0.65      0.00
   -4   18    2     -0.38     -0.02
   -3   18    2     -0.10     -0.03
   -2   18    2      0.17     -0.01
   -1   18    2      0.45      0.02
    0   18    2      0.54      0.05
    1   18    2      0.21      0.05
    2   18    2     -0.32      0.03
    3   18    2     -0.53      0.01
    4   18    2     -0.24      0.00
    5   18    2      0.08      0.00
    6   18    2     -0.10      0.00
    7   18    2     -0.66     -0.01
    8   18    2     -0.93     -0.02
    9   18    2     -0.55     -0.03
   10   18    2      0.13     -0.04
   -8   19    2      0.22      0.00
   -7   19    2      0.10      0.01
   -6   19    2      0.13      0.00
   -5   19    2      0.25     -0.02
   -4   19    2      0.29     -0.03
   -3   19    2      0.16     -0.02
   -2   19    2     -0.05      0.01
   -1   19    2     -0.20      0.03
    0   19    2     -0.26      0.02
    1   19    2     -0.23      0.00
    2   19    2     -0.03     -0.01
    3   19    2      0.22      0.01
    4   19    2      0.19      0.01
    5   19    2     -0.16     -0.02
    6   19    2     -0.48     -0.04
    7   19    2     -0.47     -0.04
   -3   20    2     -0.42     -0.01
   -2   20    2      0.01     -0.02
   -1   20    2      0.44     -0.03
    0   20    2      0.73     -0.03
    1   20    2      0.81     -0.01
  -25    1    3     -0.29      0.00
  -24    1    3     -0.01      0.01
  -23    1    3      0.09      0.01
  -22    1    3     -0.12     -0.01
  -21    1    3     -0.43     -0.01
  -20    1    3     -0.52      0.00
  -19    1    3     -0.28      0.00
  -18    1    3     -0.01     -0.05
  -17    1    3     -0.18     -0.11
  -16    1    3     -0.90     -0.12
  -15    1    3     -1.79     -0.08
  -14    1    3     -2.05     -0.04
  -13    1    3     -1.07     -0.04
  -12    1    3      0.66     -0.06
  -11    1    3      1.42     -0.05
  -10    1    3      0.22      0.01
   -9    1    3     -1.16      0.05
   -8    1    3      0.51      0.03
   -7    1    3      5.73     -0.01
   -6    1    3      9.60     -0.03
   -5    1    3      4.38     -0.03
   -4    1    3    -13.37     -0.05
   -3    1    3    -36.53     -0.06
   -2    1    3    -49.62     -0.05
   -1    1    3    -41.08     -0.04
    0    1    3    -14.36     -0.04
    1    1    3     15.15      0.07
    2    1    3     34.14      0.45
    3    1    3     39.84      1.02
    4    1    3     36.42      1.45
    5    1    3     28.21      1.43
    6    1    3     18.25      0.96
    7    1    3      9.73      0.37
    8    1    3      5.06     -0.02
    9    1    3      4.12     -0.13
   10    1    3      4.69     -0.07
   11    1    3      4.58      0.01
   12    1    3      3.19      0.01
   13    1    3      1.34     -0.03
   14    1    3      0.18     -0.05
   15    1    3     -0.08     -0.03
   16    1    3     -0.10     -0.02
   17    1    3     -0.36     -0.02
   18    1    3     -0.50      0.00
   19    1    3     -0.14      0.02
   20    1    3      0.38      0.03
   21    1    3      0.55      0.01
   22    1    3      0.41     -0.01
   23    1    3      0.31     -0.02
  -25    2    3     -0.20      0.03
  -24    2    3     -0.62      0.04
  -23    2    3     -0.86      0.03
  -22    2    3     -0.56      0.02
  -21    2    3      0.11      0.02
  -20    2    3      0.72      0.03
  -19    2    3      1.00      0.02
  -18    2    3      0.82      0.00
  -17    2    3      0.19      0.01
  -16    2    3     -0.57      0.06
  -15    2    3     -0.92      0.12
  -14    2    3     -0.50      0.14
  -13    2    3      0.32      0.07
  -12    2    3      0.22     -0.03
  -11    2    3     -1.61     -0.09
  -10    2    3     -3.57     -0.07
   -9    2    3     -2.80     -0.01
   -8    2    3      0.38      0.03
   -7    2    3      1.10      0.04
   -6    2    3     -4.98      0.04
   -5    2    3    -15.58      0.05
   -4    2    3    -22.56      0.07
   -3    2    3    -19.45      0.08
   -2    2    3     -8.36      0.03
   -1    2    3      1.55     -0.03
    0    2    3      2.97     -0.03
    1    2    3     -2.78      0.09
    2    2    3     -8.66      0.25
    3    2    3     -9.96      0.32
    4    2    3     -7.65      0.18
    5    2    3     -5.02     -0.08
    6    2    3     -3.44     -0.27
    7    2    3     -1.93     -0.27
    8    2    3      0.54     -0.11
    9    2    3      3.26      0.06
   10    2    3      4.39      0.15
   11    2    3      3.13      0.13
   12    2    3      0.77      0.05
   13    2    3     -0.73     -0.02
   14    2    3     -0.78     -0.04
   15    2    3     -0.21     -0.03
   16    2    3      0.18     -0.01
   17    2    3      0.40     -0.02
   18    2    3      0.60     -0.03
   19    2    3      0.61     -0.04
   20    2    3      0.34     -0.05
   21    2    3      0.01     -0.05
   22    2    3     -0.19     -0.04
   23    2    3     -0.19     -0.02
  -25    3    3     -0.46     -0.01
  -24    3    3     -0.11     -0.02
  -23    3    3      0.23     -0.03
  -22    3    3      0.18     -0.03
  -21    3    3     -0.21     -0.01
  -20    3    3     -0.46      0.02
  -19    3    3     -0.39      0.00
  -18    3    3     -0.36     -0.05
  -17    3    3     -0.52     -0.07
  -16    3    3     -0.46     -0.04
  -15    3    3      0.18     -0.01
  -14    3    3      1.28     -0.03
  -13    3    3      2.32     -0.09
  -12    3    3      3.06     -0.09
  -11    3    3      4.02      0.00
  -10    3    3      6.04      0.07
   -9    3    3      8.99      0.05
   -8    3    3     11.79     -0.03
   -7    3    3     14.13     -0.08
   -6    3    3     16.72     -0.06
   -5    3    3     18.54     -0.02
   -4    3    3     15.73     -0.03
   -3    3    3      5.58     -0.08
   -2    3    3     -8.23     -0.11
   -1    3    3    -16.64     -0.09
    0    3    3    -12.88     -0.05
    1    3    3      0.92      0.02
    2    3    3     15.47      0.15
    3    3    3     22.01      0.31
    4    3    3     18.28      0.40
    5    3    3      8.54      0.38
    6    3    3     -0.35      0.27
    7    3    3     -3.91      0.16
    8    3    3     -2.67      0.07
    9    3    3     -0.51      0.01
   10    3    3     -0.27     -0.02
   11    3    3     -1.67     -0.01
   12    3    3     -2.89      0.01
   13    3    3     -2.88      0.00
   14    3    3     -1.89     -0.01
   15    3    3     -0.84     -0.01
   16    3    3     -0.41     -0.01
   17    3    3     -0.59     -0.02
   18    3    3     -0.86     -0.02
   19    3    3     -0.73      0.00
   20    3    3     -0.28      0.02
   21    3    3      0.02      0.01
   22    3    3      0.01      0.00
   23    3    3     -0.05      0.00
  -25    4    3      0.10      0.00
  -24    4    3     -0.65     -0.01
  -23    4    3     -1.19      0.00
  -22    4    3     -1.03      0.02
  -21    4    3     -0.29      0.02
  -20    4    3      0.55      0.00
  -19    4    3      1.04     -0.02
  -18    4    3      1.11     -0.02
  -17    4    3      1.10      0.04
  -16    4    3      1.24      0.11
  -15    4    3      1.61      0.12
  -14    4    3      2.46      0.06
  -13    4    3      4.06     -0.01
  -12    4    3      6.02     -0.04
  -11    4    3      7.54     -0.03
  -10    4    3      8.73     -0.02
   -9    4    3     10.79     -0.02
   -8    4    3     14.08     -0.03
   -7    4    3     16.27     -0.02
   -6    4    3     13.25      0.00
   -5    4    3      3.22      0.01
   -4    4    3    -10.32      0.01
   -3    4    3    -20.12      0.01
   -2    4    3    -20.47     -0.01
   -1    4    3    -11.58     -0.04
    0    4    3      0.62     -0.06
    1    4    3      9.06     -0.03
    2    4    3     10.44      0.05
    3    4    3      6.56      0.11
    4    4    3      2.00      0.10
    5    4    3      0.56      0.03
    6    4    3      2.76     -0.04
    7    4    3      5.97     -0.05
    8    4    3      7.18     -0.02
    9    4    3      5.55      0.02
   10    4    3      2.29      0.06
   11    4    3     -0.73      0.08
   12    4    3     -2.06      0.07
   13    4    3     -1.37      0.03
   14    4    3      0.12     -0.01
   15    4    3      0.89     -0.04
   16    4    3      0.69     -0.03
   17    4    3      0.32     -0.01
   18    4    3      0.25      0.01
   19    4    3      0.22      0.01
   20    4    3     -0.05      0.00
   21    4    3     -0.46      0.00
   22    4    3     -0.67      0.01
  -25    5    3     -0.96     -0.03
  -24    5    3     -0.71     -0.04
  -23    5    3     -0.08     -0.03
  -22    5    3      0.20     -0.02
  -21    5    3      0.08     -0.01
  -20    5    3      0.00      0.00
  -19    5    3      0.11      0.00
  -18    5    3      0.13     -0.02
  -17    5    3     -0.12     -0.02
  -16    5    3     -0.24     -0.02
  -15    5    3      0.47     -0.02
  -14    5    3      2.00     -0.04
  -13    5    3      3.30     -0.05
  -12    5    3      3.29     -0.03
  -11    5    3      2.37     -0.01
  -10    5    3      1.70     -0.02
   -9    5    3      1.30     -0.05
   -8    5    3     -0.20     -0.07
   -7    5    3     -3.46     -0.04
   -6    5    3     -7.01      0.00
   -5    5    3     -8.67      0.02
   -4    5    3     -7.79      0.02
   -3    5    3     -5.25      0.00
   -2    5    3     -1.79     -0.01
   -1    5    3      2.45     -0.01
    0    5    3      6.86      0.00
    1    5    3      9.67      0.02
    2    5    3      8.98      0.06
    3    5    3      4.63      0.08
    4    5    3     -1.11      0.06
    5    5    3     -5.15      0.02
    6    5    3     -6.14     -0.01
    7    5    3     -5.01     -0.01
    8    5    3     -3.45     -0.01
    9    5    3     -2.48      0.00
   10    5    3     -1.93      0.04
   11    5    3     -0.98      0.08
   12    5    3      0.74      0.08
   13    5    3      2.45      0.04
   14    5    3      3.06     -0.02
   15    5    3      2.47     -0.04
   16    5    3      1.30     -0.02
   17    5    3      0.11      0.00
   18    5    3     -0.70     -0.01
   19    5    3     -0.82     -0.02
   20    5    3     -0.43     -0.02
   21    5    3     -0.04     -0.01
   22    5    3      0.09     -0.01
  -24    6    3     -0.10     -0.01
  -23    6    3     -0.15      0.01
  -22    6    3      0.04      0.02
  -21    6    3      0.61      0.02
  -20    6    3      1.12      0.00
  -19    6    3      0.99     -0.01
  -18    6    3      0.19      0.00
  -17    6    3     -0.69      0.04
  -16    6    3     -1.05      0.09
  -15    6    3     -1.08      0.10
  -14    6    3     -1.61      0.05
  -13    6    3     -3.08     -0.03
  -12    6    3     -4.93     -0.06
  -11    6    3     -6.37     -0.03
  -10    6    3     -7.16      0.03
   -9    6    3     -7.27      0.08
   -8    6    3     -6.05      0.08
   -7    6    3     -3.02      0.02
   -6    6    3      0.64     -0.06
   -5    6    3      2.42     -0.09
   -4    6    3      1.09     -0.08
   -3    6    3     -1.55     -0.05
   -2    6    3     -2.06     -0.02
   -1    6    3      1.05      0.00
    0    6    3      5.69      0.00
    1    6    3      8.14     -0.01
    2    6    3      6.81      0.00
    3    6    3      3.85      0.02
    4    6    3      2.65      0.04
    5    6    3      4.05      0.04
    6    6    3      5.79      0.04
    7    6    3      5.44      0.04
    8    6    3      2.88      0.04
    9    6    3     -0.18      0.04
   10    6    3     -2.17      0.01
   11    6    3     -2.66     -0.02
   12    6    3     -2.14     -0.05
   13    6    3     -1.43     -0.06
   14    6    3     -1.19     -0.04
   15    6    3     -1.64     -0.01
   16    6    3     -2.30      0.01
   17    6    3     -2.31      0.03
   18    6    3     -1.39      0.03
   19    6    3     -0.26      0.03
   20    6    3      0.20      0.02
   21    6    3     -0.01      0.03
   22    6    3     -0.29      0.04
  -24    7    3     -0.04     -0.02
  -23    7    3      0.15      0.00
  -22    7    3      0.19      0.01
  -21    7    3     -0.11      0.01
  -20    7    3     -0.64     -0.01
  -19    7    3     -1.20     -0.01
  -18    7    3     -1.68     -0.02
  -17    7    3     -2.14     -0.01
  -16    7    3     -2.74     -0.01
  -15    7    3     -3.53     -0.02
  -14    7    3     -4.30     -0.06
  -13    7    3     -4.74     -0.08
  -12    7    3     -4.68     -0.06
  -11    7    3     -4.06     -0.03
  -10    7    3     -2.93     -0.04
   -9    7    3     -1.49     -0.10
   -8    7    3      0.00     -0.19
   -7    7    3      1.17     -0.23
   -6    7    3      1.37     -0.20
   -5    7    3      0.14     -0.11
   -4    7    3     -1.71     -0.04
   -3    7    3     -2.24      0.01
   -2    7    3     -0.24      0.03
   -1    7    3      3.14      0.02
    0    7    3      5.27      0.01
    1    7    3      4.61      0.00
    2    7    3      1.86      0.01
    3    7    3     -1.11      0.02
    4    7    3     -2.92      0.01
    5    7    3     -3.41     -0.01
    6    7    3     -3.14     -0.02
    7    7    3     -2.47     -0.02
    8    7    3     -1.36     -0.02
    9    7    3      0.20     -0.03
   10    7    3      1.80     -0.03
   11    7    3      2.86     -0.01
   12    7    3      3.10      0.00
   13    7    3      2.54      0.01
   14    7    3      1.43      0.00
   15    7    3      0.22      0.00
   16    7    3     -0.48     -0.01
   17    7    3     -0.43     -0.01
   18    7    3      0.05     -0.02
   19    7    3      0.38     -0.02
   20    7    3      0.40     -0.01
   21    7    3      0.31     -0.01
  -23    8    3      0.56      0.01
  -22    8    3      0.52      0.01
  -21    8    3      0.78      0.01
  -20    8    3      1.08      0.00
  -19    8    3      1.05     -0.01
  -18    8    3      0.60     -0.01
  -17    8    3     -0.04      0.00
  -16    8    3     -0.46      0.02
  -15    8    3     -0.30      0.02
  -14    8    3      0.28      0.00
  -13    8    3      0.74     -0.02
  -12    8    3      0.76     -0.04
  -11    8    3      0.50     -0.05
  -10    8    3      0.17     -0.05
   -9    8    3      0.00     -0.04
   -8    8    3      0.29     -0.02
   -7    8    3      0.92      0.01
   -6    8    3      0.93      0.04
   -5    8    3     -0.56      0.03
   -4    8    3     -2.84      0.02
   -3    8    3     -3.97      0.02
   -2    8    3     -2.84      0.02
   -1    8    3     -0.37      0.01
    0    8    3      1.42     -0.01
    1    8    3      1.28     -0.02
    2    8    3     -0.20     -0.01
    3    8    3     -1.23      0.00
    4    8    3     -0.72      0.00
    5    8    3      0.59      0.00
    6    8    3      1.21      0.01
    7    8    3      0.79      0.01
    8    8    3      0.12      0.00
    9    8    3     -0.28     -0.02
   10    8    3     -0.57     -0.04
   11    8    3     -0.86     -0.02
   12    8    3     -1.05      0.01
   13    8    3     -1.12      0.03
   14    8    3     -1.07      0.01
   15    8    3     -0.86     -0.02
   16    8    3     -0.41     -0.03
   17    8    3      0.31      0.00
   18    8    3      1.04      0.02
   19    8    3      1.31      0.01
   20    8    3      0.94     -0.01
   21    8    3      0.33     -0.01
  -23    9    3     -0.61      0.01
  -22    9    3     -0.23      0.02
  -21    9    3      0.36      0.02
  -20    9    3      0.67      0.00
  -19    9    3      0.71     -0.02
  -18    9    3      0.75     -0.04
  -17    9    3      0.96     -0.04
  -16    9    3      1.36     -0.04
  -15    9    3      1.79     -0.04
  -14    9    3      2.00     -0.05
  -13    9    3      1.88     -0.04
  -12    9    3      1.70     -0.04
  -11    9    3      1.82     -0.03
  -10    9    3      2.39     -0.02
   -9    9    3      3.11     -0.01
   -8    9    3      3.38     -0.02
   -7    9    3      2.54     -0.04
   -6    9    3      0.51     -0.05
   -5    9    3     -1.73     -0.03
   -4    9    3     -2.56     -0.01
   -3    9    3     -1.10      0.00
   -2    9    3      1.60     -0.01
   -1    9    3      3.31      0.00
    0    9    3      2.58      0.01
    1    9    3     -0.02      0.02
    2    9    3     -2.65      0.02
    3    9    3     -3.91      0.00
    4    9    3     -3.76     -0.02
    5    9    3     -2.91     -0.02
    6    9    3     -1.85      0.00
    7    9    3     -0.76      0.01
    8    9    3      0.09      0.01
    9    9    3      0.42      0.02
   10    9    3      0.21      0.04
   11    9    3     -0.40      0.05
   12    9    3     -1.14      0.03
   13    9    3     -1.52     -0.01
   14    9    3     -1.31     -0.04
   15    9    3     -0.89     -0.03
   16    9    3     -0.65      0.00
   17    9    3     -0.49      0.02
   18    9    3     -0.30      0.01
   19    9    3     -0.25     -0.01
   20    9    3     -0.28     -0.01
  -22   10    3      1.32     -0.01
  -21   10    3      1.68     -0.01
  -20   10    3      1.59     -0.02
  -19   10    3      1.16     -0.05
  -18   10    3      0.68     -0.06
  -17   10    3      0.30     -0.05
  -16   10    3      0.04     -0.02
  -15   10    3     -0.04      0.01
  -14   10    3      0.14      0.02
  -13   10    3      0.42      0.02
  -12   10    3      0.54      0.02
  -11   10    3      0.51      0.02
  -10   10    3      0.48      0.03
   -9   10    3      0.32      0.03
   -8   10    3     -0.14      0.02
   -7   10    3     -0.72      0.02
   -6   10    3     -1.00      0.01
   -5   10    3     -0.59     -0.01
   -4   10    3      0.57     -0.03
   -3   10    3      1.93     -0.02
   -2   10    3      2.55     -0.01
   -1   10    3      1.89     -0.01
    0   10    3      0.31     -0.03
    1   10    3     -1.20     -0.04
    2   10    3     -1.63     -0.04
    3   10    3     -0.71     -0.02
    4   10    3      0.86      0.00
    5   10    3      1.96      0.03
    6   10    3      2.08      0.05
    7   10    3      1.50      0.04
    8   10    3      0.81      0.02
    9   10    3      0.47      0.00
   10   10    3      0.54     -0.01
   11   10    3      0.86     -0.02
   12   10    3      1.25     -0.01
   13   10    3      1.57      0.01
   14   10    3      1.55      0.02
   15   10    3      1.14      0.02
   16   10    3      0.68      0.01
   17   10    3      0.54      0.00
   18   10    3      0.66      0.00
   19   10    3      0.75      0.00
   20   10    3      0.58     -0.01
  -21   11    3     -0.23      0.03
  -20   11    3     -0.71      0.01
  -19   11    3     -1.15     -0.04
  -18   11    3     -1.24     -0.06
  -17   11    3     -0.95     -0.03
  -16   11    3     -0.46      0.01
  -15   11    3      0.09      0.02
  -14   11    3      0.42      0.01
  -13   11    3      0.27      0.00
  -12   11    3     -0.08     -0.01
  -11   11    3     -0.02     -0.02
  -10   11    3      0.59     -0.03
   -9   11    3      1.39     -0.03
   -8   11    3      2.01     -0.04
   -7   11    3      2.19     -0.06
   -6   11    3      1.97     -0.07
   -5   11    3      1.72     -0.06
   -4   11    3      1.73     -0.04
   -3   11    3      1.64     -0.02
   -2   11    3      0.95     -0.01
   -1   11    3     -0.30     -0.01
    0   11    3     -1.59      0.01
    1   11    3     -2.28      0.02
    2   11    3     -2.11      0.02
    3   11    3     -1.50      0.00
    4   11    3     -1.13     -0.01
    5   11    3     -1.11      0.01
    6   11    3     -1.01      0.04
    7   11    3     -0.59      0.06
    8   11    3     -0.01      0.04
    9   11    3      0.41      0.00
   10   11    3      0.38     -0.03
   11   11    3     -0.25     -0.05
   12   11    3     -1.16     -0.05
   13   11    3     -1.72     -0.05
   14   11    3     -1.64     -0.04
   15   11    3     -1.21     -0.04
   16   11    3     -0.79     -0.03
   17   11    3     -0.45     -0.02
   18   11    3     -0.18     -0.02
   19   11    3     -0.12     -0.02
  -20   12    3     -0.07     -0.05
  -19   12    3      0.08     -0.08
  -18   12    3      0.40     -0.06
  -17   12    3      0.56     -0.01
  -16   12    3      0.24      0.04
  -15   12    3     -0.49      0.06
  -14   12    3     -1.19      0.05
  -13   12    3     -1.36      0.03
  -12   12    3     -0.87      0.01
  -11   12    3     -0.11      0.02
  -10   12    3      0.54      0.03
   -9   12    3      0.94      0.03
   -8   12    3      0.86      0.02
   -7   12    3      0.27      0.01
   -6   12    3     -0.35      0.00
   -5   12    3     -0.47      0.01
   -4   12    3     -0.38      0.02
   -3   12    3     -0.62      0.01
   -2   12    3     -1.16      0.00
   -1   12    3     -1.50     -0.02
    0   12    3     -1.31     -0.03
    1   12    3     -0.60     -0.01
    2   12    3      0.29      0.00
    3   12    3      0.82      0.01
    4   12    3      0.84      0.03
    5   12    3      0.80      0.09
    6   12    3      1.01      0.12
    7   12    3      1.16      0.06
    8   12    3      0.85     -0.05
    9   12    3      0.28     -0.13
   10   12    3     -0.05     -0.13
   11   12    3      0.07     -0.09
   12   12    3      0.41     -0.05
   13   12    3      0.70     -0.01
   14   12    3      0.83      0.03
   15   12    3      0.75      0.04
   16   12    3      0.49      0.02
   17   12    3      0.20     -0.01
   18   12    3      0.08     -0.01
  -19   13    3      1.02     -0.09
  -18   13    3      0.70     -0.07
  -17   13    3      0.02      0.02
  -16   13    3     -0.50      0.11
  -15   13    3     -0.49      0.13
  -14   13    3     -0.09      0.09
  -13   13    3      0.32      0.04
  -12   13    3      0.49      0.01
  -11   13    3      0.52      0.00
  -10   13    3      0.59      0.00
   -9   13    3      0.63      0.00
   -8   13    3      0.50      0.01
   -7   13    3      0.31      0.01
   -6   13    3      0.21      0.01
   -5   13    3      0.05      0.00
   -4   13    3     -0.35     -0.01
   -3   13    3     -0.79     -0.03
   -2   13    3     -0.87     -0.03
   -1   13    3     -0.49     -0.01
    0   13    3      0.02      0.02
    1   13    3      0.26      0.04
    2   13    3      0.05      0.03
    3   13    3     -0.36      0.01
    4   13    3     -0.52      0.00
    5   13    3     -0.29     -0.02
    6   13    3     -0.03     -0.06
    7   13    3     -0.05     -0.11
    8   13    3     -0.18     -0.13
    9   13    3     -0.10     -0.11
   10   13    3      0.14     -0.06
   11   13    3      0.18      0.00
   12   13    3      0.01      0.03
   13   13    3     -0.04      0.02
   14   13    3      0.19     -0.01
   15   13    3      0.39     -0.03
   16   13    3      0.34     -0.02
   17   13    3      0.22      0.00
  -18   14    3     -0.61      0.11
  -17   14    3     -0.45      0.16
  -16   14    3      0.09      0.14
  -15   14    3      0.40      0.05
  -14   14    3      0.24     -0.01
  -13   14    3      0.02     -0.03
  -12   14    3      0.14     -0.01
  -11   14    3      0.49      0.01
  -10   14    3      0.70      0.03
   -9   14    3      0.54      0.05
   -8   14    3      0.00      0.04
   -7   14    3     -0.74      0.02
   -6   14    3     -1.34      0.00
   -5   14    3     -1.55      0.00
   -4   14    3     -1.42      0.01
   -3   14    3     -1.07      0.00
   -2   14    3     -0.59     -0.02
   -1   14    3     -0.26     -0.03
    0   14    3     -0.31     -0.02
    1   14    3     -0.48      0.01
    2   14    3     -0.23      0.02
    3   14    3      0.44      0.00
    4   14    3      1.00     -0.01
    5   14    3      1.17      0.02
    6   14    3      1.14      0.07
    7   14    3      1.00      0.09
    8   14    3      0.67      0.09
    9   14    3      0.35      0.10
   10   14    3      0.38      0.13
   11   14    3      0.75      0.11
   12   14    3      1.07      0.04
   13   14    3      1.06     -0.02
   14   14    3      0.74     -0.01
   15   14    3      0.27      0.02
   16   14    3     -0.21      0.02
  -17   15    3      0.61     -0.09
  -16   15    3      0.43     -0.10
  -15   15    3     -0.02     -0.10
  -14   15    3     -0.41     -0.07
  -13   15    3     -0.33     -0.03
  -12   15    3      0.10      0.00
  -11   15    3      0.30      0.01
  -10   15    3     -0.05      0.01
   -9   15    3     -0.66      0.01
   -8   15    3     -0.90      0.02
   -7   15    3     -0.42      0.03
   -6   15    3      0.36      0.03
   -5   15    3      0.70      0.02
   -4   15    3      0.40      0.02
   -3   15    3     -0.03      0.00
   -2   15    3     -0.24     -0.01
   -1   15    3     -0.40     -0.01
    0   15    3     -0.50      0.00
    1   15    3     -0.23      0.01
    2   15    3      0.33     -0.01
    3   15    3      0.62     -0.02
    4   15    3      0.40     -0.01
    5   15    3     -0.08      0.04
    6   15    3     -0.56      0.11
    7   15    3     -1.02      0.16
    8   15    3     -1.26      0.16
    9   15    3     -1.04      0.11
   10   15    3     -0.43      0.05
   11   15    3      0.19     -0.01
   12   15    3      0.51     -0.02
   13   15    3      0.44      0.00
   14   15    3      0.12      0.02
   15   15    3     -0.17      0.03
  -16   16    3     -0.55     -0.10
  -15   16    3     -0.37     -0.05
  -14   16    3      0.02      0.01
  -13   16    3      0.50      0.03
  -12   16    3      0.82      0.00
  -11   16    3      0.88     -0.02
  -10   16    3      0.96     -0.02
   -9   16    3      1.22      0.00
   -8   16    3      1.44      0.02
   -7   16    3      1.29      0.01
   -6   16    3      0.68     -0.01
   -5   16    3     -0.02     -0.01
   -4   16    3     -0.34     -0.01
   -3   16    3     -0.13     -0.01
   -2   16    3      0.29     -0.01
   -1   16    3      0.56      0.00
    0   16    3      0.73      0.00
    1   16    3      0.99      0.00
    2   16    3      1.34     -0.01
    3   16    3      1.53      0.00
    4   16    3      1.26      0.06
    5   16    3      0.55      0.13
    6   16    3     -0.13      0.14
    7   16    3     -0.35      0.06
    8   16    3     -0.05     -0.06
    9   16    3      0.58     -0.13
   10   16    3      1.25     -0.11
   11   16    3      1.57     -0.06
   12   16    3      1.20     -0.03
   13   16    3      0.37     -0.02
  -14   17    3     -0.46      0.11
  -13   17    3     -0.37      0.06
  -12   17    3      0.06      0.02
  -11   17    3      0.47      0.01
  -10   17    3      0.26      0.02
   -9   17    3     -0.58      0.04
   -8   17    3     -1.31      0.05
   -7   17    3     -1.33      0.04
   -6   17    3     -0.81      0.02
   -5   17    3     -0.29      0.02
   -4   17    3      0.06      0.04
   -3   17    3      0.34      0.06
   -2   17    3      0.48      0.05
   -1   17    3      0.32      0.01
    0   17    3      0.03     -0.02
    1   17    3     -0.06     -0.02
    2   17    3     -0.03      0.02
    3   17    3     -0.39      0.05
    4   17    3     -1.14      0.03
    5   17    3     -1.56     -0.01
    6   17    3     -1.09     -0.04
    7   17    3     -0.08     -0.04
    8   17    3      0.70     -0.01
    9   17    3      0.84      0.03
   10   17    3      0.46      0.04
   11   17    3     -0.04      0.04
  -12   18    3      1.57     -0.06
  -11   18    3      1.06     -0.06
  -10   18    3      0.37     -0.03
   -9   18    3      0.11      0.00
   -8   18    3      0.35      0.00
   -7   18    3      0.65     -0.02
   -6   18    3      0.70     -0.02
   -5   18    3      0.59      0.00
   -4   18    3      0.53      0.01
   -3   18    3      0.45     -0.01
   -2   18    3      0.21     -0.03
   -1   18    3     -0.10     -0.02
    0   18    3     -0.22      0.01
    1   18    3     -0.17      0.04
    2   18    3     -0.15      0.02
    3   18    3     -0.18     -0.02
    4   18    3      0.01     -0.04
    5   18    3      0.42     -0.04
    6   18    3      0.64     -0.02
    7   18    3      0.43     -0.01
    8   18    3     -0.02     -0.03
    9   18    3     -0.37     -0.04
   -9   19    3     -0.61     -0.01
   -8   19    3     -0.86      0.00
   -7   19    3     -0.76      0.01
   -6   19    3     -0.33      0.02
   -5   19    3      0.07      0.02
   -4   19    3      0.19      0.01
   -3   19    3      0.06      0.03
   -2   19    3     -0.17      0.05
   -1   19    3     -0.34      0.06
    0   19    3     -0.36      0.03
    1   19    3     -0.28      0.00
    2   19    3     -0.27     -0.01
    3   19    3     -0.36      0.00
    4   19    3     -0.47      0.00
    5   19    3     -0.51     -0.01
    6   19    3     -0.40     -0.01
   -2   20    3     -0.92      0.01
   -1   20    3     -0.60     -0.01
    0   20    3     -0.22     -0.02
  -26    0    4     -0.02      0.02
  -25    0    4     -0.26      0.00
  -24    0    4     -0.40     -0.02
  -23    0    4     -0.21     -0.02
  -22    0    4      0.23     -0.01
  -21    0    4      0.46      0.00
  -20    0    4      0.22     -0.01
  -19    0    4     -0.12     -0.02
  -18    0    4     -0.09     -0.02
  -17    0    4      0.30     -0.01
  -16    0    4      1.03      0.00
  -15    0    4      2.27      0.00
  -14    0    4      3.60      0.00
  -13    0    4      3.58     -0.01
  -12    0    4      1.84      0.00
  -11    0    4      1.21      0.02
  -10    0    4      5.87      0.03
   -9    0    4     15.53      0.05
   -8    0    4     22.37      0.04
   -7    0    4     16.58      0.00
   -6    0    4     -2.83     -0.04
   -5    0    4    -23.59     -0.03
   -4    0    4    -29.66      0.03
   -3    0    4    -17.39      0.05
   -2    0    4     -0.42      0.04
   -1    0    4      4.54      0.12
    0    0    4     -4.91      0.31
    1    0    4    -16.76      0.49
    2    0    4    -19.64      0.40
    3    0    4    -13.50     -0.01
    4    0    4     -6.00     -0.58
    5    0    4     -3.44     -1.00
    6    0    4     -6.06     -1.08
    7    0    4     -9.67     -0.82
    8    0    4    -10.21     -0.44
    9    0    4     -7.30     -0.15
   10    0    4     -3.56     -0.04
   11    0    4     -1.17     -0.04
   12    0    4     -0.25     -0.06
   13    0    4      0.00     -0.04
   14    0    4      0.07     -0.03
   15    0    4      0.16     -0.02
   16    0    4      0.45      0.00
   17    0    4      0.90      0.03
   18    0    4      1.18      0.03
   19    0    4      1.15      0.01
   20    0    4      1.02      0.00
   21    0    4      0.94     -0.01
   22    0    4      0.62     -0.01
  -26    1    4      0.08      0.00
  -25    1    4      0.46     -0.01
  -24    1    4      0.89     -0.03
  -23    1    4      1.12     -0.02
  -22    1    4      1.01      0.00
  -21    1    4      0.66      0.02
  -20    1    4      0.31      0.03
  -19    1    4      0.12      0.02
  -18    1    4      0.06      0.02
  -17    1    4      0.15      0.05
  -16    1    4      0.49      0.10
  -15    1    4      0.83      0.11
  -14    1    4      0.55      0.07
  -13    1    4     -0.42      0.01
  -12    1    4     -0.93     -0.01
  -11    1    4      0.45      0.01
  -10    1    4      2.87      0.04
   -9    1    4      2.83      0.06
   -8    1    4     -2.41      0.05
   -7    1    4    -10.76      0.02
   -6    1    4    -16.28      0.00
   -5    1    4    -14.95     -0.02
   -4    1    4     -9.30     -0.05
   -3    1    4     -6.23     -0.07
   -2    1    4     -9.47     -0.05
   -1    1    4    -14.87      0.02
    0    1    4    -14.59      0.06
    1    1    4     -5.74      0.01
    2    1    4      6.53     -0.12
    3    1    4     14.43     -0.24
    4    1    4     14.67     -0.25
    5    1    4     10.19     -0.13
    6    1    4      6.26      0.03
    7    1    4      5.43      0.17
    8    1    4      6.20      0.22
    9    1    4      5.88      0.19
   10    1    4      3.79      0.11
   11    1    4      1.23      0.04
   12    1    4     -0.52      0.03
   13    1    4     -1.11      0.04
   14    1    4     -0.89      0.05
   15    1    4     -0.48      0.04
   16    1    4     -0.28      0.03
   17    1    4     -0.25      0.03
   18    1    4     -0.14      0.02
   19    1    4      0.11      0.02
   20    1    4      0.28      0.01
   21    1    4      0.18      0.01
   22    1    4     -0.08      0.01
  -25    2    4      0.57     -0.01
  -24    2    4      0.18     -0.02
  -23    2    4     -0.20     -0.01
  -22    2    4     -0.38      0.01
  -21    2    4     -0.42      0.00
  -20    2    4     -0.42     -0.03
  -19    2    4     -0.22     -0.03
  -18    2    4      0.40     -0.01
  -17    2    4      1.23      0.00
  -16    2    4      1.70     -0.04
  -15    2    4      1.49     -0.10
  -14    2    4      0.63     -0.10
  -13    2    4     -0.81     -0.05
  -12    2    4     -2.45      0.02
  -11    2    4     -3.29      0.07
  -10    2    4     -2.48      0.08
   -9    2    4     -0.88      0.08
   -8    2    4     -1.60      0.06
   -7    2    4     -8.05      0.03
   -6    2    4    -19.98      0.00
   -5    2    4    -30.95      0.00
   -4    2    4    -32.09      0.03
   -3    2    4    -20.38      0.05
   -2    2    4     -2.36      0.05
   -1    2    4     11.64      0.10
    0    2    4     16.03      0.19
    1    2    4     12.07      0.25
    2    2    4      3.98      0.15
    3    2    4     -4.58     -0.08
    4    2    4    -10.89     -0.30
    5    2    4    -13.48     -0.40
    6    2    4    -12.94     -0.36
    7    2    4    -11.41     -0.24
    8    2    4    -10.45     -0.12
    9    2    4     -9.97     -0.05
   10    2    4     -9.21     -0.05
   11    2    4     -7.66     -0.07
   12    2    4     -5.30     -0.07
   13    2    4     -2.83     -0.02
   14    2    4     -1.14      0.01
   15    2    4     -0.39      0.01
   16    2    4      0.17      0.00
   17    2    4      0.93      0.00
   18    2    4      1.45     -0.01
   19    2    4      1.32     -0.03
   20    2    4      0.80     -0.03
   21    2    4      0.37     -0.01
   22    2    4      0.18      0.00
  -25    3    4     -0.20     -0.01
  -24    3    4      0.22      0.01
  -23    3    4      0.58      0.02
  -22    3    4      0.84      0.02
  -21    3    4      1.14     -0.01
  -20    3    4      1.47     -0.02
  -19    3    4      1.62     -0.02
  -18    3    4      1.31      0.01
  -17    3    4      0.46      0.02
  -16    3    4     -0.46      0.00
  -15    3    4     -1.02      0.00
  -14    3    4     -1.57      0.03
  -13    3    4     -2.69      0.06
  -12    3    4     -3.46      0.06
  -11    3    4     -2.16      0.03
  -10    3    4      0.80      0.01
   -9    3    4      1.92      0.01
   -8    3    4     -1.52      0.01
   -7    3    4     -6.72      0.02
   -6    3    4     -6.15      0.02
   -5    3    4      5.13      0.00
   -4    3    4     22.55     -0.04
   -3    3    4     33.97     -0.06
   -2    3    4     30.15     -0.03
   -1    3    4     13.29      0.04
    0    3    4     -5.58      0.07
    1    3    4    -16.69      0.01
    2    3    4    -18.13     -0.12
    3    3    4    -13.98     -0.20
    4    3    4     -8.77     -0.17
    5    3    4     -4.42     -0.06
    6    3    4     -1.13      0.06
    7    3    4      0.77      0.10
    8    3    4      0.60      0.09
    9    3    4     -1.19      0.06
   10    3    4     -2.67      0.02
   11    3    4     -2.39      0.01
   12    3    4     -0.95      0.02
   13    3    4      0.11      0.05
   14    3    4      0.32      0.05
   15    3    4      0.21      0.03
   16    3    4     -0.01      0.00
   17    3    4     -0.46     -0.01
   18    3    4     -0.91     -0.02
   19    3    4     -0.96      0.00
   20    3    4     -0.58      0.01
   21    3    4     -0.11      0.01
   22    3    4      0.17      0.00
  -25    4    4      0.24      0.00
  -24    4    4      0.17     -0.02
  -23    4    4      0.17     -0.02
  -22    4    4      0.38     -0.01
  -21    4    4      0.46     -0.02
  -20    4    4      0.07     -0.03
  -19    4    4     -0.56     -0.03
  -18    4    4     -0.73     -0.02
  -17    4    4     -0.04     -0.02
  -16    4    4      1.03     -0.05
  -15    4    4      1.31     -0.07
  -14    4    4      0.26     -0.06
  -13    4    4     -0.98     -0.05
  -12    4    4     -0.47     -0.05
  -11    4    4      2.32     -0.05
  -10    4    4      5.82     -0.02
   -9    4    4      8.27      0.04
   -8    4    4      9.47      0.09
   -7    4    4     10.13      0.08
   -6    4    4     10.12      0.04
   -5    4    4      7.91      0.00
   -4    4    4      1.87      0.00
   -3    4    4     -7.97      0.02
   -2    4    4    -18.82      0.03
   -1    4    4    -26.41      0.03
    0    4    4    -27.97      0.00
    1    4    4    -24.10     -0.04
    2    4    4    -17.60     -0.09
    3    4    4    -10.81     -0.13
    4    4    4     -4.59     -0.12
    5    4    4      0.51     -0.09
    6    4    4      3.11     -0.07
    7    4    4      2.23     -0.05
    8    4    4     -0.76     -0.02
    9    4    4     -2.77      0.02
   10    4    4     -2.03      0.03
   11    4    4      0.31      0.01
   12    4    4      1.97      0.01
   13    4    4      1.94      0.02
   14    4    4      0.82      0.01
   15    4    4     -0.31     -0.02
   16    4    4     -0.66     -0.04
   17    4    4     -0.13     -0.02
   18    4    4      0.74      0.01
   19    4    4      1.30      0.01
   20    4    4      1.34      0.00
   21    4    4      1.00     -0.01
   22    4    4      0.53      0.00
  -25    5    4      0.05     -0.03
  -24    5    4      0.70     -0.01
  -23    5    4      1.22      0.01
  -22    5    4      1.10      0.01
  -21    5    4      0.52     -0.01
  -20    5    4      0.15     -0.03
  -19    5    4      0.49     -0.02
  -18    5    4      1.44      0.01
  -17    5    4      2.26      0.02
  -16    5    4      2.39     -0.02
  -15    5    4      2.10     -0.04
  -14    5    4      2.28     -0.01
  -13    5    4      3.73      0.05
  -12    5    4      6.64      0.09
  -11    5    4     10.27      0.09
  -10    5    4     12.99      0.06
   -9    5    4     13.00      0.02
   -8    5    4      9.70     -0.01
   -7    5    4      4.46     -0.02
   -6    5    4     -0.08      0.00
   -5    5    4     -2.18      0.02
   -4    5    4     -2.43      0.03
   -3    5    4     -2.81      0.03
   -2    5    4     -4.39      0.01
   -1    5    4     -6.34     -0.01
    0    5    4     -6.94     -0.03
    1    5    4     -5.29     -0.04
    2    5    4     -2.12     -0.05
    3    5    4      0.57     -0.06
    4    5    4      0.84     -0.07
    5    5    4     -1.78     -0.08
    6    5    4     -5.92     -0.06
    7    5    4     -9.32     -0.02
    8    5    4    -10.17      0.02
    9    5    4     -8.23      0.02
   10    5    4     -4.82     -0.01
   11    5    4     -1.94     -0.03
   12    5    4     -0.93     -0.01
   13    5    4     -1.54      0.02
   14    5    4     -2.22      0.05
   15    5    4     -1.78      0.06
   16    5    4     -0.53      0.04
   17    5    4      0.42      0.02
   18    5    4      0.64      0.01
   19    5    4      0.46      0.01
   20    5    4      0.21      0.01
   21    5    4     -0.03      0.00
   22    5    4     -0.15     -0.01
  -24    6    4     -0.20      0.00
  -23    6    4     -0.82      0.01
  -22    6    4     -1.39      0.01
  -21    6    4     -1.42      0.00
  -20    6    4     -0.85     -0.01
  -19    6    4      0.02      0.01
  -18    6    4      0.83      0.02
  -17    6    4      1.38      0.01
  -16    6    4      1.68     -0.03
  -15    6    4      1.69     -0.04
  -14    6    4      1.42     -0.01
  -13    6    4      1.38      0.01
  -12    6    4      1.89     -0.02
  -11    6    4      2.21     -0.05
  -10    6    4      1.21     -0.04
   -9    6    4     -1.07      0.01
   -8    6    4     -3.45      0.08
   -7    6    4     -4.75      0.09
   -6    6    4     -4.53      0.06
   -5    6    4     -3.13      0.03
   -4    6    4     -1.44      0.03
   -3    6    4     -0.34      0.03
   -2    6    4     -0.16      0.03
   -1    6    4     -0.62      0.02
    0    6    4     -1.27      0.02
    1    6    4     -1.64      0.04
    2    6    4     -1.32      0.04
    3    6    4     -0.06      0.04
    4    6    4      1.91      0.04
    5    6    4      3.89      0.05
    6    6    4      5.18      0.07
    7    6    4      5.61      0.07
    8    6    4      5.50      0.05
    9    6    4      5.17      0.00
   10    6    4      4.55     -0.02
   11    6    4      3.27      0.00
   12    6    4      1.32      0.05
   13    6    4     -0.48      0.07
   14    6    4     -1.22      0.03
   15    6    4     -0.87     -0.03
   16    6    4     -0.18     -0.06
   17    6    4      0.25     -0.03
   18    6    4      0.28      0.00
   19    6    4     -0.03      0.01
   20    6    4     -0.47     -0.01
   21    6    4     -0.77     -0.02
  -24    7    4     -0.12      0.03
  -23    7    4     -0.07      0.04
  -22    7    4      0.01      0.03
  -21    7    4      0.04      0.01
  -20    7    4      0.06      0.01
  -19    7    4      0.05      0.02
  -18    7    4     -0.11      0.02
  -17    7    4     -0.48      0.00
  -16    7    4     -1.21     -0.02
  -15    7    4     -2.40     -0.01
  -14    7    4     -3.59      0.01
  -13    7    4     -4.07      0.03
  -12    7    4     -3.86      0.03
  -11    7    4     -3.58      0.03
  -10    7    4     -3.54      0.04
   -9    7    4     -3.59      0.04
   -8    7    4     -3.46      0.02
   -7    7    4     -2.67      0.00
   -6    7    4     -0.68      0.00
   -5    7    4      2.20      0.02
   -4    7    4      4.66      0.04
   -3    7    4      5.22      0.04
   -2    7    4      3.25      0.02
   -1    7    4     -0.48      0.00
    0    7    4     -3.98      0.00
    1    7    4     -5.19      0.01
    2    7    4     -3.80      0.00
    3    7    4     -1.67     -0.03
    4    7    4     -1.12     -0.04
    5    7    4     -2.70     -0.06
    6    7    4     -4.99     -0.08
    7    7    4     -6.29     -0.09
    8    7    4     -6.01     -0.09
    9    7    4     -4.59     -0.06
   10    7    4     -2.85     -0.02
   11    7    4     -1.60      0.00
   12    7    4     -1.14     -0.01
   13    7    4     -1.01     -0.02
   14    7    4     -0.53     -0.01
   15    7    4      0.42      0.02
   16    7    4      1.30      0.04
   17    7    4      1.44      0.02
   18    7    4      0.83      0.00
   19    7    4      0.15      0.00
   20    7    4     -0.02      0.00
   21    7    4      0.19     -0.01
  -24    8    4     -0.33      0.01
  -23    8    4     -0.41      0.00
  -22    8    4     -0.63      0.00
  -21    8    4     -0.88      0.00
  -20    8    4     -0.97      0.02
  -19    8    4     -0.92      0.03
  -18    8    4     -0.91      0.04
  -17    8    4     -1.16      0.04
  -16    8    4     -1.82      0.03
  -15    8    4     -2.62      0.02
  -14    8    4     -2.85      0.00
  -13    8    4     -2.21     -0.02
  -12    8    4     -1.12     -0.02
  -11    8    4     -0.17     -0.02
  -10    8    4      0.44     -0.01
   -9    8    4      0.83      0.00
   -8    8    4      1.17      0.01
   -7    8    4      1.55      0.03
   -6    8    4      1.98      0.04
   -5    8    4      2.30      0.03
   -4    8    4      1.94      0.01
   -3    8    4      0.23     -0.01
   -2    8    4     -2.63     -0.01
   -1    8    4     -5.19      0.02
    0    8    4     -5.85      0.05
    1    8    4     -4.35      0.06
    2    8    4     -1.65      0.06
    3    8    4      1.08      0.06
    4    8    4      3.10      0.04
    5    8    4      4.18      0.02
    6    8    4      4.35      0.01
    7    8    4      3.76      0.03
    8    8    4      2.66      0.05
    9    8    4      1.46      0.04
   10    8    4      0.45      0.02
   11    8    4     -0.33      0.01
   12    8    4     -0.91      0.04
   13    8    4     -1.15      0.06
   14    8    4     -0.79      0.04
   15    8    4      0.09      0.00
   16    8    4      0.91     -0.03
   17    8    4      1.10     -0.02
   18    8    4      0.78      0.00
   19    8    4      0.50     -0.01
   20    8    4      0.37     -0.03
  -23    9    4     -0.02      0.00
  -22    9    4     -0.50      0.01
  -21    9    4     -0.99      0.02
  -20    9    4     -1.01      0.02
  -19    9    4     -0.58      0.04
  -18    9    4     -0.05      0.06
  -17    9    4      0.34      0.06
  -16    9    4      0.58      0.04
  -15    9    4      0.79      0.01
  -14    9    4      1.02     -0.01
  -13    9    4      1.30     -0.02
  -12    9    4      1.58     -0.01
  -11    9    4      1.71     -0.01
  -10    9    4      1.54     -0.01
   -9    9    4      0.93      0.00
   -8    9    4     -0.13      0.02
   -7    9    4     -1.34      0.03
   -6    9    4     -2.15      0.01
   -5    9    4     -2.50     -0.02
   -4    9    4     -3.08     -0.03
   -3    9    4     -4.34     -0.03
   -2    9    4     -5.64     -0.02
   -1    9    4     -5.84     -0.01
    0    9    4     -4.30     -0.01
    1    9    4     -1.39     -0.02
    2    9    4      1.52     -0.03
    3    9    4      2.70     -0.03
    4    9    4      1.42     -0.04
    5    9    4     -1.25     -0.05
    6    9    4     -3.44     -0.07
    7    9    4     -3.97     -0.08
    8    9    4     -2.86     -0.08
    9    9    4     -0.99     -0.05
   10    9    4      0.47      0.01
   11    9    4      0.88      0.05
   12    9    4      0.49      0.02
   13    9    4      0.08     -0.03
   14    9    4      0.18     -0.04
   15    9    4      0.68     -0.01
   16    9    4      0.95      0.03
   17    9    4      0.59      0.03
   18    9    4     -0.11      0.01
   19    9    4     -0.53      0.00
   20    9    4     -0.50      0.01
  -22   10    4     -0.93      0.00
  -21   10    4     -0.47      0.00
  -20   10    4      0.63      0.02
  -19   10    4      1.90      0.05
  -18   10    4      2.70      0.06
  -17   10    4      2.72      0.04
  -16   10    4      2.12      0.00
  -15   10    4      1.42     -0.02
  -14   10    4      1.15     -0.03
  -13   10    4      1.32     -0.03
  -12   10    4      1.38     -0.03
  -11   10    4      0.91     -0.02
  -10   10    4     -0.12     -0.01
   -9   10    4     -1.62      0.00
   -8   10    4     -3.35      0.01
   -7   10    4     -4.63      0.01
   -6   10    4     -4.78      0.00
   -5   10    4     -3.93     -0.01
   -4   10    4     -2.98     -0.02
   -3   10    4     -2.53     -0.02
   -2   10    4     -2.21     -0.01
   -1   10    4     -1.28      0.01
    0   10    4      0.30      0.02
    1   10    4      1.55      0.02
    2   10    4      1.47      0.02
    3   10    4      0.38      0.02
    4   10    4     -0.34      0.02
    5   10    4      0.13     -0.01
    6   10    4      1.27     -0.02
    7   10    4      2.06      0.01
    8   10    4      1.88      0.08
    9   10    4      0.79      0.14
   10   10    4     -0.55      0.13
   11   10    4     -1.31      0.07
   12   10    4     -1.20      0.03
   13   10    4     -0.57      0.02
   14   10    4      0.24      0.03
   15   10    4      1.10      0.03
   16   10    4      1.65      0.01
   17   10    4      1.59     -0.01
   18   10    4      1.17     -0.01
   19   10    4      0.82      0.01
  -22   11    4      0.26     -0.02
  -21   11    4      0.59      0.00
  -20   11    4      1.08      0.05
  -19   11    4      1.24      0.10
  -18   11    4      0.76      0.10
  -17   11    4     -0.02      0.06
  -16   11    4     -0.44      0.00
  -15   11    4     -0.22     -0.04
  -14   11    4      0.23     -0.06
  -13   11    4      0.33     -0.04
  -12   11    4      0.03     -0.02
  -11   11    4     -0.41      0.00
  -10   11    4     -0.84      0.01
   -9   11    4     -1.15      0.00
   -8   11    4     -0.99     -0.01
   -7   11    4     -0.10     -0.02
   -6   11    4      1.11     -0.01
   -5   11    4      1.74      0.00
   -4   11    4      1.29      0.01
   -3   11    4      0.16      0.01
   -2   11    4     -0.67      0.00
   -1   11    4     -0.65      0.00
    0   11    4     -0.16     -0.01
    1   11    4     -0.02     -0.03
    2   11    4     -0.43     -0.04
    3   11    4     -0.89     -0.04
    4   11    4     -1.06     -0.04
    5   11    4     -1.24     -0.05
    6   11    4     -1.72     -0.03
    7   11    4     -2.13      0.01
    8   11    4     -1.91      0.05
    9   11    4     -1.11      0.04
   10   11    4     -0.30      0.02
   11   11    4      0.06      0.01
   12   11    4      0.05     -0.01
   13   11    4      0.04     -0.03
   14   11    4      0.25     -0.04
   15   11    4      0.49     -0.03
   16   11    4      0.42     -0.01
   17   11    4      0.03      0.00
   18   11    4     -0.33      0.00
  -21   12    4      0.28     -0.02
  -20   12    4      0.49      0.00
  -19   12    4      0.31      0.02
  -18   12    4     -0.09     -0.01
  -17   12    4     -0.41     -0.08
  -16   12    4     -0.52     -0.12
  -15   12    4     -0.53     -0.10
  -14   12    4     -0.51     -0.04
  -13   12    4     -0.40      0.00
  -12   12    4     -0.17      0.02
  -11   12    4      0.08      0.01
  -10   12    4      0.21      0.00
   -9   12    4      0.22     -0.01
   -8   12    4      0.21     -0.01
   -7   12    4      0.26      0.01
   -6   12    4      0.27      0.03
   -5   12    4      0.04      0.04
   -4   12    4     -0.38      0.04
   -3   12    4     -0.56      0.03
   -2   12    4     -0.15      0.02
   -1   12    4      0.54      0.00
    0   12    4      0.87     -0.02
    1   12    4      0.57     -0.04
    2   12    4      0.02     -0.03
    3   12    4     -0.22     -0.02
    4   12    4      0.05     -0.02
    5   12    4      0.55     -0.04
    6   12    4      0.98     -0.04
    7   12    4      1.20     -0.01
    8   12    4      1.08      0.06
    9   12    4      0.45      0.10
   10   12    4     -0.29      0.08
   11   12    4     -0.43      0.00
   12   12    4      0.17     -0.05
   13   12    4      0.86     -0.05
   14   12    4      1.11     -0.01
   15   12    4      0.99      0.02
   16   12    4      0.80      0.02
   17   12    4      0.61      0.00
  -20   13    4     -0.88      0.11
  -19   13    4     -1.22      0.15
  -18   13    4     -1.45      0.10
  -17   13    4     -1.60     -0.01
  -16   13    4     -1.59     -0.09
  -15   13    4     -1.26     -0.07
  -14   13    4     -0.63     -0.02
  -13   13    4      0.07      0.03
  -12   13    4      0.51      0.03
  -11   13    4      0.45      0.01
  -10   13    4      0.03     -0.01
   -9   13    4     -0.20     -0.02
   -8   13    4      0.21     -0.02
   -7   13    4      0.99      0.00
   -6   13    4      1.32      0.02
   -5   13    4      0.87      0.03
   -4   13    4      0.22      0.01
   -3   13    4     -0.02     -0.02
   -2   13    4      0.06     -0.05
   -1   13    4      0.22     -0.03
    0   13    4      0.30      0.00
    1   13    4      0.18      0.02
    2   13    4     -0.10      0.02
    3   13    4     -0.11      0.01
    4   13    4      0.29      0.02
    5   13    4      0.50      0.06
    6   13    4      0.02      0.15
    7   13    4     -0.74      0.23
    8   13    4     -1.09      0.22
    9   13    4     -0.82      0.08
   10   13    4     -0.24     -0.07
   11   13    4      0.20     -0.13
   12   13    4      0.13     -0.09
   13   13    4     -0.38     -0.04
   14   13    4     -0.90     -0.02
   15   13    4     -1.11     -0.02
   16   13    4     -0.98     -0.02
  -19   14    4      0.09     -0.15
  -18   14    4      0.07     -0.25
  -17   14    4      0.05     -0.28
  -16   14    4      0.12     -0.17
  -15   14    4      0.35     -0.01
  -14   14    4      0.57      0.10
  -13   14    4      0.52      0.09
  -12   14    4      0.15      0.04
  -11   14    4     -0.27      0.00
  -10   14    4     -0.39      0.00
   -9   14    4     -0.08      0.00
   -8   14    4      0.40      0.01
   -7   14    4      0.64      0.01
   -6   14    4      0.44      0.01
   -5   14    4      0.09     -0.01
   -4   14    4      0.05     -0.03
   -3   14    4      0.40     -0.03
   -2   14    4      0.91     -0.01
   -1   14    4      1.22      0.00
    0   14    4      1.02     -0.02
    1   14    4      0.42     -0.04
    2   14    4      0.05     -0.04
    3   14    4      0.17     -0.02
    4   14    4      0.21      0.01
    5   14    4     -0.24      0.00
    6   14    4     -0.68     -0.02
    7   14    4     -0.49     -0.04
    8   14    4      0.12     -0.03
    9   14    4      0.58     -0.02
   10   14    4      0.61      0.00
   11   14    4      0.41      0.00
   12   14    4      0.27     -0.01
   13   14    4      0.34     -0.01
   14   14    4      0.50      0.00
   15   14    4      0.63      0.01
  -17   15    4      0.46     -0.03
  -16   15    4      0.47     -0.02
  -15   15    4      0.34      0.00
  -14   15    4      0.26      0.02
  -13   15    4      0.38      0.02
  -12   15    4      0.54      0.02
  -11   15    4      0.40      0.01
  -10   15    4     -0.13      0.00
   -9   15    4     -0.51      0.00
   -8   15    4     -0.23      0.01
   -7   15    4      0.35      0.02
   -6   15    4      0.54      0.01
   -5   15    4      0.35      0.00
   -4   15    4      0.28      0.00
   -3   15    4      0.43      0.01
   -2   15    4      0.43      0.00
   -1   15    4      0.09      0.00
    0   15    4     -0.42      0.00
    1   15    4     -0.85      0.03
    2   15    4     -1.10      0.06
    3   15    4     -1.12      0.07
    4   15    4     -0.77      0.07
    5   15    4     -0.13      0.10
    6   15    4      0.42      0.19
    7   15    4      0.56      0.29
    8   15    4      0.37      0.28
    9   15    4      0.07      0.13
   10   15    4     -0.20     -0.06
   11   15    4     -0.30     -0.14
   12   15    4     -0.17     -0.10
   13   15    4     -0.03     -0.04
   14   15    4     -0.11     -0.02
  -16   16    4     -0.66     -0.09
  -15   16    4     -0.64      0.06
  -14   16    4     -0.36      0.13
  -13   16    4     -0.34      0.10
  -12   16    4     -0.89      0.04
  -11   16    4     -1.64      0.01
  -10   16    4     -1.72      0.01
   -9   16    4     -0.73      0.01
   -8   16    4      0.61      0.00
   -7   16    4      1.22     -0.01
   -6   16    4      0.98     -0.01
   -5   16    4      0.56      0.00
   -4   16    4      0.33      0.01
   -3   16    4      0.15      0.01
   -2   16    4     -0.13      0.02
   -1   16    4     -0.46      0.03
    0   16    4     -0.72      0.03
    1   16    4     -0.68      0.03
    2   16    4     -0.12      0.03
    3   16    4      0.83      0.04
    4   16    4      1.48      0.06
    5   16    4      1.30      0.09
    6   16    4      0.57      0.08
    7   16    4     -0.01      0.01
    8   16    4     -0.07     -0.09
    9   16    4      0.24     -0.13
   10   16    4      0.57     -0.09
   11   16    4      0.67     -0.01
   12   16    4      0.44      0.05
   13   16    4      0.08      0.06
  -14   17    4     -0.22     -0.02
  -13   17    4     -0.38     -0.07
  -12   17    4     -0.30     -0.05
  -11   17    4      0.05     -0.01
  -10   17    4      0.45      0.01
   -9   17    4      0.56      0.01
   -8   17    4      0.25      0.01
   -7   17    4     -0.23      0.01
   -6   17    4     -0.52     -0.01
   -5   17    4     -0.56     -0.02
   -4   17    4     -0.60     -0.01
   -3   17    4     -0.74      0.01
   -2   17    4     -0.82      0.01
   -1   17    4     -0.69     -0.02
    0   17    4     -0.42     -0.06
    1   17    4     -0.22     -0.06
    2   17    4     -0.30     -0.03
    3   17    4     -0.66      0.00
    4   17    4     -0.99     -0.01
    5   17    4     -0.99     -0.04
    6   17    4     -0.65     -0.02
    7   17    4     -0.20      0.04
    8   17    4      0.17      0.10
    9   17    4      0.32      0.10
   10   17    4      0.16      0.06
   11   17    4     -0.16      0.03
  -12   18    4     -0.01      0.02
  -11   18    4     -0.54      0.01
  -10   18    4     -0.86      0.00
   -9   18    4     -0.66     -0.02
   -8   18    4     -0.10     -0.03
   -7   18    4      0.45     -0.03
   -6   18    4      0.76     -0.03
   -5   18    4      0.78     -0.02
   -4   18    4      0.60     -0.02
   -3   18    4      0.47     -0.02
   -2   18    4      0.54     -0.03
   -1   18    4      0.60     -0.03
    0   18    4      0.32      0.00
    1   18    4     -0.18      0.02
    2   18    4     -0.35      0.00
    3   18    4      0.16     -0.02
    4   18    4      0.98     -0.03
    5   18    4      1.44      0.00
    6   18    4      1.25      0.04
    7   18    4      0.70      0.04
    8   18    4      0.21      0.00
   -9   19    4      0.03      0.00
   -8   19    4      0.03      0.00
   -7   19    4     -0.17      0.01
   -6   19    4     -0.20      0.00
   -5   19    4     -0.04     -0.01
   -4   19    4      0.12     -0.01
   -3   19    4      0.22      0.01
   -2   19    4      0.27      0.03
   -1   19    4      0.17      0.03
    0   19    4     -0.02      0.01
    1   19    4     -0.01     -0.02
    2   19    4      0.35     -0.03
    3   19    4      0.79     -0.03
    4   19    4      0.88     -0.02
    5   19    4      0.56     -0.02
  -26    1    5     -0.02      0.00
  -25    1    5     -0.14      0.00
  -24    1    5     -0.16      0.00
  -23    1    5     -0.16      0.00
  -22    1    5     -0.15      0.00
  -21    1    5      0.16      0.02
  -20    1    5      0.86      0.01
  -19    1    5      1.41     -0.02
  -18    1    5      1.31     -0.04
  -17    1    5      0.94     -0.04
  -16    1    5      0.75     -0.02
  -15    1    5      0.37      0.01
  -14    1    5     -0.64      0.04
  -13    1    5     -1.26      0.06
  -12    1    5      0.26      0.06
  -11    1    5      3.52      0.02
  -10    1    5      4.78     -0.05
   -9    1    5      0.05     -0.10
   -8    1    5     -9.56     -0.10
   -7    1    5    -16.80     -0.06
   -6    1    5    -14.82     -0.03
   -5    1    5     -5.02     -0.03
   -4    1    5      3.87     -0.03
   -3    1    5      5.26      0.01
   -2    1    5      1.23      0.08
   -1    1    5     -1.65      0.11
    0    1    5     -0.52      0.07
    1    1    5      1.78      0.02
    2    1    5      1.22     -0.03
    3    1    5     -3.11     -0.10
    4    1    5     -8.42     -0.15
    5    1    5    -10.44     -0.13
    6    1    5     -7.13     -0.02
    7    1    5     -0.91      0.06
    8    1    5      3.60      0.06
    9    1    5      4.14      0.00
   10    1    5      2.21     -0.04
   11    1    5      0.32     -0.02
   12    1    5     -0.51      0.02
   13    1    5     -0.52      0.03
   14    1    5     -0.24      0.03
   15    1    5     -0.06      0.02
   16    1    5     -0.06      0.01
   17    1    5     -0.05      0.01
   18    1    5      0.08      0.01
   19    1    5      0.08      0.01
   20    1    5     -0.25      0.00
   21    1    5     -0.69      0.00
   22    1    5     -0.81      0.00
  -26    2    5      0.28     -0.01
  -25    2    5      0.00     -0.01
  -24    2    5     -0.09      0.00
  -23    2    5      0.15      0.00
  -22    2    5      0.38      0.00
  -21    2    5      0.26     -0.02
  -20    2    5     -0.30     -0.02
  -19    2    5     -1.04      0.00
  -18    2    5     -1.40      0.02
  -17    2    5     -1.13      0.04
  -16    2    5     -0.75      0.04
  -15    2    5     -0.66      0.02
  -14    2    5     -0.12      0.00
  -13    2    5      1.81     -0.03
  -12    2    5      4.28     -0.04
  -11    2    5      4.56     -0.03
  -10    2    5      0.92     -0.01
   -9    2    5     -4.48      0.03
   -8    2    5     -6.49      0.05
   -7    2    5     -2.24      0.03
   -6    2    5      4.55      0.01
   -5    2    5      6.11      0.01
   -4    2    5     -1.26      0.04
   -3    2    5    -12.08      0.06
   -2    2    5    -16.46      0.04
   -1    2    5     -9.91     -0.01
    0    2    5      2.39     -0.01
    1    2    5     11.36      0.03
    2    2    5     12.63      0.10
    3    2    5      9.18      0.14
    4    2    5      6.49      0.17
    5    2    5      6.53      0.17
    6    2    5      6.81      0.12
    7    2    5      4.68      0.03
    8    2    5      0.83     -0.04
    9    2    5     -2.04     -0.06
   10    2    5     -2.56     -0.02
   11    2    5     -1.37      0.01
   12    2    5      0.25      0.01
   13    2    5      1.30     -0.03
   14    2    5      1.34     -0.04
   15    2    5      0.78     -0.02
   16    2    5      0.45      0.00
   17    2    5      0.51      0.00
   18    2    5      0.50      0.00
   19    2    5      0.19      0.00
   20    2    5     -0.17      0.00
   21    2    5     -0.30      0.00
   22    2    5     -0.08      0.00
  -26    3    5     -0.46     -0.01
  -25    3    5     -0.45      0.02
  -24    3    5     -0.26      0.04
  -23    3    5     -0.39      0.03
  -22    3    5     -0.82      0.01
  -21    3    5     -1.01      0.01
  -20    3    5     -0.67      0.03
  -19    3    5     -0.12      0.04
  -18    3    5      0.04      0.01
  -17    3    5     -0.56     -0.02
  -16    3    5     -1.71     -0.03
  -15    3    5     -2.67     -0.02
  -14    3    5     -2.82      0.00
  -13    3    5     -2.20      0.01
  -12    3    5     -1.72      0.03
  -11    3    5     -2.59      0.02
  -10    3    5     -5.22      0.00
   -9    3    5     -8.43     -0.02
   -8    3    5    -10.24     -0.03
   -7    3    5     -9.77     -0.02
   -6    3    5     -8.34     -0.01
   -5    3    5     -7.93     -0.02
   -4    3    5     -8.17     -0.03
   -3    3    5     -5.64     -0.01
   -2    3    5      2.00      0.01
   -1    3    5     11.78      0.03
    0    3    5     17.30      0.06
    1    3    5     15.26      0.12
    2    3    5      8.55      0.19
    3    3    5      2.45      0.23
    4    3    5     -0.37      0.19
    5    3    5     -0.66      0.11
    6    3    5     -0.08      0.04
    7    3    5      0.72      0.02
    8    3    5      1.79      0.01
    9    3    5      2.92      0.01
   10    3    5      3.58      0.00
   11    3    5      3.45     -0.04
   12    3    5      2.54     -0.08
   13    3    5      1.34     -0.09
   14    3    5      0.63     -0.05
   15    3    5      0.71      0.01
   16    3    5      1.03      0.02
   17    3    5      1.00      0.01
   18    3    5      0.62      0.00
   19    3    5      0.10      0.00
   20    3    5     -0.41      0.00
   21    3    5     -0.64      0.00
  -25    4    5     -0.02      0.03
  -24    4    5     -0.11      0.02
  -23    4    5     -0.09     -0.01
  -22    4    5      0.17     -0.03
  -21    4    5      0.41     -0.01
  -20    4    5      0.28      0.03
  -19    4    5     -0.37      0.03
  -18    4    5     -1.24      0.00
  -17    4    5     -1.68     -0.02
  -16    4    5     -1.29     -0.01
  -15    4    5     -0.20      0.01
  -14    4    5      1.28      0.02
  -13    4    5      2.71      0.02
  -12    4    5      3.15      0.03
  -11    4    5      1.62      0.05
  -10    4    5     -1.25      0.05
   -9    4    5     -3.15      0.05
   -8    4    5     -2.04      0.04
   -7    4    5      1.45      0.03
   -6    4    5      4.01      0.04
   -5    4    5      2.48      0.06
   -4    4    5     -2.70      0.08
   -3    4    5     -7.42      0.06
   -2    4    5     -8.11      0.03
   -1    4    5     -5.17      0.01
    0    4    5     -1.83      0.03
    1    4    5     -0.52      0.08
    2    4    5     -1.01      0.12
    3    4    5     -1.61      0.09
    4    4    5     -1.44      0.03
    5    4    5     -1.23     -0.04
    6    4    5     -1.90     -0.09
    7    4    5     -2.81     -0.10
    8    4    5     -2.58     -0.09
    9    4    5     -1.13     -0.05
   10    4    5      0.26      0.00
   11    4    5      0.73      0.05
   12    4    5      0.67      0.06
   13    4    5      0.67      0.05
   14    4    5      0.66      0.04
   15    4    5      0.35      0.02
   16    4    5     -0.08      0.01
   17    4    5     -0.36      0.01
   18    4    5     -0.62      0.01
   19    4    5     -0.95      0.02
   20    4    5     -1.05      0.02
   21    4    5     -0.70      0.02
  -25    5    5      0.37      0.02
  -24    5    5      0.47      0.02
  -23    5    5      0.51      0.03
  -22    5    5      0.62      0.04
  -21    5    5      0.87      0.05
  -20    5    5      1.17      0.04
  -19    5    5      1.36      0.00
  -18    5    5      1.46     -0.03
  -17    5    5      1.45     -0.01
  -16    5    5      1.15      0.04
  -15    5    5      0.77      0.07
  -14    5    5      0.95      0.05
  -13    5    5      1.74      0.02
  -12    5    5      2.29     -0.01
  -11    5    5      1.97     -0.02
  -10    5    5      1.23     -0.05
   -9    5    5      1.22     -0.06
   -8    5    5      2.41     -0.06
   -7    5    5      3.55     -0.02
   -6    5    5      2.25      0.03
   -5    5    5     -2.22      0.06
   -4    5    5     -7.05      0.04
   -3    5    5     -8.16      0.01
   -2    5    5     -4.49     -0.01
   -1    5    5      1.04     -0.01
    0    5    5      4.66      0.01
    1    5    5      4.99      0.05
    2    5    5      3.25      0.07
    3    5    5      1.24      0.05
    4    5    5     -0.26      0.02
    5    5    5     -1.22      0.00
    6    5    5     -1.25      0.01
    7    5    5      0.05      0.04
    8    5    5      1.93      0.08
    9    5    5      2.84      0.11
   10    5    5      2.03      0.12
   11    5    5      0.18      0.07
   12    5    5     -1.45     -0.02
   13    5    5     -2.10     -0.07
   14    5    5     -1.77     -0.05
   15    5    5     -0.96      0.01
   16    5    5     -0.30      0.04
   17    5    5     -0.11      0.03
   18    5    5     -0.32      0.01
   19    5    5     -0.54      0.01
   20    5    5     -0.51      0.01
   21    5    5     -0.22      0.01
  -25    6    5      0.61      0.01
  -24    6    5      0.42      0.01
  -23    6    5      0.44      0.00
  -22    6    5      0.76     -0.01
  -21    6    5      1.12     -0.02
  -20    6    5      1.24     -0.01
  -19    6    5      1.02     -0.01
  -18    6    5      0.53      0.00
  -17    6    5      0.09      0.02
  -16    6    5      0.27      0.02
  -15    6    5      1.59     -0.01
  -14    6    5      3.78     -0.04
  -13    6    5      5.56     -0.04
  -12    6    5      5.60     -0.01
  -11    6    5      3.74      0.02
  -10    6    5      1.29      0.03
   -9    6    5     -0.05      0.04
   -8    6    5      0.02      0.07
   -7    6    5     -0.25      0.11
   -6    6    5     -2.62      0.13
   -5    6    5     -6.25      0.10
   -4    6    5     -8.13      0.05
   -3    6    5     -6.20      0.00
   -2    6    5     -1.36     -0.02
   -1    6    5      3.48     -0.02
    0    6    5      5.82     -0.01
    1    6    5      5.08     -0.03
    2    6    5      2.62     -0.06
    3    6    5      0.33     -0.08
    4    6    5     -0.76     -0.08
    5    6    5     -0.63     -0.05
    6    6    5      0.33     -0.02
    7    6    5      1.65     -0.02
    8    6    5      2.67     -0.05
    9    6    5      2.72     -0.08
   10    6    5      1.82     -0.06
   11    6    5      0.84     -0.01
   12    6    5      0.75      0.04
   13    6    5      1.48      0.05
   14    6    5      2.05      0.02
   15    6    5      1.76     -0.01
   16    6    5      0.84     -0.01
   17    6    5     -0.08      0.01
   18    6    5     -0.68      0.01
   19    6    5     -0.88      0.00
   20    6    5     -0.65      0.01
   21    6    5     -0.10      0.02
  -24    7    5     -0.93      0.02
  -23    7    5     -0.60      0.02
  -22    7    5      0.15      0.01
  -21    7    5      0.99      0.00
  -20    7    5      1.39     -0.01
  -19    7    5      1.10     -0.01
  -18    7    5      0.45     -0.01
  -17    7    5      0.10     -0.01
  -16    7    5      0.52     -0.01
  -15    7    5      1.53      0.00
  -14    7    5      2.32      0.01
  -13    7    5      1.99      0.04
  -12    7    5      0.39      0.06
  -11    7    5     -1.61      0.07
  -10    7    5     -2.88      0.07
   -9    7    5     -2.89      0.05
   -8    7    5     -2.02      0.04
   -7    7    5     -1.08      0.02
   -6    7    5     -0.51      0.00
   -5    7    5      0.15      0.00
   -4    7    5      1.82      0.01
   -3    7    5      4.47      0.02
   -2    7    5      6.59      0.01
   -1    7    5      6.55      0.00
    0    7    5      4.35     -0.03
    1    7    5      1.51     -0.05
    2    7    5     -0.59     -0.05
    3    7    5     -1.73     -0.01
    4    7    5     -2.29      0.06
    5    7    5     -2.49      0.10
    6    7    5     -2.28      0.07
    7    7    5     -1.79     -0.02
    8    7    5     -1.45     -0.05
    9    7    5     -1.64      0.03
   10    7    5     -2.16      0.10
   11    7    5     -2.26      0.09
   12    7    5     -1.54     -0.01
   13    7    5     -0.48     -0.08
   14    7    5      0.08     -0.06
   15    7    5     -0.12      0.03
   16    7    5     -0.60      0.06
   17    7    5     -0.81      0.02
   18    7    5     -0.61     -0.03
   19    7    5     -0.24     -0.03
   20    7    5      0.09      0.02
  -24    8    5      0.63      0.01
  -23    8    5      1.24      0.01
  -22    8    5      1.81      0.00
  -21    8    5      1.79      0.01
  -20    8    5      0.99      0.01
  -19    8    5     -0.18     -0.01
  -18    8    5     -1.12     -0.01
  -17    8    5     -1.52      0.01
  -16    8    5     -1.42      0.04
  -15    8    5     -1.18      0.07
  -14    8    5     -1.37      0.08
  -13    8    5     -2.24      0.06
  -12    8    5     -3.38      0.05
  -11    8    5     -4.07      0.04
  -10    8    5     -3.80      0.03
   -9    8    5     -2.39      0.00
   -8    8    5     -0.06     -0.03
   -7    8    5      2.32     -0.05
   -6    8    5      3.83     -0.03
   -5    8    5      4.49      0.01
   -4    8    5      4.97      0.03
   -3    8    5      5.39      0.01
   -2    8    5      5.39     -0.01
   -1    8    5      4.89     -0.04
    0    8    5      4.05     -0.04
    1    8    5      2.84     -0.02
    2    8    5      1.29      0.02
    3    8    5     -0.07      0.04
    4    8    5     -0.58      0.02
    5    8    5      0.06     -0.05
    6    8    5      1.53     -0.12
    7    8    5      2.92     -0.13
    8    8    5      3.30     -0.09
    9    8    5      2.56     -0.07
   10    8    5      1.54     -0.09
   11    8    5      1.10     -0.10
   12    8    5      1.27     -0.07
   13    8    5      1.38      0.00
   14    8    5      0.92      0.04
   15    8    5      0.09      0.02
   16    8    5     -0.51     -0.02
   17    8    5     -0.59     -0.03
   18    8    5     -0.44      0.00
   19    8    5     -0.40      0.03
   20    8    5     -0.44      0.04
  -23    9    5     -0.29      0.01
  -22    9    5     -0.39      0.02
  -21    9    5     -0.74      0.02
  -20    9    5     -1.34      0.00
  -19    9    5     -2.03     -0.02
  -18    9    5     -2.64     -0.02
  -17    9    5     -2.94      0.00
  -16    9    5     -2.74      0.00
  -15    9    5     -2.22     -0.01
  -14    9    5     -1.84     -0.04
  -13    9    5     -1.69     -0.06
  -12    9    5     -1.38     -0.06
  -11    9    5     -0.73     -0.04
  -10    9    5      0.04     -0.03
   -9    9    5      0.80     -0.03
   -8    9    5      1.58     -0.02
   -7    9    5      2.26      0.00
   -6    9    5      2.56      0.04
   -5    9    5      2.35      0.05
   -4    9    5      1.84      0.05
   -3    9    5      1.45      0.04
   -2    9    5      1.36      0.03
   -1    9    5      1.16      0.01
    0    9    5      0.42      0.00
    1    9    5     -0.53      0.00
    2    9    5     -0.91     -0.01
    3    9    5     -0.52     -0.01
    4    9    5      0.22      0.00
    5    9    5      0.80      0.03
    6    9    5      0.88      0.05
    7    9    5      0.46      0.05
    8    9    5     -0.11      0.04
    9    9    5     -0.44      0.05
   10    9    5     -0.50      0.05
   11    9    5     -0.34      0.04
   12    9    5      0.12      0.02
   13    9    5      0.72      0.00
   14    9    5      0.91      0.00
   15    9    5      0.47      0.01
   16    9    5     -0.11      0.02
   17    9    5     -0.34      0.01
   18    9    5     -0.31     -0.01
   19    9    5     -0.32     -0.02
  -22   10    5      0.45      0.01
  -21   10    5      0.71     -0.01
  -20   10    5      0.52     -0.04
  -19   10    5      0.06     -0.06
  -18   10    5     -0.26     -0.05
  -17   10    5     -0.17     -0.03
  -16   10    5      0.27     -0.03
  -15   10    5      0.73     -0.02
  -14   10    5      0.95     -0.01
  -13   10    5      1.02      0.00
  -12   10    5      0.98      0.01
  -11   10    5      0.71      0.02
  -10   10    5      0.24      0.02
   -9   10    5     -0.04      0.01
   -8   10    5      0.07      0.00
   -7   10    5      0.32     -0.01
   -6   10    5      0.40     -0.01
   -5   10    5      0.40      0.00
   -4   10    5      0.85      0.01
   -3   10    5      1.85     -0.01
   -2   10    5      2.73     -0.05
   -1   10    5      2.66     -0.07
    0   10    5      1.65     -0.06
    1   10    5      0.45     -0.03
    2   10    5     -0.42      0.00
    3   10    5     -0.90      0.00
    4   10    5     -0.96     -0.01
    5   10    5     -0.51     -0.03
    6   10    5      0.33     -0.05
    7   10    5      1.06     -0.04
    8   10    5      1.02     -0.01
    9   10    5      0.18     -0.01
   10   10    5     -0.66     -0.05
   11   10    5     -0.66     -0.07
   12   10    5      0.04     -0.05
   13   10    5      0.58      0.01
   14   10    5      0.48      0.03
   15   10    5      0.00      0.00
   16   10    5     -0.29     -0.03
   17   10    5     -0.20     -0.03
   18   10    5     -0.07      0.00
  -22   11    5      1.65     -0.02
  -21   11    5      1.60     -0.01
  -20   11    5      0.98      0.01
  -19   11    5      0.33      0.02
  -18   11    5      0.03      0.04
  -17   11    5      0.18      0.04
  -16   11    5      0.59      0.04
  -15   11    5      0.93      0.04
  -14   11    5      0.96      0.04
  -13   11    5      0.74      0.02
  -12   11    5      0.33      0.01
  -11   11    5     -0.18      0.01
  -10   11    5     -0.60      0.02
   -9   11    5     -0.75      0.02
   -8   11    5     -0.62      0.02
   -7   11    5     -0.31      0.03
   -6   11    5      0.06      0.05
   -5   11    5      0.47      0.05
   -4   11    5      0.88      0.04
   -3   11    5      1.09      0.01
   -2   11    5      0.75      0.00
   -1   11    5     -0.21      0.01
    0   11    5     -1.39      0.01
    1   11    5     -2.05     -0.01
    2   11    5     -1.68     -0.03
    3   11    5     -0.48     -0.02
    4   11    5      0.76      0.03
    5   11    5      1.31      0.09
    6   11    5      1.01      0.11
    7   11    5      0.15      0.06
    8   11    5     -0.66     -0.04
    9   11    5     -0.82     -0.12
   10   11    5     -0.29     -0.12
   11   11    5      0.38     -0.05
   12   11    5      0.82      0.03
   13   11    5      0.95      0.05
   14   11    5      0.59      0.02
   15   11    5     -0.25     -0.01
   16   11    5     -0.99      0.00
   17   11    5     -1.16      0.02
   18   11    5     -0.95      0.03
  -21   12    5     -0.47      0.04
  -20   12    5     -1.08      0.00
  -19   12    5     -1.49     -0.05
  -18   12    5     -1.45     -0.06
  -17   12    5     -1.04     -0.02
  -16   12    5     -0.63      0.03
  -15   12    5     -0.40      0.04
  -14   12    5     -0.29      0.01
  -13   12    5     -0.24     -0.01
  -12   12    5     -0.29     -0.02
  -11   12    5     -0.28     -0.02
  -10   12    5      0.01     -0.02
   -9   12    5      0.39     -0.02
   -8   12    5      0.48     -0.02
   -7   12    5      0.21      0.00
   -6   12    5     -0.07      0.01
   -5   12    5      0.03      0.01
   -4   12    5      0.51     -0.01
   -3   12    5      1.01     -0.02
   -2   12    5      1.01     -0.03
   -1   12    5      0.31     -0.03
    0   12    5     -0.54     -0.02
    1   12    5     -0.71     -0.02
    2   12    5     -0.22     -0.02
    3   12    5      0.06      0.00
    4   12    5     -0.43      0.01
    5   12    5     -1.12     -0.03
    6   12    5     -1.30     -0.14
    7   12    5     -1.02     -0.24
    8   12    5     -0.74     -0.25
    9   12    5     -0.64     -0.15
   10   12    5     -0.60     -0.05
   11   12    5     -0.47      0.01
   12   12    5     -0.24      0.03
   13   12    5     -0.24      0.03
   14   12    5     -0.65      0.02
   15   12    5     -1.03      0.00
   16   12    5     -0.84     -0.02
   17   12    5     -0.24     -0.03
  -20   13    5     -1.32      0.00
  -19   13    5     -1.51      0.06
  -18   13    5     -1.07      0.17
  -17   13    5     -0.44      0.24
  -16   13    5     -0.15      0.21
  -15   13    5     -0.22      0.11
  -14   13    5     -0.27      0.03
  -13   13    5      0.00     -0.01
  -12   13    5      0.47     -0.01
  -11   13    5      0.92      0.00
  -10   13    5      1.21      0.01
   -9   13    5      1.29      0.02
   -8   13    5      1.09      0.03
   -7   13    5      0.62      0.03
   -6   13    5      0.19      0.02
   -5   13    5      0.21      0.01
   -4   13    5      0.56      0.01
   -3   13    5      0.58      0.00
   -2   13    5     -0.18      0.00
   -1   13    5     -1.35      0.01
    0   13    5     -2.02      0.01
    1   13    5     -1.83      0.01
    2   13    5     -1.32      0.01
    3   13    5     -1.06      0.02
    4   13    5     -0.95      0.06
    5   13    5     -0.66      0.12
    6   13    5     -0.36      0.15
    7   13    5     -0.38      0.10
    8   13    5     -0.55     -0.02
    9   13    5     -0.44     -0.13
   10   13    5      0.01     -0.17
   11   13    5      0.39     -0.12
   12   13    5      0.32     -0.03
   13   13    5     -0.16      0.01
   14   13    5     -0.65      0.00
   15   13    5     -0.76     -0.02
   16   13    5     -0.56     -0.03
  -19   14    5      0.10     -0.17
  -18   14    5      0.57     -0.12
  -17   14    5      0.53      0.00
  -16   14    5      0.16      0.12
  -15   14    5      0.11      0.16
  -14   14    5      0.62      0.12
  -13   14    5      1.14      0.05
  -12   14    5      1.11      0.01
  -11   14    5      0.83      0.01
  -10   14    5      0.86      0.03
   -9   14    5      0.89      0.03
   -8   14    5      0.20      0.02
   -7   14    5     -0.91      0.02
   -6   14    5     -1.34      0.03
   -5   14    5     -0.72      0.02
   -4   14    5      0.10      0.00
   -3   14    5      0.22     -0.01
   -2   14    5     -0.28      0.01
   -1   14    5     -0.64      0.03
    0   14    5     -0.27      0.02
    1   14    5      0.67      0.00
    2   14    5      1.40     -0.01
    3   14    5      1.26      0.02
    4   14    5      0.40      0.02
    5   14    5     -0.46     -0.10
    6   14    5     -0.83     -0.39
    7   14    5     -0.67     -0.70
    8   14    5     -0.18     -0.80
    9   14    5      0.37     -0.61
   10   14    5      0.54     -0.30
   11   14    5      0.11     -0.07
   12   14    5     -0.54      0.02
   13   14    5     -0.82      0.02
   14   14    5     -0.54      0.00
   15   14    5     -0.06     -0.02
  -17   15    5     -0.61      0.79
  -16   15    5     -0.67      0.67
  -15   15    5     -0.69      0.35
  -14   15    5     -0.78      0.07
  -13   15    5     -0.87     -0.03
  -12   15    5     -0.72      0.00
  -11   15    5     -0.24      0.04
  -10   15    5      0.22      0.04
   -9   15    5      0.15      0.02
   -8   15    5     -0.41     -0.01
   -7   15    5     -0.80     -0.02
   -6   15    5     -0.62     -0.01
   -5   15    5     -0.08      0.00
   -4   15    5      0.32      0.01
   -3   15    5      0.24      0.00
   -2   15    5     -0.13     -0.01
   -1   15    5     -0.26     -0.01
    0   15    5      0.07      0.01
    1   15    5      0.30      0.04
    2   15    5     -0.28      0.04
    3   15    5     -1.42     -0.02
    4   15    5     -1.98     -0.12
    5   15    5     -1.39     -0.19
    6   15    5     -0.30     -0.20
    7   15    5      0.39     -0.11
    8   15    5      0.39      0.03
    9   15    5     -0.07      0.15
   10   15    5     -0.60      0.18
   11   15    5     -0.90      0.13
   12   15    5     -0.87      0.05
   13   15    5     -0.72     -0.01
  -16   16    5      0.08     -0.12
  -15   16    5      0.08     -0.18
  -14   16    5      0.34     -0.14
  -13   16    5      0.60     -0.05
  -12   16    5      0.59      0.00
  -11   16    5      0.35      0.02
  -10   16    5      0.05      0.01
   -9   16    5     -0.30     -0.02
   -8   16    5     -0.66     -0.04
   -7   16    5     -0.78     -0.03
   -6   16    5     -0.40      0.01
   -5   16    5      0.22      0.03
   -4   16    5      0.51      0.01
   -3   16    5      0.31     -0.03
   -2   16    5     -0.03     -0.04
   -1   16    5     -0.09     -0.01
    0   16    5      0.19      0.01
    1   16    5      0.58     -0.02
    2   16    5      0.92     -0.08
    3   16    5      1.19     -0.11
    4   16    5      1.28     -0.08
    5   16    5      1.05     -0.05
    6   16    5      0.57     -0.10
    7   16    5      0.16     -0.21
    8   16    5      0.06     -0.26
    9   16    5      0.23     -0.21
   10   16    5      0.46     -0.11
   11   16    5      0.45     -0.05
   12   16    5      0.15     -0.02
  -14   17    5      0.12      0.02
  -13   17    5     -0.01      0.01
  -12   17    5      0.13      0.02
  -11   17    5      0.59      0.01
  -10   17    5      1.07      0.00
   -9   17    5      1.19     -0.01
   -8   17    5      0.97     -0.01
   -7   17    5      0.68      0.00
   -6   17    5      0.51      0.02
   -5   17    5      0.41      0.03
   -4   17    5      0.33      0.02
   -3   17    5      0.22      0.01
   -2   17    5      0.11      0.00
   -1   17    5      0.29      0.00
    0   17    5      0.87     -0.01
    1   17    5      1.29     -0.02
    2   17    5      0.85     -0.01
    3   17    5     -0.32      0.01
    4   17    5     -1.37      0.03
    5   17    5     -1.66      0.02
    6   17    5     -1.32     -0.01
    7   17    5     -0.83     -0.02
    8   17    5     -0.57      0.01
    9   17    5     -0.60      0.06
   10   17    5     -0.76      0.06
  -12   18    5      0.50      0.04
  -11   18    5      0.58      0.03
  -10   18    5      0.14      0.03
   -9   18    5     -0.59      0.02
   -8   18    5     -0.92      0.01
   -7   18    5     -0.60      0.01
   -6   18    5     -0.07      0.03
   -5   18    5      0.23      0.04
   -4   18    5      0.28      0.04
   -3   18    5      0.31      0.02
   -2   18    5      0.50      0.00
   -1   18    5      0.76     -0.01
    0   18    5      0.80     -0.01
    1   18    5      0.44     -0.02
    2   18    5      0.01     -0.03
    3   18    5     -0.16     -0.03
    4   18    5     -0.15     -0.01
    5   18    5     -0.16      0.00
    6   18    5     -0.09     -0.01
    7   18    5      0.13     -0.05
    8   18    5      0.34     -0.07
   -8   19    5      0.59     -0.01
   -7   19    5      0.88     -0.02
   -6   19    5      0.64     -0.01
   -5   19    5      0.28      0.01
   -4   19    5      0.20      0.00
   -3   19    5      0.22     -0.02
   -2   19    5      0.02     -0.05
   -1   19    5     -0.31     -0.05
    0   19    5     -0.46     -0.05
    1   19    5     -0.35     -0.04
    2   19    5     -0.31     -0.03
    3   19    5     -0.57     -0.02
    4   19    5     -0.90     -0.01
  -26    0    6      0.04     -0.01
  -25    0    6      0.11      0.00
  -24    0    6      0.19      0.01
  -23    0    6      0.28      0.02
  -22    0    6      0.35      0.00
  -21    0    6      0.16     -0.02
  -20    0    6     -0.40     -0.04
  -19    0    6     -0.84     -0.04
  -18    0    6     -0.79     -0.02
  -17    0    6     -0.89      0.00
  -16    0    6     -2.01      0.02
  -15    0    6     -3.64      0.03
  -14    0    6     -4.23      0.02
  -13    0    6     -3.19      0.00
  -12    0    6     -2.13     -0.02
  -11    0    6     -3.69     -0.04
  -10    0    6     -8.51     -0.06
   -9    0    6    -13.31     -0.09
   -8    0    6    -13.18     -0.09
   -7    0    6     -6.70     -0.08
   -6    0    6      2.59     -0.04
   -5    0    6      9.92     -0.02
   -4    0    6     13.10     -0.05
   -3    0    6     12.68     -0.08
   -2    0    6     10.24     -0.05
   -1    0    6      6.87      0.02
    0    0    6      2.38      0.02
    1    0    6     -3.58     -0.11
    2    0    6     -9.30     -0.25
    3    0    6    -11.15     -0.23
    4    0    6     -7.51     -0.05
    5    0    6     -1.58      0.14
    6    0    6      1.52      0.21
    7    0    6      0.15      0.19
    8    0    6     -2.89      0.14
    9    0    6     -4.19      0.10
   10    0    6     -2.95      0.08
   11    0    6     -0.51      0.06
   12    0    6      1.41      0.03
   13    0    6      1.95      0.00
   14    0    6      1.54     -0.01
   15    0    6      1.19      0.00
   16    0    6      1.15      0.00
   17    0    6      0.85     -0.01
   18    0    6      0.14     -0.02
   19    0    6     -0.42      0.00
   20    0    6     -0.40      0.02
   21    0    6     -0.03      0.01
  -26    1    6     -0.40      0.01
  -25    1    6     -0.43      0.02
  -24    1    6     -0.47      0.01
  -23    1    6     -0.48      0.00
  -22    1    6     -0.35      0.00
  -21    1    6     -0.14      0.01
  -20    1    6      0.03      0.00
  -19    1    6      0.13      0.00
  -18    1    6      0.01      0.01
  -17    1    6     -0.32      0.01
  -16    1    6     -0.32      0.00
  -15    1    6      0.54     -0.04
  -14    1    6      1.84     -0.07
  -13    1    6      2.37     -0.08
  -12    1    6      1.35     -0.05
  -11    1    6     -0.47      0.00
  -10    1    6     -0.92      0.03
   -9    1    6      1.78      0.01
   -8    1    6      6.51     -0.01
   -7    1    6      9.27     -0.01
   -6    1    6      6.74      0.00
   -5    1    6     -0.34      0.00
   -4    1    6     -7.80      0.00
   -3    1    6    -11.83      0.02
   -2    1    6    -12.15      0.03
   -1    1    6    -11.39     -0.01
    0    1    6    -11.58     -0.10
    1    1    6    -11.80     -0.15
    2    1    6     -9.77     -0.11
    3    1    6     -5.31     -0.01
    4    1    6     -0.94      0.01
    5    1    6      0.65     -0.05
    6    1    6     -0.69     -0.11
    7    1    6     -2.76     -0.10
    8    1    6     -3.31     -0.02
    9    1    6     -1.89      0.04
   10    1    6      0.33      0.04
   11    1    6      1.82      0.02
   12    1    6      1.96      0.02
   13    1    6      1.28      0.02
   14    1    6      0.69      0.02
   15    1    6      0.45      0.02
   16    1    6      0.23      0.02
   17    1    6     -0.10      0.01
   18    1    6     -0.27     -0.01
   19    1    6     -0.16     -0.02
   20    1    6      0.09     -0.02
   21    1    6      0.32     -0.02
  -26    2    6     -0.17      0.01
  -25    2    6      0.10      0.00
  -24    2    6      0.50      0.00
  -23    2    6      0.98      0.02
  -22    2    6      1.19      0.03
  -21    2    6      0.64      0.02
  -20    2    6     -0.54      0.00
  -19    2    6     -1.47     -0.01
  -18    2    6     -1.44      0.00
  -17    2    6     -0.59      0.02
  -16    2    6      0.39      0.04
  -15    2    6      0.95      0.07
  -14    2    6      1.03      0.09
  -13    2    6      0.85      0.10
  -12    2    6      0.51      0.09
  -11    2    6      0.02      0.07
  -10    2    6     -0.65      0.04
   -9    2    6     -1.81      0.00
   -8    2    6     -4.16     -0.05
   -7    2    6     -7.95     -0.07
   -6    2    6    -11.63     -0.06
   -5    2    6    -12.14     -0.05
   -4    2    6     -7.85     -0.07
   -3    2    6     -0.79     -0.09
   -2    2    6      4.97     -0.08
   -1    2    6      7.37     -0.01
    0    2    6      7.61      0.07
    1    2    6      7.66      0.06
    2    2    6      8.17     -0.05
    3    2    6      8.70     -0.15
    4    2    6      8.42     -0.17
    5    2    6      6.47     -0.10
    6    2    6      3.14      0.00
    7    2    6      0.34      0.06
    8    2    6     -0.12      0.06
    9    2    6      1.44      0.02
   10    2    6      3.16     -0.02
   11    2    6      3.69      0.00
   12    2    6      3.10      0.04
   13    2    6      2.18      0.05
   14    2    6      1.53      0.03
   15    2    6      1.21      0.01
   16    2    6      1.01      0.01
   17    2    6      0.65      0.00
   18    2    6      0.20     -0.01
   19    2    6      0.01     -0.01
   20    2    6      0.21      0.01
   21    2    6      0.41      0.02
  -26    3    6      0.33     -0.02
  -25    3    6      0.81     -0.02
  -24    3    6      0.86     -0.01
  -23    3    6      0.30      0.00
  -22    3    6     -0.57      0.00
  -21    3    6     -1.14     -0.01
  -20    3    6     -0.83     -0.01
  -19    3    6      0.47      0.00
  -18    3    6      2.08      0.02
  -17    3    6      3.09      0.03
  -16    3    6      3.22      0.03
  -15    3    6      2.78      0.02
  -14    3    6      1.95      0.01
  -13    3    6      0.46      0.00
  -12    3    6     -1.84      0.00
  -11    3    6     -4.55      0.01
  -10    3    6     -6.71      0.01
   -9    3    6     -7.57      0.00
   -8    3    6     -7.43     -0.02
   -7    3    6     -7.57     -0.01
   -6    3    6     -8.57      0.00
   -5    3    6     -9.01     -0.03
   -4    3    6     -6.83     -0.05
   -3    3    6     -1.90     -0.04
   -2    3    6      3.32      0.02
   -1    3    6      5.84      0.06
    0    3    6      4.70      0.04
    1    3    6      1.61     -0.05
    2    3    6     -0.96     -0.11
    3    3    6     -2.22     -0.11
    4    3    6     -3.06     -0.05
    5    3    6     -3.87      0.01
    6    3    6     -3.67      0.05
    7    3    6     -1.81      0.09
    8    3    6      0.70      0.10
    9    3    6      2.38      0.07
   10    3    6      2.56      0.02
   11    3    6      1.58     -0.01
   12    3    6      0.31     -0.02
   13    3    6     -0.31      0.00
   14    3    6     -0.06      0.01
   15    3    6      0.35      0.01
   16    3    6      0.26      0.00
   17    3    6     -0.14      0.00
   18    3    6     -0.27      0.01
   19    3    6     -0.07      0.01
   20    3    6      0.14      0.01
   21    3    6      0.14      0.02
  -25    4    6      0.78      0.00
  -24    4    6      0.43      0.02
  -23    4    6      0.24      0.03
  -22    4    6      0.35      0.02
  -21    4    6      0.52      0.00
  -20    4    6      0.59     -0.01
  -19    4    6      0.45      0.01
  -18    4    6     -0.12      0.03
  -17    4    6     -1.07      0.04
  -16    4    6     -1.91      0.04
  -15    4    6     -2.23      0.05
  -14    4    6     -2.23      0.07
  -13    4    6     -2.55      0.08
  -12    4    6     -3.34      0.10
  -11    4    6     -3.63      0.12
  -10    4    6     -2.34      0.11
   -9    4    6     -0.25      0.05
   -8    4    6      0.15     -0.01
   -7    4    6     -2.10     -0.04
   -6    4    6     -3.96     -0.04
   -5    4    6     -1.07     -0.04
   -4    4    6      6.73     -0.03
   -3    4    6     14.12     -0.02
   -2    4    6     15.37      0.04
   -1    4    6      9.84      0.10
    0    4    6      2.24      0.13
    1    4    6     -2.29      0.09
    2    4    6     -2.40      0.02
    3    4    6     -0.29     -0.01
    4    4    6      1.28      0.00
    5    4    6      1.32      0.04
    6    4    6      0.42      0.05
    7    4    6     -0.52      0.03
    8    4    6     -1.05     -0.03
    9    4    6     -1.34     -0.09
   10    4    6     -1.60     -0.10
   11    4    6     -1.58     -0.03
   12    4    6     -0.94      0.04
   13    4    6      0.10      0.07
   14    4    6      0.77      0.03
   15    4    6      0.67     -0.01
   16    4    6      0.13     -0.01
   17    4    6     -0.33      0.01
   18    4    6     -0.47      0.00
   19    4    6     -0.24     -0.01
   20    4    6      0.23      0.00
   21    4    6      0.56      0.00
  -25    5    6      0.61      0.00
  -24    5    6      0.50     -0.01
  -23    5    6      0.38     -0.03
  -22    5    6      0.31     -0.03
  -21    5    6      0.20     -0.03
  -20    5    6     -0.02     -0.01
  -19    5    6     -0.28      0.00
  -18    5    6     -0.32      0.01
  -17    5    6      0.07     -0.01
  -16    5    6      0.70     -0.03
  -15    5    6      0.94     -0.02
  -14    5    6      0.16     -0.01
  -13    5    6     -1.48     -0.01
  -12    5    6     -2.79     -0.04
  -11    5    6     -2.45     -0.07
  -10    5    6     -0.67     -0.07
   -9    5    6      0.81     -0.04
   -8    5    6      0.81      0.01
   -7    5    6      0.31      0.05
   -6    5    6      1.19      0.05
   -5    5    6      3.60      0.02
   -4    5    6      5.12      0.00
   -3    5    6      3.05      0.01
   -2    5    6     -2.57      0.05
   -1    5    6     -8.32      0.07
    0    5    6    -10.29      0.03
    1    5    6     -7.47     -0.03
    2    5    6     -2.36     -0.06
    3    5    6      1.64     -0.04
    4    5    6      3.18      0.00
    5    5    6      3.42      0.02
    6    5    6      3.93      0.00
    7    5    6      4.72     -0.01
    8    5    6      4.82      0.02
    9    5    6      3.99      0.07
   10    5    6      2.87      0.09
   11    5    6      1.94      0.06
   12    5    6      1.21      0.00
   13    5    6      0.66     -0.04
   14    5    6      0.34     -0.04
   15    5    6      0.10     -0.02
   16    5    6     -0.18      0.00
   17    5    6     -0.23      0.00
   18    5    6      0.27      0.01
   19    5    6      1.07      0.02
   20    5    6      1.48      0.01
  -25    6    6      1.02     -0.02
  -24    6    6      1.53     -0.02
  -23    6    6      2.14     -0.02
  -22    6    6      2.18     -0.01
  -21    6    6      1.41     -0.01
  -20    6    6      0.41     -0.02
  -19    6    6     -0.06     -0.02
  -18    6    6      0.17     -0.02
  -17    6    6      0.63     -0.03
  -16    6    6      0.84     -0.04
  -15    6    6      0.80     -0.03
  -14    6    6      0.86     -0.02
  -13    6    6      1.35      0.00
  -12    6    6      2.58      0.02
  -11    6    6      4.60      0.04
  -10    6    6      6.81      0.06
   -9    6    6      7.76      0.04
   -8    6    6      6.17      0.01
   -7    6    6      2.54      0.00
   -6    6    6     -0.87      0.00
   -5    6    6     -2.48      0.00
   -4    6    6     -3.24     -0.01
   -3    6    6     -4.89     -0.02
   -2    6    6     -6.98     -0.01
   -1    6    6     -7.20     -0.02
    0    6    6     -4.31     -0.03
    1    6    6      0.28     -0.06
    2    6    6      3.93     -0.07
    3    6    6      4.94     -0.08
    4    6    6      3.60     -0.10
    5    6    6      1.32     -0.10
    6    6    6     -0.89     -0.02
    7    6    6     -2.76      0.09
    8    6    6     -4.00      0.14
    9    6    6     -4.14      0.08
   10    6    6     -3.30     -0.02
   11    6    6     -2.10     -0.04
   12    6    6     -1.03      0.00
   13    6    6     -0.32      0.05
   14    6    6     -0.02      0.04
   15    6    6      0.03      0.00
   16    6    6      0.14     -0.02
   17    6    6      0.45      0.01
   18    6    6      0.84      0.02
   19    6    6      1.04      0.00
   20    6    6      0.89     -0.02
  -24    7    6      1.60     -0.01
  -23    7    6      0.99     -0.02
  -22    7    6     -0.12     -0.03
  -21    7    6     -0.80     -0.04
  -20    7    6     -0.60     -0.03
  -19    7    6      0.29      0.00
  -18    7    6      1.34      0.03
  -17    7    6      2.11      0.02
  -16    7    6      2.39      0.00
  -15    7    6      2.24     -0.01
  -14    7    6      1.88     -0.01
  -13    7    6      1.68     -0.01
  -12    7    6      2.04     -0.02
  -11    7    6      2.89     -0.04
  -10    7    6      3.27     -0.04
   -9    7    6      2.04      0.00
   -8    7    6     -0.64      0.06
   -7    7    6     -2.95      0.10
   -6    7    6     -3.24      0.08
   -5    7    6     -2.00      0.04
   -4    7    6     -1.00      0.01
   -3    7    6     -1.04      0.01
   -2    7    6     -1.34      0.02
   -1    7    6     -1.08      0.03
    0    7    6     -0.24      0.03
    1    7    6      0.47      0.04
    2    7    6      0.27      0.04
    3    7    6     -0.72      0.02
    4    7    6     -1.42      0.01
    5    7    6     -1.04      0.01
    6    7    6     -0.05     -0.01
    7    7    6      0.65     -0.04
    8    7    6      0.87     -0.07
    9    7    6      0.77     -0.07
   10    7    6      0.38     -0.04
   11    7    6     -0.31     -0.01
   12    7    6     -1.07     -0.01
   13    7    6     -1.51     -0.02
   14    7    6     -1.39     -0.03
   15    7    6     -0.94     -0.02
   16    7    6     -0.60     -0.01
   17    7    6     -0.39      0.01
   18    7    6     -0.02      0.01
   19    7    6      0.41      0.01
   20    7    6      0.45      0.00
  -24    8    6      0.45      0.01
  -23    8    6      0.46      0.00
  -22    8    6      0.61      0.00
  -21    8    6      0.89      0.01
  -20    8    6      1.18      0.03
  -19    8    6      1.39      0.03
  -18    8    6      1.50      0.00
  -17    8    6      1.49     -0.05
  -16    8    6      1.35     -0.09
  -15    8    6      1.14     -0.08
  -14    8    6      1.04     -0.04
  -13    8    6      1.13      0.00
  -12    8    6      1.22      0.02
  -11    8    6      1.01      0.03
  -10    8    6      0.46      0.03
   -9    8    6     -0.18      0.03
   -8    8    6     -0.49      0.02
   -7    8    6      0.05     -0.01
   -6    8    6      1.45     -0.03
   -5    8    6      2.81     -0.03
   -4    8    6      2.88     -0.02
   -3    8    6      1.29      0.00
   -2    8    6     -1.02      0.02
   -1    8    6     -2.53      0.03
    0    8    6     -2.36      0.03
    1    8    6     -0.89      0.01
    2    8    6      0.91     -0.02
    3    8    6      2.25     -0.07
    4    8    6      2.71     -0.12
    5    8    6      2.13     -0.10
    6    8    6      0.81      0.00
    7    8    6     -0.58      0.11
    8    8    6     -1.49      0.14
    9    8    6     -1.68      0.06
   10    8    6     -1.13     -0.04
   11    8    6     -0.25     -0.08
   12    8    6      0.32     -0.06
   13    8    6      0.44     -0.02
   14    8    6      0.46     -0.02
   15    8    6      0.57     -0.04
   16    8    6      0.63     -0.04
   17    8    6      0.54     -0.01
   18    8    6      0.34      0.01
   19    8    6      0.01      0.00
  -23    9    6      0.63     -0.01
  -22    9    6      0.03     -0.02
  -21    9    6     -0.53     -0.01
  -20    9    6     -0.78      0.01
  -19    9    6     -0.75      0.01
  -18    9    6     -0.63      0.00
  -17    9    6     -0.65     -0.01
  -16    9    6     -1.08      0.00
  -15    9    6     -1.85      0.00
  -14    9    6     -2.47     -0.01
  -13    9    6     -2.59      0.00
  -12    9    6     -2.14      0.01
  -11    9    6     -1.13      0.02
  -10    9    6      0.36      0.02
   -9    9    6      1.92      0.02
   -8    9    6      3.18      0.02
   -7    9    6      3.98      0.03
   -6    9    6      3.91      0.03
   -5    9    6      2.40      0.01
   -4    9    6     -0.44     -0.01
   -3    9    6     -3.27     -0.01
   -2    9    6     -4.46      0.01
   -1    9    6     -3.43      0.02
    0    9    6     -1.09      0.02
    1    9    6      0.92      0.01
    2    9    6      1.61     -0.01
    3    9    6      1.25     -0.03
    4    9    6      0.77     -0.03
    5    9    6      0.56     -0.01
    6    9    6      0.31      0.00
    7    9    6     -0.25     -0.04
    8    9    6     -0.74     -0.12
    9    9    6     -0.71     -0.17
   10    9    6     -0.36     -0.14
   11    9    6     -0.26     -0.08
   12    9    6     -0.47     -0.03
   13    9    6     -0.56     -0.01
   14    9    6     -0.38     -0.01
   15    9    6     -0.25     -0.01
   16    9    6     -0.45      0.01
   17    9    6     -0.76      0.01
   18    9    6     -0.77      0.00
  -23   10    6     -0.09      0.04
  -22   10    6     -0.61      0.05
  -21   10    6     -0.80      0.06
  -20   10    6     -0.73      0.04
  -19   10    6     -0.66      0.00
  -18   10    6     -0.69     -0.03
  -17   10    6     -0.75     -0.04
  -16   10    6     -0.69     -0.05
  -15   10    6     -0.39     -0.06
  -14   10    6      0.12     -0.03
  -13   10    6      0.69      0.03
  -12   10    6      1.24      0.07
  -11   10    6      1.77      0.05
  -10   10    6      2.10     -0.01
   -9   10    6      2.06     -0.04
   -8   10    6      1.72     -0.03
   -7   10    6      1.14     -0.02
   -6   10    6      0.23     -0.04
   -5   10    6     -0.81     -0.07
   -4   10    6     -1.35     -0.06
   -3   10    6     -0.95     -0.03
   -2   10    6      0.18      0.01
   -1   10    6      1.44      0.03
    0   10    6      2.34      0.03
    1   10    6      2.76      0.04
    2   10    6      2.93      0.03
    3   10    6      2.90      0.00
    4   10    6      2.32     -0.04
    5   10    6      0.93     -0.05
    6   10    6     -0.71     -0.02
    7   10    6     -1.65      0.02
    8   10    6     -1.49      0.03
    9   10    6     -0.53      0.00
   10   10    6      0.66     -0.02
   11   10    6      1.45     -0.02
   12   10    6      1.33     -0.01
   13   10    6      0.49     -0.02
   14   10    6     -0.20     -0.02
   15   10    6     -0.18     -0.01
   16   10    6      0.19      0.00
   17   10    6      0.39      0.00
   18   10    6      0.37     -0.01
  -22   11    6     -1.26      0.02
  -21   11    6     -1.35      0.02
  -20   11    6     -0.99      0.03
  -19   11    6     -0.30      0.04
  -18   11    6      0.45      0.01
  -17   11    6      1.00     -0.04
  -16   11    6      1.17     -0.06
  -15   11    6      0.95     -0.04
  -14   11    6      0.50      0.01
  -13   11    6      0.09      0.04
  -12   11    6     -0.10      0.03
  -11   11    6     -0.10     -0.01
  -10   11    6     -0.04     -0.02
   -9   11    6     -0.06      0.02
   -8   11    6     -0.25      0.07
   -7   11    6     -0.64      0.08
   -6   11    6     -1.09      0.04
   -5   11    6     -1.34     -0.02
   -4   11    6     -1.41     -0.04
   -3   11    6     -1.45     -0.03
   -2   11    6     -1.32      0.01
   -1   11    6     -0.69      0.03
    0   11    6      0.30      0.01
    1   11    6      0.96     -0.01
    2   11    6      0.87     -0.03
    3   11    6      0.26     -0.04
    4   11    6     -0.36     -0.02
    5   11    6     -0.67      0.03
    6   11    6     -0.55      0.07
    7   11    6     -0.03      0.05
    8   11    6      0.69     -0.01
    9   11    6      1.26     -0.03
   10   11    6      1.25      0.01
   11   11    6      0.43      0.04
   12   11    6     -0.71      0.04
   13   11    6     -1.25      0.00
   14   11    6     -0.83     -0.01
   15   11    6     -0.09      0.00
   16   11    6      0.13      0.01
   17   11    6     -0.20      0.01
  -21   12    6      0.06      0.04
  -20   12    6      0.99      0.02
  -19   12    6      1.57     -0.04
  -18   12    6      1.32     -0.08
  -17   12    6      0.60     -0.07
  -16   12    6      0.17     -0.02
  -15   12    6      0.30      0.00
  -14   12    6      0.54      0.00
  -13   12    6      0.38      0.00
  -12   12    6     -0.05      0.01
  -11   12    6     -0.37      0.02
  -10   12    6     -0.61      0.03
   -9   12    6     -0.95      0.03
   -8   12    6     -1.21      0.01
   -7   12    6     -1.04     -0.05
   -6   12    6     -0.46     -0.12
   -5   12    6      0.07     -0.15
   -4   12    6      0.19     -0.13
   -3   12    6     -0.01     -0.06
   -2   12    6     -0.10     -0.02
   -1   12    6      0.14     -0.03
    0   12    6      0.47     -0.05
    1   12    6      0.55     -0.03
    2   12    6      0.42      0.01
    3   12    6      0.22      0.04
    4   12    6     -0.07      0.02
    5   12    6     -0.40     -0.04
    6   12    6     -0.48     -0.09
    7   12    6     -0.13     -0.08
    8   12    6      0.42      0.00
    9   12    6      0.80      0.10
   10   12    6      0.84      0.14
   11   12    6      0.66      0.11
   12   12    6      0.46      0.03
   13   12    6      0.40     -0.03
   14   12    6      0.57     -0.04
   15   12    6      0.82     -0.01
   16   12    6      0.84      0.01
  -20   13    6      1.02      0.00
  -19   13    6      0.73      0.06
  -18   13    6      0.32      0.08
  -17   13    6      0.38      0.04
  -16   13    6      1.04     -0.04
  -15   13    6      1.53     -0.09
  -14   13    6      1.11     -0.08
  -13   13    6      0.10     -0.02
  -12   13    6     -0.52      0.01
  -11   13    6     -0.51      0.02
  -10   13    6     -0.34      0.01
   -9   13    6     -0.20      0.01
   -8   13    6      0.10      0.01
   -7   13    6      0.48     -0.01
   -6   13    6      0.55     -0.03
   -5   13    6      0.09     -0.03
   -4   13    6     -0.77      0.00
   -3   13    6     -1.46      0.02
   -2   13    6     -1.35      0.02
   -1   13    6     -0.47     -0.01
    0   13    6      0.30     -0.04
    1   13    6      0.25     -0.05
    2   13    6     -0.32     -0.05
    3   13    6     -0.62     -0.09
    4   13    6     -0.40     -0.13
    5   13    6      0.00     -0.11
    6   13    6      0.30      0.00
    7   13    6      0.52      0.13
    8   13    6      0.62      0.20
    9   13    6      0.44      0.17
   10   13    6      0.01      0.10
   11   13    6     -0.45      0.03
   12   13    6     -0.74     -0.03
   13   13    6     -0.73     -0.05
   14   13    6     -0.44     -0.03
   15   13    6     -0.17      0.00
  -19   14    6     -0.87      0.11
  -18   14    6     -0.94     -0.04
  -17   14    6     -0.96     -0.18
  -16   14    6     -0.70     -0.20
  -15   14    6     -0.29     -0.14
  -14   14    6      0.00     -0.07
  -13   14    6      0.23     -0.04
  -12   14    6      0.48     -0.03
  -11   14    6      0.64     -0.03
  -10   14    6      0.60     -0.03
   -9   14    6      0.46     -0.02
   -8   14    6      0.33     -0.01
   -7   14    6      0.26     -0.01
   -6   14    6      0.19     -0.01
   -5   14    6     -0.09     -0.02
   -4   14    6     -0.56     -0.02
   -3   14    6     -0.83     -0.02
   -2   14    6     -0.66     -0.02
   -1   14    6     -0.39     -0.01
    0   14    6     -0.41      0.00
    1   14    6     -0.51      0.00
    2   14    6     -0.28      0.00
    3   14    6      0.18      0.01
    4   14    6      0.39      0.03
    5   14    6      0.15      0.04
    6   14    6     -0.17      0.02
    7   14    6     -0.22      0.00
    8   14    6     -0.10      0.00
    9   14    6     -0.06      0.00
   10   14    6     -0.20      0.00
   11   14    6     -0.42      0.00
   12   14    6     -0.54      0.01
   13   14    6     -0.46      0.03
   14   14    6     -0.26      0.04
  -17   15    6     -0.19     -0.02
  -16   15    6      0.61     -0.01
  -15   15    6      1.33     -0.01
  -14   15    6      1.24     -0.01
  -13   15    6      0.47      0.00
  -12   15    6     -0.28      0.01
  -11   15    6     -0.64      0.00
  -10   15    6     -0.67      0.00
   -9   15    6     -0.51      0.01
   -8   15    6     -0.10      0.03
   -7   15    6      0.45      0.02
   -6   15    6      0.63     -0.01
   -5   15    6      0.13     -0.04
   -4   15    6     -0.66     -0.04
   -3   15    6     -0.96     -0.02
   -2   15    6     -0.44      0.00
   -1   15    6      0.44     -0.01
    0   15    6      0.82     -0.02
    1   15    6      0.33     -0.03
    2   15    6     -0.44     -0.02
    3   15    6     -0.75     -0.05
    4   15    6     -0.53     -0.12
    5   15    6     -0.23     -0.15
    6   15    6      0.01     -0.08
    7   15    6      0.22      0.08
    8   15    6      0.26      0.20
    9   15    6     -0.04      0.20
   10   15    6     -0.51      0.14
   11   15    6     -0.75      0.08
   12   15    6     -0.62      0.03
   13   15    6     -0.36      0.00
  -16   16    6      0.73     -0.19
  -15   16    6      0.71     -0.12
  -14   16    6      0.41     -0.04
  -13   16    6      0.20     -0.01
  -12   16    6      0.21     -0.02
  -11   16    6      0.24     -0.04
  -10   16    6      0.17     -0.04
   -9   16    6      0.23     -0.02
   -8   16    6      0.57      0.01
   -7   16    6      0.83      0.02
   -6   16    6      0.52      0.00
   -5   16    6     -0.27     -0.02
   -4   16    6     -0.88     -0.02
   -3   16    6     -0.78     -0.01
   -2   16    6     -0.27      0.00
   -1   16    6     -0.25      0.01
    0   16    6     -0.98      0.01
    1   16    6     -1.56     -0.02
    2   16    6     -1.10     -0.05
    3   16    6      0.00     -0.07
    4   16    6      0.69     -0.04
    5   16    6      0.66      0.02
    6   16    6      0.34      0.09
    7   16    6      0.06      0.10
    8   16    6     -0.21      0.04
    9   16    6     -0.50     -0.05
   10   16    6     -0.73     -0.10
   11   16    6     -0.75     -0.09
  -14   17    6     -0.38      0.09
  -13   17    6     -0.81      0.04
  -12   17    6     -1.43      0.01
  -11   17    6     -1.85      0.00
  -10   17    6     -1.51      0.01
   -9   17    6     -0.39      0.03
   -8   17    6      0.71      0.04
   -7   17    6      0.90      0.02
   -6   17    6      0.18     -0.01
   -5   17    6     -0.66     -0.01
   -4   17    6     -0.85      0.00
   -3   17    6     -0.42      0.02
   -2   17    6      0.03      0.02
   -1   17    6      0.13      0.00
    0   17    6      0.09     -0.01
    1   17    6      0.22      0.01
    2   17    6      0.37      0.04
    3   17    6      0.27      0.07
    4   17    6      0.02      0.06
    5   17    6     -0.16      0.04
    6   17    6     -0.29      0.05
    7   17    6     -0.50      0.07
    8   17    6     -0.73      0.06
    9   17    6     -0.85      0.04
  -12   18    6     -0.64      0.01
  -11   18    6     -0.17      0.01
  -10   18    6      0.48      0.02
   -9   18    6      0.73      0.02
   -8   18    6      0.34      0.02
   -7   18    6     -0.29      0.01
   -6   18    6     -0.67      0.00
   -5   18    6     -0.67     -0.01
   -4   18    6     -0.50     -0.01
   -3   18    6     -0.37      0.00
   -2   18    6     -0.41      0.00
   -1   18    6     -0.67      0.01
    0   18    6     -0.99      0.02
    1   18    6     -1.10      0.03
    2   18    6     -0.87      0.04
    3   18    6     -0.47      0.04
    4   18    6     -0.24      0.03
    5   18    6     -0.30      0.03
    6   18    6     -0.48      0.02
    7   18    6     -0.48      0.01
   -8   19    6      0.39      0.01
   -7   19    6      0.52      0.00
   -6   19    6      0.21     -0.01
   -5   19    6     -0.29     -0.01
   -4   19    6     -0.61      0.00
   -3   19    6     -0.68      0.01
   -2   19    6     -0.72      0.00
   -1   19    6     -0.83      0.00
    0   19    6     -0.85      0.00
    1   19    6     -0.69      0.02
    2   19    6     -0.58      0.03
    3   19    6     -0.66      0.02
  -26    1    7      0.04      0.00
  -25    1    7      0.05      0.01
  -24    1    7     -0.20     -0.01
  -23    1    7     -0.75     -0.03
  -22    1    7     -1.08     -0.03
  -21    1    7     -0.63     -0.01
  -20    1    7      0.36      0.00
  -19    1    7      0.82     -0.01
  -18    1    7     -0.06     -0.04
  -17    1    7     -1.95     -0.06
  -16    1    7     -3.56     -0.07
  -15    1    7     -3.50     -0.05
  -14    1    7     -1.39     -0.03
  -13    1    7      1.40     -0.02
  -12    1    7      2.51     -0.05
  -11    1    7      1.04     -0.09
  -10    1    7     -0.83     -0.09
   -9    1    7      0.39     -0.05
   -8    1    7      5.67     -0.01
   -7    1    7     11.98     -0.02
   -6    1    7     14.74     -0.06
   -5    1    7     12.09     -0.08
   -4    1    7      6.66      0.01
   -3    1    7      2.56      0.12
   -2    1    7      0.64      0.14
   -1    1    7     -1.55      0.00
    0    1    7     -5.16     -0.19
    1    1    7     -7.80     -0.29
    2    1    7     -6.87     -0.24
    3    1    7     -3.09     -0.11
    4    1    7      0.76     -0.03
    5    1    7      3.00     -0.05
    6    1    7      3.57     -0.12
    7    1    7      2.94     -0.16
    8    1    7      1.58     -0.13
    9    1    7      0.06     -0.05
   10    1    7     -1.18      0.00
   11    1    7     -1.94      0.00
   12    1    7     -2.05     -0.01
   13    1    7     -1.47     -0.01
   14    1    7     -0.66     -0.01
   15    1    7     -0.20     -0.02
   16    1    7     -0.19     -0.01
   17    1    7     -0.24      0.02
   18    1    7     -0.20      0.04
   19    1    7     -0.24      0.03
   20    1    7     -0.34      0.00
  -26    2    7     -0.51      0.00
  -25    2    7     -0.73     -0.01
  -24    2    7     -0.66     -0.02
  -23    2    7     -0.25     -0.03
  -22    2    7      0.41     -0.02
  -21    2    7      1.12      0.00
  -20    2    7      1.48      0.00
  -19    2    7      1.20     -0.01
  -18    2    7      0.57     -0.02
  -17    2    7      0.35     -0.02
  -16    2    7      0.89      0.00
  -15    2    7      1.58      0.02
  -14    2    7      1.37      0.05
  -13    2    7     -0.16      0.07
  -12    2    7     -1.86      0.04
  -11    2    7     -1.58     -0.03
  -10    2    7      1.30     -0.08
   -9    2    7      4.22     -0.09
   -8    2    7      3.44     -0.07
   -7    2    7     -1.82     -0.05
   -6    2    7     -8.02     -0.03
   -5    2    7    -10.30      0.01
   -4    2    7     -6.95      0.04
   -3    2    7     -1.00      0.01
   -2    2    7      2.79     -0.06
   -1    2    7      2.76     -0.10
    0    2    7      1.25     -0.07
    1    2    7      0.89     -0.02
    2    2    7      1.55     -0.02
    3    2    7      1.41     -0.07
    4    2    7     -0.34     -0.08
    5    2    7     -2.54     -0.01
    6    2    7     -3.38      0.08
    7    2    7     -2.20      0.11
    8    2    7     -0.24      0.07
    9    2    7      0.80      0.01
   10    2    7      0.57     -0.03
   11    2    7      0.01     -0.03
   12    2    7     -0.19     -0.01
   13    2    7     -0.32     -0.01
   14    2    7     -0.69     -0.02
   15    2    7     -1.02     -0.02
   16    2    7     -0.96     -0.01
   17    2    7     -0.65      0.00
   18    2    7     -0.38      0.00
   19    2    7     -0.15      0.00
   20    2    7      0.11      0.00
  -26    3    7      0.15     -0.01
  -25    3    7     -0.03     -0.02
  -24    3    7     -0.28     -0.02
  -23    3    7     -0.56     -0.01
  -22    3    7     -0.62      0.00
  -21    3    7     -0.26      0.00
  -20    3    7      0.26     -0.02
  -19    3    7      0.43     -0.03
  -18    3    7      0.10     -0.02
  -17    3    7     -0.54     -0.01
  -16    3    7     -1.27      0.00
  -15    3    7     -1.73     -0.01
  -14    3    7     -1.38     -0.05
  -13    3    7      0.02     -0.12
  -12    3    7      1.78     -0.23
  -11    3    7      2.18     -0.29
  -10    3    7     -0.26     -0.25
   -9    3    7     -4.84     -0.14
   -8    3    7     -8.23     -0.05
   -7    3    7     -7.34     -0.04
   -6    3    7     -2.62     -0.07
   -5    3    7      2.15     -0.07
   -4    3    7      3.32     -0.01
   -3    3    7      0.23      0.05
   -2    3    7     -4.81      0.06
   -1    3    7     -8.64     -0.01
    0    3    7     -9.62     -0.10
    1    3    7     -8.32     -0.17
    2    3    7     -6.38     -0.18
    3    3    7     -4.92     -0.14
    4    3    7     -3.53     -0.07
    5    3    7     -1.10     -0.04
    6    3    7      2.15     -0.06
    7    3    7      4.26     -0.11
    8    3    7      3.66     -0.10
    9    3    7      1.08     -0.04
   10    3    7     -1.36      0.01
   11    3    7     -2.37      0.02
   12    3    7     -2.04     -0.01
   13    3    7     -1.15     -0.01
   14    3    7     -0.48      0.00
   15    3    7     -0.35      0.01
   16    3    7     -0.54      0.00
   17    3    7     -0.62      0.00
   18    3    7     -0.48      0.00
   19    3    7     -0.34      0.00
   20    3    7     -0.36     -0.02
  -26    4    7     -0.62      0.00
  -25    4    7     -1.20      0.00
  -24    4    7     -1.22      0.00
  -23    4    7     -0.80     -0.01
  -22    4    7     -0.26      0.00
  -21    4    7      0.24      0.01
  -20    4    7      0.50      0.02
  -19    4    7      0.36      0.01
  -18    4    7     -0.11      0.00
  -17    4    7     -0.67     -0.02
  -16    4    7     -1.03     -0.03
  -15    4    7     -1.05     -0.05
  -14    4    7     -0.99     -0.06
  -13    4    7     -1.47     -0.05
  -12    4    7     -2.73     -0.01
  -11    4    7     -4.17      0.04
  -10    4    7     -4.71      0.08
   -9    4    7     -3.75      0.07
   -8    4    7     -1.83      0.01
   -7    4    7     -0.16     -0.07
   -6    4    7      0.47     -0.09
   -5    4    7      0.40     -0.06
   -4    4    7      0.74      0.00
   -3    4    7      2.45      0.03
   -2    4    7      5.72      0.01
   -1    4    7      9.66     -0.03
    0    4    7     12.61     -0.04
    1    4    7     13.10     -0.01
    2    4    7     10.96      0.05
    3    4    7      7.52      0.10
    4    4    7      4.50      0.10
    5    4    7      2.63      0.08
    6    4    7      1.34      0.05
    7    4    7     -0.08      0.01
    8    4    7     -1.64     -0.02
    9    4    7     -2.81     -0.05
   10    4    7     -3.01     -0.08
   11    4    7     -2.08     -0.09
   12    4    7     -0.83     -0.08
   13    4    7     -0.52     -0.05
   14    4    7     -1.28     -0.03
   15    4    7     -1.91     -0.02
   16    4    7     -1.59     -0.02
   17    4    7     -0.83     -0.03
   18    4    7     -0.36     -0.04
   19    4    7     -0.30     -0.03
   20    4    7     -0.36     -0.02
  -25    5    7     -0.66      0.02
  -24    5    7     -0.92      0.00
  -23    5    7     -1.34     -0.01
  -22    5    7     -1.54      0.00
  -21    5    7     -1.33      0.02
  -20    5    7     -1.05      0.02
  -19    5    7     -1.07      0.01
  -18    5    7     -1.43      0.00
  -17    5    7     -1.70     -0.01
  -16    5    7     -1.45     -0.02
  -15    5    7     -0.83     -0.01
  -14    5    7     -0.38      0.00
  -13    5    7     -0.15      0.01
  -12    5    7      0.26     -0.02
  -11    5    7      0.56     -0.09
  -10    5    7     -0.15     -0.15
   -9    5    7     -1.86     -0.15
   -8    5    7     -2.99     -0.11
   -7    5    7     -2.19     -0.06
   -6    5    7     -0.03     -0.04
   -5    5    7      1.60     -0.01
   -4    5    7      1.70      0.01
   -3    5    7      1.00      0.02
   -2    5    7      0.61      0.00
   -1    5    7      0.55     -0.04
    0    5    7     -0.16     -0.04
    1    5    7     -2.22      0.00
    2    5    7     -4.94      0.07
    3    5    7     -6.64      0.11
    4    5    7     -6.21      0.10
    5    5    7     -4.14      0.01
    6    5    7     -1.94     -0.10
    7    5    7     -0.69     -0.14
    8    5    7     -0.43     -0.10
    9    5    7     -0.51     -0.01
   10    5    7     -0.25      0.04
   11    5    7      0.32      0.02
   12    5    7      0.63     -0.01
   13    5    7      0.52     -0.02
   14    5    7      0.50      0.00
   15    5    7      0.75     -0.01
   16    5    7      0.95     -0.03
   17    5    7      0.82     -0.05
   18    5    7      0.44     -0.03
   19    5    7      0.02      0.00
   20    5    7     -0.25      0.01
  -25    6    7     -0.74      0.01
  -24    6    7     -1.02      0.00
  -23    6    7     -0.79      0.01
  -22    6    7     -0.32      0.04
  -21    6    7     -0.09      0.06
  -20    6    7     -0.27      0.04
  -19    6    7     -0.62     -0.01
  -18    6    7     -0.75     -0.05
  -17    6    7     -0.51     -0.05
  -16    6    7     -0.18     -0.01
  -15    6    7     -0.13      0.02
  -14    6    7     -0.24      0.02
  -13    6    7     -0.07      0.00
  -12    6    7      0.23     -0.02
  -11    6    7      0.11     -0.01
  -10    6    7     -0.35      0.04
   -9    6    7     -0.28      0.09
   -8    6    7      0.61      0.10
   -7    6    7      1.38      0.06
   -6    6    7      0.89      0.02
   -5    6    7     -0.81      0.00
   -4    6    7     -2.46     -0.01
   -3    6    7     -2.81     -0.01
   -2    6    7     -1.70     -0.02
   -1    6    7     -0.16     -0.04
    0    6    7      0.51     -0.03
    1    6    7     -0.07     -0.01
    2    6    7     -1.03     -0.01
    3    6    7     -1.38     -0.08
    4    6    7     -1.18     -0.20
    5    6    7     -1.16     -0.27
    6    6    7     -1.63     -0.23
    7    6    7     -2.29     -0.07
    8    6    7     -2.78      0.09
    9    6    7     -2.88      0.16
   10    6    7     -2.47      0.13
   11    6    7     -1.65      0.06
   12    6    7     -0.86      0.02
   13    6    7     -0.49      0.00
   14    6    7     -0.50      0.00
   15    6    7     -0.45      0.01
   16    6    7     -0.10      0.01
   17    6    7      0.21      0.01
   18    6    7      0.07      0.00
   19    6    7     -0.31     -0.02
  -25    7    7     -0.06     -0.02
  -24    7    7     -0.17     -0.02
  -23    7    7     -0.40     -0.01
  -22    7    7     -0.72     -0.01
  -21    7    7     -0.92     -0.01
  -20    7    7     -0.78     -0.02
  -19    7    7     -0.30     -0.02
  -18    7    7      0.32      0.01
  -17    7    7      0.80      0.05
  -16    7    7      1.09      0.08
  -15    7    7      1.34      0.06
  -14    7    7      1.61      0.03
  -13    7    7      1.78      0.01
  -12    7    7      1.61      0.02
  -11    7    7      0.85      0.05
  -10    7    7     -0.49      0.06
   -9    7    7     -1.89      0.06
   -8    7    7     -2.78      0.06
   -7    7    7     -3.34      0.05
   -6    7    7     -4.32      0.01
   -5    7    7     -5.80     -0.03
   -4    7    7     -6.59     -0.05
   -3    7    7     -5.35     -0.06
   -2    7    7     -2.19     -0.07
   -1    7    7      1.24     -0.06
    0    7    7      2.97     -0.03
    1    7    7      2.25      0.00
    2    7    7      0.05      0.00
    3    7    7     -1.73      0.01
    4    7    7     -1.93      0.08
    5    7    7     -0.85      0.18
    6    7    7      0.39      0.29
    7    7    7      1.09      0.34
    8    7    7      1.24      0.30
    9    7    7      1.18      0.20
   10    7    7      1.11      0.08
   11    7    7      1.09     -0.02
   12    7    7      1.05     -0.06
   13    7    7      0.96     -0.04
   14    7    7      0.86     -0.02
   15    7    7      0.82     -0.01
   16    7    7      0.68     -0.02
   17    7    7      0.27     -0.04
   18    7    7     -0.27     -0.04
   19    7    7     -0.49     -0.02
  -24    8    7     -0.50     -0.02
  -23    8    7     -0.52     -0.01
  -22    8    7     -0.04     -0.01
  -21    8    7      0.57     -0.01
  -20    8    7      1.00     -0.01
  -19    8    7      1.10     -0.01
  -18    8    7      0.92     -0.02
  -17    8    7      0.71     -0.05
  -16    8    7      0.76     -0.07
  -15    8    7      1.07     -0.03
  -14    8    7      1.43      0.04
  -13    8    7      1.64      0.11
  -12    8    7      1.34      0.13
  -11    8    7      0.33      0.10
  -10    8    7     -0.79      0.06
   -9    8    7     -1.18      0.02
   -8    8    7     -1.01     -0.02
   -7    8    7     -1.31     -0.06
   -6    8    7     -2.28     -0.07
   -5    8    7     -2.67     -0.05
   -4    8    7     -1.29     -0.02
   -3    8    7      1.35     -0.01
   -2    8    7      3.31     -0.02
   -1    8    7      2.88     -0.02
    0    8    7      0.16     -0.02
    1    8    7     -2.87     -0.05
    2    8    7     -4.07     -0.08
    3    8    7     -3.13     -0.06
    4    8    7     -1.69      0.02
    5    8    7     -1.31      0.10
    6    8    7     -1.92      0.12
    7    8    7     -2.53      0.04
    8    8    7     -2.55     -0.06
    9    8    7     -2.02     -0.13
   10    8    7     -1.13     -0.11
   11    8    7     -0.21     -0.04
   12    8    7      0.36      0.00
   13    8    7      0.42      0.00
   14    8    7      0.12     -0.01
   15    8    7     -0.20     -0.01
   16    8    7     -0.33     -0.01
   17    8    7     -0.35     -0.03
   18    8    7     -0.41     -0.03
  -23    9    7      0.75     -0.02
  -22    9    7      1.00     -0.03
  -21    9    7      0.83     -0.03
  -20    9    7      0.44     -0.02
  -19    9    7      0.18     -0.01
  -18    9    7      0.26      0.01
  -17    9    7      0.57      0.08
  -16    9    7      0.75      0.20
  -15    9    7      0.52      0.29
  -14    9    7     -0.07      0.29
  -13    9    7     -0.90      0.19
  -12    9    7     -1.84      0.06
  -11    9    7     -2.48     -0.02
  -10    9    7     -2.27     -0.03
   -9    9    7     -1.26     -0.01
   -8    9    7     -0.17      0.01
   -7    9    7      0.34      0.02
   -6    9    7      0.30      0.03
   -5    9    7      0.21      0.05
   -4    9    7      0.31      0.05
   -3    9    7      0.28      0.03
   -2    9    7     -0.17      0.00
   -1    9    7     -0.77     -0.03
    0    9    7     -0.95     -0.05
    1    9    7     -0.70     -0.04
    2    9    7     -0.73      0.01
    3    9    7     -1.45      0.08
    4    9    7     -2.26      0.10
    5    9    7     -2.15      0.00
    6    9    7     -0.98     -0.21
    7    9    7      0.42     -0.35
    8    9    7      1.26     -0.33
    9    9    7      1.32     -0.19
   10    9    7      0.80     -0.06
   11    9    7      0.15     -0.03
   12    9    7     -0.18     -0.04
   13    9    7     -0.25     -0.04
   14    9    7     -0.47     -0.02
   15    9    7     -0.80     -0.01
   16    9    7     -0.93     -0.02
   17    9    7     -0.85     -0.02
   18    9    7     -0.71     -0.01
  -23   10    7     -0.71      0.01
  -22   10    7     -0.77      0.02
  -21   10    7     -0.83      0.02
  -20   10    7     -0.92      0.01
  -19   10    7     -1.06      0.01
  -18   10    7     -1.26      0.04
  -17   10    7     -1.48      0.07
  -16   10    7     -1.59      0.07
  -15   10    7     -1.44      0.03
  -14   10    7     -1.03     -0.03
  -13   10    7     -0.43     -0.07
  -12   10    7      0.37     -0.07
  -11   10    7      1.32     -0.03
  -10   10    7      2.12      0.01
   -9   10    7      2.46      0.00
   -8   10    7      2.20     -0.02
   -7   10    7      1.46     -0.04
   -6   10    7      0.70     -0.03
   -5   10    7      0.49      0.00
   -4   10    7      0.93      0.02
   -3   10    7      1.61      0.01
   -2   10    7      1.90     -0.01
   -1   10    7      1.34     -0.02
    0   10    7     -0.07      0.01
    1   10    7     -1.60      0.03
    2   10    7     -2.25      0.00
    3   10    7     -1.66     -0.06
    4   10    7     -0.38     -0.13
    5   10    7      0.66     -0.16
    6   10    7      0.85     -0.10
    7   10    7      0.30      0.03
    8   10    7     -0.36      0.16
    9   10    7     -0.62      0.20
   10   10    7     -0.43      0.16
   11   10    7     -0.08      0.09
   12   10    7      0.05      0.05
   13   10    7     -0.29      0.04
   14   10    7     -0.82      0.03
   15   10    7     -1.00      0.02
   16   10    7     -0.70      0.01
   17   10    7     -0.31      0.01
  -22   11    7     -0.50     -0.01
  -21   11    7     -0.71     -0.05
  -20   11    7     -1.05     -0.06
  -19   11    7     -1.08     -0.03
  -18   11    7     -0.53      0.00
  -17   11    7      0.23      0.01
  -16   11    7      0.60      0.03
  -15   11    7      0.39      0.07
  -14   11    7      0.10      0.10
  -13   11    7      0.25      0.08
  -12   11    7      0.65      0.03
  -11   11    7      0.79      0.00
  -10   11    7      0.63     -0.01
   -9   11    7      0.57     -0.02
   -8   11    7      0.73     -0.02
   -7   11    7      0.95     -0.02
   -6   11    7      1.18      0.02
   -5   11    7      1.34      0.06
   -4   11    7      1.22      0.07
   -3   11    7      0.65      0.04
   -2   11    7     -0.31      0.02
   -1   11    7     -1.28      0.02
    0   11    7     -1.59      0.03
    1   11    7     -0.95      0.02
    2   11    7     -0.08      0.01
    3   11    7      0.18      0.02
    4   11    7     -0.04      0.05
    5   11    7     -0.03      0.06
    6   11    7      0.44      0.03
    7   11    7      1.06     -0.02
    8   11    7      1.39     -0.05
    9   11    7      1.11     -0.05
   10   11    7      0.26     -0.05
   11   11    7     -0.57     -0.06
   12   11    7     -0.76     -0.06
   13   11    7     -0.34     -0.04
   14   11    7      0.15     -0.02
   15   11    7      0.31     -0.02
   16   11    7      0.19     -0.02
  -21   12    7      0.51     -0.06
  -20   12    7      0.87     -0.05
  -19   12    7      1.25     -0.04
  -18   12    7      1.32     -0.02
  -17   12    7      0.85      0.01
  -16   12    7      0.10      0.05
  -15   12    7     -0.28      0.06
  -14   12    7      0.04      0.04
  -13   12    7      0.61     -0.01
  -12   12    7      0.78     -0.03
  -11   12    7      0.43     -0.01
  -10   12    7     -0.12      0.01
   -9   12    7     -0.67      0.02
   -8   12    7     -1.03      0.00
   -7   12    7     -0.90     -0.01
   -6   12    7     -0.32      0.00
   -5   12    7      0.21      0.02
   -4   12    7      0.43      0.02
   -3   12    7      0.44      0.02
   -2   12    7      0.30      0.01
   -1   12    7      0.04      0.00
    0   12    7     -0.17      0.01
    1   12    7     -0.33      0.02
    2   12    7     -0.59      0.02
    3   12    7     -0.69      0.01
    4   12    7     -0.26     -0.03
    5   12    7      0.53     -0.09
    6   12    7      0.97     -0.12
    7   12    7      0.68     -0.08
    8   12    7     -0.13      0.02
    9   12    7     -0.87      0.07
   10   12    7     -0.98      0.05
   11   12    7     -0.38      0.01
   12   12    7      0.43      0.00
   13   12    7      0.76      0.01
   14   12    7      0.42      0.00
   15   12    7     -0.19     -0.01
  -20   13    7     -0.21      0.07
  -19   13    7     -0.76      0.10
  -18   13    7     -0.98      0.08
  -17   13    7     -0.75      0.01
  -16   13    7     -0.43     -0.06
  -15   13    7     -0.31     -0.08
  -14   13    7     -0.41     -0.05
  -13   13    7     -0.65     -0.01
  -12   13    7     -0.94      0.01
  -11   13    7     -1.16      0.01
  -10   13    7     -1.21      0.00
   -9   13    7     -0.95     -0.02
   -8   13    7     -0.24     -0.03
   -7   13    7      0.72     -0.01
   -6   13    7      1.34      0.03
   -5   13    7      1.18      0.06
   -4   13    7      0.46      0.06
   -3   13    7     -0.30      0.03
   -2   13    7     -0.72      0.02
   -1   13    7     -0.76      0.02
    0   13    7     -0.56      0.02
    1   13    7     -0.29      0.01
    2   13    7      0.06      0.00
    3   13    7      0.57     -0.02
    4   13    7      1.11     -0.03
    5   13    7      1.35     -0.01
    6   13    7      1.08      0.04
    7   13    7      0.51      0.10
    8   13    7     -0.02      0.13
    9   13    7     -0.30      0.11
   10   13    7     -0.35      0.07
   11   13    7     -0.31      0.03
   12   13    7     -0.23      0.01
   13   13    7     -0.20      0.00
   14   13    7     -0.27      0.00
  -19   14    7     -0.94     -0.05
  -18   14    7     -0.31     -0.12
  -17   14    7      0.22     -0.16
  -16   14    7      0.11     -0.13
  -15   14    7     -0.38     -0.07
  -14   14    7     -0.58     -0.01
  -13   14    7     -0.32      0.01
  -12   14    7      0.04      0.00
  -11   14    7      0.12     -0.02
  -10   14    7     -0.07     -0.02
   -9   14    7     -0.28     -0.02
   -8   14    7     -0.29      0.00
   -7   14    7     -0.25      0.02
   -6   14    7     -0.48      0.02
   -5   14    7     -0.89      0.00
   -4   14    7     -0.92     -0.02
   -3   14    7     -0.36     -0.02
   -2   14    7      0.20     -0.01
   -1   14    7      0.23     -0.01
    0   14    7      0.06     -0.02
    1   14    7      0.16     -0.02
    2   14    7      0.38     -0.01
    3   14    7      0.27      0.03
    4   14    7     -0.10      0.06
    5   14    7     -0.34      0.07
    6   14    7     -0.37      0.07
    7   14    7     -0.41      0.07
    8   14    7     -0.56      0.08
    9   14    7     -0.68      0.06
   10   14    7     -0.57      0.02
   11   14    7     -0.18     -0.01
   12   14    7      0.24      0.00
   13   14    7      0.39      0.03
  -17   15    7      0.60     -0.12
  -16   15    7      0.35     -0.10
  -15   15    7      0.27     -0.06
  -14   15    7      0.56     -0.02
  -13   15    7      0.81      0.00
  -12   15    7      0.66      0.00
  -11   15    7      0.34      0.02
  -10   15    7      0.21      0.05
   -9   15    7      0.23      0.06
   -8   15    7      0.11      0.05
   -7   15    7     -0.15      0.03
   -6   15    7     -0.22      0.02
   -5   15    7      0.16      0.01
   -4   15    7      0.76      0.01
   -3   15    7      1.00      0.02
   -2   15    7      0.78      0.03
   -1   15    7      0.62      0.01
    0   15    7      0.72     -0.01
    1   15    7      0.62     -0.02
    2   15    7      0.16     -0.01
    3   15    7     -0.15      0.01
    4   15    7      0.04      0.00
    5   15    7      0.32     -0.04
    6   15    7      0.18     -0.08
    7   15    7     -0.34     -0.11
    8   15    7     -0.75     -0.11
    9   15    7     -0.65     -0.08
   10   15    7     -0.11     -0.02
   11   15    7      0.38      0.02
   12   15    7      0.46      0.03
  -16   16    7     -0.04      0.09
  -15   16    7     -0.34      0.04
  -14   16    7     -0.55      0.00
  -13   16    7     -0.60      0.00
  -12   16    7     -0.40      0.02
  -11   16    7     -0.05      0.04
  -10   16    7      0.13      0.02
   -9   16    7     -0.02     -0.01
   -8   16    7     -0.25     -0.02
   -7   16    7     -0.28      0.00
   -6   16    7     -0.09      0.02
   -5   16    7      0.18      0.02
   -4   16    7      0.37      0.00
   -3   16    7      0.39     -0.01
   -2   16    7      0.21     -0.03
   -1   16    7     -0.08     -0.04
    0   16    7     -0.33     -0.04
    1   16    7     -0.37     -0.03
    2   16    7     -0.23     -0.03
    3   16    7     -0.24     -0.04
    4   16    7     -0.53     -0.07
    5   16    7     -0.79     -0.09
    6   16    7     -0.76     -0.11
    7   16    7     -0.49     -0.07
    8   16    7     -0.20      0.00
    9   16    7     -0.02      0.07
   10   16    7     -0.06      0.08
  -14   17    7     -0.44     -0.07
  -13   17    7      0.16     -0.03
  -12   17    7      0.55     -0.01
  -11   17    7      0.63      0.00
  -10   17    7      0.61     -0.01
   -9   17    7      0.57     -0.02
   -8   17    7      0.36     -0.02
   -7   17    7     -0.02      0.00
   -6   17    7     -0.16      0.00
   -5   17    7      0.17     -0.02
   -4   17    7      0.53     -0.05
   -3   17    7      0.47     -0.05
   -2   17    7      0.25     -0.04
   -1   17    7      0.37     -0.03
    0   17    7      0.75     -0.03
    1   17    7      0.75     -0.03
    2   17    7      0.23     -0.04
    3   17    7     -0.23     -0.03
    4   17    7     -0.08     -0.03
    5   17    7      0.44     -0.03
    6   17    7      0.71     -0.04
    7   17    7      0.54     -0.03
    8   17    7      0.21      0.00
  -11   18    7      0.79      0.01
  -10   18    7      0.84      0.00
   -9   18    7      0.42     -0.01
   -8   18    7     -0.33     -0.01
   -7   18    7     -0.80      0.01
   -6   18    7     -0.56      0.02
   -5   18    7      0.10      0.01
   -4   18    7      0.52     -0.01
   -3   18    7      0.54     -0.01
   -2   18    7      0.45     -0.01
   -1   18    7      0.42     -0.01
    0   18    7      0.32     -0.01
    1   18    7      0.14     -0.02
    2   18    7      0.11     -0.01
    3   18    7      0.30      0.01
    4   18    7      0.46      0.02
    5   18    7      0.38      0.02
    6   18    7      0.20      0.00
   -7   19    7     -0.09     -0.01
   -6   19    7      0.27      0.00
   -5   19    7      0.40      0.00
   -4   19    7      0.18     -0.01
   -3   19    7     -0.17     -0.01
   -2   19    7     -0.20     -0.02
   -1   19    7      0.17     -0.02
    0   19    7      0.52     -0.02
    1   19    7      0.48      0.00
    2   19    7      0.16      0.01
  -26    0    8      0.28      0.02
  -25    0    8      0.01      0.01
  -24    0    8     -0.24      0.00
  -23    0    8     -0.21      0.00
  -22    0    8     -0.31     -0.01
  -21    0    8     -1.02      0.00
  -20    0    8     -2.10      0.00
  -19    0    8     -2.68      0.00
  -18    0    8     -1.95     -0.02
  -17    0    8      0.50     -0.02
  -16    0    8      4.09     -0.01
  -15    0    8      6.71      0.01
  -14    0    8      5.90      0.00
  -13    0    8      1.56     -0.04
  -12    0    8     -2.81     -0.06
  -11    0    8     -3.05     -0.05
  -10    0    8      0.98     -0.02
   -9    0    8      4.45     -0.02
   -8    0    8      2.61     -0.04
   -7    0    8     -3.30     -0.04
   -6    0    8     -6.55      0.00
   -5    0    8     -2.02      0.04
   -4    0    8      7.80      0.01
   -3    0    8     15.28     -0.07
   -2    0    8     15.91     -0.12
   -1    0    8     11.95     -0.10
    0    0    8      8.07     -0.02
    1    0    8      5.95      0.05
    2    0    8      4.14      0.06
    3    0    8      0.99      0.00
    4    0    8     -3.60     -0.05
    5    0    8     -7.92     -0.04
    6    0    8     -9.49      0.00
    7    0    8     -7.42      0.02
    8    0    8     -3.49     -0.02
    9    0    8     -0.31     -0.07
   10    0    8      1.04     -0.08
   11    0    8      0.98     -0.06
   12    0    8      0.33     -0.05
   13    0    8     -0.30     -0.05
   14    0    8     -0.66     -0.03
   15    0    8     -0.90     -0.03
   16    0    8     -1.19     -0.04
   17    0    8     -1.38     -0.06
   18    0    8     -1.15     -0.05
   19    0    8     -0.47     -0.03
   20    0    8      0.23     -0.01
  -26    1    8      0.13      0.02
  -25    1    8      0.23      0.00
  -24    1    8      0.11      0.00
  -23    1    8     -0.07      0.00
  -22    1    8     -0.16     -0.01
  -21    1    8     -0.09      0.00
  -20    1    8      0.15      0.00
  -19    1    8      0.54      0.00
  -18    1    8      1.00     -0.01
  -17    1    8      1.15     -0.01
  -16    1    8      0.36      0.00
  -15    1    8     -1.37      0.00
  -14    1    8     -2.87     -0.03
  -13    1    8     -2.54     -0.05
  -12    1    8     -0.11     -0.05
  -11    1    8      2.47     -0.01
  -10    1    8      2.69      0.02
   -9    1    8      0.38      0.03
   -8    1    8     -1.41      0.03
   -7    1    8      0.84      0.03
   -6    1    8      7.41      0.02
   -5    1    8     14.37      0.00
   -4    1    8     16.63     -0.02
   -3    1    8     12.33      0.00
   -2    1    8      4.36      0.02
   -1    1    8     -2.66      0.03
    0    1    8     -6.23      0.05
    1    1    8     -6.95      0.14
    2    1    8     -6.45      0.29
    3    1    8     -5.52      0.39
    4    1    8     -3.85      0.34
    5    1    8     -1.13      0.19
    6    1    8      1.70      0.05
    7    1    8      3.04     -0.01
    8    1    8      2.42     -0.01
    9    1    8      0.92      0.02
   10    1    8     -0.20      0.03
   11    1    8     -0.55      0.01
   12    1    8     -0.31      0.00
   13    1    8      0.14     -0.01
   14    1    8      0.33     -0.01
   15    1    8      0.17     -0.01
   16    1    8      0.00      0.00
   17    1    8      0.12      0.00
   18    1    8      0.40      0.01
   19    1    8      0.53      0.01
   20    1    8      0.36      0.01
  -26    2    8      0.18      0.01
  -25    2    8     -0.36      0.02
  -24    2    8     -0.54      0.01
  -23    2    8     -0.08     -0.01
  -22    2    8      0.52     -0.03
  -21    2    8      0.52     -0.03
  -20    2    8     -0.18     -0.01
  -19    2    8     -1.01      0.00
  -18    2    8     -1.32      0.01
  -17    2    8     -0.62      0.02
  -16    2    8      1.30      0.02
  -15    2    8      3.77     -0.03
  -14    2    8      5.03     -0.08
  -13    2    8      3.72     -0.08
  -12    2    8      0.63     -0.01
  -11    2    8     -1.67      0.06
  -10    2    8     -1.16      0.07
   -9    2    8      1.72      0.03
   -8    2    8      4.62      0.00
   -7    2    8      5.64      0.02
   -6    2    8      4.64      0.06
   -5    2    8      2.13      0.08
   -4    2    8     -1.96      0.05
   -3    2    8     -7.17     -0.01
   -2    2    8    -11.13     -0.08
   -1    2    8    -11.15     -0.11
    0    2    8     -7.18     -0.10
    1    2    8     -2.01     -0.04
    2    2    8      1.46      0.01
    3    2    8      2.21     -0.01
    4    2    8      0.82     -0.07
    5    2    8     -1.64     -0.11
    6    2    8     -3.95     -0.07
    7    2    8     -4.95      0.00
    8    2    8     -4.27      0.03
    9    2    8     -2.46      0.01
   10    2    8     -0.47     -0.02
   11    2    8      0.82     -0.02
   12    2    8      0.87     -0.01
   13    2    8     -0.25     -0.02
   14    2    8     -1.57     -0.01
   15    2    8     -2.16      0.00
   16    2    8     -1.93      0.01
   17    2    8     -1.39      0.00
   18    2    8     -0.88     -0.01
   19    2    8     -0.47     -0.01
   20    2    8     -0.21      0.00
  -26    3    8     -0.07      0.03
  -25    3    8      0.29      0.00
  -24    3    8      0.68      0.00
  -23    3    8      0.94      0.01
  -22    3    8      0.80      0.02
  -21    3    8      0.11      0.02
  -20    3    8     -0.81      0.02
  -19    3    8     -1.30      0.01
  -18    3    8     -0.95      0.00
  -17    3    8      0.04     -0.02
  -16    3    8      0.63     -0.03
  -15    3    8     -0.27     -0.03
  -14    3    8     -2.34     -0.02
  -13    3    8     -3.57      0.01
  -12    3    8     -2.31      0.03
  -11    3    8      0.54      0.02
  -10    3    8      2.26      0.00
   -9    3    8      1.08      0.01
   -8    3    8     -1.90      0.04
   -7    3    8     -3.90      0.06
   -6    3    8     -3.36      0.04
   -5    3    8     -1.43      0.01
   -4    3    8     -0.29     -0.02
   -3    3    8     -0.40     -0.04
   -2    3    8     -0.35     -0.04
   -1    3    8      0.86     -0.02
    0    3    8      2.33      0.02
    1    3    8      2.44      0.06
    2    3    8      0.78      0.07
    3    3    8     -1.36      0.04
    4    3    8     -2.26     -0.01
    5    3    8     -1.43     -0.03
    6    3    8     -0.08     -0.01
    7    3    8      0.46      0.02
    8    3    8      0.23      0.02
    9    3    8      0.09      0.02
   10    3    8      0.12      0.03
   11    3    8     -0.33      0.05
   12    3    8     -1.15      0.05
   13    3    8     -1.38      0.04
   14    3    8     -0.69      0.03
   15    3    8      0.24      0.02
   16    3    8      0.79      0.01
   17    3    8      1.02      0.00
   18    3    8      1.08     -0.01
   19    3    8      0.93     -0.02
   20    3    8      0.65     -0.02
  -26    4    8     -0.46      0.00
  -25    4    8     -0.42      0.00
  -24    4    8     -0.07      0.01
  -23    4    8      0.28      0.01
  -22    4    8      0.22     -0.01
  -21    4    8     -0.20     -0.02
  -20    4    8     -0.43     -0.02
  -19    4    8     -0.03     -0.02
  -18    4    8      0.94     -0.02
  -17    4    8      2.00     -0.01
  -16    4    8      2.60      0.02
  -15    4    8      2.53      0.02
  -14    4    8      1.92      0.00
  -13    4    8      0.76     -0.03
  -12    4    8     -1.06     -0.02
  -11    4    8     -3.40      0.02
  -10    4    8     -5.53      0.05
   -9    4    8     -6.46      0.05
   -8    4    8     -5.56      0.03
   -7    4    8     -2.94      0.02
   -6    4    8      0.30      0.02
   -5    4    8      2.52      0.00
   -4    4    8      2.96     -0.03
   -3    4    8      2.52     -0.05
   -2    4    8      2.56     -0.06
   -1    4    8      3.19     -0.05
    0    4    8      3.31     -0.02
    1    4    8      2.29      0.00
    2    4    8      0.67     -0.01
    3    4    8     -0.59     -0.03
    4    4    8     -1.24     -0.04
    5    4    8     -1.75      0.00
    6    4    8     -2.29      0.07
    7    4    8     -2.30      0.09
    8    4    8     -1.27      0.03
    9    4    8      0.39     -0.05
   10    4    8      1.71     -0.09
   11    4    8      2.22     -0.07
   12    4    8      2.06     -0.04
   13    4    8      1.44     -0.03
   14    4    8      0.62     -0.02
   15    4    8     -0.03      0.00
   16    4    8     -0.29      0.00
   17    4    8     -0.27     -0.01
   18    4    8     -0.18     -0.02
   19    4    8     -0.12     -0.01
  -25    5    8      0.55      0.00
  -24    5    8      0.75      0.01
  -23    5    8      0.29      0.01
  -22    5    8     -0.40      0.00
  -21    5    8     -0.80     -0.01
  -20    5    8     -0.63     -0.02
  -19    5    8     -0.08     -0.01
  -18    5    8      0.33      0.02
  -17    5    8      0.09      0.04
  -16    5    8     -0.90      0.03
  -15    5    8     -2.45     -0.01
  -14    5    8     -4.06     -0.03
  -13    5    8     -5.00     -0.01
  -12    5    8     -4.76      0.05
  -11    5    8     -3.58      0.11
  -10    5    8     -2.21      0.12
   -9    5    8     -1.09      0.06
   -8    5    8      0.08     -0.01
   -7    5    8      1.69     -0.06
   -6    5    8      3.44     -0.08
   -5    5    8      4.56     -0.08
   -4    5    8      4.79     -0.07
   -3    5    8      4.41     -0.06
   -2    5    8      3.50     -0.03
   -1    5    8      1.69      0.02
    0    5    8     -0.95      0.04
    1    5    8     -3.48     -0.01
    2    5    8     -4.66     -0.12
    3    5    8     -3.88     -0.21
    4    5    8     -1.70     -0.21
    5    5    8      0.40     -0.10
    6    5    8      1.22      0.02
    7    5    8      0.87      0.06
    8    5    8      0.41      0.01
    9    5    8      0.46     -0.06
   10    5    8      0.62     -0.06
   11    5    8      0.26     -0.02
   12    5    8     -0.45      0.02
   13    5    8     -0.75      0.04
   14    5    8     -0.46      0.01
   15    5    8     -0.14     -0.02
   16    5    8     -0.20     -0.03
   17    5    8     -0.38     -0.03
   18    5    8     -0.42     -0.01
   19    5    8     -0.41      0.00
  -25    6    8      0.05      0.00
  -24    6    8     -0.55      0.01
  -23    6    8     -0.95      0.00
  -22    6    8     -0.84     -0.01
  -21    6    8     -0.32     -0.02
  -20    6    8      0.21     -0.01
  -19    6    8      0.27     -0.01
  -18    6    8     -0.13     -0.03
  -17    6    8     -0.58     -0.06
  -16    6    8     -0.87     -0.06
  -15    6    8     -1.04     -0.01
  -14    6    8     -1.10      0.04
  -13    6    8     -1.08      0.08
  -12    6    8     -1.10      0.07
  -11    6    8     -1.02      0.05
  -10    6    8     -0.43      0.02
   -9    6    8      0.73      0.01
   -8    6    8      2.16      0.00
   -7    6    8      3.56      0.00
   -6    6    8      4.62      0.01
   -5    6    8      5.03      0.01
   -4    6    8      4.68      0.02
   -3    6    8      3.64      0.05
   -2    6    8      1.80      0.09
   -1    6    8     -0.56      0.11
    0    6    8     -2.23      0.08
    1    6    8     -1.83      0.03
    2    6    8      0.42      0.04
    3    6    8      2.47      0.15
    4    6    8      2.30      0.32
    5    6    8      0.00      0.43
    6    6    8     -2.36      0.33
    7    6    8     -2.90      0.03
    8    6    8     -1.61     -0.27
    9    6    8      0.12     -0.39
   10    6    8      1.07     -0.30
   11    6    8      1.12     -0.13
   12    6    8      0.88     -0.04
   13    6    8      0.75     -0.04
   14    6    8      0.53     -0.05
   15    6    8      0.05     -0.02
   16    6    8     -0.36      0.02
   17    6    8     -0.35      0.04
   18    6    8      0.03      0.03
   19    6    8      0.38      0.02
  -25    7    8     -0.83      0.00
  -24    7    8     -0.67      0.00
  -23    7    8     -0.39     -0.01
  -22    7    8     -0.27     -0.01
  -21    7    8     -0.41     -0.01
  -20    7    8     -0.66     -0.02
  -19    7    8     -0.72     -0.03
  -18    7    8     -0.45     -0.02
  -17    7    8     -0.10      0.03
  -16    7    8      0.16      0.08
  -15    7    8      0.52      0.08
  -14    7    8      0.97      0.04
  -13    7    8      1.29     -0.01
  -12    7    8      1.69     -0.01
  -11    7    8      2.58      0.04
  -10    7    8      3.56      0.10
   -9    7    8      3.60      0.09
   -8    7    8      2.50      0.03
   -7    7    8      1.04     -0.03
   -6    7    8     -0.07     -0.06
   -5    7    8     -0.76     -0.06
   -4    7    8     -1.32     -0.05
   -3    7    8     -1.98     -0.04
   -2    7    8     -2.30     -0.04
   -1    7    8     -1.42     -0.04
    0    7    8      0.84     -0.05
    1    7    8      3.18     -0.05
    2    7    8      3.95     -0.05
    3    7    8      2.95     -0.06
    4    7    8      1.49     -0.11
    5    7    8      0.91     -0.20
    6    7    8      1.34     -0.26
    7    7    8      2.10     -0.22
    8    7    8      2.64     -0.06
    9    7    8      2.81      0.12
   10    7    8      2.64      0.21
   11    7    8      2.24      0.19
   12    7    8      1.82      0.13
   13    7    8      1.35      0.09
   14    7    8      0.72      0.06
   15    7    8      0.08      0.03
   16    7    8     -0.24      0.01
   17    7    8     -0.08      0.01
   18    7    8      0.25      0.01
  -24    8    8      0.86      0.02
  -23    8    8      0.41      0.03
  -22    8    8     -0.01      0.03
  -21    8    8     -0.01      0.02
  -20    8    8      0.30      0.01
  -19    8    8      0.56      0.01
  -18    8    8      0.55      0.04
  -17    8    8      0.41      0.03
  -16    8    8      0.35     -0.02
  -15    8    8      0.35     -0.07
  -14    8    8      0.16     -0.08
  -13    8    8     -0.11     -0.05
  -12    8    8     -0.07     -0.01
  -11    8    8      0.21      0.01
  -10    8    8      0.05      0.01
   -9    8    8     -0.95     -0.01
   -8    8    8     -2.36     -0.02
   -7    8    8     -3.31      0.00
   -6    8    8     -3.25      0.03
   -5    8    8     -2.25      0.04
   -4    8    8     -0.78      0.04
   -3    8    8      0.77      0.03
   -2    8    8      2.01      0.03
   -1    8    8      2.33      0.03
    0    8    8      1.44      0.03
    1    8    8      0.13      0.03
    2    8    8     -0.54      0.04
    3    8    8     -0.52      0.10
    4    8    8     -0.65      0.21
    5    8    8     -1.40      0.32
    6    8    8     -2.20      0.31
    7    8    8     -2.18      0.13
    8    8    8     -1.19     -0.11
    9    8    8      0.00     -0.25
   10    8    8      0.45     -0.21
   11    8    8     -0.08     -0.09
   12    8    8     -1.01     -0.01
   13    8    8     -1.46     -0.01
   14    8    8     -1.14     -0.03
   15    8    8     -0.49     -0.03
   16    8    8      0.00     -0.01
   17    8    8      0.30      0.01
   18    8    8      0.52      0.01
  -24    9    8     -0.21      0.02
  -23    9    8     -0.18      0.00
  -22    9    8      0.10     -0.02
  -21    9    8      0.30     -0.02
  -20    9    8      0.23     -0.01
  -19    9    8      0.08      0.00
  -18    9    8      0.06      0.00
  -17    9    8      0.13     -0.02
  -16    9    8      0.27     -0.01
  -15    9    8      0.53      0.00
  -14    9    8      0.88      0.00
  -13    9    8      1.11     -0.02
  -12    9    8      1.01     -0.04
  -11    9    8      0.50     -0.03
  -10    9    8     -0.41      0.02
   -9    9    8     -1.53      0.07
   -8    9    8     -2.28      0.09
   -7    9    8     -1.99      0.08
   -6    9    8     -0.60      0.05
   -5    9    8      1.12      0.00
   -4    9    8      2.11     -0.02
   -3    9    8      1.82     -0.01
   -2    9    8      0.58      0.02
   -1    9    8     -0.40      0.02
    0    9    8      0.00     -0.01
    1    9    8      1.52     -0.01
    2    9    8      2.64      0.04
    3    9    8      2.31      0.09
    4    9    8      1.03      0.05
    5    9    8      0.08     -0.12
    6    9    8      0.21     -0.32
    7    9    8      1.07     -0.37
    8    9    8      1.63     -0.19
    9    9    8      1.09      0.08
   10    9    8     -0.15      0.23
   11    9    8     -1.02      0.21
   12    9    8     -0.89      0.10
   13    9    8     -0.20      0.03
   14    9    8      0.23      0.01
   15    9    8      0.07      0.02
   16    9    8     -0.21      0.02
   17    9    8     -0.11      0.02
  -23   10    8      0.00     -0.03
  -22   10    8     -0.03     -0.02
  -21   10    8     -0.02      0.01
  -20   10    8     -0.03      0.02
  -19   10    8     -0.18      0.04
  -18   10    8     -0.47      0.07
  -17   10    8     -0.71      0.07
  -16   10    8     -0.64      0.03
  -15   10    8     -0.33     -0.05
  -14   10    8     -0.15     -0.11
  -13   10    8     -0.27     -0.12
  -12   10    8     -0.42     -0.07
  -11   10    8     -0.34      0.01
  -10   10    8     -0.02      0.06
   -9   10    8      0.41      0.05
   -8   10    8      0.93      0.01
   -7   10    8      1.34     -0.03
   -6   10    8      1.25     -0.02
   -5   10    8      0.36      0.00
   -4   10    8     -1.11      0.01
   -3   10    8     -2.31      0.01
   -2   10    8     -2.23     -0.03
   -1   10    8     -0.80     -0.07
    0   10    8      0.73     -0.06
    1   10    8      1.13     -0.02
    2   10    8      0.52      0.00
    3   10    8     -0.05     -0.05
    4   10    8     -0.05     -0.11
    5   10    8      0.19     -0.09
    6   10    8      0.21      0.03
    7   10    8     -0.12      0.16
    8   10    8     -0.55      0.17
    9   10    8     -0.59      0.06
   10   10    8     -0.13     -0.04
   11   10    8      0.29     -0.07
   12   10    8      0.22     -0.03
   13   10    8     -0.05      0.02
   14   10    8     -0.07      0.04
   15   10    8      0.11      0.03
   16   10    8      0.23      0.01
  -22   11    8      1.02      0.02
  -21   11    8      0.96      0.03
  -20   11    8      0.54      0.03
  -19   11    8      0.07      0.02
  -18   11    8     -0.01      0.01
  -17   11    8      0.40     -0.01
  -16   11    8      0.95     -0.04
  -15   11    8      1.13     -0.06
  -14   11    8      0.93     -0.05
  -13   11    8      0.74      0.00
  -12   11    8      0.77      0.03
  -11   11    8      0.79      0.02
  -10   11    8      0.68     -0.03
   -9   11    8      0.59     -0.05
   -8   11    8      0.53     -0.04
   -7   11    8      0.20      0.00
   -6   11    8     -0.55      0.02
   -5   11    8     -1.33      0.01
   -4   11    8     -1.45     -0.01
   -3   11    8     -0.53     -0.01
   -2   11    8      0.98      0.00
   -1   11    8      2.12      0.01
    0   11    8      2.39      0.02
    1   11    8      2.24      0.02
    2   11    8      2.25      0.00
    3   11    8      2.21     -0.01
    4   11    8      1.55      0.00
    5   11    8      0.35      0.02
    6   11    8     -0.60     -0.01
    7   11    8     -0.74     -0.09
    8   11    8     -0.33     -0.16
    9   11    8     -0.07     -0.15
   10   11    8     -0.29     -0.08
   11   11    8     -0.66     -0.02
   12   11    8     -0.62      0.00
   13   11    8     -0.15     -0.01
   14   11    8      0.23     -0.02
   15   11    8      0.15     -0.03
   16   11    8     -0.15     -0.04
  -21   12    8     -0.53      0.03
  -20   12    8     -0.53      0.02
  -19   12    8     -0.34      0.00
  -18   12    8     -0.03      0.01
  -17   12    8      0.19      0.02
  -16   12    8      0.19      0.01
  -15   12    8      0.00     -0.01
  -14   12    8     -0.09     -0.02
  -13   12    8      0.06     -0.02
  -12   12    8      0.27     -0.02
  -11   12    8      0.40     -0.04
  -10   12    8      0.60     -0.03
   -9   12    8      0.93      0.01
   -8   12    8      0.95      0.05
   -7   12    8      0.19      0.05
   -6   12    8     -1.02      0.03
   -5   12    8     -1.70      0.01
   -4   12    8     -1.28      0.02
   -3   12    8     -0.12      0.03
   -2   12    8      1.04      0.02
   -1   12    8      1.86      0.00
    0   12    8      2.26     -0.01
    1   12    8      2.18      0.01
    2   12    8      1.56      0.01
    3   12    8      0.58     -0.02
    4   12    8     -0.35     -0.06
    5   12    8     -0.80     -0.06
    6   12    8     -0.66     -0.03
    7   12    8     -0.28      0.01
    8   12    8     -0.05      0.02
    9   12    8      0.11     -0.01
   10   12    8      0.44     -0.03
   11   12    8      0.74     -0.02
   12   12    8      0.70      0.00
   13   12    8      0.34      0.03
   14   12    8     -0.02      0.04
   15   12    8     -0.20      0.04
  -20   13    8      1.08      0.02
  -19   13    8      1.12     -0.02
  -18   13    8      1.05     -0.03
  -17   13    8      1.05      0.00
  -16   13    8      1.03      0.03
  -15   13    8      0.73      0.04
  -14   13    8      0.18      0.03
  -13   13    8     -0.35      0.02
  -12   13    8     -0.67      0.00
  -11   13    8     -0.72     -0.01
  -10   13    8     -0.48     -0.01
   -9   13    8     -0.09     -0.02
   -8   13    8      0.08     -0.04
   -7   13    8     -0.09     -0.06
   -6   13    8     -0.15     -0.07
   -5   13    8      0.38     -0.04
   -4   13    8      1.35     -0.01
   -3   13    8      2.12      0.00
   -2   13    8      2.27     -0.02
   -1   13    8      1.73     -0.02
    0   13    8      0.68      0.01
    1   13    8     -0.22      0.03
    2   13    8     -0.36      0.02
    3   13    8      0.08     -0.02
    4   13    8      0.37     -0.01
    5   13    8      0.35      0.06
    6   13    8      0.38      0.11
    7   13    8      0.65      0.07
    8   13    8      0.96     -0.02
    9   13    8      1.08     -0.07
   10   13    8      0.84     -0.04
   11   13    8      0.29     -0.01
   12   13    8     -0.14     -0.02
   13   13    8     -0.15     -0.03
   14   13    8      0.11     -0.03
  -19   14    8      0.69     -0.08
  -18   14    8      0.62     -0.05
  -17   14    8      0.68      0.04
  -16   14    8      0.60      0.09
  -15   14    8      0.11      0.08
  -14   14    8     -0.60      0.04
  -13   14    8     -1.00      0.02
  -12   14    8     -0.86      0.00
  -11   14    8     -0.39     -0.02
  -10   14    8      0.17     -0.04
   -9   14    8      0.64     -0.04
   -8   14    8      0.72     -0.04
   -7   14    8      0.19     -0.04
   -6   14    8     -0.66     -0.03
   -5   14    8     -1.24     -0.01
   -4   14    8     -1.28      0.02
   -3   14    8     -1.02      0.02
   -2   14    8     -0.84     -0.01
   -1   14    8     -0.76     -0.02
    0   14    8     -0.40     -0.02
    1   14    8      0.41     -0.02
    2   14    8      1.05     -0.01
    3   14    8      0.80      0.01
    4   14    8     -0.07      0.03
    5   14    8     -0.59      0.04
    6   14    8     -0.43      0.02
    7   14    8     -0.07     -0.01
    8   14    8      0.01     -0.03
    9   14    8     -0.21     -0.04
   10   14    8     -0.42     -0.04
   11   14    8     -0.31     -0.05
   12   14    8      0.02     -0.05
  -17   15    8      0.10      0.01
  -16   15    8     -0.25      0.00
  -15   15    8     -0.79     -0.01
  -14   15    8     -1.28     -0.02
  -13   15    8     -1.31     -0.02
  -12   15    8     -0.83     -0.02
  -11   15    8     -0.08     -0.02
  -10   15    8      0.65     -0.01
   -9   15    8      0.91      0.00
   -8   15    8      0.34      0.00
   -7   15    8     -0.69     -0.01
   -6   15    8     -1.13      0.00
   -5   15    8     -0.52      0.04
   -4   15    8      0.51      0.05
   -3   15    8      1.08      0.03
   -2   15    8      0.95      0.00
   -1   15    8      0.40      0.00
    0   15    8     -0.25      0.02
    1   15    8     -0.83      0.04
    2   15    8     -1.20      0.02
    3   15    8     -1.19      0.00
    4   15    8     -0.84      0.00
    5   15    8     -0.52      0.06
    6   15    8     -0.50      0.10
    7   15    8     -0.67      0.08
    8   15    8     -0.72      0.01
    9   15    8     -0.48     -0.03
   10   15    8     -0.02     -0.03
   11   15    8      0.30     -0.01
  -16   16    8      0.07      0.08
  -15   16    8      0.29      0.07
  -14   16    8      0.30      0.04
  -13   16    8      0.38      0.03
  -12   16    8      0.68      0.03
  -11   16    8      0.94      0.02
  -10   16    8      0.71      0.00
   -9   16    8     -0.06      0.00
   -8   16    8     -0.80      0.00
   -7   16    8     -0.92     -0.01
   -6   16    8     -0.56     -0.01
   -5   16    8     -0.38      0.00
   -4   16    8     -0.62      0.01
   -3   16    8     -1.03      0.01
   -2   16    8     -1.42      0.01
   -1   16    8     -1.72      0.00
    0   16    8     -1.59      0.00
    1   16    8     -0.83      0.00
    2   16    8      0.13      0.02
    3   16    8      0.55      0.04
    4   16    8      0.24      0.04
    5   16    8     -0.22      0.03
    6   16    8     -0.18      0.01
    7   16    8      0.41      0.00
    8   16    8      1.03      0.00
    9   16    8      1.15      0.00
  -14   17    8     -0.07     -0.02
  -13   17    8     -0.22      0.00
  -12   17    8     -0.14     -0.01
  -11   17    8      0.04     -0.02
  -10   17    8      0.10     -0.01
   -9   17    8      0.00      0.01
   -8   17    8     -0.17      0.03
   -7   17    8     -0.33      0.02
   -6   17    8     -0.47      0.01
   -5   17    8     -0.52      0.01
   -4   17    8     -0.43      0.01
   -3   17    8     -0.31      0.01
   -2   17    8     -0.29      0.02
   -1   17    8     -0.30      0.03
    0   17    8     -0.27      0.04
    1   17    8     -0.31      0.03
    2   17    8     -0.45      0.00
    3   17    8     -0.46     -0.05
    4   17    8     -0.16     -0.07
    5   17    8      0.29     -0.04
    6   17    8      0.54      0.01
    7   17    8      0.40      0.03
  -11   18    8      0.31     -0.02
  -10   18    8      0.32      0.00
   -9   18    8      0.14      0.02
   -8   18    8      0.03      0.01
   -7   18    8      0.07      0.00
   -6   18    8      0.07     -0.01
   -5   18    8     -0.07      0.01
   -4   18    8     -0.09      0.02
   -3   18    8      0.10      0.03
   -2   18    8      0.22      0.02
   -1   18    8      0.09      0.01
    0   18    8      0.02      0.00
    1   18    8      0.39     -0.01
    2   18    8      1.05     -0.02
    3   18    8      1.44     -0.02
    4   18    8      1.28     -0.01
   -6   19    8      0.36      0.00
   -5   19    8      0.56      0.00
   -4   19    8      0.82      0.00
   -3   19    8      0.91     -0.01
   -2   19    8      0.73     -0.02
   -1   19    8      0.57     -0.01
    0   19    8      0.62      0.00
  -26    1    9      0.13     -0.02
  -25    1    9      0.47     -0.01
  -24    1    9      0.64      0.01
  -23    1    9      0.39      0.02
  -22    1    9     -0.02      0.01
  -21    1    9     -0.30     -0.02
  -20    1    9     -0.41     -0.04
  -19    1    9     -0.16     -0.01
  -18    1    9      0.74      0.03
  -17    1    9      1.68      0.04
  -16    1    9      1.41      0.02
  -15    1    9     -0.41      0.00
  -14    1    9     -2.34     -0.01
  -13    1    9     -2.57     -0.01
  -12    1    9     -1.04      0.00
  -11    1    9      0.37      0.04
  -10    1    9     -0.20      0.07
   -9    1    9     -2.29      0.05
   -8    1    9     -3.44      0.00
   -7    1    9     -2.20     -0.02
   -6    1    9     -0.18      0.00
   -5    1    9     -0.08      0.01
   -4    1    9     -2.35      0.00
   -3    1    9     -4.67     -0.02
   -2    1    9     -4.63     -0.01
   -1    1    9     -2.04      0.03
    0    1    9      1.31      0.03
    1    1    9      3.37     -0.03
    2    1    9      3.43     -0.09
    3    1    9      2.65     -0.05
    4    1    9      2.77      0.06
    5    1    9      4.02      0.14
    6    1    9      4.84      0.11
    7    1    9      4.03      0.03
    8    1    9      2.05      0.00
    9    1    9      0.12      0.02
   10    1    9     -1.15      0.05
   11    1    9     -1.61      0.04
   12    1    9     -1.30      0.02
   13    1    9     -0.59     -0.01
   14    1    9     -0.03     -0.01
   15    1    9      0.24     -0.01
   16    1    9      0.43      0.00
   17    1    9      0.58      0.02
   18    1    9      0.51      0.02
   19    1    9      0.23      0.01
  -26    2    9      0.08      0.01
  -25    2    9      0.12      0.02
  -24    2    9      0.14      0.01
  -23    2    9      0.04      0.00
  -22    2    9     -0.07      0.01
  -21    2    9     -0.09      0.03
  -20    2    9      0.01      0.02
  -19    2    9      0.15      0.00
  -18    2    9     -0.06     -0.02
  -17    2    9     -1.00     -0.02
  -16    2    9     -2.05     -0.02
  -15    2    9     -1.72     -0.01
  -14    2    9      0.60      0.00
  -13    2    9      3.44     -0.01
  -12    2    9      4.39     -0.02
  -11    2    9      2.56     -0.02
  -10    2    9     -0.13     -0.02
   -9    2    9     -0.47     -0.03
   -8    2    9      2.58     -0.04
   -7    2    9      6.50     -0.03
   -6    2    9      7.54      0.00
   -5    2    9      4.63      0.03
   -4    2    9      0.27      0.03
   -3    2    9     -2.23      0.05
   -2    2    9     -1.86      0.07
   -1    2    9     -0.37      0.06
    0    2    9      0.09      0.00
    1    2    9     -0.82     -0.09
    2    2    9     -1.65     -0.12
    3    2    9     -1.13     -0.05
    4    2    9      0.25      0.04
    5    2    9      0.92      0.05
    6    2    9      0.24     -0.02
    7    2    9     -0.97     -0.07
    8    2    9     -1.67     -0.06
    9    2    9     -1.61     -0.04
   10    2    9     -0.98     -0.03
   11    2    9     -0.16     -0.05
   12    2    9      0.28     -0.06
   13    2    9      0.22     -0.06
   14    2    9      0.19     -0.05
   15    2    9      0.55     -0.04
   16    2    9      0.91     -0.02
   17    2    9      0.80     -0.01
   18    2    9      0.33      0.00
   19    2    9     -0.15      0.00
  -26    3    9     -0.16      0.00
  -25    3    9      0.63     -0.01
  -24    3    9      1.13     -0.01
  -23    3    9      1.22      0.01
  -22    3    9      1.18      0.02
  -21    3    9      1.11     -0.02
  -20    3    9      0.91     -0.05
  -19    3    9      0.63     -0.03
  -18    3    9      0.59      0.02
  -17    3    9      0.99      0.04
  -16    3    9      1.56      0.02
  -15    3    9      1.68      0.00
  -14    3    9      1.09      0.00
  -13    3    9      0.09      0.02
  -12    3    9     -0.74      0.05
  -11    3    9     -0.78      0.07
  -10    3    9      0.56      0.07
   -9    3    9      3.04      0.06
   -8    3    9      4.89      0.04
   -7    3    9      3.82      0.02
   -6    3    9     -0.62      0.02
   -5    3    9     -5.80      0.02
   -4    3    9     -7.92      0.00
   -3    3    9     -5.56     -0.04
   -2    3    9     -1.01     -0.07
   -1    3    9      2.27     -0.07
    0    3    9      2.98     -0.05
    1    3    9      2.36     -0.04
    2    3    9      2.21     -0.05
    3    3    9      3.11     -0.06
    4    3    9      4.29     -0.07
    5    3    9      4.59     -0.06
    6    3    9      3.70     -0.05
    7    3    9      2.30     -0.02
    8    3    9      1.21      0.01
    9    3    9      0.54      0.04
   10    3    9     -0.08      0.04
   11    3    9     -0.85      0.03
   12    3    9     -1.39      0.02
   13    3    9     -1.17      0.01
   14    3    9     -0.33     -0.01
   15    3    9      0.41     -0.02
   16    3    9      0.57      0.01
   17    3    9      0.34      0.04
   18    3    9      0.03      0.04
   19    3    9     -0.10      0.02
  -26    4    9      0.57     -0.02
  -25    4    9      0.43     -0.01
  -24    4    9      0.13      0.00
  -23    4    9     -0.07      0.00
  -22    4    9     -0.12     -0.01
  -21    4    9     -0.13     -0.02
  -20    4    9     -0.27     -0.01
  -19    4    9     -0.54      0.00
  -18    4    9     -0.95      0.00
  -17    4    9     -1.66     -0.02
  -16    4    9     -2.55     -0.03
  -15    4    9     -2.78     -0.01
  -14    4    9     -1.56      0.01
  -13    4    9      0.56     -0.01
  -12    4    9      1.93     -0.08
  -11    4    9      1.56     -0.13
  -10    4    9     -0.09     -0.15
   -9    4    9     -1.94     -0.14
   -8    4    9     -3.36     -0.12
   -7    4    9     -4.35     -0.10
   -6    4    9     -4.72     -0.07
   -5    4    9     -3.80     -0.03
   -4    4    9     -1.51     -0.01
   -3    4    9      0.62     -0.01
   -2    4    9      0.74     -0.01
   -1    4    9     -1.19     -0.04
    0    4    9     -3.26     -0.09
    1    4    9     -3.51     -0.14
    2    4    9     -1.77     -0.10
    3    4    9      0.25      0.04
    4    4    9      0.70      0.20
    5    4    9     -0.45      0.26
    6    4    9     -1.51      0.20
    7    4    9     -1.32      0.10
    8    4    9     -0.53      0.05
    9    4    9     -0.20      0.06
   10    4    9     -0.34      0.06
   11    4    9     -0.33      0.04
   12    4    9      0.09     -0.01
   13    4    9      0.63     -0.03
   14    4    9      1.00     -0.01
   15    4    9      1.11      0.02
   16    4    9      0.94      0.03
   17    4    9      0.58      0.01
   18    4    9      0.33      0.00
   19    4    9      0.37     -0.01
  -25    5    9     -0.49     -0.01
  -24    5    9      0.13     -0.01
  -23    5    9      0.80      0.00
  -22    5    9      1.21      0.01
  -21    5    9      1.16      0.01
  -20    5    9      0.71      0.00
  -19    5    9      0.19      0.01
  -18    5    9     -0.16      0.03
  -17    5    9     -0.31      0.05
  -16    5    9     -0.24      0.05
  -15    5    9      0.04      0.02
  -14    5    9      0.23     -0.02
  -13    5    9     -0.17     -0.03
  -12    5    9     -1.32      0.00
  -11    5    9     -2.71      0.07
  -10    5    9     -3.24      0.09
   -9    5    9     -2.16      0.02
   -8    5    9     -0.12     -0.07
   -7    5    9      1.12     -0.12
   -6    5    9      0.80     -0.10
   -5    5    9     -0.13     -0.03
   -4    5    9     -0.59      0.01
   -3    5    9     -0.50      0.01
   -2    5    9     -0.14     -0.01
   -1    5    9      0.50     -0.01
    0    5    9      1.30      0.00
    1    5    9      1.70      0.03
    2    5    9      1.39      0.04
    3    5    9      0.70      0.00
    4    5    9      0.43     -0.13
    5    5    9      1.06     -0.27
    6    5    9      2.07     -0.32
    7    5    9      2.37     -0.23
    8    5    9      1.53     -0.08
    9    5    9      0.25      0.01
   10    5    9     -0.59      0.01
   11    5    9     -0.84     -0.02
   12    5    9     -0.85     -0.01
   13    5    9     -0.92      0.03
   14    5    9     -1.06      0.03
   15    5    9     -1.12     -0.01
   16    5    9     -1.02     -0.04
   17    5    9     -0.80     -0.04
   18    5    9     -0.57     -0.01
  -25    6    9      0.13      0.00
  -24    6    9      0.17      0.01
  -23    6    9      0.20      0.01
  -22    6    9      0.33      0.00
  -21    6    9      0.56     -0.01
  -20    6    9      0.62     -0.02
  -19    6    9      0.21     -0.01
  -18    6    9     -0.56      0.00
  -17    6    9     -1.30     -0.02
  -16    6    9     -1.71     -0.04
  -15    6    9     -1.73     -0.02
  -14    6    9     -1.38      0.02
  -13    6    9     -0.89      0.03
  -12    6    9     -0.65     -0.03
  -11    6    9     -0.79     -0.20
  -10    6    9     -0.90     -0.40
   -9    6    9     -0.63     -0.49
   -8    6    9     -0.33     -0.41
   -7    6    9     -0.37     -0.24
   -6    6    9     -0.46     -0.07
   -5    6    9     -0.02      0.02
   -4    6    9      1.01      0.05
   -3    6    9      2.07      0.05
   -2    6    9      2.35      0.06
   -1    6    9      1.39      0.04
    0    6    9     -0.24     -0.01
    1    6    9     -1.18      0.00
    2    6    9     -0.70      0.11
    3    6    9      0.40      0.31
    4    6    9      0.88      0.48
    5    6    9      0.55      0.53
    6    6    9      0.15      0.41
    7    6    9      0.27      0.22
    8    6    9      0.70      0.05
    9    6    9      0.90     -0.02
   10    6    9      0.67     -0.02
   11    6    9      0.13      0.00
   12    6    9     -0.46     -0.01
   13    6    9     -0.83     -0.04
   14    6    9     -0.73     -0.05
   15    6    9     -0.30     -0.04
   16    6    9     -0.02     -0.01
   17    6    9     -0.12      0.00
   18    6    9     -0.29      0.01
  -25    7    9     -0.97      0.02
  -24    7    9     -0.56      0.00
  -23    7    9      0.35     -0.01
  -22    7    9      0.98     -0.01
  -21    7    9      0.65      0.00
  -20    7    9     -0.47      0.02
  -19    7    9     -1.50      0.02
  -18    7    9     -1.74      0.02
  -17    7    9     -1.28      0.04
  -16    7    9     -0.60      0.06
  -15    7    9     -0.04      0.04
  -14    7    9      0.41     -0.04
  -13    7    9      0.74     -0.13
  -12    7    9      0.83     -0.19
  -11    7    9      0.73     -0.18
  -10    7    9      0.76     -0.10
   -9    7    9      1.11      0.00
   -8    7    9      1.36      0.07
   -7    7    9      1.08      0.08
   -6    7    9      0.58      0.05
   -5    7    9      0.56      0.03
   -4    7    9      0.96      0.03
   -3    7    9      0.91      0.03
   -2    7    9      0.10      0.00
   -1    7    9     -0.69     -0.04
    0    7    9     -0.74     -0.02
    1    7    9     -0.53      0.06
    2    7    9     -0.99      0.10
    3    7    9     -1.92     -0.09
    4    7    9     -2.05     -0.57
    5    7    9     -0.60     -1.08
    6    7    9      1.60     -1.23
    7    7    9      2.83     -0.88
    8    7    9      2.23     -0.28
    9    7    9      0.59      0.14
   10    7    9     -0.54      0.22
   11    7    9     -0.45      0.10
   12    7    9      0.25      0.01
   13    7    9      0.61      0.01
   14    7    9      0.38      0.04
   15    7    9      0.01      0.05
   16    7    9     -0.09      0.03
   17    7    9      0.02      0.02
  -24    8    9      0.18     -0.01
  -23    8    9      0.30      0.01
  -22    8    9     -0.32      0.03
  -21    8    9     -1.07      0.03
  -20    8    9     -1.22      0.01
  -19    8    9     -0.65      0.00
  -18    8    9      0.24      0.00
  -17    8    9      1.02      0.00
  -16    8    9      1.49     -0.03
  -15    8    9      1.53     -0.06
  -14    8    9      1.26     -0.06
  -13    8    9      0.85     -0.02
  -12    8    9      0.32      0.03
  -11    8    9     -0.38      0.01
  -10    8    9     -1.12     -0.06
   -9    8    9     -1.66     -0.13
   -8    8    9     -1.91     -0.13
   -7    8    9     -1.71     -0.08
   -6    8    9     -1.06     -0.03
   -5    8    9     -0.46     -0.01
   -4    8    9     -0.43     -0.01
   -3    8    9     -0.72     -0.02
   -2    8    9     -0.74     -0.02
   -1    8    9     -0.68      0.01
    0    8    9     -1.18      0.06
    1    8    9     -2.08      0.05
    2    8    9     -2.41     -0.05
    3    8    9     -1.57     -0.15
    4    8    9      0.08     -0.06
    5    8    9      1.49      0.35
    6    8    9      1.80      0.89
    7    8    9      1.07      1.20
    8    8    9      0.25      1.04
    9    8    9      0.13      0.58
   10    8    9      0.48      0.15
   11    8    9      0.42     -0.04
   12    8    9     -0.31     -0.03
   13    8    9     -1.00      0.02
   14    8    9     -0.80      0.04
   15    8    9      0.16      0.02
   16    8    9      0.86      0.01
   17    8    9      0.66      0.00
  -24    9    9      0.06      0.00
  -23    9    9      0.14     -0.01
  -22    9    9      0.06     -0.02
  -21    9    9      0.02     -0.01
  -20    9    9      0.32      0.00
  -19    9    9      0.99      0.00
  -18    9    9      1.62     -0.01
  -17    9    9      1.76     -0.03
  -16    9    9      1.36     -0.04
  -15    9    9      0.76     -0.03
  -14    9    9      0.40     -0.01
  -13    9    9      0.26      0.01
  -12    9    9      0.01      0.00
  -11    9    9     -0.41     -0.03
  -10    9    9     -0.71     -0.05
   -9    9    9     -0.78     -0.03
   -8    9    9     -0.82      0.01
   -7    9    9     -0.96      0.02
   -6    9    9     -1.05      0.00
   -5    9    9     -0.73     -0.02
   -4    9    9      0.17     -0.03
   -3    9    9      1.23     -0.01
   -2    9    9      1.64      0.03
   -1    9    9      1.15      0.07
    0    9    9      0.43      0.06
    1    9    9      0.12      0.02
    2    9    9      0.23      0.02
    3    9    9      0.58      0.06
    4    9    9      1.15      0.06
    5    9    9      1.75     -0.01
    6    9    9      2.08     -0.15
    7    9    9      1.95     -0.25
    8    9    9      1.29     -0.26
    9    9    9      0.24     -0.19
   10    9    9     -0.50     -0.11
   11    9    9     -0.18     -0.05
   12    9    9      0.97     -0.02
   13    9    9      1.91     -0.03
   14    9    9      1.89     -0.05
   15    9    9      1.11     -0.06
   16    9    9      0.18     -0.05
  -23   10    9      0.51     -0.02
  -22   10    9     -0.01     -0.01
  -21   10    9     -0.32      0.00
  -20   10    9     -0.06      0.00
  -19   10    9      0.35      0.00
  -18   10    9      0.38     -0.01
  -17   10    9     -0.04      0.00
  -16   10    9     -0.54      0.03
  -15   10    9     -0.82      0.05
  -14   10    9     -0.99      0.05
  -13   10    9     -1.36      0.04
  -12   10    9     -1.92      0.01
  -11   10    9     -2.20     -0.01
  -10   10    9     -1.92     -0.01
   -9   10    9     -1.34     -0.01
   -8   10    9     -0.75     -0.01
   -7   10    9     -0.10     -0.01
   -6   10    9      0.72     -0.01
   -5   10    9      1.40      0.01
   -4   10    9      1.42      0.02
   -3   10    9      0.62      0.03
   -2   10    9     -0.58      0.02
   -1   10    9     -1.48      0.01
    0   10    9     -1.88      0.01
    1   10    9     -2.07      0.02
    2   10    9     -2.17      0.00
    3   10    9     -1.87     -0.03
    4   10    9     -1.04     -0.03
    5   10    9     -0.15      0.06
    6   10    9      0.16      0.23
    7   10    9     -0.27      0.34
    8   10    9     -0.76      0.28
    9   10    9     -0.44      0.11
   10   10    9      0.64     -0.03
   11   10    9      1.36     -0.06
   12   10    9      0.90     -0.03
   13   10    9     -0.30      0.00
   14   10    9     -1.11      0.01
   15   10    9     -0.99      0.00
   16   10    9     -0.41      0.00
  -22   11    9     -0.26      0.00
  -21   11    9     -0.41      0.01
  -20   11    9     -0.33      0.03
  -19   11    9     -0.15      0.02
  -18   11    9     -0.11      0.00
  -17   11    9     -0.30      0.00
  -16   11    9     -0.51      0.00
  -15   11    9     -0.47     -0.02
  -14   11    9     -0.25     -0.04
  -13   11    9     -0.11     -0.05
  -12   11    9      0.13     -0.03
  -11   11    9      0.75      0.00
  -10   11    9      1.43      0.01
   -9   11    9      1.50      0.01
   -8   11    9      0.89      0.01
   -7   11    9      0.12      0.02
   -6   11    9     -0.41      0.02
   -5   11    9     -0.58     -0.01
   -4   11    9     -0.40     -0.05
   -3   11    9      0.00     -0.06
   -2   11    9      0.26     -0.03
   -1   11    9      0.02      0.02
    0   11    9     -0.64      0.03
    1   11    9     -1.20     -0.03
    2   11    9     -1.17     -0.10
    3   11    9     -0.52     -0.10
    4   11    9      0.28     -0.05
    5   11    9      0.63      0.00
    6   11    9      0.39     -0.01
    7   11    9     -0.02     -0.06
    8   11    9     -0.18     -0.08
    9   11    9     -0.23     -0.04
   10   11    9     -0.45      0.04
   11   11    9     -0.59      0.10
   12   11    9     -0.38      0.09
   13   11    9     -0.07      0.03
   14   11    9      0.01     -0.03
   15   11    9     -0.08     -0.04
  -21   12    9     -0.89     -0.04
  -20   12    9     -0.61     -0.06
  -19   12    9     -0.02     -0.04
  -18   12    9      0.35     -0.01
  -17   12    9      0.11      0.00
  -16   12    9     -0.45      0.00
  -15   12    9     -0.73     -0.01
  -14   12    9     -0.62     -0.01
  -13   12    9     -0.34      0.00
  -12   12    9      0.07      0.01
  -11   12    9      0.49      0.02
  -10   12    9      0.61      0.02
   -9   12    9      0.24      0.02
   -8   12    9     -0.36      0.01
   -7   12    9     -0.73      0.00
   -6   12    9     -0.58     -0.01
   -5   12    9      0.01     -0.01
   -4   12    9      0.44      0.00
   -3   12    9      0.04      0.02
   -2   12    9     -1.06      0.04
   -1   12    9     -1.83      0.04
    0   12    9     -1.51      0.01
    1   12    9     -0.53     -0.02
    2   12    9      0.14     -0.03
    3   12    9      0.32      0.00
    4   12    9      0.52      0.04
    5   12    9      0.94      0.07
    6   12    9      1.16      0.10
    7   12    9      0.92      0.13
    8   12    9      0.50      0.13
    9   12    9      0.39      0.10
   10   12    9      0.73      0.04
   11   12    9      1.03      0.00
   12   12    9      0.67      0.00
   13   12    9     -0.27      0.01
   14   12    9     -0.91      0.03
  -20   13    9      0.45     -0.03
  -19   13    9      0.83      0.00
  -18   13    9      0.47      0.00
  -17   13    9     -0.56     -0.02
  -16   13    9     -1.33     -0.01
  -15   13    9     -1.14      0.01
  -14   13    9     -0.27      0.00
  -13   13    9      0.58     -0.02
  -12   13    9      1.10     -0.01
  -11   13    9      1.27      0.01
  -10   13    9      0.87      0.03
   -9   13    9     -0.19      0.02
   -8   13    9     -1.28      0.01
   -7   13    9     -1.40      0.02
   -6   13    9     -0.32      0.04
   -5   13    9      1.01      0.03
   -4   13    9      1.58      0.00
   -3   13    9      1.38     -0.01
   -2   13    9      1.15      0.00
   -1   13    9      1.20      0.03
    0   13    9      1.12      0.04
    1   13    9      0.52      0.00
    2   13    9     -0.12     -0.04
    3   13    9     -0.08     -0.04
    4   13    9      0.56      0.00
    5   13    9      0.94      0.04
    6   13    9      0.63      0.03
    7   13    9      0.13      0.00
    8   13    9      0.03     -0.02
    9   13    9      0.27     -0.02
   10   13    9      0.36      0.00
   11   13    9      0.08      0.02
   12   13    9     -0.23      0.03
   13   13    9     -0.17      0.01
  -19   14    9      0.00      0.01
  -18   14    9     -0.66      0.02
  -17   14    9     -1.29      0.01
  -16   14    9     -1.32     -0.01
  -15   14    9     -0.63     -0.03
  -14   14    9      0.28     -0.04
  -13   14    9      0.90     -0.03
  -12   14    9      1.15     -0.01
  -11   14    9      0.98      0.00
  -10   14    9      0.34      0.00
   -9   14    9     -0.38      0.00
   -8   14    9     -0.39      0.01
   -7   14    9      0.49      0.02
   -6   14    9      1.40      0.01
   -5   14    9      1.42     -0.01
   -4   14    9      0.45     -0.02
   -3   14    9     -0.92      0.01
   -2   14    9     -1.90      0.03
   -1   14    9     -1.95      0.03
    0   14    9     -1.14      0.00
    1   14    9     -0.20     -0.03
    2   14    9      0.29     -0.02
    3   14    9      0.38      0.05
    4   14    9      0.43      0.10
    5   14    9      0.49      0.08
    6   14    9      0.37      0.03
    7   14    9      0.09      0.04
    8   14    9     -0.21      0.07
    9   14    9     -0.37      0.07
   10   14    9     -0.34      0.04
   11   14    9     -0.15      0.01
  -17   15    9     -0.23     -0.07
  -16   15    9      0.01     -0.07
  -15   15    9      0.49     -0.03
  -14   15    9      0.99      0.01
  -13   15    9      1.31      0.01
  -12   15    9      1.30      0.00
  -11   15    9      0.76      0.01
  -10   15    9     -0.26      0.01
   -9   15    9     -1.20      0.01
   -8   15    9     -1.44      0.02
   -7   15    9     -0.92      0.02
   -6   15    9     -0.23      0.01
   -5   15    9      0.01     -0.01
   -4   15    9     -0.20      0.00
   -3   15    9     -0.24      0.00
   -2   15    9      0.43      0.00
   -1   15    9      1.40      0.00
    0   15    9      1.73      0.00
    1   15    9      1.09      0.03
    2   15    9      0.30      0.04
    3   15    9      0.17      0.04
    4   15    9      0.51      0.01
    5   15    9      0.65     -0.01
    6   15    9      0.38      0.00
    7   15    9      0.14      0.03
    8   15    9      0.31      0.04
    9   15    9      0.83      0.02
   10   15    9      1.23      0.00
  -16   16    9      0.19      0.01
  -15   16    9      0.48      0.04
  -14   16    9      0.94      0.03
  -13   16    9      1.17      0.01
  -12   16    9      0.75     -0.01
  -11   16    9     -0.33      0.00
  -10   16    9     -1.52      0.00
   -9   16    9     -2.04     -0.01
   -8   16    9     -1.53     -0.02
   -7   16    9     -0.45     -0.05
   -6   16    9      0.29     -0.06
   -5   16    9      0.21     -0.06
   -4   16    9     -0.35     -0.02
   -3   16    9     -0.80      0.02
   -2   16    9     -0.88      0.03
   -1   16    9     -0.68      0.02
    0   16    9     -0.36      0.00
    1   16    9     -0.02     -0.01
    2   16    9      0.19      0.01
    3   16    9      0.17      0.05
    4   16    9     -0.01      0.08
    5   16    9     -0.15      0.07
    6   16    9     -0.13      0.05
    7   16    9      0.01      0.03
    8   16    9      0.12      0.03
  -13   17    9     -0.28     -0.02
  -12   17    9     -0.95      0.01
  -11   17    9     -1.53      0.02
  -10   17    9     -1.75      0.02
   -9   17    9     -1.42     -0.01
   -8   17    9     -0.72     -0.02
   -7   17    9     -0.14     -0.01
   -6   17    9     -0.08      0.00
   -5   17    9     -0.43      0.01
   -4   17    9     -0.75      0.02
   -3   17    9     -0.58      0.02
   -2   17    9      0.19      0.00
   -1   17    9      1.03     -0.01
    0   17    9      1.19      0.00
    1   17    9      0.57      0.01
    2   17    9     -0.19      0.01
    3   17    9     -0.55     -0.02
    4   17    9     -0.53     -0.05
    5   17    9     -0.41     -0.07
    6   17    9     -0.38     -0.05
  -10   18    9     -0.21     -0.02
   -9   18    9     -0.34     -0.02
   -8   18    9     -0.23     -0.01
   -7   18    9     -0.16     -0.01
   -6   18    9     -0.25     -0.02
   -5   18    9     -0.41     -0.02
   -4   18    9     -0.45     -0.01
   -3   18    9     -0.29      0.00
   -2   18    9     -0.10      0.02
   -1   18    9     -0.25      0.02
    0   18    9     -0.65      0.01
    1   18    9     -0.85      0.00
    2   18    9     -0.72      0.00
    3   18    9     -0.57      0.01
  -26    0   10     -1.67     -0.01
  -25    0   10     -1.89     -0.02
  -24    0   10     -1.34     -0.03
  -23    0   10     -0.66     -0.03
  -22    0   10     -0.53     -0.02
  -21    0   10     -0.54      0.01
  -20    0   10      0.20      0.02
  -19    0   10      1.49      0.01
  -18    0   10      2.00      0.00
  -17    0   10      1.15     -0.01
  -16    0   10     -0.09     -0.01
  -15    0   10     -0.63      0.00
  -14    0   10     -0.48      0.03
  -13    0   10     -0.48      0.06
  -12    0   10     -1.30      0.06
  -11    0   10     -2.66      0.01
  -10    0   10     -3.18     -0.04
   -9    0   10     -1.84     -0.03
   -8    0   10      0.39      0.02
   -7    0   10      1.15      0.05
   -6    0   10     -0.88      0.03
   -5    0   10     -4.48      0.00
   -4    0   10     -6.75      0.00
   -3    0   10     -5.26      0.00
   -2    0   10     -0.49     -0.04
   -1    0   10      4.21     -0.10
    0    0   10      5.70     -0.11
    1    0   10      3.93     -0.04
    2    0   10      1.23      0.07
    3    0   10     -0.61      0.10
    4    0   10     -1.40      0.04
    5    0   10     -1.48     -0.02
    6    0   10     -0.94     -0.03
    7    0   10      0.06      0.00
    8    0   10      1.04      0.03
    9    0   10      1.58      0.05
   10    0   10      1.59      0.05
   11    0   10      1.07      0.03
   12    0   10      0.15      0.02
   13    0   10     -0.61      0.03
   14    0   10     -0.75      0.05
   15    0   10     -0.49      0.05
   16    0   10     -0.38      0.02
   17    0   10     -0.52      0.00
   18    0   10     -0.69      0.00
  -26    1   10     -0.14     -0.01
  -25    1   10     -0.15     -0.01
  -24    1   10     -0.29      0.02
  -23    1   10     -0.57      0.04
  -22    1   10     -0.90      0.02
  -21    1   10     -1.05     -0.01
  -20    1   10     -0.97     -0.01
  -19    1   10     -0.88      0.01
  -18    1   10     -0.85      0.03
  -17    1   10     -0.52      0.01
  -16    1   10      0.17     -0.02
  -15    1   10      0.52     -0.03
  -14    1   10     -0.31     -0.03
  -13    1   10     -2.29     -0.01
  -12    1   10     -4.23     -0.01
  -11    1   10     -4.54     -0.03
  -10    1   10     -2.80     -0.04
   -9    1   10     -0.61     -0.02
   -8    1   10     -0.19     -0.01
   -7    1   10     -1.87     -0.02
   -6    1   10     -3.66     -0.04
   -5    1   10     -3.05     -0.03
   -4    1   10      0.66     -0.01
   -3    1   10      5.57      0.01
   -2    1   10      8.59      0.00
   -1    1   10      8.02      0.02
    0    1   10      4.86      0.10
    1    1   10      1.56      0.17
    2    1   10     -0.21      0.16
    3    1   10     -0.47      0.06
    4    1   10     -0.28     -0.03
    5    1   10     -0.46     -0.06
    6    1   10     -0.95     -0.02
    7    1   10     -1.15      0.00
    8    1   10     -0.86     -0.01
    9    1   10     -0.51     -0.02
   10    1   10     -0.59     -0.02
   11    1   10     -0.94     -0.01
   12    1   10     -0.96     -0.01
   13    1   10     -0.44     -0.01
   14    1   10      0.09      0.00
   15    1   10      0.07      0.00
   16    1   10     -0.36     -0.02
   17    1   10     -0.72     -0.02
   18    1   10     -0.76     -0.02
  -26    2   10     -1.01     -0.01
  -25    2   10     -1.22      0.00
  -24    2   10     -1.09     -0.01
  -23    2   10     -0.87     -0.03
  -22    2   10     -0.87     -0.03
  -21    2   10     -0.76      0.01
  -20    2   10      0.03      0.05
  -19    2   10      1.30      0.03
  -18    2   10      2.13     -0.03
  -17    2   10      1.69     -0.07
  -16    2   10     -0.05     -0.06
  -15    2   10     -2.29     -0.02
  -14    2   10     -3.83      0.04
  -13    2   10     -3.68      0.07
  -12    2   10     -1.77      0.04
  -11    2   10      0.94     -0.02
  -10    2   10      3.03     -0.07
   -9    2   10      3.75     -0.05
   -8    2   10      3.68      0.00
   -7    2   10      4.16      0.04
   -6    2   10      6.04      0.04
   -5    2   10      8.74      0.02
   -4    2   10     10.44      0.01
   -3    2   10      9.37      0.02
   -2    2   10      5.31      0.01
   -1    2   10     -0.18     -0.02
    0    2   10     -4.70     -0.04
    1    2   10     -6.55     -0.03
    2    2   10     -5.90      0.01
    3    2   10     -4.60      0.04
    4    2   10     -4.14      0.02
    5    2   10     -4.12     -0.04
    6    2   10     -3.23     -0.08
    7    2   10     -1.37     -0.07
    8    2   10      0.27     -0.01
    9    2   10      0.85      0.03
   10    2   10      0.72      0.04
   11    2   10      0.58      0.02
   12    2   10      0.70      0.01
   13    2   10      0.80      0.04
   14    2   10      0.58      0.06
   15    2   10      0.07      0.05
   16    2   10     -0.34      0.01
   17    2   10     -0.34     -0.01
   18    2   10     -0.02     -0.01
  -26    3   10     -0.13     -0.01
  -25    3   10     -0.36      0.00
  -24    3   10     -0.62      0.02
  -23    3   10     -0.90      0.01
  -22    3   10     -1.17      0.00
  -21    3   10     -1.15     -0.01
  -20    3   10     -0.73     -0.02
  -19    3   10     -0.33     -0.02
  -18    3   10     -0.40     -0.01
  -17    3   10     -0.68      0.01
  -16    3   10     -0.39      0.01
  -15    3   10      0.74     -0.02
  -14    3   10      1.99     -0.03
  -13    3   10      2.31     -0.02
  -12    3   10      1.58      0.01
  -11    3   10      1.00      0.03
  -10    3   10      1.87      0.01
   -9    3   10      3.99      0.00
   -8    3   10      5.77      0.00
   -7    3   10      5.97     -0.01
   -6    3   10      4.57     -0.02
   -5    3   10      2.15     -0.03
   -4    3   10     -0.81     -0.05
   -3    3   10     -3.75     -0.08
   -2    3   10     -5.71     -0.11
   -1    3   10     -5.62     -0.10
    0    3   10     -3.25     -0.04
    1    3   10      0.23      0.05
    2    3   10      2.87      0.08
    3    3   10      3.57      0.00
    4    3   10      2.90     -0.10
    5    3   10      2.00     -0.12
    6    3   10      1.37     -0.03
    7    3   10      0.94      0.06
    8    3   10      0.71      0.08
    9    3   10      0.62      0.03
   10    3   10      0.52     -0.02
   11    3   10      0.44     -0.02
   12    3   10      0.54      0.01
   13    3   10      0.52      0.02
   14    3   10      0.06     -0.01
   15    3   10     -0.56     -0.03
   16    3   10     -0.74     -0.04
   17    3   10     -0.44     -0.03
   18    3   10     -0.14     -0.02
  -26    4   10      0.16      0.00
  -25    4   10     -0.07      0.01
  -24    4   10     -0.33      0.00
  -23    4   10     -0.60     -0.02
  -22    4   10     -0.83     -0.02
  -21    4   10     -0.82      0.02
  -20    4   10     -0.54      0.04
  -19    4   10     -0.19      0.04
  -18    4   10      0.02      0.00
  -17    4   10      0.02     -0.04
  -16    4   10     -0.27     -0.05
  -15    4   10     -0.91      0.00
  -14    4   10     -1.77      0.07
  -13    4   10     -2.23      0.12
  -12    4   10     -1.35      0.07
  -11    4   10      1.03     -0.04
  -10    4   10      3.42     -0.10
   -9    4   10      3.74     -0.05
   -8    4   10      1.45      0.05
   -7    4   10     -1.77      0.10
   -6    4   10     -3.83      0.07
   -5    4   10     -4.04      0.02
   -4    4   10     -3.18     -0.01
   -3    4   10     -2.40      0.00
   -2    4   10     -2.16      0.01
   -1    4   10     -1.97      0.00
    0    4   10     -1.29     -0.02
    1    4   10     -0.46     -0.02
    2    4   10     -0.47      0.00
    3    4   10     -1.77      0.06
    4    4   10     -3.58      0.13
    5    4   10     -4.56      0.14
    6    4   10     -4.02      0.07
    7    4   10     -2.46     -0.04
    8    4   10     -0.95     -0.08
    9    4   10     -0.21     -0.03
   10    4   10     -0.19      0.04
   11    4   10     -0.42      0.05
   12    4   10     -0.57      0.01
   13    4   10     -0.51     -0.03
   14    4   10     -0.18     -0.01
   15    4   10      0.37      0.03
   16    4   10      0.87      0.04
   17    4   10      1.07      0.02
   18    4   10      0.94      0.00
  -26    5   10     -0.42     -0.01
  -25    5   10     -0.55     -0.01
  -24    5   10     -0.50     -0.01
  -23    5   10     -0.47     -0.01
  -22    5   10     -0.69      0.00
  -21    5   10     -0.98      0.02
  -20    5   10     -0.97      0.01
  -19    5   10     -0.55     -0.01
  -18    5   10      0.02     -0.01
  -17    5   10      0.51      0.02
  -16    5   10      0.99      0.04
  -15    5   10      1.44      0.03
  -14    5   10      1.57     -0.02
  -13    5   10      1.18     -0.08
  -12    5   10      0.56     -0.09
  -11    5   10      0.02     -0.03
  -10    5   10     -0.57      0.06
   -9    5   10     -1.32      0.12
   -8    5   10     -1.75      0.12
   -7    5   10     -1.15      0.08
   -6    5   10      0.57      0.04
   -5    5   10      2.51      0.03
   -4    5   10      3.36      0.02
   -3    5   10      2.81     -0.03
   -2    5   10      2.02     -0.08
   -1    5   10      2.24     -0.08
    0    5   10      3.16      0.02
    1    5   10      3.26      0.15
    2    5   10      1.78      0.19
    3    5   10     -0.17      0.05
    4    5   10     -0.82     -0.17
    5    5   10      0.24     -0.31
    6    5   10      1.73     -0.24
    7    5   10      2.30     -0.05
    8    5   10      1.83      0.11
    9    5   10      0.99      0.13
   10    5   10      0.39      0.06
   11    5   10      0.34     -0.01
   12    5   10      0.78      0.00
   13    5   10      1.12      0.04
   14    5   10      0.93      0.05
   15    5   10      0.48      0.01
   16    5   10      0.30     -0.03
   17    5   10      0.41     -0.04
  -25    6   10      0.92      0.00
  -24    6   10      0.76      0.01
  -23    6   10     -0.15      0.01
  -22    6   10     -1.10      0.01
  -21    6   10     -1.35      0.00
  -20    6   10     -0.86     -0.01
  -19    6   10     -0.16      0.01
  -18    6   10      0.15      0.02
  -17    6   10     -0.18      0.02
  -16    6   10     -1.09     -0.02
  -15    6   10     -2.35     -0.06
  -14    6   10     -3.66     -0.04
  -13    6   10     -4.42      0.02
  -12    6   10     -4.13      0.05
  -11    6   10     -3.01      0.03
  -10    6   10     -1.94     -0.03
   -9    6   10     -1.43     -0.05
   -8    6   10     -0.97     -0.02
   -7    6   10      0.21      0.01
   -6    6   10      1.71      0.02
   -5    6   10      2.22      0.00
   -4    6   10      1.16     -0.04
   -3    6   10     -0.67     -0.06
   -2    6   10     -2.27     -0.06
   -1    6   10     -3.37     -0.02
    0    6   10     -4.08     -0.02
    1    6   10     -4.26     -0.11
    2    6   10     -3.60     -0.28
    3    6   10     -1.97     -0.34
    4    6   10      0.12     -0.17
    5    6   10      1.55      0.16
    6    6   10      1.66      0.39
    7    6   10      0.98      0.35
    8    6   10      0.50      0.14
    9    6   10      0.47     -0.02
   10    6   10      0.44     -0.03
   11    6   10      0.05      0.02
   12    6   10     -0.54      0.04
   13    6   10     -0.87     -0.01
   14    6   10     -0.58     -0.05
   15    6   10      0.08     -0.05
   16    6   10      0.54     -0.03
   17    6   10      0.51     -0.01
  -25    7   10      0.29     -0.01
  -24    7   10     -0.51     -0.02
  -23    7   10     -1.26     -0.04
  -22    7   10     -1.48     -0.04
  -21    7   10     -1.20     -0.02
  -20    7   10     -0.73      0.01
  -19    7   10     -0.44      0.02
  -18    7   10     -0.57      0.01
  -17    7   10     -1.01     -0.02
  -16    7   10     -1.44     -0.04
  -15    7   10     -1.69     -0.04
  -14    7   10     -1.75     -0.03
  -13    7   10     -1.52     -0.06
  -12    7   10     -0.94     -0.08
  -11    7   10     -0.20     -0.06
  -10    7   10      0.53      0.02
   -9    7   10      1.46      0.10
   -8    7   10      2.73      0.11
   -7    7   10      3.83      0.06
   -6    7   10      3.93      0.00
   -5    7   10      2.87     -0.01
   -4    7   10      1.25      0.01
   -3    7   10     -0.24      0.03
   -2    7   10     -1.15      0.02
   -1    7   10     -1.04      0.00
    0    7   10      0.14     -0.01
    1    7   10      1.63      0.01
    2    7   10      2.56      0.08
    3    7   10      2.65      0.16
    4    7   10      2.02      0.16
    5    7   10      0.95      0.04
    6    7   10     -0.05     -0.16
    7    7   10     -0.64     -0.30
    8    7   10     -1.10     -0.30
    9    7   10     -1.68     -0.21
   10    7   10     -2.08     -0.12
   11    7   10     -1.83     -0.07
   12    7   10     -0.97     -0.05
   13    7   10     -0.12     -0.03
   14    7   10      0.15      0.00
   15    7   10     -0.13      0.02
   16    7   10     -0.33      0.01
   17    7   10     -0.10      0.00
  -24    8   10     -0.76     -0.01
  -23    8   10     -1.37      0.00
  -22    8   10     -1.51      0.01
  -21    8   10     -0.96      0.00
  -20    8   10     -0.12     -0.01
  -19    8   10      0.36     -0.02
  -18    8   10      0.24     -0.02
  -17    8   10     -0.17     -0.02
  -16    8   10     -0.48     -0.02
  -15    8   10     -0.52     -0.01
  -14    8   10     -0.31      0.01
  -13    8   10      0.10      0.02
  -12    8   10      0.69      0.05
  -11    8   10      1.27      0.08
  -10    8   10      1.49      0.07
   -9    8   10      1.21      0.01
   -8    8   10      0.79     -0.06
   -7    8   10      0.68     -0.08
   -6    8   10      0.67     -0.06
   -5    8   10      0.19     -0.03
   -4    8   10     -0.94     -0.04
   -3    8   10     -2.07     -0.07
   -2    8   10     -2.30     -0.10
   -1    8   10     -1.49     -0.08
    0    8   10     -0.40     -0.03
    1    8   10      0.20     -0.04
    2    8   10      0.23     -0.14
    3    8   10      0.05     -0.21
    4    8   10     -0.12     -0.13
    5    8   10     -0.29      0.09
    6    8   10     -0.55      0.28
    7    8   10     -0.81      0.30
    8    8   10     -0.66      0.19
    9    8   10      0.10      0.09
   10    8   10      0.83      0.06
   11    8   10      0.73      0.07
   12    8   10     -0.09      0.06
   13    8   10     -0.79      0.03
   14    8   10     -0.87     -0.01
   15    8   10     -0.45     -0.02
   16    8   10      0.07     -0.01
  -24    9   10     -1.29      0.01
  -23    9   10     -1.61      0.00
  -22    9   10     -1.16     -0.01
  -21    9   10     -0.21     -0.02
  -20    9   10      0.46     -0.02
  -19    9   10      0.49     -0.01
  -18    9   10      0.22      0.01
  -17    9   10      0.18      0.00
  -16    9   10      0.49     -0.03
  -15    9   10      0.77     -0.04
  -14    9   10      0.69     -0.03
  -13    9   10      0.45     -0.02
  -12    9   10      0.41     -0.01
  -11    9   10      0.45      0.00
  -10    9   10      0.28      0.02
   -9    9   10      0.11      0.03
   -8    9   10      0.29      0.01
   -7    9   10      0.43     -0.01
   -6    9   10     -0.06     -0.03
   -5    9   10     -0.96     -0.02
   -4    9   10     -1.34      0.01
   -3    9   10     -0.72      0.04
   -2    9   10      0.49      0.07
   -1    9   10      1.41      0.07
    0    9   10      1.59      0.02
    1    9   10      1.30     -0.03
    2    9   10      1.07      0.01
    3    9   10      0.89      0.15
    4    9   10      0.40      0.28
    5    9   10     -0.35      0.22
    6    9   10     -0.73     -0.04
    7    9   10     -0.36     -0.31
    8    9   10      0.27     -0.40
    9    9   10      0.30     -0.28
   10    9   10     -0.35     -0.11
   11    9   10     -0.86     -0.03
   12    9   10     -0.56     -0.04
   13    9   10      0.24     -0.08
   14    9   10      0.74     -0.08
   15    9   10      0.66     -0.03
  -23   10   10     -0.61      0.00
  -22   10   10     -0.08      0.00
  -21   10   10      0.53      0.00
  -20   10   10      0.75      0.01
  -19   10   10      0.59      0.02
  -18   10   10      0.37      0.00
  -17   10   10      0.31     -0.05
  -16   10   10      0.24     -0.05
  -15   10   10     -0.07      0.00
  -14   10   10     -0.44      0.07
  -13   10   10     -0.49      0.10
  -12   10   10     -0.38      0.09
  -11   10   10     -0.62      0.08
  -10   10   10     -1.32      0.05
   -9   10   10     -2.02      0.01
   -8   10   10     -2.30     -0.02
   -7   10   10     -1.96     -0.03
   -6   10   10     -1.00     -0.01
   -5   10   10      0.22      0.02
   -4   10   10      1.01      0.02
   -3   10   10      0.99      0.00
   -2   10   10      0.42     -0.03
   -1   10   10     -0.22     -0.05
    0   10   10     -0.57     -0.04
    1   10   10     -0.56      0.01
    2   10   10     -0.46      0.06
    3   10   10     -0.76      0.09
    4   10   10     -1.34      0.07
    5   10   10     -1.57      0.01
    6   10   10     -1.13     -0.04
    7   10   10     -0.44     -0.03
    8   10   10      0.07      0.05
    9   10   10      0.38      0.12
   10   10   10      0.48      0.11
   11   10   10      0.17      0.03
   12   10   10     -0.43     -0.05
   13   10   10     -0.87     -0.05
   14   10   10     -0.88      0.00
   15   10   10     -0.59      0.03
  -22   11   10      0.05      0.01
  -21   11   10      0.38      0.02
  -20   11   10      0.30      0.03
  -19   11   10     -0.25      0.02
  -18   11   10     -0.88      0.01
  -17   11   10     -1.18      0.00
  -16   11   10     -1.05      0.01
  -15   11   10     -0.67      0.02
  -14   11   10     -0.23      0.01
  -13   11   10      0.08     -0.02
  -12   11   10      0.04     -0.04
  -11   11   10     -0.29     -0.03
  -10   11   10     -0.48     -0.01
   -9   11   10     -0.11     -0.01
   -8   11   10      0.81     -0.01
   -7   11   10      1.79     -0.01
   -6   11   10      2.13      0.00
   -5   11   10      1.49      0.01
   -4   11   10      0.31      0.01
   -3   11   10     -0.41      0.03
   -2   11   10     -0.15      0.04
   -1   11   10      0.59      0.06
    0   11   10      1.05      0.06
    1   11   10      1.03      0.06
    2   11   10      0.81      0.07
    3   11   10      0.55      0.08
    4   11   10      0.32      0.07
    5   11   10      0.18      0.01
    6   11   10      0.19     -0.08
    7   11   10      0.29     -0.12
    8   11   10      0.18     -0.07
    9   11   10     -0.44      0.00
   10   11   10     -1.44      0.04
   11   11   10     -2.11      0.03
   12   11   10     -1.78      0.02
   13   11   10     -0.74      0.02
   14   11   10      0.13      0.03
  -21   12   10      0.04      0.00
  -20   12   10     -0.42      0.00
  -19   12   10     -0.97      0.01
  -18   12   10     -0.92      0.02
  -17   12   10     -0.10      0.01
  -16   12   10      0.85     -0.02
  -15   12   10      1.21     -0.02
  -14   12   10      0.96      0.00
  -13   12   10      0.53      0.04
  -12   12   10      0.07      0.05
  -11   12   10     -0.44      0.05
  -10   12   10     -0.80      0.03
   -9   12   10     -0.73      0.00
   -8   12   10     -0.43     -0.01
   -7   12   10     -0.35     -0.01
   -6   12   10     -0.60      0.00
   -5   12   10     -0.91      0.00
   -4   12   10     -0.94      0.01
   -3   12   10     -0.54      0.02
   -2   12   10      0.00      0.00
   -1   12   10      0.20     -0.03
    0   12   10     -0.02     -0.06
    1   12   10     -0.30     -0.06
    2   12   10     -0.41     -0.02
    3   12   10     -0.56     -0.01
    4   12   10     -0.85     -0.04
    5   12   10     -1.08     -0.08
    6   12   10     -1.10     -0.09
    7   12   10     -1.04     -0.04
    8   12   10     -0.98      0.01
    9   12   10     -0.80      0.03
   10   12   10     -0.43      0.00
   11   12   10     -0.03     -0.04
   12   12   10      0.18     -0.05
   13   12   10      0.15     -0.02
  -20   13   10     -0.08      0.03
  -19   13   10     -0.36      0.05
  -18   13   10     -0.29      0.03
  -17   13   10     -0.05     -0.01
  -16   13   10      0.00     -0.03
  -15   13   10     -0.11     -0.02
  -14   13   10      0.06      0.00
  -13   13   10      0.45      0.00
  -12   13   10      0.43     -0.01
  -11   13   10     -0.09     -0.04
  -10   13   10     -0.44     -0.05
   -9   13   10     -0.20     -0.04
   -8   13   10      0.28     -0.02
   -7   13   10      0.58      0.00
   -6   13   10      0.52      0.01
   -5   13   10      0.17      0.00
   -4   13   10     -0.06     -0.02
   -3   13   10      0.31     -0.03
   -2   13   10      1.09     -0.03
   -1   13   10      1.50     -0.01
    0   13   10      1.19      0.02
    1   13   10      0.60      0.05
    2   13   10      0.19      0.05
    3   13   10     -0.18      0.03
    4   13   10     -0.76      0.01
    5   13   10     -1.45      0.02
    6   13   10     -1.74      0.03
    7   13   10     -1.34      0.03
    8   13   10     -0.58      0.03
    9   13   10     -0.12      0.04
   10   13   10     -0.28      0.05
   11   13   10     -0.71      0.06
   12   13   10     -0.75      0.06
  -19   14   10     -0.15     -0.04
  -18   14   10      0.15     -0.04
  -17   14   10      0.79     -0.03
  -16   14   10      1.29     -0.02
  -15   14   10      1.43     -0.02
  -14   14   10      1.25     -0.02
  -13   14   10      0.55     -0.02
  -12   14   10     -0.71     -0.04
  -11   14   10     -1.78     -0.05
  -10   14   10     -1.78     -0.02
   -9   14   10     -0.74      0.01
   -8   14   10      0.42      0.01
   -7   14   10      0.84     -0.01
   -6   14   10      0.51     -0.02
   -5   14   10      0.20     -0.02
   -4   14   10      0.51     -0.01
   -3   14   10      1.10     -0.01
   -2   14   10      1.18      0.00
   -1   14   10      0.60      0.00
    0   14   10     -0.02      0.00
    1   14   10     -0.23      0.00
    2   14   10     -0.26      0.01
    3   14   10     -0.44      0.00
    4   14   10     -0.61      0.00
    5   14   10     -0.28     -0.01
    6   14   10      0.60     -0.01
    7   14   10      1.41     -0.01
    8   14   10      1.49     -0.01
    9   14   10      0.92     -0.01
   10   14   10      0.34     -0.01
   11   14   10      0.24     -0.01
  -17   15   10      0.22      0.03
  -16   15   10      0.07      0.03
  -15   15   10     -0.46      0.02
  -14   15   10     -1.01      0.01
  -13   15   10     -1.42      0.00
  -12   15   10     -1.61      0.00
  -11   15   10     -1.35      0.00
  -10   15   10     -0.56      0.01
   -9   15   10      0.41      0.00
   -8   15   10      0.99     -0.01
   -7   15   10      0.97      0.00
   -6   15   10      0.63      0.02
   -5   15   10      0.40      0.03
   -4   15   10      0.35      0.02
   -3   15   10      0.39     -0.01
   -2   15   10      0.41     -0.01
   -1   15   10      0.25      0.00
    0   15   10     -0.11      0.03
    1   15   10     -0.38      0.06
    2   15   10     -0.34      0.06
    3   15   10     -0.11      0.05
    4   15   10      0.07      0.04
    5   15   10      0.15      0.04
    6   15   10      0.19      0.04
    7   15   10      0.20      0.02
    8   15   10      0.21      0.00
    9   15   10      0.19      0.01
  -15   16   10     -0.69     -0.05
  -14   16   10     -1.02     -0.05
  -13   16   10     -1.19     -0.04
  -12   16   10     -1.36     -0.05
  -11   16   10     -1.28     -0.06
  -10   16   10     -0.53     -0.05
   -9   16   10      0.64     -0.03
   -8   16   10      1.32     -0.02
   -7   16   10      1.02      0.00
   -6   16   10      0.30      0.01
   -5   16   10      0.07      0.01
   -4   16   10      0.54     -0.01
   -3   16   10      0.99     -0.02
   -2   16   10      0.73     -0.01
   -1   16   10      0.09      0.01
    0   16   10     -0.10      0.03
    1   16   10      0.29      0.03
    2   16   10      0.61      0.02
    3   16   10      0.48      0.02
    4   16   10      0.26      0.03
    5   16   10      0.32      0.05
    6   16   10      0.55      0.05
    7   16   10      0.65      0.03
  -13   17   10     -1.07      0.02
  -12   17   10     -0.86      0.02
  -11   17   10     -0.31      0.03
  -10   17   10      0.28      0.04
   -9   17   10      0.44      0.04
   -8   17   10      0.12      0.04
   -7   17   10     -0.24      0.04
   -6   17   10     -0.19      0.04
   -5   17   10      0.21      0.03
   -4   17   10      0.47      0.01
   -3   17   10      0.28      0.01
   -2   17   10     -0.11      0.00
   -1   17   10     -0.29     -0.01
    0   17   10     -0.26     -0.01
    1   17   10     -0.27      0.00
    2   17   10     -0.31      0.02
    3   17   10     -0.22      0.02
    4   17   10     -0.07      0.03
    5   17   10     -0.08      0.02
   -9   18   10     -0.06      0.00
   -8   18   10     -0.01      0.01
   -7   18   10     -0.04      0.01
   -6   18   10     -0.01      0.00
   -5   18   10      0.28      0.00
   -4   18   10      0.65     -0.01
   -3   18   10      0.59     -0.01
   -2   18   10      0.03      0.00
   -1   18   10     -0.47      0.01
    0   18   10     -0.44      0.02
    1   18   10     -0.03      0.01
  -26    1   11      1.52      0.00
  -25    1   11      1.59     -0.01
  -24    1   11      0.58     -0.02
  -23    1   11     -0.40     -0.03
  -22    1   11     -0.16     -0.03
  -21    1   11      1.11     -0.02
  -20    1   11      2.12      0.00
  -19    1   11      1.96      0.04
  -18    1   11      0.79      0.05
  -17    1   11     -0.55      0.04
  -16    1   11     -1.17      0.03
  -15    1   11     -0.69      0.03
  -14    1   11      0.38      0.01
  -13    1   11      1.04     -0.01
  -12    1   11      0.96     -0.02
  -11    1   11      0.81      0.00
  -10    1   11      1.15      0.01
   -9    1   11      1.49      0.01
   -8    1   11      0.80      0.02
   -7    1   11     -1.11      0.03
   -6    1   11     -3.08      0.01
   -5    1   11     -3.47     -0.03
   -4    1   11     -1.82     -0.07
   -3    1   11      0.51     -0.08
   -2    1   11      1.80     -0.06
   -1    1   11      1.74     -0.01
    0    1   11      1.21      0.04
    1    1   11      0.96      0.07
    2    1   11      1.25      0.06
    3    1   11      2.07      0.00
    4    1   11      2.93     -0.04
    5    1   11      2.99     -0.02
    6    1   11      1.90      0.03
    7    1   11      0.26      0.06
    8    1   11     -1.00      0.02
    9    1   11     -1.35     -0.04
   10    1   11     -0.86     -0.06
   11    1   11     -0.02     -0.01
   12    1   11      0.51      0.02
   13    1   11      0.44      0.00
   14    1   11      0.00     -0.03
   15    1   11     -0.34     -0.04
   16    1   11     -0.41     -0.03
   17    1   11     -0.36     -0.02
  -26    2   11      0.40      0.03
  -25    2   11      0.04      0.01
  -24    2   11     -0.23     -0.02
  -23    2   11     -0.04     -0.02
  -22    2   11      0.54      0.00
  -21    2   11      0.90      0.03
  -20    2   11      0.50      0.04
  -19    2   11     -0.41      0.01
  -18    2   11     -1.04     -0.03
  -17    2   11     -0.86     -0.05
  -16    2   11     -0.25     -0.03
  -15    2   11     -0.07      0.02
  -14    2   11     -0.70      0.03
  -13    2   11     -1.39      0.00
  -12    2   11     -1.00     -0.03
  -11    2   11      0.40     -0.04
  -10    2   11      1.32     -0.03
   -9    2   11      0.63     -0.03
   -8    2   11     -0.99     -0.04
   -7    2   11     -1.74     -0.04
   -6    2   11     -0.59     -0.03
   -5    2   11      1.75     -0.03
   -4    2   11      3.42     -0.03
   -3    2   11      3.26      0.00
   -2    2   11      2.02      0.06
   -1    2   11      1.29      0.08
    0    2   11      1.65      0.02
    1    2   11      2.37     -0.07
    2    2   11      2.48     -0.09
    3    2   11      1.53     -0.04
    4    2   11     -0.07      0.03
    5    2   11     -1.24      0.03
    6    2   11     -1.27     -0.01
    7    2   11     -0.61     -0.04
    8    2   11     -0.09     -0.03
    9    2   11      0.09      0.00
   10    2   11      0.13      0.02
   11    2   11      0.01      0.01
   12    2   11     -0.30      0.00
   13    2   11     -0.53      0.00
   14    2   11     -0.48      0.02
   15    2   11     -0.31      0.03
   16    2   11     -0.27      0.03
   17    2   11     -0.31      0.03
  -26    3   11      0.79      0.01
  -25    3   11      0.51     -0.01
  -24    3   11     -0.17     -0.01
  -23    3   11     -0.70      0.00
  -22    3   11     -0.72      0.00
  -21    3   11     -0.42      0.00
  -20    3   11     -0.22     -0.02
  -19    3   11     -0.28     -0.02
  -18    3   11     -0.63      0.00
  -17    3   11     -1.23      0.06
  -16    3   11     -1.64      0.11
  -15    3   11     -1.13      0.11
  -14    3   11      0.51      0.04
  -13    3   11      2.53     -0.03
  -12    3   11      3.71     -0.03
  -11    3   11      3.33      0.01
  -10    3   11      1.86      0.03
   -9    3   11      0.53      0.01
   -8    3   11      0.24     -0.01
   -7    3   11      0.93      0.01
   -6    3   11      1.76      0.03
   -5    3   11      1.72      0.02
   -4    3   11      0.42      0.01
   -3    3   11     -1.20      0.01
   -2    3   11     -1.71      0.02
   -1    3   11     -0.92      0.00
    0    3   11     -0.15     -0.02
    1    3   11     -0.61     -0.02
    2    3   11     -1.97      0.00
    3    3   11     -2.79     -0.01
    4    3   11     -2.11     -0.03
    5    3   11     -0.56     -0.03
    6    3   11      0.30      0.02
    7    3   11     -0.22      0.06
    8    3   11     -1.35      0.03
    9    3   11     -1.96     -0.05
   10    3   11     -1.62     -0.09
   11    3   11     -0.70     -0.06
   12    3   11      0.11     -0.01
   13    3   11      0.33     -0.01
   14    3   11      0.08     -0.04
   15    3   11     -0.16     -0.06
   16    3   11     -0.16     -0.04
   17    3   11     -0.06      0.00
  -26    4   11     -0.46      0.02
  -25    4   11     -0.49      0.00
  -24    4   11     -0.47      0.00
  -23    4   11     -0.15      0.01
  -22    4   11      0.52      0.01
  -21    4   11      0.99     -0.01
  -20    4   11      0.73     -0.01
  -19    4   11     -0.13      0.02
  -18    4   11     -0.80      0.05
  -17    4   11     -0.45      0.04
  -16    4   11      0.94      0.01
  -15    4   11      2.32     -0.02
  -14    4   11      2.59     -0.03
  -13    4   11      1.76     -0.02
  -12    4   11      0.77     -0.03
  -11    4   11      0.38     -0.04
  -10    4   11      0.65     -0.02
   -9    4   11      1.16      0.04
   -8    4   11      1.41      0.11
   -7    4   11      1.01      0.13
   -6    4   11     -0.27      0.07
   -5    4   11     -2.19     -0.02
   -4    4   11     -3.73     -0.07
   -3    4   11     -3.71     -0.06
   -2    4   11     -2.15      0.00
   -1    4   11     -0.49      0.04
    0    4   11      0.02      0.05
    1    4   11     -0.44      0.03
    2    4   11     -0.69      0.03
    3    4   11     -0.06      0.07
    4    4   11      0.92      0.09
    5    4   11      1.35      0.06
    6    4   11      0.96     -0.02
    7    4   11      0.27     -0.12
    8    4   11     -0.05     -0.15
    9    4   11      0.30     -0.09
   10    4   11      1.00      0.00
   11    4   11      1.27      0.04
   12    4   11      0.80      0.00
   13    4   11      0.28     -0.04
   14    4   11      0.38     -0.03
   15    4   11      0.72      0.03
   16    4   11      0.57      0.08
   17    4   11     -0.01      0.09
  -25    5   11      0.60      0.01
  -24    5   11      0.33      0.01
  -23    5   11      0.24      0.01
  -22    5   11      0.06      0.00
  -21    5   11     -0.40     -0.01
  -20    5   11     -0.83      0.00
  -19    5   11     -0.79      0.02
  -18    5   11     -0.23      0.01
  -17    5   11      0.44      0.00
  -16    5   11      0.80      0.01
  -15    5   11      0.89      0.02
  -14    5   11      1.16      0.01
  -13    5   11      1.70     -0.02
  -12    5   11      1.97     -0.02
  -11    5   11      1.52      0.05
  -10    5   11      0.59      0.13
   -9    5   11     -0.45      0.15
   -8    5   11     -1.56      0.09
   -7    5   11     -2.60      0.01
   -6    5   11     -3.05     -0.03
   -5    5   11     -2.45     -0.04
   -4    5   11     -0.84     -0.03
   -3    5   11      1.24     -0.03
   -2    5   11      3.01     -0.05
   -1    5   11      3.79     -0.07
    0    5   11      3.50     -0.08
    1    5   11      2.87     -0.09
    2    5   11      2.77     -0.11
    3    5   11      3.22     -0.17
    4    5   11      3.41     -0.23
    5    5   11      2.73     -0.22
    6    5   11      1.41     -0.09
    7    5   11      0.12      0.08
    8    5   11     -0.66      0.18
    9    5   11     -0.81      0.15
   10    5   11     -0.59      0.05
   11    5   11     -0.29     -0.03
   12    5   11      0.07     -0.04
   13    5   11      0.42      0.00
   14    5   11      0.46      0.04
   15    5   11      0.02      0.05
   16    5   11     -0.55      0.04
   17    5   11     -0.84      0.02
  -25    6   11     -0.60      0.01
  -24    6   11     -0.61      0.02
  -23    6   11     -0.56      0.03
  -22    6   11     -0.41      0.03
  -21    6   11     -0.15      0.03
  -20    6   11     -0.02      0.03
  -19    6   11     -0.16      0.02
  -18    6   11     -0.39      0.02
  -17    6   11     -0.48      0.01
  -16    6   11     -0.42      0.01
  -15    6   11     -0.30      0.01
  -14    6   11     -0.32      0.01
  -13    6   11     -0.73      0.03
  -12    6   11     -1.44      0.06
  -11    6   11     -1.98      0.09
  -10    6   11     -2.02      0.10
   -9    6   11     -1.58      0.09
   -8    6   11     -0.86      0.08
   -7    6   11     -0.01      0.07
   -6    6   11      0.62      0.05
   -5    6   11      0.67      0.01
   -4    6   11      0.28     -0.03
   -3    6   11     -0.05     -0.05
   -2    6   11     -0.10     -0.01
   -1    6   11     -0.11      0.05
    0    6   11     -0.26      0.07
    1    6   11     -0.38      0.02
    2    6   11     -0.35     -0.01
    3    6   11     -0.33      0.04
    4    6   11     -0.52      0.17
    5    6   11     -0.92      0.29
    6    6   11     -1.45      0.29
    7    6   11     -1.86      0.13
    8    6   11     -1.80     -0.05
    9    6   11     -1.16     -0.13
   10    6   11     -0.34     -0.09
   11    6   11      0.14      0.00
   12    6   11      0.23      0.04
   13    6   11      0.28      0.03
   14    6   11      0.45      0.00
   15    6   11      0.51     -0.01
   16    6   11      0.17      0.00
  -25    7   11     -0.01      0.01
  -24    7   11     -0.08      0.02
  -23    7   11      0.02      0.01
  -22    7   11      0.21      0.00
  -21    7   11      0.21      0.00
  -20    7   11     -0.12     -0.01
  -19    7   11     -0.63     -0.01
  -18    7   11     -1.05     -0.02
  -17    7   11     -1.26     -0.02
  -16    7   11     -1.31     -0.01
  -15    7   11     -1.24     -0.01
  -14    7   11     -1.02      0.00
  -13    7   11     -0.69      0.00
  -12    7   11     -0.49     -0.01
  -11    7   11     -0.47     -0.03
  -10    7   11     -0.25     -0.05
   -9    7   11      0.48     -0.06
   -8    7   11      1.32     -0.05
   -7    7   11      1.48     -0.03
   -6    7   11      0.75      0.00
   -5    7   11     -0.16      0.00
   -4    7   11     -0.28      0.00
   -3    7   11      0.68      0.00
   -2    7   11      2.01      0.03
   -1    7   11      2.62      0.01
    0    7   11      2.19     -0.04
    1    7   11      1.52     -0.05
    2    7   11      1.53      0.04
    3    7   11      2.06      0.17
    4    7   11      2.07      0.21
    5    7   11      1.02      0.12
    6    7   11     -0.43      0.00
    7    7   11     -1.36     -0.07
    8    7   11     -1.51     -0.05
    9    7   11     -1.26      0.00
   10    7   11     -0.92      0.01
   11    7   11     -0.55      0.00
   12    7   11     -0.20     -0.03
   13    7   11     -0.06     -0.04
   14    7   11     -0.28     -0.03
   15    7   11     -0.78     -0.01
   16    7   11     -1.20      0.00
  -24    8   11     -0.69      0.00
  -23    8   11     -0.14      0.00
  -22    8   11      0.46      0.00
  -21    8   11      0.62      0.00
  -20    8   11      0.20      0.00
  -19    8   11     -0.36     -0.01
  -18    8   11     -0.60     -0.02
  -17    8   11     -0.58     -0.01
  -16    8   11     -0.60      0.01
  -15    8   11     -0.52     -0.01
  -14    8   11     -0.06     -0.05
  -13    8   11      0.49     -0.09
  -12    8   11      0.75     -0.11
  -11    8   11      0.93     -0.10
  -10    8   11      1.44     -0.07
   -9    8   11      2.02     -0.02
   -8    8   11      1.95      0.03
   -7    8   11      1.07      0.05
   -6    8   11      0.06      0.05
   -5    8   11     -0.24      0.02
   -4    8   11      0.31      0.00
   -3    8   11      0.98     -0.01
   -2    8   11      0.90     -0.02
   -1    8   11      0.14     -0.03
    0    8   11     -0.36     -0.01
    1    8   11     -0.10      0.05
    2    8   11      0.29      0.10
    3    8   11      0.05      0.04
    4    8   11     -0.60     -0.12
    5    8   11     -0.91     -0.28
    6    8   11     -0.69     -0.35
    7    8   11     -0.29     -0.29
    8    8   11      0.08     -0.18
    9    8   11      0.49     -0.08
   10    8   11      0.86     -0.02
   11    8   11      1.05     -0.01
   12    8   11      1.00     -0.01
   13    8   11      0.81      0.00
   14    8   11      0.57      0.00
   15    8   11      0.35      0.01
  -23    9   11      0.79     -0.01
  -22    9   11      0.79      0.01
  -21    9   11      0.27      0.02
  -20    9   11     -0.44     -0.01
  -19    9   11     -0.97     -0.05
  -18    9   11     -1.21     -0.05
  -17    9   11     -1.17     -0.03
  -16    9   11     -0.78     -0.03
  -15    9   11     -0.13     -0.05
  -14    9   11      0.34     -0.06
  -13    9   11      0.25     -0.04
  -12    9   11     -0.19     -0.03
  -11    9   11     -0.55     -0.02
  -10    9   11     -0.68     -0.01
   -9    9   11     -0.69      0.01
   -8    9   11     -0.71      0.02
   -7    9   11     -0.86      0.01
   -6    9   11     -1.08     -0.01
   -5    9   11     -1.16     -0.03
   -4    9   11     -1.01     -0.03
   -3    9   11     -0.85     -0.01
   -2    9   11     -0.85      0.01
   -1    9   11     -1.02      0.00
    0    9   11     -1.27     -0.03
    1    9   11     -1.47     -0.05
    2    9   11     -1.34     -0.08
    3    9   11     -0.68     -0.13
    4    9   11      0.15     -0.15
    5    9   11      0.47     -0.08
    6    9   11      0.07      0.09
    7    9   11     -0.52      0.26
    8    9   11     -0.81      0.30
    9    9   11     -0.75      0.19
   10    9   11     -0.42      0.05
   11    9   11      0.03     -0.01
   12    9   11      0.25      0.00
   13    9   11      0.08      0.03
   14    9   11     -0.15      0.06
   15    9   11     -0.21      0.07
  -23   10   11      0.38      0.01
  -22   10   11      0.46      0.02
  -21   10   11      0.36      0.01
  -20   10   11      0.33     -0.01
  -19   10   11      0.68     -0.02
  -18   10   11      1.35      0.00
  -17   10   11      1.90      0.02
  -16   10   11      1.96      0.04
  -15   10   11      1.45      0.03
  -14   10   11      0.69      0.02
  -13   10   11      0.14      0.01
  -12   10   11      0.02     -0.01
  -11   10   11      0.20     -0.03
  -10   10   11      0.42     -0.07
   -9   10   11      0.40     -0.07
   -8   10   11     -0.04     -0.04
   -7   10   11     -0.63     -0.01
   -6   10   11     -0.82      0.01
   -5   10   11     -0.32      0.02
   -4   10   11      0.51      0.02
   -3   10   11      0.95      0.00
   -2   10   11      0.64     -0.02
   -1   10   11     -0.02     -0.04
    0   10   11     -0.21     -0.05
    1   10   11      0.33     -0.02
    2   10   11      1.12      0.03
    3   10   11      1.57      0.06
    4   10   11      1.52      0.09
    5   10   11      1.11      0.13
    6   10   11      0.61      0.14
    7   10   11      0.33      0.10
    8   10   11      0.45      0.00
    9   10   11      0.79     -0.07
   10   10   11      1.09     -0.08
   11   10   11      1.12     -0.04
   12   10   11      0.94      0.01
   13   10   11      0.78      0.03
   14   10   11      0.75      0.02
  -22   11   11      0.17      0.01
  -21   11   11      0.12      0.01
  -20   11   11      0.38     -0.02
  -19   11   11      0.53     -0.05
  -18   11   11      0.09     -0.05
  -17   11   11     -0.80     -0.02
  -16   11   11     -1.50      0.00
  -15   11   11     -1.64     -0.02
  -14   11   11     -1.44     -0.04
  -13   11   11     -1.27     -0.04
  -12   11   11     -1.29     -0.04
  -11   11   11     -1.46     -0.04
  -10   11   11     -1.65     -0.01
   -9   11   11     -1.63      0.05
   -8   11   11     -1.08      0.10
   -7   11   11     -0.12      0.09
   -6   11   11      0.65      0.04
   -5   11   11      0.80     -0.01
   -4   11   11      0.40     -0.01
   -3   11   11     -0.35      0.01
   -2   11   11     -1.18      0.02
   -1   11   11     -1.61      0.00
    0   11   11     -1.38     -0.02
    1   11   11     -0.79      0.01
    2   11   11     -0.19      0.06
    3   11   11      0.34      0.07
    4   11   11      0.60      0.04
    5   11   11      0.36      0.01
    6   11   11     -0.08      0.00
    7   11   11     -0.27     -0.01
    8   11   11     -0.27     -0.04
    9   11   11     -0.29     -0.08
   10   11   11     -0.22     -0.07
   11   11   11      0.08     -0.02
   12   11   11      0.39      0.02
   13   11   11      0.42      0.02
  -21   12   11     -0.59      0.01
  -20   12   11     -0.85      0.00
  -19   12   11     -1.09      0.00
  -18   12   11     -1.08      0.01
  -17   12   11     -0.56      0.03
  -16   12   11      0.40      0.03
  -15   12   11      1.10      0.02
  -14   12   11      0.93      0.02
  -13   12   11      0.14      0.03
  -12   12   11     -0.34      0.05
  -11   12   11     -0.04      0.05
  -10   12   11      0.60      0.04
   -9   12   11      1.02      0.01
   -8   12   11      0.95     -0.02
   -7   12   11      0.37     -0.05
   -6   12   11     -0.41     -0.05
   -5   12   11     -0.89     -0.02
   -4   12   11     -0.94      0.01
   -3   12   11     -0.97      0.01
   -2   12   11     -1.13     -0.02
   -1   12   11     -1.13     -0.05
    0   12   11     -0.91     -0.04
    1   12   11     -0.67     -0.01
    2   12   11     -0.53      0.02
    3   12   11     -0.52      0.02
    4   12   11     -0.76     -0.01
    5   12   11     -1.16     -0.02
    6   12   11     -1.43      0.00
    7   12   11     -1.42      0.01
    8   12   11     -1.11      0.01
    9   12   11     -0.45      0.01
   10   12   11      0.38      0.03
   11   12   11      0.95      0.05
   12   12   11      0.96      0.03
  -20   13   11      0.10     -0.01
  -19   13   11      0.97     -0.01
  -18   13   11      1.41      0.00
  -17   13   11      1.18      0.02
  -16   13   11      0.59      0.03
  -15   13   11     -0.13      0.01
  -14   13   11     -0.76     -0.01
  -13   13   11     -0.95     -0.01
  -12   13   11     -0.57      0.01
  -11   13   11     -0.17      0.01
  -10   13   11     -0.26     -0.01
   -9   13   11     -0.65     -0.02
   -8   13   11     -0.83     -0.01
   -7   13   11     -0.65      0.00
   -6   13   11     -0.38      0.00
   -5   13   11     -0.22      0.00
   -4   13   11     -0.31      0.00
   -3   13   11     -0.67     -0.01
   -2   13   11     -1.16     -0.03
   -1   13   11     -1.48     -0.03
    0   13   11     -1.39     -0.01
    1   13   11     -0.90      0.01
    2   13   11     -0.24      0.01
    3   13   11      0.25     -0.01
    4   13   11      0.43     -0.02
    5   13   11      0.46     -0.01
    6   13   11      0.63      0.00
    7   13   11      0.98     -0.01
    8   13   11      1.31     -0.02
    9   13   11      1.33     -0.03
   10   13   11      0.97     -0.02
   11   13   11      0.47      0.00
  -18   14   11     -0.21      0.03
  -17   14   11     -0.85      0.03
  -16   14   11     -0.78      0.03
  -15   14   11     -0.25      0.02
  -14   14   11     -0.08      0.02
  -13   14   11     -0.49      0.03
  -12   14   11     -0.90      0.04
  -11   14   11     -0.82      0.03
  -10   14   11     -0.37      0.01
   -9   14   11      0.02     -0.01
   -8   14   11      0.00     -0.02
   -7   14   11     -0.41     -0.02
   -6   14   11     -0.85     -0.01
   -5   14   11     -0.98      0.00
   -4   14   11     -0.91      0.01
   -3   14   11     -0.91      0.02
   -2   14   11     -0.84      0.02
   -1   14   11     -0.38      0.02
    0   14   11      0.31      0.02
    1   14   11      0.74      0.01
    2   14   11      0.77      0.00
    3   14   11      0.75     -0.01
    4   14   11      0.95     -0.01
    5   14   11      1.22      0.00
    6   14   11      1.26      0.00
    7   14   11      0.90      0.00
    8   14   11      0.28      0.00
    9   14   11     -0.18      0.01
  -17   15   11     -1.06     -0.01
  -16   15   11     -0.99      0.00
  -15   15   11     -0.89      0.00
  -14   15   11     -1.02      0.00
  -13   15   11     -0.85      0.00
  -12   15   11      0.01      0.02
  -11   15   11      1.04      0.02
  -10   15   11      1.32     -0.01
   -9   15   11      0.72     -0.03
   -8   15   11     -0.03     -0.01
   -7   15   11     -0.22      0.01
   -6   15   11      0.16      0.02
   -5   15   11      0.54      0.01
   -4   15   11      0.57      0.00
   -3   15   11      0.47      0.01
   -2   15   11      0.55      0.02
   -1   15   11      0.65      0.02
    0   15   11      0.46      0.01
    1   15   11      0.16     -0.01
    2   15   11      0.19     -0.02
    3   15   11      0.54     -0.02
    4   15   11      0.81      0.00
    5   15   11      0.71      0.01
    6   15   11      0.28      0.01
    7   15   11     -0.17      0.00
    8   15   11     -0.30     -0.01
  -15   16   11      1.31      0.01
  -14   16   11      1.84      0.00
  -13   16   11      2.02      0.00
  -12   16   11      1.83     -0.01
  -11   16   11      1.33     -0.01
  -10   16   11      0.81     -0.02
   -9   16   11      0.57     -0.01
   -8   16   11      0.64      0.00
   -7   16   11      0.80      0.00
   -6   16   11      0.80     -0.01
   -5   16   11      0.58      0.00
   -4   16   11      0.23      0.01
   -3   16   11     -0.06      0.01
   -2   16   11     -0.21     -0.01
   -1   16   11     -0.21     -0.02
    0   16   11     -0.02     -0.01
    1   16   11      0.27      0.00
    2   16   11      0.48      0.02
    3   16   11      0.55      0.02
    4   16   11      0.60      0.00
    5   16   11      0.56     -0.02
    6   16   11      0.31     -0.03
  -12   17   11     -0.03     -0.01
  -11   17   11      0.07      0.01
  -10   17   11      0.12      0.00
   -9   17   11     -0.03      0.00
   -8   17   11     -0.12     -0.01
   -7   17   11      0.16     -0.02
   -6   17   11      0.52     -0.02
   -5   17   11      0.43     -0.01
   -4   17   11     -0.06      0.00
   -3   17   11     -0.30      0.00
   -2   17   11      0.01      0.00
   -1   17   11      0.46      0.00
    0   17   11      0.51      0.00
    1   17   11      0.21      0.00
    2   17   11     -0.01      0.00
    3   17   11      0.03      0.00
   -8   18   11      0.77     -0.03
   -7   18   11      1.09     -0.02
   -6   18   11      0.66      0.00
   -5   18   11     -0.11      0.02
   -4   18   11     -0.48      0.01
   -3   18   11     -0.25     -0.01
   -2   18   11      0.08     -0.03
   -1   18   11      0.07     -0.02
  -26    0   12     -0.75      0.01
  -25    0   12     -0.43      0.04
  -24    0   12      1.00      0.07
  -23    0   12      2.62      0.10
  -22    0   12      3.25      0.12
  -21    0   12      2.51      0.10
  -20    0   12      0.80      0.05
  -19    0   12     -0.98     -0.01
  -18    0   12     -1.76     -0.02
  -17    0   12     -1.29      0.00
  -16    0   12     -0.46      0.02
  -15    0   12     -0.19      0.03
  -14    0   12     -0.30      0.03
  -13    0   12      0.13      0.01
  -12    0   12      1.31     -0.01
  -11    0   12      2.21     -0.01
  -10    0   12      1.60      0.03
   -9    0   12     -0.49      0.05
   -8    0   12     -2.63      0.01
   -7    0   12     -3.16     -0.03
   -6    0   12     -1.91     -0.03
   -5    0   12     -0.53      0.00
   -4    0   12     -1.06      0.01
   -3    0   12     -3.62     -0.01
   -2    0   12     -6.07     -0.02
   -1    0   12     -5.97      0.02
    0    0   12     -2.86      0.06
    1    0   12      1.31      0.05
    2    0   12      3.69      0.01
    3    0   12      2.98     -0.02
    4    0   12      0.67      0.01
    5    0   12     -0.65      0.06
    6    0   12     -0.04      0.06
    7    0   12      1.46      0.04
    8    0   12      2.54      0.03
    9    0   12      2.59      0.03
   10    0   12      1.67      0.02
   11    0   12      0.42      0.01
   12    0   12     -0.36      0.02
   13    0   12     -0.49      0.03
   14    0   12     -0.31      0.03
   15    0   12     -0.10      0.02
   16    0   12      0.09      0.01
   17    0   12      0.29      0.02
  -26    1   12     -0.11      0.00
  -25    1   12      0.21      0.03
  -24    1   12      0.58      0.04
  -23    1   12      0.50      0.03
  -22    1   12     -0.08      0.01
  -21    1   12     -0.67     -0.02
  -20    1   12     -0.77     -0.05
  -19    1   12     -0.33     -0.05
  -18    1   12      0.19     -0.02
  -17    1   12      0.25      0.02
  -16    1   12     -0.08      0.02
  -15    1   12     -0.23      0.00
  -14    1   12      0.18     -0.03
  -13    1   12      0.88     -0.03
  -12    1   12      1.15     -0.02
  -11    1   12      0.49     -0.01
  -10    1   12     -0.81      0.01
   -9    1   12     -1.79      0.02
   -8    1   12     -1.71      0.01
   -7    1   12     -0.86     -0.01
   -6    1   12     -0.33     -0.01
   -5    1   12     -0.87      0.04
   -4    1   12     -1.89      0.07
   -3    1   12     -1.87      0.03
   -2    1   12      0.00     -0.04
   -1    1   12      2.75     -0.08
    0    1   12      4.50     -0.06
    1    1   12      4.05     -0.02
    2    1   12      1.90     -0.01
    3    1   12     -0.11     -0.03
    4    1   12     -0.52     -0.03
    5    1   12      0.47      0.00
    6    1   12      1.49      0.01
    7    1   12      1.69     -0.02
    8    1   12      1.17     -0.05
    9    1   12      0.45     -0.04
   10    1   12     -0.03      0.00
   11    1   12     -0.08      0.02
   12    1   12      0.00      0.02
   13    1   12     -0.11      0.01
   14    1   12     -0.29      0.00
   15    1   12     -0.21      0.00
   16    1   12      0.12      0.00
   17    1   12      0.40      0.00
  -26    2   12     -0.82      0.00
  -25    2   12     -0.69      0.01
  -24    2   12      0.00      0.02
  -23    2   12      0.71      0.05
  -22    2   12      1.02      0.07
  -21    2   12      0.83      0.06
  -20    2   12      0.09      0.03
  -19    2   12     -1.00      0.03
  -18    2   12     -1.69      0.03
  -17    2   12     -1.17      0.04
  -16    2   12      0.31      0.02
  -15    2   12      1.46      0.02
  -14    2   12      1.42      0.03
  -13    2   12      0.57      0.03
  -12    2   12     -0.25      0.00
  -11    2   12     -0.75      0.00
  -10    2   12     -1.09      0.05
   -9    2   12     -1.40      0.08
   -8    2   12     -1.56      0.03
   -7    2   12     -1.39     -0.05
   -6    2   12     -0.93     -0.06
   -5    2   12     -0.34      0.01
   -4    2   12      0.43      0.05
   -3    2   12      1.43      0.03
   -2    2   12      2.30      0.01
   -1    2   12      2.51      0.05
    0    2   12      1.99      0.11
    1    2   12      1.25      0.13
    2    2   12      0.80      0.10
    3    2   12      0.84      0.06
    4    2   12      1.14      0.06
    5    2   12      1.35      0.05
    6    2   12      1.35      0.00
    7    2   12      1.35     -0.04
    8    2   12      1.46     -0.02
    9    2   12      1.44      0.03
   10    2   12      0.95      0.05
   11    2   12      0.09      0.02
   12    2   12     -0.55     -0.02
   13    2   12     -0.46     -0.02
   14    2   12      0.18      0.00
   15    2   12      0.67      0.02
   16    2   12      0.66      0.02
  -26    3   12     -0.13     -0.01
  -25    3   12      0.25      0.01
  -24    3   12      0.76      0.03
  -23    3   12      0.86      0.02
  -22    3   12      0.37      0.00
  -21    3   12     -0.28     -0.01
  -20    3   12     -0.41     -0.02
  -19    3   12      0.35     -0.01
  -18    3   12      1.66      0.00
  -17    3   12      2.40      0.02
  -16    3   12      1.62      0.01
  -15    3   12     -0.34      0.00
  -14    3   12     -1.96     -0.02
  -13    3   12     -2.04     -0.02
  -12    3   12     -0.88     -0.02
  -11    3   12      0.25     -0.01
  -10    3   12      0.44     -0.02
   -9    3   12     -0.04     -0.07
   -8    3   12     -0.20     -0.12
   -7    3   12      0.40     -0.11
   -6    3   12      1.30     -0.03
   -5    3   12      1.93      0.06
   -4    3   12      2.27      0.09
   -3    3   12      2.25      0.06
   -2    3   12      1.51      0.03
   -1    3   12     -0.07      0.03
    0    3   12     -1.82      0.05
    1    3   12     -2.91      0.05
    2    3   12     -2.92     -0.01
    3    3   12     -2.10     -0.08
    4    3   12     -1.08     -0.10
    5    3   12     -0.39     -0.06
    6    3   12     -0.07      0.00
    7    3   12      0.11      0.05
    8    3   12      0.09      0.06
    9    3   12     -0.34      0.04
   10    3   12     -0.83     -0.01
   11    3   12     -0.78     -0.02
   12    3   12     -0.27      0.00
   13    3   12     -0.07      0.04
   14    3   12     -0.56      0.04
   15    3   12     -1.14      0.01
   16    3   12     -1.20     -0.01
  -26    4   12     -0.28      0.00
  -25    4   12     -0.21      0.01
  -24    4   12     -0.02      0.00
  -23    4   12      0.01     -0.01
  -22    4   12     -0.02     -0.01
  -21    4   12      0.13      0.01
  -20    4   12      0.39      0.02
  -19    4   12      0.40      0.03
  -18    4   12      0.00      0.04
  -17    4   12     -0.48      0.02
  -16    4   12     -0.48     -0.02
  -15    4   12      0.17     -0.04
  -14    4   12      1.16     -0.03
  -13    4   12      1.99     -0.01
  -12    4   12      2.35     -0.01
  -11    4   12      2.18     -0.01
  -10    4   12      1.79      0.00
   -9    4   12      1.86      0.00
   -8    4   12      2.68      0.01
   -7    4   12      3.60      0.03
   -6    4   12      3.60      0.06
   -5    4   12      2.39      0.08
   -4    4   12      0.49      0.05
   -3    4   12     -1.44      0.00
   -2    4   12     -2.75     -0.03
   -1    4   12     -2.79     -0.03
    0    4   12     -1.38     -0.03
    1    4   12      0.71     -0.06
    2    4   12      2.34     -0.08
    3    4   12      2.91     -0.04
    4    4   12      2.51      0.04
    5    4   12      1.66      0.08
    6    4   12      0.94      0.05
    7    4   12      0.65     -0.01
    8    4   12      0.64     -0.03
    9    4   12      0.62     -0.01
   10    4   12      0.48      0.01
   11    4   12      0.23      0.02
   12    4   12     -0.13      0.02
   13    4   12     -0.41      0.02
   14    4   12     -0.36      0.01
   15    4   12     -0.04      0.01
   16    4   12      0.25      0.00
  -25    5   12      0.68      0.02
  -24    5   12      0.60      0.01
  -23    5   12      0.36      0.00
  -22    5   12      0.07      0.02
  -21    5   12      0.01      0.04
  -20    5   12      0.37      0.04
  -19    5   12      1.04      0.03
  -18    5   12      1.73      0.01
  -17    5   12      2.07      0.00
  -16    5   12      1.78      0.00
  -15    5   12      0.98      0.01
  -14    5   12      0.29      0.01
  -13    5   12      0.25      0.01
  -12    5   12      0.73      0.01
  -11    5   12      1.22      0.00
  -10    5   12      1.35     -0.02
   -9    5   12      0.98     -0.06
   -8    5   12     -0.06     -0.09
   -7    5   12     -1.89     -0.10
   -6    5   12     -4.10     -0.10
   -5    5   12     -5.61     -0.12
   -4    5   12     -5.60     -0.14
   -3    5   12     -4.25     -0.13
   -2    5   12     -2.52     -0.09
   -1    5   12     -1.26     -0.05
    0    5   12     -0.76     -0.03
    1    5   12     -0.78     -0.02
    2    5   12     -0.97     -0.02
    3    5   12     -1.23     -0.01
    4    5   12     -1.73     -0.01
    5    5   12     -2.29     -0.03
    6    5   12     -2.31     -0.03
    7    5   12     -1.56      0.00
    8    5   12     -0.58      0.04
    9    5   12     -0.05      0.04
   10    5   12     -0.04      0.00
   11    5   12     -0.17     -0.04
   12    5   12     -0.19     -0.03
   13    5   12     -0.25     -0.01
   14    5   12     -0.48      0.01
   15    5   12     -0.68      0.00
   16    5   12     -0.58     -0.01
  -25    6   12     -1.13     -0.01
  -24    6   12     -1.44     -0.02
  -23    6   12     -1.24     -0.03
  -22    6   12     -0.58     -0.02
  -21    6   12      0.22     -0.01
  -20    6   12      0.66      0.00
  -19    6   12      0.45      0.00
  -18    6   12     -0.23      0.01
  -17    6   12     -0.90      0.01
  -16    6   12     -1.02      0.00
  -15    6   12     -0.47     -0.01
  -14    6   12      0.16     -0.02
  -13    6   12      0.24     -0.01
  -12    6   12     -0.20      0.00
  -11    6   12     -0.72      0.01
  -10    6   12     -1.16      0.01
   -9    6   12     -1.56     -0.01
   -8    6   12     -1.89     -0.01
   -7    6   12     -1.97     -0.02
   -6    6   12     -1.48     -0.05
   -5    6   12     -0.24     -0.06
   -4    6   12      1.13     -0.04
   -3    6   12      1.60      0.00
   -2    6   12      1.06      0.03
   -1    6   12      0.58      0.03
    0    6   12      0.92      0.02
    1    6   12      1.51      0.02
    2    6   12      1.23      0.05
    3    6   12     -0.19      0.10
    4    6   12     -1.74      0.13
    5    6   12     -2.21      0.08
    6    6   12     -1.36     -0.01
    7    6   12     -0.08     -0.07
    8    6   12      0.59     -0.07
    9    6   12      0.32     -0.06
   10    6   12     -0.41     -0.05
   11    6   12     -0.86     -0.04
   12    6   12     -0.76     -0.02
   13    6   12     -0.43      0.00
   14    6   12     -0.17      0.01
   15    6   12      0.03      0.00
  -25    7   12     -0.47      0.00
  -24    7   12      0.03      0.00
  -23    7   12      0.61      0.00
  -22    7   12      0.85      0.02
  -21    7   12      0.56      0.03
  -20    7   12     -0.02      0.03
  -19    7   12     -0.44      0.04
  -18    7   12     -0.49      0.05
  -17    7   12     -0.22      0.03
  -16    7   12      0.02      0.01
  -15    7   12     -0.22      0.01
  -14    7   12     -0.96      0.04
  -13    7   12     -1.49      0.08
  -12    7   12     -1.26      0.12
  -11    7   12     -0.59      0.11
  -10    7   12     -0.14      0.04
   -9    7   12     -0.08     -0.04
   -8    7   12     -0.25     -0.08
   -7    7   12     -0.37     -0.07
   -6    7   12     -0.19     -0.03
   -5    7   12      0.08      0.01
   -4    7   12     -0.08      0.02
   -3    7   12     -0.63      0.01
   -2    7   12     -0.88     -0.02
   -1    7   12     -0.70     -0.03
    0    7   12     -0.75     -0.02
    1    7   12     -1.35     -0.01
    2    7   12     -1.98     -0.02
    3    7   12     -1.94     -0.08
    4    7   12     -1.16     -0.14
    5    7   12     -0.10     -0.16
    6    7   12      0.70     -0.10
    7    7   12      0.95      0.01
    8    7   12      0.75      0.08
    9    7   12      0.46      0.08
   10    7   12      0.42      0.04
   11    7   12      0.61      0.01
   12    7   12      0.62      0.01
   13    7   12      0.26      0.01
   14    7   12     -0.18      0.01
   15    7   12     -0.35      0.01
  -24    8   12     -0.38     -0.01
  -23    8   12     -0.29      0.00
  -22    8   12     -0.35      0.00
  -21    8   12     -0.70      0.00
  -20    8   12     -1.07      0.02
  -19    8   12     -1.14      0.03
  -18    8   12     -0.94      0.02
  -17    8   12     -0.79     -0.01
  -16    8   12     -0.88     -0.01
  -15    8   12     -1.02      0.01
  -14    8   12     -0.84      0.03
  -13    8   12     -0.31      0.02
  -12    8   12      0.23     -0.02
  -11    8   12      0.56     -0.07
  -10    8   12      0.83     -0.09
   -9    8   12      1.11     -0.06
   -8    8   12      1.22      0.02
   -7    8   12      1.07      0.06
   -6    8   12      0.78      0.04
   -5    8   12      0.37      0.00
   -4    8   12     -0.20     -0.02
   -3    8   12     -0.94     -0.01
   -2    8   12     -1.68      0.00
   -1    8   12     -1.97      0.01
    0    8   12     -1.31      0.00
    1    8   12     -0.03     -0.03
    2    8   12      0.78     -0.02
    3    8   12      0.50      0.04
    4    8   12     -0.35      0.12
    5    8   12     -0.79      0.12
    6    8   12     -0.45      0.03
    7    8   12      0.30     -0.07
    8    8   12      0.76     -0.11
    9    8   12      0.54     -0.09
   10    8   12     -0.16     -0.06
   11    8   12     -0.77     -0.03
   12    8   12     -0.84      0.00
   13    8   12     -0.45      0.01
   14    8   12     -0.02      0.01
  -23    9   12      0.58      0.01
  -22    9   12      0.41      0.00
  -21    9   12      0.06      0.00
  -20    9   12     -0.21      0.00
  -19    9   12     -0.47      0.02
  -18    9   12     -0.88      0.02
  -17    9   12     -1.29      0.01
  -16    9   12     -1.39     -0.01
  -15    9   12     -1.07     -0.02
  -14    9   12     -0.54     -0.02
  -13    9   12     -0.09     -0.01
  -12    9   12      0.18      0.00
  -11    9   12      0.33      0.01
  -10    9   12      0.28      0.03
   -9    9   12     -0.14      0.03
   -8    9   12     -0.81      0.01
   -7    9   12     -1.30     -0.02
   -6    9   12     -1.36     -0.04
   -5    9   12     -1.37     -0.03
   -4    9   12     -1.78     -0.01
   -3    9   12     -2.27     -0.01
   -2    9   12     -1.94     -0.03
   -1    9   12     -0.57     -0.04
    0    9   12      0.80      0.01
    1    9   12      1.03      0.06
    2    9   12      0.19      0.07
    3    9   12     -0.62      0.01
    4    9   12     -0.60     -0.08
    5    9   12      0.16     -0.14
    6    9   12      0.87     -0.09
    7    9   12      0.77      0.01
    8    9   12     -0.11      0.09
    9    9   12     -0.91      0.09
   10    9   12     -0.93      0.05
   11    9   12     -0.38      0.03
   12    9   12      0.04      0.04
   13    9   12     -0.02      0.04
   14    9   12     -0.32      0.04
  -23   10   12     -0.58      0.00
  -22   10   12     -0.48     -0.02
  -21   10   12     -0.57     -0.03
  -20   10   12     -0.88     -0.02
  -19   10   12     -0.99      0.01
  -18   10   12     -0.46      0.00
  -17   10   12      0.53     -0.03
  -16   10   12      1.30     -0.03
  -15   10   12      1.44      0.00
  -14   10   12      1.13      0.01
  -13   10   12      0.70      0.01
  -12   10   12      0.34      0.00
  -11   10   12      0.16     -0.01
  -10   10   12      0.21     -0.02
   -9   10   12      0.38     -0.03
   -8   10   12      0.49     -0.04
   -7   10   12      0.52     -0.04
   -6   10   12      0.39     -0.02
   -5   10   12      0.02      0.02
   -4   10   12     -0.33      0.03
   -3   10   12     -0.15      0.01
   -2   10   12      0.58      0.00
   -1   10   12      1.27      0.04
    0   10   12      1.50      0.06
    1   10   12      1.41      0.01
    2   10   12      1.12     -0.07
    3   10   12      0.58     -0.08
    4   10   12      0.01     -0.01
    5   10   12     -0.21      0.06
    6   10   12     -0.06      0.05
    7   10   12      0.29     -0.01
    8   10   12      0.78     -0.05
    9   10   12      1.14     -0.04
   10   10   12      0.96      0.01
   11   10   12      0.31      0.03
   12   10   12     -0.18      0.03
   13   10   12     -0.20      0.01
  -22   11   12      0.28     -0.03
  -21   11   12      0.26     -0.04
  -20   11   12      0.35     -0.03
  -19   11   12      0.65     -0.03
  -18   11   12      0.94     -0.03
  -17   11   12      0.77     -0.04
  -16   11   12      0.01     -0.04
  -15   11   12     -0.83     -0.02
  -14   11   12     -1.15     -0.01
  -13   11   12     -0.98     -0.02
  -12   11   12     -0.72     -0.04
  -11   11   12     -0.57     -0.04
  -10   11   12     -0.51     -0.03
   -9   11   12     -0.56      0.00
   -8   11   12     -0.70      0.02
   -7   11   12     -0.76      0.03
   -6   11   12     -0.70      0.02
   -5   11   12     -0.61      0.01
   -4   11   12     -0.47     -0.02
   -3   11   12     -0.19     -0.04
   -2   11   12      0.13     -0.04
   -1   11   12      0.36     -0.01
    0   11   12      0.36      0.00
    1   11   12     -0.04      0.02
    2   11   12     -0.93      0.04
    3   11   12     -1.86      0.07
    4   11   12     -1.99      0.07
    5   11   12     -0.97      0.04
    6   11   12      0.58      0.01
    7   11   12      1.52      0.01
    8   11   12      1.29      0.04
    9   11   12      0.32      0.04
   10   11   12     -0.41      0.01
   11   11   12     -0.36     -0.04
   12   11   12      0.13     -0.06
  -21   12   12      1.06     -0.02
  -20   12   12      0.85      0.01
  -19   12   12      0.49      0.03
  -18   12   12      0.36      0.01
  -17   12   12      0.40     -0.01
  -16   12   12      0.39     -0.01
  -15   12   12      0.34      0.02
  -14   12   12      0.24      0.02
  -13   12   12     -0.04      0.01
  -12   12   12     -0.31      0.00
  -11   12   12     -0.07      0.02
  -10   12   12      0.70      0.05
   -9   12   12      1.35      0.03
   -8   12   12      1.37     -0.01
   -7   12   12      1.00     -0.03
   -6   12   12      0.68     -0.01
   -5   12   12      0.53      0.01
   -4   12   12      0.43      0.02
   -3   12   12      0.46      0.00
   -2   12   12      0.73      0.01
   -1   12   12      1.05      0.05
    0   12   12      1.09      0.08
    1   12   12      0.71      0.08
    2   12   12      0.11      0.03
    3   12   12     -0.17      0.00
    4   12   12      0.27     -0.01
    5   12   12      1.14     -0.01
    6   12   12      1.53     -0.01
    7   12   12      0.97     -0.01
    8   12   12      0.08      0.01
    9   12   12     -0.32      0.02
   10   12   12     -0.21      0.03
   11   12   12     -0.05      0.02
  -19   13   12     -0.56     -0.01
  -18   13   12     -0.15     -0.02
  -17   13   12      0.12     -0.01
  -16   13   12     -0.20      0.00
  -15   13   12     -0.81      0.01
  -14   13   12     -1.07      0.00
  -13   13   12     -0.70     -0.01
  -12   13   12      0.09     -0.01
  -11   13   12      0.81      0.00
  -10   13   12      0.99      0.01
   -9   13   12      0.58      0.02
   -8   13   12      0.01      0.05
   -7   13   12     -0.30      0.08
   -6   13   12     -0.36      0.08
   -5   13   12     -0.34      0.04
   -4   13   12     -0.10      0.01
   -3   13   12      0.50      0.00
   -2   13   12      0.98      0.02
   -1   13   12      0.81      0.03
    0   13   12      0.13      0.00
    1   13   12     -0.46     -0.03
    2   13   12     -0.72     -0.05
    3   13   12     -0.69     -0.03
    4   13   12     -0.35     -0.01
    5   13   12      0.13     -0.01
    6   13   12      0.42     -0.01
    7   13   12      0.39      0.00
    8   13   12      0.18      0.00
    9   13   12     -0.15     -0.02
   10   13   12     -0.45     -0.05
  -18   14   12      0.02      0.05
  -17   14   12     -0.05      0.02
  -16   14   12     -0.12     -0.01
  -15   14   12      0.05     -0.02
  -14   14   12      0.37     -0.01
  -13   14   12      0.43     -0.01
  -12   14   12      0.20     -0.01
  -11   14   12      0.12      0.00
  -10   14   12      0.39      0.02
   -9   14   12      0.54      0.02
   -8   14   12      0.13      0.02
   -7   14   12     -0.55      0.00
   -6   14   12     -0.84     -0.01
   -5   14   12     -0.56     -0.02
   -4   14   12     -0.07     -0.02
   -3   14   12      0.15      0.00
   -2   14   12      0.00      0.00
   -1   14   12     -0.20      0.00
    0   14   12     -0.19     -0.01
    1   14   12     -0.13     -0.02
    2   14   12     -0.20     -0.02
    3   14   12     -0.23     -0.01
    4   14   12     -0.09      0.01
    5   14   12     -0.07      0.03
    6   14   12     -0.43      0.02
    7   14   12     -1.03      0.01
    8   14   12     -1.45      0.01
  -16   15   12      0.14     -0.01
  -15   15   12     -0.22     -0.01
  -14   15   12     -0.54     -0.01
  -13   15   12     -0.52     -0.01
  -12   15   12     -0.10     -0.02
  -11   15   12      0.43     -0.02
  -10   15   12      0.53     -0.01
   -9   15   12      0.02     -0.01
   -8   15   12     -0.61     -0.01
   -7   15   12     -0.77     -0.01
   -6   15   12     -0.51     -0.01
   -5   15   12     -0.12     -0.03
   -4   15   12      0.35     -0.03
   -3   15   12      0.90     -0.01
   -2   15   12      1.25      0.00
   -1   15   12      1.11     -0.01
    0   15   12      0.62     -0.03
    1   15   12      0.18     -0.04
    2   15   12     -0.03     -0.04
    3   15   12     -0.19     -0.03
    4   15   12     -0.50     -0.02
    5   15   12     -0.83     -0.02
    6   15   12     -0.87     -0.03
    7   15   12     -0.57     -0.02
  -14   16   12      0.44      0.00
  -13   16   12      0.61      0.00
  -12   16   12      0.56      0.00
  -11   16   12      0.49      0.01
  -10   16   12      0.49      0.01
   -9   16   12      0.47      0.00
   -8   16   12      0.36     -0.01
   -7   16   12      0.26      0.00
   -6   16   12      0.38      0.01
   -5   16   12      0.74      0.00
   -4   16   12      0.89      0.00
   -3   16   12      0.45      0.01
   -2   16   12     -0.36      0.01
   -1   16   12     -0.90     -0.01
    0   16   12     -0.94     -0.03
    1   16   12     -0.76     -0.03
    2   16   12     -0.63     -0.01
    3   16   12     -0.54      0.02
    4   16   12     -0.40      0.02
  -11   17   12      0.63     -0.01
  -10   17   12      0.83     -0.03
   -9   17   12      0.74     -0.04
   -8   17   12      0.45     -0.02
   -7   17   12      0.08     -0.01
   -6   17   12     -0.35     -0.01
   -5   17   12     -0.82     -0.03
   -4   17   12     -1.20     -0.03
   -3   17   12     -1.18     -0.02
   -2   17   12     -0.69     -0.01
   -1   17   12     -0.11      0.01
    0   17   12      0.18      0.02
    1   17   12      0.21      0.04
  -26    1   13     -0.27     -0.01
  -25    1   13     -0.31     -0.01
  -24    1   13     -0.08      0.01
  -23    1   13      0.43      0.00
  -22    1   13      0.56     -0.02
  -21    1   13     -0.05     -0.03
  -20    1   13     -0.72     -0.01
  -19    1   13     -0.60      0.01
  -18    1   13     -0.03      0.04
  -17    1   13      0.07      0.05
  -16    1   13     -0.42      0.04
  -15    1   13     -0.76      0.00
  -14    1   13     -0.55     -0.01
  -13    1   13     -0.14      0.03
  -12    1   13     -0.18      0.09
  -11    1   13     -0.87      0.09
  -10    1   13     -1.68      0.02
   -9    1   13     -1.75      0.00
   -8    1   13     -0.87      0.05
   -7    1   13      0.19      0.10
   -6    1   13      0.58      0.06
   -5    1   13      0.28     -0.03
   -4    1   13      0.05     -0.06
   -3    1   13      0.49     -0.01
   -2    1   13      1.24      0.04
   -1    1   13      1.31      0.04
    0    1   13      0.22     -0.01
    1    1   13     -1.31     -0.03
    2    1   13     -2.06      0.00
    3    1   13     -1.57      0.03
    4    1   13     -0.61      0.02
    5    1   13     -0.18      0.00
    6    1   13     -0.51     -0.01
    7    1   13     -1.14     -0.01
    8    1   13     -1.46     -0.02
    9    1   13     -1.14     -0.02
   10    1   13     -0.32     -0.02
   11    1   13      0.43      0.00
   12    1   13      0.56      0.01
   13    1   13      0.12      0.01
   14    1   13     -0.31      0.01
   15    1   13     -0.38      0.02
   16    1   13     -0.13      0.03
  -26    2   13      0.67      0.00
  -25    2   13      0.54     -0.01
  -24    2   13      0.07      0.00
  -23    2   13     -0.38     -0.01
  -22    2   13     -0.53     -0.02
  -21    2   13     -0.36     -0.02
  -20    2   13     -0.11      0.00
  -19    2   13     -0.15      0.03
  -18    2   13     -0.65      0.02
  -17    2   13     -1.21     -0.01
  -16    2   13     -1.30     -0.04
  -15    2   13     -0.81     -0.04
  -14    2   13     -0.12      0.00
  -13    2   13      0.11      0.03
  -12    2   13     -0.54      0.03
  -11    2   13     -1.54      0.00
  -10    2   13     -1.76     -0.03
   -9    2   13     -0.88     -0.01
   -8    2   13      0.11      0.03
   -7    2   13      0.11      0.03
   -6    2   13     -0.75     -0.04
   -5    2   13     -1.37     -0.10
   -4    2   13     -1.05     -0.10
   -3    2   13     -0.22     -0.05
   -2    2   13      0.12      0.01
   -1    2   13     -0.46      0.03
    0    2   13     -1.24      0.01
    1    2   13     -1.20      0.01
    2    2   13     -0.10      0.02
    3    2   13      1.26      0.01
    4    2   13      1.90     -0.01
    5    2   13      1.52     -0.02
    6    2   13      0.59     -0.01
    7    2   13     -0.19      0.01
    8    2   13     -0.24      0.01
    9    2   13      0.38      0.00
   10    2   13      0.95      0.01
   11    2   13      0.79      0.02
   12    2   13      0.20      0.03
   13    2   13     -0.01      0.03
   14    2   13      0.31      0.02
   15    2   13      0.60      0.00
  -26    3   13     -0.32     -0.01
  -25    3   13     -0.73     -0.01
  -24    3   13     -0.71      0.00
  -23    3   13     -0.19      0.00
  -22    3   13      0.33      0.00
  -21    3   13      0.37      0.01
  -20    3   13      0.11      0.02
  -19    3   13      0.04     -0.01
  -18    3   13      0.40     -0.04
  -17    3   13      0.84     -0.03
  -16    3   13      0.90      0.00
  -15    3   13      0.49      0.02
  -14    3   13     -0.19      0.03
  -13    3   13     -0.99      0.05
  -12    3   13     -1.62      0.07
  -11    3   13     -1.65      0.05
  -10    3   13     -1.07      0.03
   -9    3   13     -0.53      0.04
   -8    3   13     -0.55      0.10
   -7    3   13     -1.02      0.13
   -6    3   13     -1.27      0.08
   -5    3   13     -0.68      0.00
   -4    3   13      0.80     -0.04
   -3    3   13      2.33     -0.01
   -2    3   13      2.90      0.04
   -1    3   13      2.27      0.04
    0    3   13      1.30      0.01
    1    3   13      1.00     -0.02
    2    3   13      1.46     -0.03
    3    3   13      1.70     -0.03
    4    3   13      0.98     -0.02
    5    3   13     -0.26      0.01
    6    3   13     -0.99      0.04
    7    3   13     -0.77      0.06
    8    3   13      0.01      0.04
    9    3   13      0.71      0.02
   10    3   13      0.89      0.01
   11    3   13      0.64      0.00
   12    3   13      0.33      0.00
   13    3   13      0.14     -0.01
   14    3   13     -0.11     -0.01
   15    3   13     -0.44     -0.01
  -26    4   13      0.10      0.01
  -25    4   13     -0.11      0.00
  -24    4   13     -0.20     -0.01
  -23    4   13     -0.08     -0.01
  -22    4   13      0.14     -0.01
  -21    4   13      0.22      0.00
  -20    4   13      0.05      0.00
  -19    4   13     -0.30      0.00
  -18    4   13     -0.81      0.00
  -17    4   13     -1.47      0.01
  -16    4   13     -1.95      0.01
  -15    4   13     -1.77      0.01
  -14    4   13     -0.93      0.02
  -13    4   13     -0.02      0.03
  -12    4   13      0.45      0.03
  -11    4   13      0.45      0.02
  -10    4   13      0.33      0.02
   -9    4   13      0.30      0.04
   -8    4   13      0.27      0.04
   -7    4   13      0.30     -0.03
   -6    4   13      0.82     -0.13
   -5    4   13      1.91     -0.15
   -4    4   13      2.74     -0.05
   -3    4   13      2.44      0.09
   -2    4   13      1.27      0.16
   -1    4   13      0.42      0.11
    0    4   13      0.61      0.02
    1    4   13      1.43     -0.01
    2    4   13      1.69      0.04
    3    4   13      0.91      0.09
    4    4   13     -0.03      0.08
    5    4   13     -0.06      0.04
    6    4   13      0.68     -0.01
    7    4   13      1.23     -0.04
    8    4   13      1.19     -0.06
    9    4   13      0.77     -0.05
   10    4   13      0.24     -0.02
   11    4   13     -0.20      0.01
   12    4   13     -0.36      0.03
   13    4   13     -0.23      0.03
   14    4   13     -0.04      0.01
   15    4   13      0.05     -0.02
  -25    5   13     -0.67     -0.03
  -24    5   13     -0.27     -0.01
  -23    5   13      0.09      0.01
  -22    5   13      0.08      0.03
  -21    5   13     -0.33      0.03
  -20    5   13     -0.78      0.01
  -19    5   13     -0.88     -0.01
  -18    5   13     -0.42     -0.02
  -17    5   13      0.44     -0.02
  -16    5   13      1.33     -0.02
  -15    5   13      1.81     -0.02
  -14    5   13      1.70     -0.01
  -13    5   13      1.18      0.02
  -12    5   13      0.66      0.03
  -11    5   13      0.43      0.01
  -10    5   13      0.49     -0.01
   -9    5   13      0.51      0.01
   -8    5   13      0.30      0.04
   -7    5   13      0.06      0.04
   -6    5   13     -0.17      0.00
   -5    5   13     -0.65     -0.01
   -4    5   13     -1.20      0.01
   -3    5   13     -1.14      0.03
   -2    5   13     -0.44      0.01
   -1    5   13     -0.08     -0.02
    0    5   13     -0.69      0.00
    1    5   13     -1.87      0.07
    2    5   13     -2.78      0.11
    3    5   13     -2.89      0.07
    4    5   13     -2.17      0.00
    5    5   13     -1.22     -0.01
    6    5   13     -0.78      0.02
    7    5   13     -0.95      0.04
    8    5   13     -1.16      0.04
    9    5   13     -0.89      0.04
   10    5   13     -0.22      0.05
   11    5   13      0.37      0.05
   12    5   13      0.52      0.01
   13    5   13      0.28     -0.03
   14    5   13      0.00     -0.03
   15    5   13     -0.09      0.01
  -25    6   13      0.00      0.01
  -24    6   13      0.32      0.02
  -23    6   13      0.51      0.00
  -22    6   13      0.44     -0.02
  -21    6   13      0.21     -0.03
  -20    6   13      0.16     -0.01
  -19    6   13      0.47      0.00
  -18    6   13      0.87     -0.01
  -17    6   13      0.97     -0.03
  -16    6   13      0.84     -0.04
  -15    6   13      0.92     -0.02
  -14    6   13      1.27      0.02
  -13    6   13      1.43      0.05
  -12    6   13      1.16      0.03
  -11    6   13      0.74      0.01
  -10    6   13      0.37      0.03
   -9    6   13     -0.11      0.05
   -8    6   13     -0.88      0.00
   -7    6   13     -1.65     -0.11
   -6    6   13     -1.84     -0.19
   -5    6   13     -1.06     -0.16
   -4    6   13      0.39     -0.05
   -3    6   13      1.56      0.06
   -2    6   13      1.66      0.10
   -1    6   13      1.09      0.07
    0    6   13      0.89      0.03
    1    6   13      1.34      0.00
    2    6   13      1.86     -0.02
    3    6   13      1.98     -0.05
    4    6   13      1.84     -0.07
    5    6   13      1.70     -0.08
    6    6   13      1.69     -0.06
    7    6   13      1.86     -0.03
    8    6   13      2.14      0.00
    9    6   13      2.27      0.02
   10    6   13      2.02      0.01
   11    6   13      1.44     -0.02
   12    6   13      0.87     -0.03
   13    6   13      0.55      0.00
   14    6   13      0.43      0.04
  -24    7   13      1.42      0.00
  -23    7   13      1.31      0.01
  -22    7   13      0.57      0.02
  -21    7   13     -0.05      0.03
  -20    7   13     -0.04      0.03
  -19    7   13      0.44      0.00
  -18    7   13      1.10     -0.02
  -17    7   13      1.79     -0.02
  -16    7   13      2.29      0.00
  -15    7   13      2.18      0.03
  -14    7   13      1.31      0.05
  -13    7   13      0.16      0.03
  -12    7   13     -0.52     -0.01
  -11    7   13     -0.60      0.00
  -10    7   13     -0.76      0.03
   -9    7   13     -1.48      0.02
   -8    7   13     -2.27     -0.02
   -7    7   13     -2.16     -0.05
   -6    7   13     -1.08     -0.03
   -5    7   13      0.05      0.03
   -4    7   13      0.46      0.08
   -3    7   13      0.39      0.05
   -2    7   13      0.52     -0.02
   -1    7   13      0.83     -0.06
    0    7   13      0.72     -0.02
    1    7   13     -0.08      0.07
    2    7   13     -1.01      0.09
    3    7   13     -1.28      0.04
    4    7   13     -0.68      0.00
    5    7   13      0.21      0.04
    6    7   13      0.61      0.12
    7    7   13      0.29      0.13
    8    7   13     -0.21      0.07
    9    7   13     -0.23      0.01
   10    7   13      0.19     -0.01
   11    7   13      0.46      0.02
   12    7   13      0.24      0.04
   13    7   13     -0.18      0.05
   14    7   13     -0.35      0.03
  -24    8   13      0.89      0.01
  -23    8   13      0.16      0.01
  -22    8   13     -0.56      0.00
  -21    8   13     -0.76     -0.01
  -20    8   13     -0.38     -0.01
  -19    8   13      0.24     -0.02
  -18    8   13      0.57     -0.03
  -17    8   13      0.27     -0.04
  -16    8   13     -0.46     -0.03
  -15    8   13     -1.05     -0.02
  -14    8   13     -1.08     -0.01
  -13    8   13     -0.63     -0.01
  -12    8   13     -0.20     -0.01
  -11    8   13     -0.23     -0.01
  -10    8   13     -0.69      0.01
   -9    8   13     -0.98      0.00
   -8    8   13     -0.51     -0.02
   -7    8   13      0.51     -0.03
   -6    8   13      1.19     -0.02
   -5    8   13      1.23     -0.02
   -4    8   13      1.29     -0.05
   -3    8   13      1.75     -0.07
   -2    8   13      2.12     -0.04
   -1    8   13      1.84      0.02
    0    8   13      1.11      0.04
    1    8   13      0.57     -0.02
    2    8   13      0.63     -0.10
    3    8   13      1.07     -0.13
    4    8   13      1.11     -0.07
    5    8   13      0.30     -0.01
    6    8   13     -0.79     -0.01
    7    8   13     -1.12     -0.07
    8    8   13     -0.50     -0.10
    9    8   13      0.19     -0.06
   10    8   13      0.18      0.00
   11    8   13     -0.39      0.02
   12    8   13     -0.83      0.01
   13    8   13     -0.80     -0.02
  -23    9   13     -0.12      0.00
  -22    9   13     -0.53     -0.01
  -21    9   13     -0.53     -0.02
  -20    9   13     -0.19     -0.02
  -19    9   13      0.06     -0.01
  -18    9   13     -0.07      0.01
  -17    9   13     -0.36      0.02
  -16    9   13     -0.39      0.02
  -15    9   13     -0.08      0.02
  -14    9   13      0.33      0.02
  -13    9   13      0.56      0.00
  -12    9   13      0.58      0.01
  -11    9   13      0.54      0.06
  -10    9   13      0.62      0.11
   -9    9   13      0.81      0.11
   -8    9   13      0.81      0.06
   -7    9   13      0.36      0.01
   -6    9   13     -0.29     -0.02
   -5    9   13     -0.53     -0.02
   -4    9   13     -0.22     -0.01
   -3    9   13      0.17      0.01
   -2    9   13      0.32      0.00
   -1    9   13      0.37     -0.02
    0    9   13      0.35     -0.03
    1    9   13      0.16      0.03
    2    9   13     -0.14      0.09
    3    9   13     -0.36      0.09
    4    9   13     -0.41      0.05
    5    9   13     -0.17      0.00
    6    9   13      0.32     -0.01
    7    9   13      0.55      0.01
    8    9   13      0.18      0.03
    9    9   13     -0.33      0.05
   10    9   13     -0.40      0.04
   11    9   13     -0.15      0.02
   12    9   13     -0.07      0.00
   13    9   13     -0.21     -0.01
  -22   10   13     -1.01      0.00
  -21   10   13     -1.11      0.03
  -20   10   13     -0.90      0.04
  -19   10   13     -0.62      0.02
  -18   10   13     -0.46      0.00
  -17   10   13     -0.37     -0.02
  -16   10   13     -0.17     -0.03
  -15   10   13      0.16     -0.03
  -14   10   13      0.47     -0.03
  -13   10   13      0.67     -0.02
  -12   10   13      0.77     -0.02
  -11   10   13      0.65     -0.01
  -10   10   13      0.14     -0.03
   -9   10   13     -0.52     -0.07
   -8   10   13     -0.94     -0.11
   -7   10   13     -1.01     -0.09
   -6   10   13     -0.82     -0.04
   -5   10   13     -0.45      0.00
   -4   10   13     -0.03      0.00
   -3   10   13      0.31     -0.03
   -2   10   13      0.49     -0.02
   -1   10   13      0.32      0.03
    0   10   13     -0.26      0.07
    1   10   13     -0.81      0.03
    2   10   13     -0.71     -0.09
    3   10   13      0.08     -0.18
    4   10   13      0.80     -0.17
    5   10   13      0.67     -0.10
    6   10   13     -0.17     -0.03
    7   10   13     -0.77     -0.01
    8   10   13     -0.33     -0.03
    9   10   13      0.73     -0.04
   10   10   13      1.34     -0.03
   11   10   13      1.00     -0.02
   12   10   13      0.24      0.00
  -21   11   13      0.53     -0.01
  -20   11   13      0.94     -0.05
  -19   11   13      0.97     -0.05
  -18   11   13      0.50     -0.01
  -17   11   13     -0.15      0.02
  -16   11   13     -0.61      0.02
  -15   11   13     -0.82     -0.01
  -14   11   13     -0.78     -0.03
  -13   11   13     -0.48     -0.04
  -12   11   13     -0.19     -0.04
  -11   11   13     -0.31     -0.02
  -10   11   13     -0.64     -0.02
   -9   11   13     -0.64     -0.02
   -8   11   13     -0.39      0.00
   -7   11   13     -0.38      0.03
   -6   11   13     -0.57      0.04
   -5   11   13     -0.51      0.01
   -4   11   13     -0.21     -0.02
   -3   11   13     -0.07      0.00
   -2   11   13     -0.25      0.03
   -1   11   13     -0.50      0.04
    0   11   13     -0.52      0.00
    1   11   13     -0.19     -0.03
    2   11   13      0.39     -0.03
    3   11   13      0.87      0.01
    4   11   13      0.95      0.06
    5   11   13      0.73      0.08
    6   11   13      0.69      0.07
    7   11   13      0.95      0.04
    8   11   13      0.98      0.02
    9   11   13      0.40      0.01
   10   11   13     -0.43      0.00
   11   11   13     -1.00     -0.01
  -20   12   13     -0.04      0.01
  -19   12   13     -0.43      0.04
  -18   12   13     -0.91      0.04
  -17   12   13     -1.09      0.01
  -16   12   13     -0.89     -0.03
  -15   12   13     -0.58     -0.05
  -14   12   13     -0.22     -0.03
  -13   12   13      0.25      0.01
  -12   12   13      0.62      0.03
  -11   12   13      0.55      0.02
  -10   12   13      0.17      0.01
   -9   12   13     -0.16      0.02
   -8   12   13     -0.28      0.02
   -7   12   13     -0.09      0.00
   -6   12   13      0.43     -0.03
   -5   12   13      0.96     -0.03
   -4   12   13      0.98      0.00
   -3   12   13      0.44      0.01
   -2   12   13     -0.14      0.00
   -1   12   13     -0.35     -0.01
    0   12   13     -0.23     -0.02
    1   12   13      0.16     -0.01
    2   12   13      0.87     -0.01
    3   12   13      1.71     -0.01
    4   12   13      2.06     -0.02
    5   12   13      1.52     -0.03
    6   12   13      0.46     -0.04
    7   12   13     -0.38     -0.05
    8   12   13     -0.54     -0.05
    9   12   13     -0.13     -0.04
   10   12   13      0.34     -0.02
  -19   13   13     -0.56     -0.07
  -18   13   13     -0.76     -0.09
  -17   13   13     -0.65     -0.08
  -16   13   13     -0.52     -0.06
  -15   13   13     -0.56     -0.02
  -14   13   13     -0.46      0.03
  -13   13   13      0.01      0.06
  -12   13   13      0.37      0.05
  -11   13   13      0.03      0.01
  -10   13   13     -0.69     -0.02
   -9   13   13     -0.91     -0.02
   -8   13   13     -0.39     -0.02
   -7   13   13      0.24     -0.02
   -6   13   13      0.34     -0.01
   -5   13   13     -0.12     -0.01
   -4   13   13     -0.75      0.00
   -3   13   13     -1.21      0.00
   -2   13   13     -1.35      0.00
   -1   13   13     -1.16      0.00
    0   13   13     -0.71      0.00
    1   13   13     -0.12      0.02
    2   13   13      0.37      0.03
    3   13   13      0.32      0.04
    4   13   13     -0.43      0.02
    5   13   13     -1.35     -0.01
    6   13   13     -1.59     -0.02
    7   13   13     -0.98     -0.01
    8   13   13     -0.17      0.00
    9   13   13      0.15      0.01
  -18   14   13      0.36      0.01
  -17   14   13      0.46      0.03
  -16   14   13      0.48      0.03
  -15   14   13      0.44      0.02
  -14   14   13      0.53      0.02
  -13   14   13      0.76      0.01
  -12   14   13      0.73     -0.01
  -11   14   13      0.23     -0.02
  -10   14   13     -0.27     -0.02
   -9   14   13     -0.26      0.01
   -8   14   13      0.12      0.01
   -7   14   13      0.49     -0.01
   -6   14   13      0.78     -0.02
   -5   14   13      0.96     -0.01
   -4   14   13      0.77      0.01
   -3   14   13      0.17      0.01
   -2   14   13     -0.37     -0.01
   -1   14   13     -0.47     -0.02
    0   14   13     -0.24      0.00
    1   14   13      0.04      0.03
    2   14   13      0.18      0.04
    3   14   13      0.14      0.01
    4   14   13     -0.07     -0.03
    5   14   13     -0.33     -0.04
    6   14   13     -0.47     -0.02
    7   14   13     -0.43      0.00
  -16   15   13     -0.19     -0.03
  -15   15   13     -0.40     -0.03
  -14   15   13     -0.57      0.00
  -13   15   13     -0.50      0.04
  -12   15   13     -0.49      0.04
  -11   15   13     -0.82      0.02
  -10   15   13     -1.10      0.00
   -9   15   13     -0.73      0.00
   -8   15   13      0.27      0.00
   -7   15   13      1.16      0.00
   -6   15   13      1.18      0.00
   -5   15   13      0.31      0.02
   -4   15   13     -0.69      0.01
   -3   15   13     -1.09      0.00
   -2   15   13     -0.88      0.00
   -1   15   13     -0.48      0.01
    0   15   13     -0.11      0.01
    1   15   13      0.28      0.00
    2   15   13      0.56     -0.02
    3   15   13      0.46     -0.04
    4   15   13      0.01     -0.05
    5   15   13     -0.36     -0.04
  -13   16   13     -0.49      0.02
  -12   16   13     -0.48     -0.01
  -11   16   13     -0.47     -0.05
  -10   16   13     -0.30     -0.04
   -9   16   13     -0.05     -0.01
   -8   16   13     -0.02      0.02
   -7   16   13     -0.36      0.02
   -6   16   13     -0.70      0.01
   -5   16   13     -0.57      0.00
   -4   16   13     -0.05     -0.01
   -3   16   13      0.38      0.00
   -2   16   13      0.51      0.02
   -1   16   13      0.56      0.03
    0   16   13      0.69      0.02
    1   16   13      0.74      0.00
    2   16   13      0.54     -0.01
    3   16   13      0.22     -0.01
  -10   17   13     -0.40      0.00
   -9   17   13     -0.63      0.03
   -8   17   13     -0.38      0.03
   -7   17   13      0.12      0.01
   -6   17   13      0.37      0.00
   -5   17   13      0.22      0.00
   -4   17   13     -0.01      0.01
   -3   17   13      0.05      0.00
   -2   17   13      0.28      0.00
   -1   17   13      0.31      0.00
  -26    0   14      2.01      0.01
  -25    0   14      2.26     -0.01
  -24    0   14      1.27     -0.03
  -23    0   14     -0.68     -0.04
  -22    0   14     -2.18     -0.03
  -21    0   14     -2.25     -0.02
  -20    0   14     -1.36      0.00
  -19    0   14     -0.64      0.02
  -18    0   14     -0.34      0.01
  -17    0   14      0.02     -0.02
  -16    0   14      0.69     -0.06
  -15    0   14      1.39     -0.07
  -14    0   14      1.65     -0.09
  -13    0   14      1.17     -0.11
  -12    0   14      0.33     -0.08
  -11    0   14      0.17      0.02
  -10    0   14      1.23      0.14
   -9    0   14      2.73      0.16
   -8    0   14      3.55      0.07
   -7    0   14      3.51     -0.01
   -6    0   14      3.14     -0.03
   -5    0   14      2.77      0.01
   -4    0   14      2.21      0.05
   -3    0   14      1.05      0.06
   -2    0   14     -0.58      0.06
   -1    0   14     -1.83      0.04
    0    0   14     -1.91      0.00
    1    0   14     -1.06     -0.02
    2    0   14     -0.16     -0.02
    3    0   14      0.17      0.01
    4    0   14     -0.14      0.02
    5    0   14     -0.72      0.00
    6    0   14     -1.03     -0.02
    7    0   14     -0.82     -0.02
    8    0   14     -0.44     -0.01
    9    0   14     -0.39     -0.01
   10    0   14     -0.63     -0.02
   11    0   14     -0.65     -0.02
   12    0   14     -0.06     -0.01
   13    0   14      0.94      0.01
   14    0   14      1.73      0.02
   15    0   14      1.90      0.02
  -26    1   14     -0.85      0.00
  -25    1   14     -0.93     -0.01
  -24    1   14     -0.71     -0.02
  -23    1   14     -0.24     -0.03
  -22    1   14      0.26     -0.02
  -21    1   14      0.54      0.01
  -20    1   14      0.54      0.02
  -19    1   14      0.46      0.02
  -18    1   14      0.56      0.02
  -17    1   14      0.79      0.02
  -16    1   14      0.93      0.02
  -15    1   14      0.86      0.04
  -14    1   14      0.61      0.05
  -13    1   14      0.33      0.04
  -12    1   14      0.39      0.02
  -11    1   14      0.85      0.02
  -10    1   14      1.13      0.02
   -9    1   14      0.64      0.02
   -8    1   14     -0.52      0.03
   -7    1   14     -1.72      0.06
   -6    1   14     -2.41      0.11
   -5    1   14     -2.55      0.12
   -4    1   14     -2.70      0.08
   -3    1   14     -3.29      0.02
   -2    1   14     -3.89     -0.02
   -1    1   14     -3.59     -0.02
    0    1   14     -2.20      0.00
    1    1   14     -0.56      0.02
    2    1   14      0.33      0.03
    3    1   14      0.12      0.03
    4    1   14     -0.67      0.02
    5    1   14     -1.17      0.00
    6    1   14     -0.85     -0.02
    7    1   14     -0.05     -0.01
    8    1   14      0.57      0.01
    9    1   14      0.70      0.03
   10    1   14      0.55      0.03
   11    1   14      0.43      0.02
   12    1   14      0.41      0.01
   13    1   14      0.32      0.00
   14    1   14      0.10     -0.01
   15    1   14     -0.09     -0.01
  -26    2   14      1.86      0.02
  -25    2   14      2.77      0.01
  -24    2   14      2.56     -0.01
  -23    2   14      1.07     -0.02
  -22    2   14     -0.52     -0.02
  -21    2   14     -1.05     -0.02
  -20    2   14     -0.49     -0.02
  -19    2   14      0.32      0.00
  -18    2   14      0.71      0.00
  -17    2   14      0.57     -0.03
  -16    2   14      0.25     -0.06
  -15    2   14      0.08     -0.07
  -14    2   14      0.02     -0.09
  -13    2   14     -0.18     -0.12
  -12    2   14     -0.57     -0.11
  -11    2   14     -0.98     -0.01
  -10    2   14     -1.29      0.09
   -9    2   14     -1.55      0.11
   -8    2   14     -1.68      0.04
   -7    2   14     -1.25     -0.03
   -6    2   14     -0.05     -0.05
   -5    2   14      1.22     -0.01
   -4    2   14      1.57      0.03
   -3    2   14      1.05      0.05
   -2    2   14      0.95      0.05
   -1    2   14      2.12      0.02
    0    2   14      3.73     -0.01
    1    2   14      4.12     -0.03
    2    2   14      2.74     -0.02
    3    2   14      0.75      0.00
    4    2   14     -0.23      0.01
    5    2   14      0.29      0.01
    6    2   14      1.40      0.02
    7    2   14      1.96      0.01
    8    2   14      1.48      0.01
    9    2   14      0.29     -0.01
   10    2   14     -0.79     -0.03
   11    2   14     -1.09     -0.02
   12    2   14     -0.65      0.00
   13    2   14      0.00      0.01
   14    2   14      0.43      0.01
   15    2   14      0.55      0.01
  -26    3   14     -0.24      0.00
  -25    3   14     -0.50     -0.02
  -24    3   14     -0.95     -0.02
  -23    3   14     -1.19      0.00
  -22    3   14     -0.79      0.02
  -21    3   14      0.08      0.02
  -20    3   14      0.77      0.00
  -19    3   14      0.74     -0.01
  -18    3   14      0.16     -0.02
  -17    3   14     -0.29     -0.02
  -16    3   14     -0.17      0.00
  -15    3   14      0.22      0.01
  -14    3   14      0.21      0.01
  -13    3   14     -0.31     -0.01
  -12    3   14     -0.81     -0.02
  -11    3   14     -0.97      0.01
  -10    3   14     -1.02      0.04
   -9    3   14     -1.16      0.03
   -8    3   14     -1.01      0.00
   -7    3   14     -0.25      0.01
   -6    3   14      0.70      0.10
   -5    3   14      1.07      0.18
   -4    3   14      0.72      0.18
   -3    3   14      0.29      0.09
   -2    3   14      0.41     -0.01
   -1    3   14      0.83     -0.05
    0    3   14      0.72     -0.02
    1    3   14     -0.21      0.01
    2    3   14     -1.14     -0.01
    3    3   14     -1.12     -0.02
    4    3   14     -0.29     -0.02
    5    3   14      0.38     -0.02
    6    3   14      0.35     -0.04
    7    3   14     -0.18     -0.04
    8    3   14     -0.78     -0.02
    9    3   14     -1.06      0.01
   10    3   14     -0.82      0.04
   11    3   14     -0.28      0.04
   12    3   14      0.03      0.00
   13    3   14     -0.05     -0.03
   14    3   14     -0.20     -0.03
  -25    4   14      0.72      0.01
  -24    4   14      0.71      0.02
  -23    4   14      0.55      0.00
  -22    4   14      0.53     -0.02
  -21    4   14      0.63     -0.05
  -20    4   14      0.66     -0.04
  -19    4   14      0.58     -0.01
  -18    4   14      0.51      0.00
  -17    4   14      0.43      0.00
  -16    4   14      0.08      0.01
  -15    4   14     -0.64      0.03
  -14    4   14     -1.41      0.01
  -13    4   14     -1.68     -0.04
  -12    4   14     -1.31     -0.06
  -11    4   14     -0.68     -0.01
  -10    4   14     -0.14      0.02
   -9    4   14      0.34     -0.03
   -8    4   14      0.86     -0.13
   -7    4   14      1.47     -0.17
   -6    4   14      2.21     -0.09
   -5    4   14      2.91      0.01
   -4    4   14      3.08      0.07
   -3    4   14      2.49      0.06
   -2    4   14      1.67      0.04
   -1    4   14      1.22      0.04
    0    4   14      1.12      0.05
    1    4   14      0.96      0.05
    2    4   14      0.64      0.05
    3    4   14      0.33      0.07
    4    4   14      0.16      0.06
    5    4   14      0.24      0.04
    6    4   14      0.56      0.02
    7    4   14      0.81      0.02
    8    4   14      0.63      0.03
    9    4   14      0.07      0.02
   10    4   14     -0.41     -0.01
   11    4   14     -0.49     -0.02
   12    4   14     -0.30      0.00
   13    4   14     -0.13      0.04
   14    4   14     -0.06      0.05
  -25    5   14      0.07     -0.02
  -24    5   14      0.18     -0.03
  -23    5   14      0.04     -0.01
  -22    5   14     -0.16      0.02
  -21    5   14     -0.16      0.03
  -20    5   14     -0.01      0.02
  -19    5   14      0.02      0.00
  -18    5   14     -0.17     -0.01
  -17    5   14     -0.35      0.01
  -16    5   14     -0.30      0.04
  -15    5   14     -0.13      0.04
  -14    5   14      0.10      0.00
  -13    5   14      0.56     -0.03
  -12    5   14      1.21     -0.03
  -11    5   14      1.52      0.00
  -10    5   14      1.07     -0.01
   -9    5   14      0.22     -0.03
   -8    5   14     -0.09      0.03
   -7    5   14      0.66      0.20
   -6    5   14      1.70      0.40
   -5    5   14      1.68      0.50
   -4    5   14      0.26      0.42
   -3    5   14     -1.35      0.21
   -2    5   14     -1.83      0.04
   -1    5   14     -1.25     -0.01
    0    5   14     -0.69      0.03
    1    5   14     -0.82      0.04
    2    5   14     -1.16      0.00
    3    5   14     -0.89     -0.06
    4    5   14      0.09     -0.07
    5    5   14      0.97     -0.04
    6    5   14      0.99     -0.01
    7    5   14      0.12      0.01
    8    5   14     -0.95      0.00
    9    5   14     -1.44     -0.01
   10    5   14     -1.16     -0.01
   11    5   14     -0.69      0.01
   12    5   14     -0.61      0.02
   13    5   14     -0.81      0.00
   14    5   14     -0.73     -0.03
  -25    6   14      1.25      0.02
  -24    6   14      0.74      0.03
  -23    6   14      0.17      0.02
  -22    6   14      0.14      0.01
  -21    6   14      0.74     -0.01
  -20    6   14      1.59     -0.03
  -19    6   14      2.21     -0.02
  -18    6   14      2.31      0.00
  -17    6   14      1.85      0.03
  -16    6   14      0.98      0.05
  -15    6   14      0.11      0.04
  -14    6   14     -0.16      0.00
  -13    6   14      0.23     -0.03
  -12    6   14      0.51     -0.02
  -11    6   14      0.07      0.03
  -10    6   14     -0.69      0.07
   -9    6   14     -0.79      0.08
   -8    6   14     -0.06      0.09
   -7    6   14      0.56      0.11
   -6    6   14      0.23      0.11
   -5    6   14     -0.74      0.05
   -4    6   14     -1.35     -0.06
   -3    6   14     -1.05     -0.11
   -2    6   14     -0.18     -0.05
   -1    6   14      0.49      0.05
    0    6   14      0.56      0.07
    1    6   14      0.36      0.01
    2    6   14      0.60     -0.02
    3    6   14      1.27      0.01
    4    6   14      1.54      0.07
    5    6   14      0.98      0.07
    6    6   14      0.23      0.04
    7    6   14      0.08      0.02
    8    6   14      0.48      0.02
    9    6   14      0.87      0.02
   10    6   14      0.85      0.02
   11    6   14      0.54      0.03
   12    6   14      0.35      0.03
   13    6   14      0.50      0.04
  -24    7   14     -0.74     -0.01
  -23    7   14     -0.85     -0.01
  -22    7   14     -0.39      0.01
  -21    7   14      0.38      0.02
  -20    7   14      0.74      0.01
  -19    7   14      0.22     -0.01
  -18    7   14     -0.72     -0.01
  -17    7   14     -1.21      0.01
  -16    7   14     -0.91      0.04
  -15    7   14     -0.25      0.01
  -14    7   14      0.13     -0.04
  -13    7   14     -0.13     -0.06
  -12    7   14     -0.86     -0.03
  -11    7   14     -1.58      0.01
  -10    7   14     -1.90      0.00
   -9    7   14     -1.82      0.00
   -8    7   14     -1.57      0.03
   -7    7   14     -1.27      0.08
   -6    7   14     -0.93      0.10
   -5    7   14     -0.59      0.08
   -4    7   14     -0.40      0.05
   -3    7   14     -0.35      0.04
   -2    7   14     -0.39      0.03
   -1    7   14     -0.53      0.01
    0    7   14     -0.81     -0.02
    1    7   14     -1.04     -0.03
    2    7   14     -1.14     -0.01
    3    7   14     -1.28      0.00
    4    7   14     -1.36      0.00
    5    7   14     -1.00     -0.01
    6    7   14     -0.37     -0.01
    7    7   14     -0.12     -0.01
    8    7   14     -0.49     -0.03
    9    7   14     -1.00     -0.05
   10    7   14     -1.23     -0.06
   11    7   14     -1.10     -0.04
   12    7   14     -0.76     -0.01
   13    7   14     -0.39     -0.01
  -23    8   14     -0.18      0.00
  -22    8   14      0.44      0.00
  -21    8   14      1.05      0.00
  -20    8   14      1.31     -0.01
  -19    8   14      1.34     -0.03
  -18    8   14      1.36     -0.02
  -17    8   14      1.24      0.01
  -16    8   14      0.67      0.03
  -15    8   14     -0.36      0.02
  -14    8   14     -1.43      0.02
  -13    8   14     -2.06      0.06
  -12    8   14     -2.10      0.11
  -11    8   14     -1.82      0.12
  -10    8   14     -1.48      0.06
   -9    8   14     -0.98     -0.02
   -8    8   14     -0.20     -0.05
   -7    8   14      0.58     -0.04
   -6    8   14      0.94     -0.02
   -5    8   14      0.81     -0.01
   -4    8   14      0.58     -0.02
   -3    8   14      0.67     -0.02
   -2    8   14      1.00      0.03
   -1    8   14      1.13      0.07
    0    8   14      0.87      0.06
    1    8   14      0.55      0.01
    2    8   14      0.53     -0.02
    3    8   14      0.85     -0.01
    4    8   14      1.15      0.02
    5    8   14      0.98      0.01
    6    8   14      0.37     -0.02
    7    8   14     -0.13     -0.02
    8    8   14     -0.15      0.01
    9    8   14     -0.04      0.03
   10    8   14     -0.12      0.05
   11    8   14     -0.18      0.05
   12    8   14      0.02      0.03
  -23    9   14     -0.01      0.03
  -22    9   14      0.51      0.03
  -21    9   14      0.75      0.01
  -20    9   14      0.49      0.00
  -19    9   14     -0.11     -0.01
  -18    9   14     -0.70      0.01
  -17    9   14     -1.01      0.04
  -16    9   14     -0.99      0.06
  -15    9   14     -0.79      0.05
  -14    9   14     -0.55      0.03
  -13    9   14     -0.41      0.02
  -12    9   14     -0.46      0.01
  -11    9   14     -0.46     -0.03
  -10    9   14     -0.06     -0.06
   -9    9   14      0.66     -0.02
   -8    9   14      1.13      0.08
   -7    9   14      1.04      0.15
   -6    9   14      0.64      0.12
   -5    9   14      0.36      0.04
   -4    9   14      0.41      0.01
   -3    9   14      0.59      0.05
   -2    9   14      0.47      0.09
   -1    9   14     -0.05      0.04
    0    9   14     -0.50     -0.06
    1    9   14     -0.52     -0.10
    2    9   14     -0.45     -0.04
    3    9   14     -0.67      0.04
    4    9   14     -0.93      0.07
    5    9   14     -0.69      0.03
    6    9   14     -0.06     -0.01
    7    9   14      0.30     -0.01
    8    9   14     -0.01      0.00
    9    9   14     -0.62     -0.01
   10    9   14     -0.86     -0.02
   11    9   14     -0.51     -0.02
  -22   10   14      0.07     -0.01
  -21   10   14     -0.26      0.01
  -20   10   14     -0.45      0.02
  -19   10   14     -0.25      0.01
  -18   10   14      0.18     -0.01
  -17   10   14      0.48     -0.01
  -16   10   14      0.60     -0.01
  -15   10   14      0.67     -0.02
  -14   10   14      0.66      0.00
  -13   10   14      0.56      0.04
  -12   10   14      0.60      0.06
  -11   10   14      0.94      0.04
  -10   10   14      1.11      0.01
   -9   10   14      0.59     -0.01
   -8   10   14     -0.22     -0.03
   -7   10   14     -0.48     -0.07
   -6   10   14     -0.11     -0.10
   -5   10   14      0.32     -0.08
   -4   10   14      0.49     -0.03
   -3   10   14      0.55      0.00
   -2   10   14      0.64      0.00
   -1   10   14      0.72     -0.03
    0   10   14      0.70     -0.04
    1   10   14      0.48     -0.02
    2   10   14      0.18      0.01
    3   10   14      0.19      0.02
    4   10   14      0.54     -0.02
    5   10   14      0.56     -0.07
    6   10   14     -0.26     -0.07
    7   10   14     -1.40     -0.02
    8   10   14     -1.95      0.02
    9   10   14     -1.69      0.01
   10   10   14     -1.05      0.00
   11   10   14     -0.39      0.01
  -21   11   14      0.21      0.00
  -20   11   14      0.29     -0.02
  -19   11   14      0.36     -0.03
  -18   11   14      0.42     -0.02
  -17   11   14      0.48      0.01
  -16   11   14      0.65      0.04
  -15   11   14      0.94      0.05
  -14   11   14      1.03      0.04
  -13   11   14      0.62      0.02
  -12   11   14     -0.17      0.00
  -11   11   14     -0.92     -0.01
  -10   11   14     -1.30      0.00
   -9   11   14     -1.18      0.04
   -8   11   14     -0.66      0.07
   -7   11   14     -0.16      0.08
   -6   11   14     -0.15      0.06
   -5   11   14     -0.49      0.04
   -4   11   14     -0.65      0.05
   -3   11   14     -0.45      0.08
   -2   11   14     -0.26      0.09
   -1   11   14     -0.25      0.06
    0   11   14     -0.19      0.01
    1   11   14      0.10     -0.02
    2   11   14      0.43     -0.01
    3   11   14      0.49      0.01
    4   11   14      0.30      0.01
    5   11   14      0.10      0.01
    6   11   14      0.12      0.01
    7   11   14      0.33      0.00
    8   11   14      0.46     -0.01
    9   11   14      0.35     -0.02
   10   11   14      0.19      0.00
  -20   12   14     -1.02     -0.01
  -19   12   14     -0.63      0.00
  -18   12   14      0.09      0.00
  -17   12   14      0.59      0.01
  -16   12   14      0.75      0.02
  -15   12   14      0.63      0.00
  -14   12   14      0.16     -0.03
  -13   12   14     -0.54     -0.05
  -12   12   14     -0.86     -0.06
  -11   12   14     -0.50     -0.06
  -10   12   14     -0.01     -0.04
   -9   12   14     -0.14     -0.02
   -8   12   14     -0.67     -0.03
   -7   12   14     -0.86     -0.05
   -6   12   14     -0.50     -0.06
   -5   12   14      0.04     -0.03
   -4   12   14      0.53      0.02
   -3   12   14      0.97      0.04
   -2   12   14      1.36      0.02
   -1   12   14      1.65     -0.02
    0   12   14      1.76     -0.04
    1   12   14      1.53     -0.04
    2   12   14      0.97     -0.02
    3   12   14      0.48     -0.01
    4   12   14      0.31     -0.01
    5   12   14      0.23     -0.02
    6   12   14     -0.12     -0.02
    7   12   14     -0.69     -0.01
    8   12   14     -1.10      0.00
    9   12   14     -1.10     -0.01
  -19   13   14      0.95     -0.02
  -18   13   14      1.20     -0.02
  -17   13   14      0.80     -0.02
  -16   13   14      0.21     -0.01
  -15   13   14      0.04     -0.01
  -14   13   14      0.18     -0.03
  -13   13   14      0.12     -0.03
  -12   13   14     -0.18     -0.02
  -11   13   14     -0.43      0.03
  -10   13   14     -0.51      0.05
   -9   13   14     -0.34      0.04
   -8   13   14      0.16      0.01
   -7   13   14      0.63      0.00
   -6   13   14      0.55      0.01
   -5   13   14      0.07      0.03
   -4   13   14     -0.27      0.02
   -3   13   14     -0.31      0.00
   -2   13   14     -0.32     -0.02
   -1   13   14     -0.36     -0.02
    0   13   14     -0.39     -0.01
    1   13   14     -0.49      0.00
    2   13   14     -0.75     -0.01
    3   13   14     -0.99     -0.02
    4   13   14     -0.96     -0.01
    5   13   14     -0.56     -0.01
    6   13   14     -0.02     -0.01
    7   13   14      0.35     -0.02
  -17   14   14      0.07      0.02
  -16   14   14      0.06      0.05
  -15   14   14      0.36      0.05
  -14   14   14      0.45      0.02
  -13   14   14      0.21     -0.03
  -12   14   14      0.24     -0.04
  -11   14   14      0.80     -0.03
  -10   14   14      1.35     -0.02
   -9   14   14      1.32     -0.02
   -8   14   14      0.75     -0.02
   -7   14   14      0.07     -0.03
   -6   14   14     -0.32     -0.03
   -5   14   14     -0.30     -0.04
   -4   14   14     -0.01     -0.03
   -3   14   14      0.39     -0.03
   -2   14   14      0.82     -0.03
   -1   14   14      1.11     -0.04
    0   14   14      0.98     -0.04
    1   14   14      0.45     -0.01
    2   14   14     -0.09      0.02
    3   14   14     -0.20      0.03
    4   14   14      0.18      0.02
    5   14   14      0.63      0.01
    6   14   14      0.62      0.01
  -15   15   14      0.62     -0.02
  -14   15   14      0.97     -0.04
  -13   15   14      0.97     -0.03
  -12   15   14      0.69      0.01
  -11   15   14      0.34      0.05
  -10   15   14      0.05      0.06
   -9   15   14     -0.17      0.04
   -8   15   14     -0.35      0.01
   -7   15   14     -0.53      0.00
   -6   15   14     -0.66      0.01
   -5   15   14     -0.61      0.03
   -4   15   14     -0.30      0.02
   -3   15   14      0.02      0.00
   -2   15   14     -0.05     -0.01
   -1   15   14     -0.54      0.01
    0   15   14     -1.03      0.04
    1   15   14     -1.18      0.04
    2   15   14     -1.07      0.01
    3   15   14     -0.84     -0.02
    4   15   14     -0.53     -0.02
  -12   16   14     -0.55     -0.02
  -11   16   14     -0.21     -0.01
  -10   16   14      0.23     -0.01
   -9   16   14      0.14     -0.01
   -8   16   14     -0.51      0.00
   -7   16   14     -1.08      0.01
   -6   16   14     -1.01      0.00
   -5   16   14     -0.39     -0.01
   -4   16   14      0.15     -0.01
   -3   16   14      0.19      0.00
   -2   16   14     -0.06      0.00
   -1   16   14     -0.15     -0.02
    0   16   14     -0.05     -0.03
    1   16   14     -0.04     -0.02
  -26    1   15     -0.56     -0.02
  -25    1   15     -1.08     -0.02
  -24    1   15     -0.84     -0.01
  -23    1   15     -0.03      0.00
  -22    1   15      0.60      0.02
  -21    1   15      0.68      0.03
  -20    1   15      0.43      0.01
  -19    1   15      0.16     -0.02
  -18    1   15      0.09     -0.03
  -17    1   15      0.30      0.00
  -16    1   15      0.59      0.04
  -15    1   15      0.56      0.07
  -14    1   15      0.19      0.11
  -13    1   15      0.04      0.17
  -12    1   15      0.47      0.20
  -11    1   15      1.10      0.18
  -10    1   15      1.42      0.15
   -9    1   15      1.45      0.12
   -8    1   15      1.36      0.08
   -7    1   15      0.99      0.02
   -6    1   15      0.17     -0.01
   -5    1   15     -0.68      0.00
   -4    1   15     -0.85      0.01
   -3    1   15     -0.20     -0.02
   -2    1   15      0.56     -0.05
   -1    1   15      0.65     -0.06
    0    1   15      0.09     -0.03
    1    1   15     -0.33      0.00
    2    1   15     -0.10      0.00
    3    1   15      0.48      0.00
    4    1   15      0.84      0.01
    5    1   15      0.84      0.02
    6    1   15      0.64      0.03
    7    1   15      0.49      0.02
    8    1   15      0.62      0.01
    9    1   15      0.99      0.00
   10    1   15      1.24     -0.01
   11    1   15      1.12     -0.02
   12    1   15      0.76     -0.03
   13    1   15      0.33     -0.02
   14    1   15     -0.09     -0.01
  -26    2   15      0.29     -0.02
  -25    2   15      0.57     -0.01
  -24    2   15      1.10      0.01
  -23    2   15      1.49      0.01
  -22    2   15      1.30     -0.01
  -21    2   15      0.60     -0.01
  -20    2   15     -0.02     -0.01
  -19    2   15     -0.01     -0.01
  -18    2   15      0.52      0.01
  -17    2   15      0.95      0.03
  -16    2   15      0.92      0.02
  -15    2   15      0.63     -0.01
  -14    2   15      0.50     -0.01
  -13    2   15      0.59      0.04
  -12    2   15      0.58      0.13
  -11    2   15      0.31      0.18
  -10    2   15     -0.03      0.16
   -9    2   15     -0.32      0.10
   -8    2   15     -0.63      0.02
   -7    2   15     -0.97     -0.05
   -6    2   15     -1.15     -0.09
   -5    2   15     -1.11     -0.09
   -4    2   15     -0.89     -0.06
   -3    2   15     -0.56     -0.02
   -2    2   15     -0.31      0.01
   -1    2   15     -0.30      0.01
    0    2   15     -0.37     -0.01
    1    2   15     -0.29      0.00
    2    2   15     -0.25      0.01
    3    2   15     -0.42      0.03
    4    2   15     -0.58      0.03
    5    2   15     -0.47      0.03
    6    2   15     -0.21      0.03
    7    2   15      0.04      0.02
    8    2   15      0.20      0.00
    9    2   15      0.15     -0.01
   10    2   15     -0.08     -0.01
   11    2   15     -0.19      0.00
   12    2   15     -0.02      0.01
   13    2   15      0.19      0.01
  -25    3   15     -0.09      0.01
  -24    3   15     -0.09      0.02
  -23    3   15      0.04      0.02
  -22    3   15      0.04      0.03
  -21    3   15     -0.04      0.03
  -20    3   15     -0.01      0.02
  -19    3   15      0.00      0.01
  -18    3   15     -0.26      0.00
  -17    3   15     -0.70     -0.02
  -16    3   15     -0.97     -0.06
  -15    3   15     -0.97     -0.06
  -14    3   15     -0.79      0.03
  -13    3   15     -0.57      0.13
  -12    3   15     -0.46      0.14
  -11    3   15     -0.53      0.01
  -10    3   15     -0.60     -0.13
   -9    3   15     -0.37     -0.17
   -8    3   15      0.22     -0.13
   -7    3   15      0.68     -0.07
   -6    3   15      0.46     -0.02
   -5    3   15     -0.24      0.00
   -4    3   15     -0.56      0.00
   -3    3   15     -0.17     -0.03
   -2    3   15      0.17     -0.05
   -1    3   15     -0.21     -0.02
    0    3   15     -0.99      0.03
    1    3   15     -1.40      0.06
    2    3   15     -0.99      0.04
    3    3   15      0.16      0.01
    4    3   15      1.37      0.00
    5    3   15      1.72      0.00
    6    3   15      0.95      0.01
    7    3   15     -0.17     -0.01
    8    3   15     -0.66     -0.02
    9    3   15     -0.27     -0.01
   10    3   15      0.42      0.01
   11    3   15      0.69      0.02
   12    3   15      0.33      0.02
   13    3   15     -0.23      0.00
  -25    4   15      0.33      0.01
  -24    4   15      0.55      0.01
  -23    4   15      0.85      0.00
  -22    4   15      0.79     -0.02
  -21    4   15      0.25     -0.03
  -20    4   15     -0.41     -0.03
  -19    4   15     -0.70     -0.03
  -18    4   15     -0.43     -0.03
  -17    4   15      0.07     -0.01
  -16    4   15      0.37      0.01
  -15    4   15      0.45      0.04
  -14    4   15      0.51      0.06
  -13    4   15      0.37      0.06
  -12    4   15     -0.14      0.02
  -11    4   15     -0.55      0.00
  -10    4   15     -0.22      0.00
   -9    4   15      0.72      0.04
   -8    4   15      1.39      0.09
   -7    4   15      1.08      0.11
   -6    4   15      0.06      0.07
   -5    4   15     -0.60     -0.01
   -4    4   15     -0.19     -0.07
   -3    4   15      0.71     -0.06
   -2    4   15      0.97      0.00
   -1    4   15      0.33      0.02
    0    4   15     -0.31      0.01
    1    4   15     -0.08     -0.02
    2    4   15      0.78     -0.04
    3    4   15      1.17     -0.03
    4    4   15      0.32     -0.01
    5    4   15     -1.24      0.00
    6    4   15     -2.15     -0.01
    7    4   15     -1.63     -0.01
    8    4   15     -0.25      0.00
    9    4   15      0.71      0.01
   10    4   15      0.47      0.00
   11    4   15     -0.41     -0.02
   12    4   15     -0.81     -0.02
   13    4   15     -0.40     -0.01
  -25    5   15     -0.02     -0.02
  -24    5   15      0.12     -0.03
  -23    5   15      0.31     -0.02
  -22    5   15      0.37      0.00
  -21    5   15      0.34      0.01
  -20    5   15      0.29      0.01
  -19    5   15      0.28      0.00
  -18    5   15      0.20      0.02
  -17    5   15     -0.08      0.02
  -16    5   15     -0.34     -0.03
  -15    5   15     -0.23     -0.08
  -14    5   15      0.14     -0.07
  -13    5   15      0.34     -0.03
  -12    5   15      0.35     -0.01
  -11    5   15      0.52     -0.03
  -10    5   15      0.90     -0.05
   -9    5   15      1.12     -0.02
   -8    5   15      0.93      0.05
   -7    5   15      0.46      0.07
   -6    5   15      0.19      0.03
   -5    5   15      0.58     -0.02
   -4    5   15      1.32     -0.03
   -3    5   15      1.41     -0.01
   -2    5   15      0.45      0.00
   -1    5   15     -0.66      0.00
    0    5   15     -0.75      0.01
    1    5   15      0.10      0.03
    2    5   15      0.77      0.02
    3    5   15      0.71      0.00
    4    5   15      0.49     -0.02
    5    5   15      0.77     -0.02
    6    5   15      1.36     -0.03
    7    5   15      1.64     -0.04
    8    5   15      1.32     -0.03
    9    5   15      0.57     -0.01
   10    5   15     -0.15      0.01
   11    5   15     -0.37      0.03
   12    5   15     -0.05      0.03
   13    5   15      0.34      0.01
  -24    6   15      0.55      0.01
  -23    6   15      0.58      0.01
  -22    6   15      0.50      0.01
  -21    6   15      0.19     -0.01
  -20    6   15     -0.15     -0.02
  -19    6   15     -0.09     -0.01
  -18    6   15      0.39      0.01
  -17    6   15      0.92      0.01
  -16    6   15      1.23      0.00
  -15    6   15      1.31      0.02
  -14    6   15      1.20      0.07
  -13    6   15      0.93      0.09
  -12    6   15      0.55      0.06
  -11    6   15      0.23      0.02
  -10    6   15      0.26      0.02
   -9    6   15      0.77      0.05
   -8    6   15      1.38      0.06
   -7    6   15      1.52      0.01
   -6    6   15      1.06     -0.08
   -5    6   15      0.40     -0.14
   -4    6   15     -0.13     -0.13
   -3    6   15     -0.50     -0.06
   -2    6   15     -0.71      0.01
   -1    6   15     -0.73      0.04
    0    6   15     -0.62      0.01
    1    6   15     -0.46     -0.04
    2    6   15     -0.25     -0.07
    3    6   15     -0.05     -0.06
    4    6   15     -0.13     -0.04
    5    6   15     -0.60     -0.02
    6    6   15     -1.14     -0.01
    7    6   15     -1.30     -0.01
    8    6   15     -1.09      0.00
    9    6   15     -0.87      0.01
   10    6   15     -0.77      0.01
   11    6   15     -0.61     -0.01
   12    6   15     -0.34     -0.03
  -24    7   15     -0.66     -0.01
  -23    7   15     -0.40     -0.01
  -22    7   15     -0.02     -0.01
  -21    7   15      0.22     -0.02
  -20    7   15      0.26      0.00
  -19    7   15      0.16      0.03
  -18    7   15     -0.08      0.04
  -17    7   15     -0.40      0.02
  -16    7   15     -0.54     -0.02
  -15    7   15     -0.21     -0.04
  -14    7   15      0.36     -0.02
  -13    7   15      0.66     -0.01
  -12    7   15      0.59     -0.03
  -11    7   15      0.69     -0.07
  -10    7   15      1.29     -0.08
   -9    7   15      1.83     -0.05
   -8    7   15      1.47     -0.02
   -7    7   15      0.23     -0.02
   -6    7   15     -0.84     -0.04
   -5    7   15     -0.80     -0.01
   -4    7   15      0.08      0.07
   -3    7   15      0.65      0.13
   -2    7   15      0.25      0.10
   -1    7   15     -0.48      0.00
    0    7   15     -0.52     -0.04
    1    7   15      0.17     -0.02
    2    7   15      0.72      0.03
    3    7   15      0.57      0.05
    4    7   15      0.14      0.05
    5    7   15      0.13      0.03
    6    7   15      0.53      0.01
    7    7   15      0.82      0.01
    8    7   15      0.67      0.01
    9    7   15      0.31      0.02
   10    7   15      0.11      0.00
   11    7   15      0.20     -0.01
   12    7   15      0.44      0.00
  -23    8   15      0.78      0.00
  -22    8   15      0.81      0.00
  -21    8   15      0.71     -0.01
  -20    8   15      0.68     -0.02
  -19    8   15      0.92     -0.01
  -18    8   15      1.36      0.01
  -17    8   15      1.79      0.00
  -16    8   15      2.00      0.00
  -15    8   15      1.72      0.02
  -14    8   15      0.92      0.05
  -13    8   15      0.08      0.02
  -12    8   15     -0.19     -0.04
  -11    8   15      0.02     -0.04
  -10    8   15      0.07      0.03
   -9    8   15     -0.44      0.08
   -8    8   15     -1.16      0.05
   -7    8   15     -1.42     -0.02
   -6    8   15     -0.88     -0.06
   -5    8   15      0.00     -0.03
   -4    8   15      0.30      0.01
   -3    8   15     -0.26      0.01
   -2    8   15     -0.97     -0.03
   -1    8   15     -1.06     -0.04
    0    8   15     -0.70      0.00
    1    8   15     -0.47      0.05
    2    8   15     -0.40      0.06
    3    8   15     -0.17      0.04
    4    8   15      0.18      0.02
    5    8   15      0.36      0.02
    6    8   15      0.35      0.02
    7    8   15      0.41      0.01
    8    8   15      0.68     -0.01
    9    8   15      0.98     -0.01
   10    8   15      1.16      0.00
   11    8   15      1.10      0.01
  -22    9   15      1.06     -0.03
  -21    9   15      1.39     -0.04
  -20    9   15      1.32     -0.03
  -19    9   15      0.77      0.01
  -18    9   15     -0.01      0.01
  -17    9   15     -0.67     -0.03
  -16    9   15     -1.05     -0.06
  -15    9   15     -1.15     -0.07
  -14    9   15     -0.87     -0.07
  -13    9   15     -0.25     -0.08
  -12    9   15      0.23     -0.08
  -11    9   15      0.26     -0.07
  -10    9   15      0.17     -0.08
   -9    9   15      0.33     -0.10
   -8    9   15      0.67     -0.11
   -7    9   15      0.98     -0.08
   -6    9   15      1.25     -0.04
   -5    9   15      1.43      0.01
   -4    9   15      1.37      0.03
   -3    9   15      1.06      0.01
   -2    9   15      0.60     -0.03
   -1    9   15      0.08     -0.05
    0    9   15     -0.30     -0.02
    1    9   15     -0.32      0.01
    2    9   15     -0.14      0.00
    3    9   15     -0.20     -0.03
    4    9   15     -0.63     -0.05
    5    9   15     -0.95     -0.04
    6    9   15     -0.77     -0.04
    7    9   15     -0.35     -0.05
    8    9   15     -0.19     -0.05
    9    9   15     -0.34     -0.02
   10    9   15     -0.56     -0.02
  -22   10   15      0.16      0.00
  -21   10   15     -0.36      0.01
  -20   10   15     -0.73      0.01
  -19   10   15     -0.79      0.01
  -18   10   15     -0.52     -0.01
  -17   10   15     -0.05     -0.03
  -16   10   15      0.29     -0.01
  -15   10   15      0.30      0.04
  -14   10   15      0.14      0.07
  -13   10   15      0.03      0.07
  -12   10   15      0.04      0.04
  -11   10   15      0.20      0.04
  -10   10   15      0.44      0.06
   -9   10   15      0.51      0.06
   -8   10   15      0.37      0.01
   -7   10   15      0.26     -0.05
   -6   10   15      0.39     -0.06
   -5   10   15      0.55     -0.06
   -4   10   15      0.37     -0.07
   -3   10   15     -0.18     -0.12
   -2   10   15     -0.63     -0.17
   -1   10   15     -0.55     -0.16
    0   10   15     -0.09     -0.10
    1   10   15      0.28     -0.05
    2   10   15      0.33     -0.03
    3   10   15      0.07     -0.02
    4   10   15     -0.36     -0.01
    5   10   15     -0.63      0.01
    6   10   15     -0.54      0.02
    7   10   15     -0.25      0.02
    8   10   15     -0.02      0.02
    9   10   15      0.15      0.02
  -21   11   15      0.16     -0.01
  -20   11   15      0.74     -0.01
  -19   11   15      0.84     -0.01
  -18   11   15      0.51     -0.01
  -17   11   15      0.10     -0.02
  -16   11   15     -0.14     -0.01
  -15   11   15     -0.10      0.01
  -14   11   15      0.27     -0.02
  -13   11   15      0.67     -0.07
  -12   11   15      0.70     -0.10
  -11   11   15      0.34     -0.08
  -10   11   15      0.04     -0.07
   -9   11   15      0.13     -0.09
   -8   11   15      0.37     -0.10
   -7   11   15      0.41     -0.05
   -6   11   15      0.29      0.02
   -5   11   15      0.15      0.05
   -4   11   15     -0.01      0.02
   -3   11   15     -0.12     -0.03
   -2   11   15     -0.03     -0.04
   -1   11   15      0.03      0.00
    0   11   15     -0.25      0.06
    1   11   15     -0.71      0.07
    2   11   15     -1.04      0.04
    3   11   15     -1.32      0.02
    4   11   15     -1.55      0.03
    5   11   15     -1.38      0.04
    6   11   15     -0.73      0.02
    7   11   15     -0.07     -0.01
    8   11   15      0.29     -0.03
  -19   12   15     -0.30      0.02
  -18   12   15     -0.63      0.03
  -17   12   15     -0.48      0.03
  -16   12   15     -0.02      0.03
  -15   12   15      0.31      0.00
  -14   12   15      0.33     -0.02
  -13   12   15      0.11     -0.02
  -12   12   15     -0.18      0.03
  -11   12   15     -0.33      0.07
  -10   12   15     -0.17      0.08
   -9   12   15      0.06      0.07
   -8   12   15     -0.02      0.05
   -7   12   15     -0.28      0.05
   -6   12   15     -0.31      0.06
   -5   12   15     -0.17      0.04
   -4   12   15     -0.11      0.00
   -3   12   15      0.00     -0.05
   -2   12   15      0.32     -0.05
   -1   12   15      0.68     -0.02
    0   12   15      0.92     -0.01
    1   12   15      1.14     -0.01
    2   12   15      1.35     -0.02
    3   12   15      1.34     -0.03
    4   12   15      1.11     -0.03
    5   12   15      0.86     -0.02
    6   12   15      0.70     -0.02
    7   12   15      0.64     -0.01
  -18   13   15     -0.07      0.03
  -17   13   15     -0.10      0.01
  -16   13   15     -0.07     -0.03
  -15   13   15     -0.03     -0.05
  -14   13   15      0.18     -0.03
  -13   13   15      0.39      0.01
  -12   13   15      0.28      0.04
  -11   13   15      0.07      0.03
  -10   13   15      0.27      0.00
   -9   13   15      0.78     -0.03
   -8   13   15      1.01     -0.03
   -7   13   15      0.71      0.00
   -6   13   15      0.26      0.04
   -5   13   15      0.03      0.03
   -4   13   15      0.10     -0.02
   -3   13   15      0.30     -0.04
   -2   13   15      0.39     -0.03
   -1   13   15      0.30      0.00
    0   13   15      0.20      0.01
    1   13   15      0.19      0.00
    2   13   15      0.13     -0.02
    3   13   15     -0.12     -0.02
    4   13   15     -0.43      0.01
    5   13   15     -0.47      0.03
    6   13   15     -0.18      0.04
  -16   14   15      0.23     -0.01
  -15   14   15      0.24      0.02
  -14   14   15     -0.09      0.03
  -13   14   15     -0.45      0.02
  -12   14   15     -0.56     -0.01
  -11   14   15     -0.31     -0.04
  -10   14   15      0.04     -0.04
   -9   14   15     -0.05     -0.03
   -8   14   15     -0.61     -0.01
   -7   14   15     -1.03      0.01
   -6   14   15     -0.86      0.01
   -5   14   15     -0.47     -0.01
   -4   14   15     -0.42     -0.02
   -3   14   15     -0.56     -0.01
   -2   14   15     -0.40      0.02
   -1   14   15      0.15      0.02
    0   14   15      0.68      0.00
    1   14   15      0.91     -0.01
    2   14   15      0.86      0.01
    3   14   15      0.75      0.03
    4   14   15      0.69      0.03
  -14   15   15     -0.11     -0.01
  -13   15   15      0.38      0.00
  -12   15   15      0.56      0.01
  -11   15   15      0.24      0.03
  -10   15   15     -0.18      0.02
   -9   15   15     -0.33      0.01
   -8   15   15     -0.28     -0.01
   -7   15   15     -0.21     -0.01
   -6   15   15     -0.30      0.01
   -5   15   15     -0.50      0.03
   -4   15   15     -0.63      0.01
   -3   15   15     -0.58      0.00
   -2   15   15     -0.49     -0.01
   -1   15   15     -0.51      0.01
    0   15   15     -0.56      0.04
    1   15   15     -0.56      0.05
    2   15   15     -0.52      0.03
  -10   16   15     -0.55     -0.02
   -9   16   15     -0.34     -0.02
   -8   16   15     -0.09     -0.01
   -7   16   15      0.28     -0.01
   -6   16   15      0.66      0.00
   -5   16   15      0.69     -0.01
   -4   16   15      0.22     -0.01
   -3   16   15     -0.45      0.00
   -2   16   15     -0.74      0.03
  -25    0   16     -0.69      0.01
  -24    0   16     -1.80      0.01
  -23    0   16     -2.35      0.01
  -22    0   16     -1.74      0.00
  -21    0   16     -0.54      0.00
  -20    0   16      0.41      0.01
  -19    0   16      0.92      0.04
  -18    0   16      1.02      0.06
  -17    0   16      0.64      0.05
  -16    0   16     -0.11      0.03
  -15    0   16     -0.82      0.04
  -14    0   16     -1.16      0.09
  -13    0   16     -1.08      0.20
  -12    0   16     -0.76      0.29
  -11    0   16     -0.46      0.26
  -10    0   16     -0.43      0.07
   -9    0   16     -0.60     -0.14
   -8    0   16     -0.54     -0.21
   -7    0   16      0.14     -0.12
   -6    0   16      1.23     -0.03
   -5    0   16      2.01     -0.01
   -4    0   16      1.97     -0.03
   -3    0   16      1.33     -0.03
   -2    0   16      0.64     -0.01
   -1    0   16      0.21      0.00
    0    0   16     -0.01      0.00
    1    0   16     -0.26      0.00
    2    0   16     -0.62      0.00
    3    0   16     -0.79      0.01
    4    0   16     -0.49      0.01
    5    0   16      0.13      0.00
    6    0   16      0.55     -0.01
    7    0   16      0.36     -0.01
    8    0   16     -0.41     -0.01
    9    0   16     -1.08     -0.01
   10    0   16     -0.93      0.00
   11    0   16     -0.14      0.01
   12    0   16      0.42      0.02
  -25    1   16     -0.06      0.01
  -24    1   16     -0.32      0.00
  -23    1   16     -0.38      0.01
  -22    1   16     -0.11      0.02
  -21    1   16      0.37      0.02
  -20    1   16      0.69      0.02
  -19    1   16      0.49      0.02
  -18    1   16     -0.12      0.01
  -17    1   16     -0.65      0.00
  -16    1   16     -0.79      0.01
  -15    1   16     -0.71      0.04
  -14    1   16     -0.63      0.06
  -13    1   16     -0.56      0.05
  -12    1   16     -0.48      0.02
  -11    1   16     -0.41     -0.03
  -10    1   16     -0.22     -0.07
   -9    1   16      0.28     -0.08
   -8    1   16      1.05     -0.05
   -7    1   16      1.70      0.00
   -6    1   16      1.78      0.03
   -5    1   16      1.26      0.03
   -4    1   16      0.58      0.02
   -3    1   16      0.13      0.01
   -2    1   16      0.00      0.03
   -1    1   16      0.03      0.03
    0    1   16      0.05      0.02
    1    1   16      0.09     -0.01
    2    1   16      0.35     -0.01
    3    1   16      0.80      0.00
    4    1   16      1.04      0.00
    5    1   16      0.77     -0.02
    6    1   16      0.16     -0.02
    7    1   16     -0.37     -0.01
    8    1   16     -0.48      0.01
    9    1   16     -0.08      0.02
   10    1   16      0.54      0.02
   11    1   16      0.79      0.00
   12    1   16      0.50     -0.01
  -25    2   16     -1.41     -0.01
  -24    2   16     -1.93     -0.01
  -23    2   16     -1.69      0.00
  -22    2   16     -0.79      0.00
  -21    2   16     -0.07      0.00
  -20    2   16     -0.09      0.00
  -19    2   16     -0.52      0.00
  -18    2   16     -0.68      0.00
  -17    2   16     -0.50      0.02
  -16    2   16     -0.30      0.05
  -15    2   16     -0.17      0.07
  -14    2   16      0.00      0.09
  -13    2   16      0.25      0.12
  -12    2   16      0.61      0.16
  -11    2   16      1.18      0.14
  -10    2   16      1.73      0.00
   -9    2   16      1.81     -0.16
   -8    2   16      1.28     -0.21
   -7    2   16      0.48     -0.12
   -6    2   16     -0.15     -0.04
   -5    2   16     -0.51     -0.04
   -4    2   16     -0.82     -0.06
   -3    2   16     -1.23     -0.05
   -2    2   16     -1.58     -0.01
   -1    2   16     -1.52      0.00
    0    2   16     -1.03     -0.01
    1    2   16     -0.40     -0.01
    2    2   16     -0.12      0.02
    3    2   16     -0.54      0.04
    4    2   16     -1.40      0.03
    5    2   16     -1.88      0.00
    6    2   16     -1.45     -0.01
    7    2   16     -0.52      0.01
    8    2   16      0.16      0.02
    9    2   16      0.34      0.02
   10    2   16      0.19      0.01
   11    2   16     -0.03      0.01
   12    2   16     -0.13      0.01
  -25    3   16      0.09      0.00
  -24    3   16      0.14      0.01
  -23    3   16     -0.10      0.02
  -22    3   16     -0.36      0.02
  -21    3   16     -0.25      0.00
  -20    3   16      0.25      0.00
  -19    3   16      0.74      0.03
  -18    3   16      0.95      0.05
  -17    3   16      0.98      0.04
  -16    3   16      1.00      0.02
  -15    3   16      0.90      0.03
  -14    3   16      0.54      0.07
  -13    3   16      0.21      0.10
  -12    3   16      0.14      0.07
  -11    3   16      0.05     -0.01
  -10    3   16     -0.44     -0.06
   -9    3   16     -1.12     -0.01
   -8    3   16     -1.44      0.10
   -7    3   16     -1.14      0.16
   -6    3   16     -0.46      0.12
   -5    3   16      0.06      0.03
   -4    3   16      0.06     -0.03
   -3    3   16     -0.20     -0.04
   -2    3   16     -0.05     -0.01
   -1    3   16      0.66      0.02
    0    3   16      1.25      0.03
    1    3   16      1.02      0.02
    2    3   16      0.18      0.01
    3    3   16     -0.45     -0.01
    4    3   16     -0.21     -0.02
    5    3   16      0.76     -0.01
    6    3   16      1.62      0.01
    7    3   16      1.58      0.02
    8    3   16      0.72      0.00
    9    3   16     -0.10     -0.03
   10    3   16     -0.25     -0.04
   11    3   16      0.13     -0.05
   12    3   16      0.55     -0.04
  -25    4   16      0.10      0.01
  -24    4   16     -0.25      0.01
  -23    4   16     -0.16      0.01
  -22    4   16      0.47     -0.01
  -21    4   16      1.18     -0.02
  -20    4   16      1.37     -0.03
  -19    4   16      0.86     -0.05
  -18    4   16      0.05     -0.09
  -17    4   16     -0.57     -0.09
  -16    4   16     -0.86     -0.04
  -15    4   16     -0.92      0.01
  -14    4   16     -0.88      0.02
  -13    4   16     -0.85      0.00
  -12    4   16     -0.89      0.01
  -11    4   16     -0.90      0.06
  -10    4   16     -0.69      0.09
   -9    4   16     -0.26      0.08
   -8    4   16      0.34      0.02
   -7    4   16      1.03     -0.06
   -6    4   16      1.47     -0.12
   -5    4   16      1.20     -0.13
   -4    4   16      0.32     -0.09
   -3    4   16     -0.31      0.00
   -2    4   16     -0.17      0.05
   -1    4   16      0.17      0.05
    0    4   16      0.01      0.00
    1    4   16     -0.40     -0.03
    2    4   16     -0.41     -0.02
    3    4   16     -0.04      0.01
    4    4   16      0.14      0.02
    5    4   16     -0.05      0.03
    6    4   16     -0.32      0.02
    7    4   16     -0.44      0.01
    8    4   16     -0.29      0.00
    9    4   16      0.08      0.01
   10    4   16      0.47      0.02
   11    4   16      0.58      0.02
   12    4   16      0.40      0.00
  -24    5   16     -0.44      0.01
  -23    5   16     -0.31      0.01
  -22    5   16      0.00     -0.02
  -21    5   16      0.26     -0.05
  -20    5   16      0.22     -0.06
  -19    5   16     -0.16     -0.03
  -18    5   16     -0.56      0.00
  -17    5   16     -0.65      0.01
  -16    5   16     -0.47     -0.01
  -15    5   16     -0.33     -0.05
  -14    5   16     -0.42     -0.07
  -13    5   16     -0.53     -0.04
  -12    5   16     -0.30      0.00
  -11    5   16      0.34      0.00
  -10    5   16      1.09     -0.04
   -9    5   16      1.61     -0.10
   -8    5   16      1.71     -0.15
   -7    5   16      1.43     -0.17
   -6    5   16      1.00     -0.15
   -5    5   16      0.71     -0.09
   -4    5   16      0.55     -0.04
   -3    5   16      0.37     -0.04
   -2    5   16      0.09     -0.07
   -1    5   16     -0.13     -0.10
    0    5   16     -0.09     -0.11
    1    5   16      0.10     -0.07
    2    5   16      0.02     -0.03
    3    5   16     -0.43      0.01
    4    5   16     -0.73      0.01
    5    5   16     -0.43     -0.01
    6    5   16      0.13     -0.01
    7    5   16      0.21     -0.01
    8    5   16     -0.33     -0.01
    9    5   16     -0.94     -0.01
   10    5   16     -1.03      0.00
   11    5   16     -0.52      0.00
  -24    6   16      0.39      0.01
  -23    6   16      0.99     -0.01
  -22    6   16      1.20     -0.03
  -21    6   16      0.83     -0.02
  -20    6   16      0.11      0.00
  -19    6   16     -0.61     -0.01
  -18    6   16     -1.04     -0.04
  -17    6   16     -1.02     -0.05
  -16    6   16     -0.68     -0.03
  -15    6   16     -0.37      0.01
  -14    6   16     -0.14      0.03
  -13    6   16      0.33      0.02
  -12    6   16      1.16      0.02
  -11    6   16      1.84      0.02
  -10    6   16      1.75      0.00
   -9    6   16      0.87     -0.04
   -8    6   16     -0.05     -0.09
   -7    6   16     -0.14     -0.07
   -6    6   16      0.47      0.00
   -5    6   16      0.61      0.06
   -4    6   16     -0.32      0.06
   -3    6   16     -1.36      0.01
   -2    6   16     -1.31     -0.01
   -1    6   16     -0.42      0.01
    0    6   16      0.19      0.04
    1    6   16      0.01      0.07
    2    6   16     -0.48      0.07
    3    6   16     -0.61      0.04
    4    6   16     -0.22      0.01
    5    6   16      0.24      0.01
    6    6   16      0.26      0.03
    7    6   16     -0.10      0.04
    8    6   16     -0.33      0.03
    9    6   16      0.03      0.02
   10    6   16      0.80      0.02
   11    6   16      1.27      0.00
  -23    7   16      0.03      0.01
  -22    7   16     -0.23      0.00
  -21    7   16     -0.47     -0.01
  -20    7   16     -0.54      0.00
  -19    7   16     -0.44      0.02
  -18    7   16     -0.29      0.04
  -17    7   16     -0.29      0.04
  -16    7   16     -0.53      0.01
  -15    7   16     -0.69     -0.04
  -14    7   16     -0.32     -0.07
  -13    7   16      0.45     -0.02
  -12    7   16      0.87      0.05
  -11    7   16      0.52      0.08
  -10    7   16     -0.23      0.05
   -9    7   16     -0.63     -0.01
   -8    7   16     -0.38     -0.05
   -7    7   16      0.11     -0.03
   -6    7   16      0.08      0.03
   -5    7   16     -0.51      0.08
   -4    7   16     -0.77      0.07
   -3    7   16     -0.13      0.03
   -2    7   16      0.79     -0.01
   -1    7   16      1.20     -0.02
    0    7   16      1.12     -0.02
    1    7   16      1.01     -0.02
    2    7   16      1.11     -0.01
    3    7   16      1.44      0.00
    4    7   16      1.80      0.01
    5    7   16      1.85      0.02
    6    7   16      1.41      0.03
    7    7   16      0.77      0.02
    8    7   16      0.28      0.01
    9    7   16      0.07      0.00
   10    7   16     -0.02      0.00
  -23    8   16      0.45      0.00
  -22    8   16      0.40      0.00
  -21    8   16      0.21      0.03
  -20    8   16      0.00      0.03
  -19    8   16     -0.25      0.02
  -18    8   16     -0.49      0.00
  -17    8   16     -0.45     -0.01
  -16    8   16      0.05      0.00
  -15    8   16      0.81      0.01
  -14    8   16      1.40      0.04
  -13    8   16      1.50      0.03
  -12    8   16      1.21     -0.02
  -11    8   16      0.77     -0.08
  -10    8   16      0.23     -0.10
   -9    8   16     -0.26     -0.09
   -8    8   16     -0.39     -0.04
   -7    8   16     -0.06      0.03
   -6    8   16      0.33      0.08
   -5    8   16      0.46      0.08
   -4    8   16      0.30      0.02
   -3    8   16     -0.04     -0.04
   -2    8   16     -0.37     -0.03
   -1    8   16     -0.55      0.02
    0    8   16     -0.64      0.06
    1    8   16     -0.73      0.07
    2    8   16     -0.73      0.04
    3    8   16     -0.56      0.00
    4    8   16     -0.46     -0.02
    5    8   16     -0.60      0.00
    6    8   16     -0.87      0.02
    7    8   16     -0.99      0.02
    8    8   16     -0.81     -0.01
    9    8   16     -0.30     -0.03
   10    8   16      0.33     -0.01
  -22    9   16      0.26      0.01
  -21    9   16      0.20      0.02
  -20    9   16     -0.01      0.02
  -19    9   16     -0.23      0.01
  -18    9   16     -0.31      0.01
  -17    9   16     -0.35      0.01
  -16    9   16     -0.53     -0.01
  -15    9   16     -0.77     -0.05
  -14    9   16     -0.88     -0.06
  -13    9   16     -0.77     -0.01
  -12    9   16     -0.59      0.07
  -11    9   16     -0.55      0.13
  -10    9   16     -0.60      0.12
   -9    9   16     -0.37      0.04
   -8    9   16      0.19     -0.03
   -7    9   16      0.56     -0.06
   -6    9   16      0.20     -0.04
   -5    9   16     -0.61      0.01
   -4    9   16     -1.17      0.04
   -3    9   16     -1.18      0.06
   -2    9   16     -0.95      0.07
   -1    9   16     -0.80      0.06
    0    9   16     -0.67      0.04
    1    9   16     -0.38      0.01
    2    9   16      0.02     -0.01
    3    9   16      0.43     -0.01
    4    9   16      0.77      0.00
    5    9   16      0.88      0.00
    6    9   16      0.68     -0.01
    7    9   16      0.39     -0.01
    8    9   16      0.30      0.00
    9    9   16      0.27      0.02
  -21   10   16     -0.16      0.04
  -20   10   16     -0.53      0.02
  -19   10   16     -0.61      0.00
  -18   10   16     -0.48      0.02
  -17   10   16     -0.30      0.05
  -16   10   16     -0.20      0.05
  -15   10   16     -0.19      0.04
  -14   10   16     -0.26      0.04
  -13   10   16     -0.24      0.03
  -12   10   16     -0.07     -0.03
  -11   10   16      0.00     -0.15
  -10   10   16     -0.15     -0.24
   -9   10   16     -0.26     -0.23
   -8   10   16     -0.08     -0.14
   -7   10   16      0.11     -0.02
   -6   10   16     -0.03      0.07
   -5   10   16     -0.25      0.07
   -4   10   16     -0.17      0.02
   -3   10   16     -0.02     -0.01
   -2   10   16     -0.16     -0.01
   -1   10   16     -0.42      0.01
    0   10   16     -0.44      0.00
    1   10   16     -0.26      0.00
    2   10   16     -0.10      0.00
    3   10   16      0.02      0.00
    4   10   16      0.07     -0.01
    5   10   16     -0.04     -0.01
    6   10   16     -0.17      0.00
    7   10   16     -0.08      0.02
    8   10   16      0.14      0.01
  -20   11   16      0.32     -0.01
  -19   11   16      0.43      0.00
  -18   11   16      0.23      0.00
  -17   11   16     -0.20     -0.02
  -16   11   16     -0.51     -0.06
  -15   11   16     -0.54     -0.08
  -14   11   16     -0.41     -0.06
  -13   11   16     -0.17      0.00
  -12   11   16      0.19      0.04
  -11   11   16      0.56      0.02
  -10   11   16      0.78     -0.01
   -9   11   16      0.85     -0.01
   -8   11   16      0.79      0.01
   -7   11   16      0.47      0.01
   -6   11   16      0.05     -0.03
   -5   11   16     -0.07     -0.06
   -4   11   16      0.15     -0.05
   -3   11   16      0.26      0.00
   -2   11   16     -0.01      0.03
   -1   11   16     -0.40      0.03
    0   11   16     -0.71      0.00
    1   11   16     -1.02     -0.01
    2   11   16     -1.25     -0.01
    3   11   16     -1.15     -0.01
    4   11   16     -0.71     -0.01
    5   11   16     -0.34     -0.01
    6   11   16     -0.32     -0.01
    7   11   16     -0.52     -0.01
  -19   12   16     -0.33      0.00
  -18   12   16     -0.36      0.01
  -17   12   16     -0.11      0.03
  -16   12   16      0.30      0.04
  -15   12   16      0.41      0.05
  -14   12   16      0.16      0.07
  -13   12   16      0.13      0.05
  -12   12   16      0.56     -0.01
  -11   12   16      0.80     -0.10
  -10   12   16      0.32     -0.14
   -9   12   16     -0.38     -0.11
   -8   12   16     -0.54     -0.07
   -7   12   16     -0.14     -0.05
   -6   12   16      0.33     -0.06
   -5   12   16      0.61     -0.06
   -4   12   16      0.65     -0.02
   -3   12   16      0.42      0.00
   -2   12   16     -0.04      0.00
   -1   12   16     -0.50     -0.02
    0   12   16     -0.72     -0.04
    1   12   16     -0.65     -0.03
    2   12   16     -0.31      0.01
    3   12   16      0.17      0.02
    4   12   16      0.43      0.01
    5   12   16      0.13      0.00
    6   12   16     -0.41      0.01
  -17   13   16      0.70      0.01
  -16   13   16      0.52     -0.02
  -15   13   16      0.22     -0.03
  -14   13   16     -0.06     -0.02
  -13   13   16     -0.08      0.02
  -12   13   16      0.12      0.03
  -11   13   16      0.18      0.00
  -10   13   16      0.03     -0.03
   -9   13   16     -0.03     -0.01
   -8   13   16      0.11      0.03
   -7   13   16      0.21      0.05
   -6   13   16      0.14      0.04
   -5   13   16      0.15      0.03
   -4   13   16      0.34      0.04
   -3   13   16      0.42      0.06
   -2   13   16      0.20      0.06
   -1   13   16     -0.13      0.05
    0   13   16     -0.37      0.03
    1   13   16     -0.52      0.01
    2   13   16     -0.58     -0.01
    3   13   16     -0.50     -0.02
    4   13   16     -0.42     -0.01
  -15   14   16     -0.57     -0.02
  -14   14   16     -0.90     -0.01
  -13   14   16     -0.85      0.00
  -12   14   16     -0.35     -0.02
  -11   14   16     -0.05     -0.03
  -10   14   16     -0.42      0.00
   -9   14   16     -1.03      0.05
   -8   14   16     -1.10      0.06
   -7   14   16     -0.53      0.03
   -6   14   16      0.16     -0.01
   -5   14   16      0.46     -0.02
   -4   14   16      0.31      0.02
   -3   14   16     -0.03      0.04
   -2   14   16     -0.22      0.03
   -1   14   16     -0.16      0.00
    0   14   16     -0.07     -0.02
    1   14   16     -0.07     -0.04
    2   14   16     -0.02     -0.03
  -12   15   16      1.18      0.06
  -11   15   16      1.20      0.06
  -10   15   16      0.92      0.04
   -9   15   16      0.99      0.01
   -8   15   16      1.51      0.00
   -7   15   16      1.76     -0.01
   -6   15   16      1.27      0.00
   -5   15   16      0.49      0.01
   -4   15   16      0.17      0.01
   -3   15   16      0.48      0.00
   -2   15   16      0.95     -0.03
   -1   15   16      1.00     -0.04
  -25    1   17      0.25      0.02
  -24    1   17      1.29      0.01
  -23    1   17      1.52      0.00
  -22    1   17      0.83      0.00
  -21    1   17      0.05      0.00
  -20    1   17     -0.16      0.00
  -19    1   17     -0.02     -0.01
  -18    1   17      0.03     -0.02
  -17    1   17     -0.08     -0.03
  -16    1   17     -0.10      0.00
  -15    1   17      0.25      0.03
  -14    1   17      1.01     -0.07
  -13    1   17      1.76     -0.40
  -12    1   17      1.89     -0.81
  -11    1   17      1.38     -0.99
  -10    1   17      0.78     -0.80
   -9    1   17      0.43     -0.40
   -8    1   17      0.14     -0.08
   -7    1   17     -0.25      0.03
   -6    1   17     -0.46      0.03
   -5    1   17     -0.20      0.02
   -4    1   17      0.39      0.01
   -3    1   17      0.87      0.00
   -2    1   17      0.99     -0.01
   -1    1   17      0.91      0.01
    0    1   17      0.80      0.02
    1    1   17      0.71      0.01
    2    1   17      0.74     -0.01
    3    1   17      0.99     -0.03
    4    1   17      1.21     -0.03
    5    1   17      0.94     -0.02
    6    1   17      0.23     -0.02
    7    1   17     -0.32     -0.02
    8    1   17     -0.30      0.00
    9    1   17     -0.02      0.02
   10    1   17      0.01      0.02
   11    1   17     -0.25      0.01
  -25    2   17      0.64      0.00
  -24    2   17      0.59     -0.03
  -23    2   17      0.33     -0.04
  -22    2   17      0.04     -0.02
  -21    2   17     -0.17      0.00
  -20    2   17     -0.35      0.00
  -19    2   17     -0.52     -0.02
  -18    2   17     -0.58     -0.02
  -17    2   17     -0.53      0.00
  -16    2   17     -0.30      0.01
  -15    2   17      0.13     -0.03
  -14    2   17      0.54     -0.12
  -13    2   17      0.61     -0.19
  -12    2   17      0.50     -0.15
  -11    2   17      0.65      0.01
  -10    2   17      1.04      0.20
   -9    2   17      1.27      0.27
   -8    2   17      1.17      0.19
   -7    2   17      0.84      0.07
   -6    2   17      0.46      0.00
   -5    2   17      0.27      0.00
   -4    2   17      0.39      0.01
   -3    2   17      0.59      0.00
   -2    2   17      0.52     -0.02
   -1    2   17      0.16     -0.03
    0    2   17     -0.21     -0.02
    1    2   17     -0.33     -0.01
    2    2   17     -0.29     -0.01
    3    2   17     -0.38     -0.01
    4    2   17     -0.72     -0.01
    5    2   17     -1.11      0.00
    6    2   17     -1.17      0.00
    7    2   17     -0.82      0.01
    8    2   17     -0.38      0.02
    9    2   17     -0.31      0.01
   10    2   17     -0.61     -0.01
   11    2   17     -0.80     -0.01
  -25    3   17      0.20      0.00
  -24    3   17      0.74     -0.01
  -23    3   17      0.62     -0.01
  -22    3   17     -0.15     -0.01
  -21    3   17     -0.96     -0.02
  -20    3   17     -1.26     -0.03
  -19    3   17     -0.96      0.00
  -18    3   17     -0.39      0.04
  -17    3   17      0.13      0.05
  -16    3   17      0.57      0.04
  -15    3   17      0.93      0.03
  -14    3   17      1.08      0.00
  -13    3   17      0.99     -0.09
  -12    3   17      0.82     -0.22
  -11    3   17      0.64     -0.26
  -10    3   17      0.44     -0.17
   -9    3   17      0.11     -0.05
   -8    3   17     -0.51      0.01
   -7    3   17     -1.33      0.01
   -6    3   17     -1.73      0.00
   -5    3   17     -1.25      0.01
   -4    3   17     -0.38      0.02
   -3    3   17      0.06      0.01
   -2    3   17      0.04     -0.02
   -1    3   17      0.14     -0.01
    0    3   17      0.60      0.00
    1    3   17      0.99      0.00
    2    3   17      0.95     -0.01
    3    3   17      0.70     -0.01
    4    3   17      0.65     -0.01
    5    3   17      0.73      0.00
    6    3   17      0.66      0.00
    7    3   17      0.36      0.01
    8    3   17     -0.04      0.01
    9    3   17     -0.43      0.01
   10    3   17     -0.50      0.00
   11    3   17     -0.02     -0.01
  -24    4   17      0.16      0.00
  -23    4   17     -0.13     -0.03
  -22    4   17     -0.39     -0.02
  -21    4   17     -0.43      0.01
  -20    4   17     -0.16      0.03
  -19    4   17      0.25      0.01
  -18    4   17      0.47     -0.03
  -17    4   17      0.39     -0.05
  -16    4   17      0.23     -0.02
  -15    4   17      0.13      0.02
  -14    4   17      0.00      0.01
  -13    4   17     -0.11     -0.04
  -12    4   17      0.01     -0.07
  -11    4   17      0.40     -0.02
  -10    4   17      0.71      0.05
   -9    4   17      0.52      0.07
   -8    4   17      0.00      0.03
   -7    4   17     -0.32     -0.03
   -6    4   17     -0.28     -0.05
   -5    4   17     -0.31     -0.01
   -4    4   17     -0.59      0.02
   -3    4   17     -0.80      0.02
   -2    4   17     -0.72      0.01
   -1    4   17     -0.52      0.00
    0    4   17     -0.49      0.00
    1    4   17     -0.70     -0.02
    2    4   17     -0.86     -0.05
    3    4   17     -0.67     -0.06
    4    4   17     -0.30     -0.05
    5    4   17     -0.30     -0.02
    6    4   17     -0.80      0.00
    7    4   17     -1.23      0.01
    8    4   17     -1.08      0.01
    9    4   17     -0.33      0.01
   10    4   17      0.60      0.00
   11    4   17      1.11     -0.01
  -24    5   17      0.28     -0.01
  -23    5   17      0.10     -0.02
  -22    5   17     -0.36     -0.02
  -21    5   17     -0.78     -0.04
  -20    5   17     -0.91     -0.05
  -19    5   17     -0.74     -0.04
  -18    5   17     -0.44      0.00
  -17    5   17     -0.10      0.05
  -16    5   17      0.26      0.08
  -15    5   17      0.55      0.09
  -14    5   17      0.67      0.05
  -13    5   17      0.61     -0.02
  -12    5   17      0.40     -0.10
  -11    5   17      0.13     -0.13
  -10    5   17     -0.08     -0.11
   -9    5   17     -0.15     -0.06
   -8    5   17     -0.29     -0.01
   -7    5   17     -0.81      0.04
   -6    5   17     -1.56      0.09
   -5    5   17     -1.79      0.10
   -4    5   17     -1.10      0.07
   -3    5   17     -0.05      0.02
   -2    5   17      0.62     -0.01
   -1    5   17      0.89     -0.01
    0    5   17      1.05      0.00
    1    5   17      1.23     -0.01
    2    5   17      1.49      0.00
    3    5   17      1.75      0.03
    4    5   17      1.58      0.05
    5    5   17      0.78      0.05
    6    5   17     -0.05      0.04
    7    5   17     -0.19      0.03
    8    5   17      0.23      0.02
    9    5   17      0.55      0.01
   10    5   17      0.39     -0.01
  -23    6   17      0.62     -0.04
  -22    6   17      0.46     -0.04
  -21    6   17      0.37      0.00
  -20    6   17      0.49      0.03
  -19    6   17      0.64      0.02
  -18    6   17      0.59     -0.02
  -17    6   17      0.40     -0.06
  -16    6   17      0.36     -0.04
  -15    6   17      0.45     -0.01
  -14    6   17      0.35     -0.03
  -13    6   17     -0.04     -0.09
  -12    6   17     -0.28     -0.13
  -11    6   17     -0.03     -0.08
  -10    6   17      0.41      0.02
   -9    6   17      0.45      0.12
   -8    6   17     -0.03      0.21
   -7    6   17     -0.39      0.25
   -6    6   17      0.00      0.21
   -5    6   17      0.92      0.12
   -4    6   17      1.49      0.04
   -3    6   17      1.25      0.01
   -2    6   17      0.64      0.02
   -1    6   17      0.29      0.04
    0    6   17      0.29      0.05
    1    6   17      0.37      0.04
    2    6   17      0.29      0.01
    3    6   17     -0.16     -0.01
    4    6   17     -0.88     -0.03
    5    6   17     -1.42     -0.04
    6    6   17     -1.44     -0.05
    7    6   17     -1.08     -0.03
    8    6   17     -0.62      0.01
    9    6   17     -0.18      0.03
   10    6   17      0.13      0.02
  -23    7   17      0.66     -0.01
  -22    7   17      0.15      0.01
  -21    7   17     -0.33      0.01
  -20    7   17     -0.57     -0.01
  -19    7   17     -0.37     -0.03
  -18    7   17      0.26     -0.04
  -17    7   17      1.07      0.00
  -16    7   17      1.68      0.03
  -15    7   17      1.82      0.03
  -14    7   17      1.54     -0.01
  -13    7   17      1.07     -0.05
  -12    7   17      0.63     -0.03
  -11    7   17      0.25      0.02
  -10    7   17      0.07      0.07
   -9    7   17      0.27      0.10
   -8    7   17      0.75      0.10
   -7    7   17      1.10      0.06
   -6    7   17      0.92     -0.02
   -5    7   17      0.26     -0.08
   -4    7   17     -0.47     -0.09
   -3    7   17     -0.83     -0.06
   -2    7   17     -0.70     -0.01
   -1    7   17     -0.35      0.01
    0    7   17     -0.12     -0.02
    1    7   17     -0.16     -0.07
    2    7   17     -0.24     -0.09
    3    7   17     -0.17     -0.06
    4    7   17     -0.09     -0.02
    5    7   17     -0.20      0.01
    6    7   17     -0.40      0.02
    7    7   17     -0.35      0.04
    8    7   17     -0.04      0.04
    9    7   17      0.13      0.01
  -22    8   17     -0.46     -0.01
  -21    8   17     -0.25     -0.02
  -20    8   17      0.42     -0.02
  -19    8   17      1.24     -0.02
  -18    8   17      1.69     -0.02
  -17    8   17      1.62      0.00
  -16    8   17      1.33      0.02
  -15    8   17      1.12      0.04
  -14    8   17      0.91      0.03
  -13    8   17      0.48     -0.01
  -12    8   17     -0.05     -0.05
  -11    8   17     -0.14     -0.08
  -10    8   17      0.36     -0.09
   -9    8   17      0.91     -0.04
   -8    8   17      0.76      0.06
   -7    8   17     -0.03      0.14
   -6    8   17     -0.69      0.15
   -5    8   17     -0.72      0.10
   -4    8   17     -0.35      0.04
   -3    8   17      0.01      0.03
   -2    8   17      0.29      0.03
   -1    8   17      0.57      0.03
    0    8   17      0.84      0.01
    1    8   17      1.09      0.01
    2    8   17      1.09      0.03
    3    8   17      0.49      0.06
    4    8   17     -0.56      0.07
    5    8   17     -1.27      0.04
    6    8   17     -1.19      0.01
    7    8   17     -0.75     -0.01
    8    8   17     -0.47     -0.02
  -21    9   17      0.50     -0.02
  -20    9   17      0.69     -0.01
  -19    9   17      0.72      0.00
  -18    9   17      0.68      0.00
  -17    9   17      0.64      0.00
  -16    9   17      0.64     -0.02
  -15    9   17      0.59     -0.06
  -14    9   17      0.27     -0.13
  -13    9   17     -0.35     -0.15
  -12    9   17     -0.86     -0.08
  -11    9   17     -0.83      0.08
  -10    9   17     -0.39      0.28
   -9    9   17     -0.16      0.45
   -8    9   17     -0.43      0.47
   -7    9   17     -0.70      0.35
   -6    9   17     -0.50      0.15
   -5    9   17     -0.13      0.03
   -4    9   17     -0.09      0.03
   -3    9   17     -0.24      0.07
   -2    9   17     -0.16      0.09
   -1    9   17      0.16      0.08
    0    9   17      0.36      0.04
    1    9   17      0.27      0.01
    2    9   17     -0.08      0.00
    3    9   17     -0.37      0.02
    4    9   17     -0.20      0.03
    5    9   17      0.37      0.00
    6    9   17      0.85     -0.02
    7    9   17      1.00     -0.01
    8    9   17      1.05      0.01
  -20   10   17      0.37     -0.02
  -19   10   17      0.39      0.00
  -18   10   17      0.55      0.01
  -17   10   17      0.80      0.01
  -16   10   17      0.93      0.03
  -15   10   17      0.83      0.06
  -14   10   17      0.59      0.10
  -13   10   17      0.32      0.16
  -12   10   17      0.09      0.21
  -11   10   17     -0.04      0.21
  -10   10   17     -0.08      0.15
   -9   10   17     -0.16      0.04
   -8   10   17     -0.24     -0.06
   -7   10   17     -0.10     -0.08
   -6   10   17      0.24     -0.05
   -5   10   17      0.37      0.00
   -4   10   17      0.23      0.02
   -3   10   17      0.24      0.01
   -2   10   17      0.53     -0.01
   -1   10   17      0.78     -0.01
    0   10   17      0.77      0.00
    1   10   17      0.65      0.03
    2   10   17      0.45      0.04
    3   10   17      0.10      0.02
    4   10   17     -0.30     -0.01
    5   10   17     -0.45     -0.02
    6   10   17     -0.24     -0.01
    7   10   17      0.06      0.01
  -19   11   17     -0.26      0.04
  -18   11   17     -0.16      0.01
  -17   11   17     -0.09     -0.02
  -16   11   17     -0.12     -0.01
  -15   11   17     -0.06      0.01
  -14   11   17      0.08      0.01
  -13   11   17     -0.08     -0.01
  -12   11   17     -0.49     -0.04
  -11   11   17     -0.48     -0.05
  -10   11   17      0.18     -0.01
   -9   11   17      0.72      0.08
   -8   11   17      0.64      0.15
   -7   11   17      0.34      0.14
   -6   11   17      0.26      0.06
   -5   11   17      0.25     -0.02
   -4   11   17      0.10     -0.06
   -3   11   17     -0.10     -0.05
   -2   11   17     -0.22     -0.02
   -1   11   17     -0.29      0.01
    0   11   17     -0.35      0.02
    1   11   17     -0.48      0.01
    2   11   17     -0.77     -0.02
    3   11   17     -1.07     -0.02
    4   11   17     -0.96     -0.01
    5   11   17     -0.34      0.00
    6   11   17      0.30      0.00
  -18   12   17      0.07     -0.05
  -17   12   17      0.46     -0.01
  -16   12   17      0.48      0.04
  -15   12   17      0.23      0.06
  -14   12   17     -0.02      0.00
  -13   12   17     -0.16     -0.12
  -12   12   17     -0.18     -0.19
  -11   12   17     -0.15     -0.16
  -10   12   17     -0.37     -0.08
   -9   12   17     -0.88     -0.04
   -8   12   17     -1.08     -0.09
   -7   12   17     -0.56     -0.15
   -6   12   17      0.17     -0.16
   -5   12   17      0.36     -0.12
   -4   12   17      0.06     -0.06
   -3   12   17     -0.10     -0.03
   -2   12   17      0.07     -0.01
   -1   12   17      0.19     -0.01
    0   12   17     -0.01     -0.02
    1   12   17     -0.40     -0.01
    2   12   17     -0.73      0.01
    3   12   17     -0.85      0.01
    4   12   17     -0.69      0.00
  -16   13   17     -0.10      0.01
  -15   13   17      0.41     -0.04
  -14   13   17      1.19     -0.08
  -13   13   17      1.30     -0.07
  -12   13   17      0.49      0.01
  -11   13   17     -0.39      0.09
  -10   13   17     -0.52      0.12
   -9   13   17     -0.01      0.09
   -8   13   17      0.50      0.08
   -7   13   17      0.59      0.08
   -6   13   17      0.27      0.09
   -5   13   17     -0.15      0.07
   -4   13   17     -0.30      0.03
   -3   13   17     -0.11      0.00
   -2   13   17      0.02      0.00
   -1   13   17     -0.22      0.02
    0   13   17     -0.64      0.05
    1   13   17     -0.83      0.05
    2   13   17     -0.74      0.03
  -14   14   17      0.59      0.03
  -13   14   17     -0.27      0.00
  -12   14   17     -1.04     -0.03
  -11   14   17     -1.11     -0.03
  -10   14   17     -0.64     -0.02
   -9   14   17     -0.31      0.00
   -8   14   17     -0.40     -0.02
   -7   14   17     -0.60     -0.06
   -6   14   17     -0.65     -0.08
   -5   14   17     -0.48     -0.08
   -4   14   17     -0.14     -0.07
   -3   14   17      0.22     -0.04
   -2   14   17      0.33     -0.02
   -1   14   17      0.21     -0.02
    0   14   17      0.16     -0.03
   -9   15   17      0.13     -0.03
   -8   15   17     -0.04     -0.03
   -7   15   17     -0.29      0.00
   -6   15   17     -0.34      0.03
   -5   15   17     -0.08      0.02
   -4   15   17      0.31      0.01
  -25    0   18     -0.60      0.00
  -24    0   18     -0.81      0.01
  -23    0   18     -0.57      0.01
  -22    0   18     -0.25     -0.01
  -21    0   18     -0.41     -0.04
  -20    0   18     -0.95     -0.07
  -19    0   18     -1.27     -0.07
  -18    0   18     -0.95     -0.06
  -17    0   18     -0.13     -0.06
  -16    0   18      0.72     -0.10
  -15    0   18      1.04     -0.19
  -14    0   18      0.50     -0.24
  -13    0   18     -0.54     -0.12
  -12    0   18     -1.41      0.11
  -11    0   18     -1.92      0.31
  -10    0   18     -2.30      0.33
   -9    0   18     -2.42      0.24
   -8    0   18     -1.86      0.15
   -7    0   18     -0.76      0.08
   -6    0   18      0.14      0.04
   -5    0   18      0.36      0.02
   -4    0   18     -0.04      0.01
   -3    0   18     -0.56      0.00
   -2    0   18     -0.80      0.00
   -1    0   18     -0.79      0.00
    0    0   18     -0.76      0.01
    1    0   18     -0.80      0.01
    2    0   18     -0.86      0.00
    3    0   18     -0.97      0.00
    4    0   18     -0.84      0.01
    5    0   18     -0.14      0.02
    6    0   18      0.88      0.02
    7    0   18      1.49      0.01
    8    0   18      1.34     -0.01
    9    0   18      0.72     -0.02
   10    0   18      0.05     -0.02
  -24    1   18     -0.53      0.01
  -23    1   18     -0.66      0.00
  -22    1   18     -0.63     -0.02
  -21    1   18     -0.47     -0.03
  -20    1   18     -0.15     -0.01
  -19    1   18      0.38      0.01
  -18    1   18      0.99      0.01
  -17    1   18      1.33     -0.01
  -16    1   18      1.11      0.00
  -15    1   18      0.45      0.01
  -14    1   18     -0.15      0.03
  -13    1   18     -0.28      0.06
  -12    1   18     -0.07      0.07
  -11    1   18      0.08      0.05
  -10    1   18      0.16      0.00
   -9    1   18      0.39     -0.03
   -8    1   18      0.69     -0.03
   -7    1   18      0.88     -0.02
   -6    1   18      0.95     -0.01
   -5    1   18      0.92      0.00
   -4    1   18      0.78      0.01
   -3    1   18      0.57      0.02
   -2    1   18      0.36      0.04
   -1    1   18      0.06      0.04
    0    1   18     -0.33      0.02
    1    1   18     -0.58     -0.01
    2    1   18     -0.55     -0.03
    3    1   18     -0.29     -0.04
    4    1   18      0.10     -0.03
    5    1   18      0.35     -0.02
    6    1   18      0.16     -0.02
    7    1   18     -0.46     -0.04
    8    1   18     -1.05     -0.06
    9    1   18     -1.17     -0.06
   10    1   18     -0.73     -0.04
  -24    2   18     -0.85      0.02
  -23    2   18     -0.63      0.00
  -22    2   18      0.04      0.00
  -21    2   18      0.60      0.01
  -20    2   18      0.76      0.02
  -19    2   18      0.63      0.00
  -18    2   18      0.42     -0.02
  -17    2   18      0.32     -0.01
  -16    2   18      0.31     -0.03
  -15    2   18      0.21     -0.11
  -14    2   18     -0.01     -0.17
  -13    2   18     -0.15     -0.08
  -12    2   18     -0.11      0.12
  -11    2   18     -0.07      0.28
  -10    2   18     -0.20      0.28
   -9    2   18     -0.25      0.18
   -8    2   18      0.25      0.07
   -7    2   18      1.16      0.01
   -6    2   18      1.61     -0.01
   -5    2   18      1.01      0.00
   -4    2   18     -0.17      0.02
   -3    2   18     -1.02      0.03
   -2    2   18     -1.30      0.03
   -1    2   18     -1.36      0.02
    0    2   18     -1.36      0.01
    1    2   18     -1.20      0.01
    2    2   18     -0.90      0.02
    3    2   18     -0.64      0.04
    4    2   18     -0.47      0.04
    5    2   18     -0.29      0.02
    6    2   18     -0.05      0.00
    7    2   18      0.30      0.00
    8    2   18      0.81      0.01
    9    2   18      1.45      0.02
   10    2   18      1.84      0.02
  -24    3   18     -0.71      0.00
  -23    3   18     -0.15      0.01
  -22    3   18      0.59      0.00
  -21    3   18      0.87     -0.01
  -20    3   18      0.57     -0.02
  -19    3   18      0.23     -0.01
  -18    3   18      0.42      0.01
  -17    3   18      0.88      0.01
  -16    3   18      0.86     -0.03
  -15    3   18      0.32     -0.07
  -14    3   18      0.03     -0.04
  -13    3   18      0.36      0.04
  -12    3   18      0.69      0.08
  -11    3   18      0.45      0.01
  -10    3   18      0.01     -0.13
   -9    3   18     -0.07     -0.23
   -8    3   18     -0.04     -0.23
   -7    3   18     -0.48     -0.13
   -6    3   18     -1.33     -0.05
   -5    3   18     -1.85     -0.01
   -4    3   18     -1.59      0.00
   -3    3   18     -0.84     -0.01
   -2    3   18     -0.27     -0.02
   -1    3   18     -0.22     -0.03
    0    3   18     -0.39     -0.04
    1    3   18     -0.28     -0.03
    2    3   18      0.13      0.00
    3    3   18      0.40      0.02
    4    3   18      0.28      0.01
    5    3   18      0.01     -0.01
    6    3   18     -0.07     -0.02
    7    3   18      0.12     -0.03
    8    3   18      0.48     -0.04
    9    3   18      0.76     -0.04
   10    3   18      0.69     -0.03
  -24    4   18     -0.19      0.02
  -23    4   18     -0.18      0.02
  -22    4   18     -0.30      0.03
  -21    4   18     -0.49      0.07
  -20    4   18     -0.51      0.10
  -19    4   18     -0.23      0.10
  -18    4   18      0.22      0.09
  -17    4   18      0.54      0.09
  -16    4   18      0.53      0.06
  -15    4   18      0.32      0.01
  -14    4   18      0.16      0.01
  -13    4   18      0.16      0.07
  -12    4   18      0.18      0.15
  -11    4   18      0.00      0.14
  -10    4   18     -0.48      0.06
   -9    4   18     -1.09      0.01
   -8    4   18     -1.30      0.03
   -7    4   18     -0.77      0.05
   -6    4   18      0.09      0.02
   -5    4   18      0.62     -0.03
   -4    4   18      0.69     -0.04
   -3    4   18      0.60     -0.02
   -2    4   18      0.47      0.00
   -1    4   18      0.27      0.01
    0    4   18      0.14      0.02
    1    4   18      0.07      0.03
    2    4   18     -0.25      0.03
    3    4   18     -0.83      0.01
    4    4   18     -1.08     -0.02
    5    4   18     -0.58     -0.04
    6    4   18      0.31     -0.03
    7    4   18      0.98     -0.02
    8    4   18      1.20     -0.01
    9    4   18      1.08     -0.01
  -23    5   18     -0.41      0.03
  -22    5   18      0.03      0.03
  -21    5   18      0.51      0.01
  -20    5   18      0.67     -0.01
  -19    5   18      0.57      0.00
  -18    5   18      0.51      0.03
  -17    5   18      0.40      0.05
  -16    5   18     -0.13      0.02
  -15    5   18     -0.86      0.00
  -14    5   18     -1.10      0.03
  -13    5   18     -0.74      0.10
  -12    5   18     -0.56      0.12
  -11    5   18     -1.06      0.07
  -10    5   18     -1.66      0.00
   -9    5   18     -1.47     -0.05
   -8    5   18     -0.45     -0.07
   -7    5   18      0.47     -0.09
   -6    5   18      0.57     -0.10
   -5    5   18      0.15     -0.09
   -4    5   18      0.04     -0.06
   -3    5   18      0.46     -0.02
   -2    5   18      0.84      0.00
   -1    5   18      0.67      0.00
    0    5   18      0.04     -0.02
    1    5   18     -0.49      0.00
    2    5   18     -0.40      0.03
    3    5   18      0.20      0.05
    4    5   18      0.69      0.06
    5    5   18      0.69      0.06
    6    5   18      0.42      0.05
    7    5   18      0.32      0.02
    8    5   18      0.45     -0.02
    9    5   18      0.53     -0.04
  -23    6   18     -0.42      0.00
  -22    6   18     -0.52      0.01
  -21    6   18     -0.56      0.03
  -20    6   18     -0.64      0.05
  -19    6   18     -0.74      0.07
  -18    6   18     -0.79      0.06
  -17    6   18     -0.83      0.03
  -16    6   18     -0.87     -0.03
  -15    6   18     -0.69     -0.06
  -14    6   18     -0.32     -0.03
  -13    6   18     -0.10      0.04
  -12    6   18     -0.15      0.07
  -11    6   18     -0.14      0.04
  -10    6   18      0.20     -0.02
   -9    6   18      0.73     -0.05
   -8    6   18      1.02     -0.03
   -7    6   18      0.83      0.00
   -6    6   18      0.38     -0.01
   -5    6   18      0.20     -0.01
   -4    6   18      0.40      0.01
   -3    6   18      0.46      0.04
   -2    6   18     -0.11      0.04
   -1    6   18     -0.95      0.02
    0    6   18     -1.15      0.00
    1    6   18     -0.48      0.01
    2    6   18      0.13      0.02
    3    6   18     -0.22      0.01
    4    6   18     -1.04     -0.02
    5    6   18     -1.22     -0.06
    6    6   18     -0.54     -0.09
    7    6   18      0.23     -0.11
    8    6   18      0.46     -0.09
  -22    7   18      0.01      0.02
  -21    7   18     -0.06      0.01
  -20    7   18     -0.40     -0.01
  -19    7   18     -0.77     -0.02
  -18    7   18     -0.84     -0.01
  -17    7   18     -0.55      0.01
  -16    7   18     -0.15      0.03
  -15    7   18      0.07      0.07
  -14    7   18      0.08      0.11
  -13    7   18      0.18      0.13
  -12    7   18      0.54      0.08
  -11    7   18      0.93      0.02
  -10    7   18      0.99     -0.02
   -9    7   18      0.73     -0.04
   -8    7   18      0.41     -0.09
   -7    7   18      0.24     -0.14
   -6    7   18      0.22     -0.16
   -5    7   18      0.17     -0.13
   -4    7   18     -0.08     -0.09
   -3    7   18     -0.40     -0.07
   -2    7   18     -0.42     -0.08
   -1    7   18     -0.02     -0.08
    0    7   18      0.31     -0.06
    1    7   18     -0.05     -0.01
    2    7   18     -0.95      0.02
    3    7   18     -1.49      0.01
    4    7   18     -1.11     -0.02
    5    7   18     -0.34     -0.03
    6    7   18      0.14      0.00
    7    7   18      0.25      0.02
    8    7   18      0.18      0.03
  -22    8   18     -1.65     -0.02
  -21    8   18     -1.73     -0.03
  -20    8   18     -1.47     -0.02
  -19    8   18     -0.92      0.01
  -18    8   18     -0.36      0.03
  -17    8   18     -0.08     -0.01
  -16    8   18     -0.20     -0.09
  -15    8   18     -0.46     -0.13
  -14    8   18     -0.41     -0.09
  -13    8   18      0.05     -0.01
  -12    8   18      0.43      0.05
  -11    8   18      0.32      0.05
  -10    8   18     -0.01     -0.02
   -9    8   18     -0.04     -0.10
   -8    8   18      0.26     -0.14
   -7    8   18      0.40     -0.11
   -6    8   18      0.14     -0.05
   -5    8   18     -0.19     -0.02
   -4    8   18     -0.09     -0.01
   -3    8   18      0.33     -0.02
   -2    8   18      0.52     -0.03
   -1    8   18      0.26     -0.03
    0    8   18     -0.07     -0.01
    1    8   18     -0.04      0.01
    2    8   18      0.37      0.01
    3    8   18      0.86     -0.02
    4    8   18      1.11     -0.03
    5    8   18      1.14     -0.02
    6    8   18      1.14     -0.02
    7    8   18      1.06     -0.04
  -21    9   18      0.65      0.03
  -20    9   18      0.72      0.06
  -19    9   18      0.49      0.06
  -18    9   18      0.09      0.04
  -17    9   18     -0.17      0.03
  -16    9   18     -0.06      0.08
  -15    9   18      0.26      0.19
  -14    9   18      0.45      0.28
  -13    9   18      0.42      0.23
  -12    9   18      0.39      0.03
  -11    9   18      0.56     -0.16
  -10    9   18      0.78     -0.20
   -9    9   18      0.79     -0.12
   -8    9   18      0.55     -0.02
   -7    9   18      0.27      0.02
   -6    9   18      0.24      0.00
   -5    9   18      0.51     -0.01
   -4    9   18      0.73     -0.02
   -3    9   18      0.53     -0.01
   -2    9   18      0.17     -0.01
   -1    9   18      0.18      0.01
    0    9   18      0.44      0.02
    1    9   18      0.42      0.02
    2    9   18      0.10      0.00
    3    9   18     -0.07     -0.02
    4    9   18      0.02     -0.01
    5    9   18      0.00      0.00
    6    9   18     -0.28      0.02
  -20   10   18     -0.78     -0.01
  -19   10   18     -0.63     -0.01
  -18   10   18     -0.24      0.00
  -17   10   18      0.13      0.01
  -16   10   18      0.17     -0.01
  -15   10   18     -0.13     -0.05
  -14   10   18     -0.26     -0.14
  -13   10   18      0.20     -0.20
  -12   10   18      0.86     -0.14
  -11   10   18      0.91      0.04
  -10   10   18      0.36      0.18
   -9   10   18      0.05      0.16
   -8   10   18      0.35      0.02
   -7   10   18      0.72     -0.08
   -6   10   18      0.67     -0.06
   -5   10   18      0.33      0.00
   -4   10   18      0.01      0.04
   -3   10   18     -0.15      0.03
   -2   10   18     -0.14     -0.01
   -1   10   18     -0.08     -0.03
    0   10   18     -0.13     -0.04
    1   10   18     -0.18     -0.03
    2   10   18      0.07     -0.01
    3   10   18      0.46     -0.01
    4   10   18      0.50     -0.01
    5   10   18      0.11      0.00
  -18   11   18     -0.08      0.03
  -17   11   18     -0.40      0.04
  -16   11   18     -0.67      0.04
  -15   11   18     -0.66      0.08
  -14   11   18     -0.37      0.12
  -13   11   18     -0.08      0.14
  -12   11   18     -0.13      0.09
  -11   11   18     -0.38     -0.02
  -10   11   18     -0.28     -0.11
   -9   11   18      0.34     -0.11
   -8   11   18      0.86     -0.04
   -7   11   18      0.69      0.06
   -6   11   18      0.14      0.12
   -5   11   18     -0.23      0.11
   -4   11   18     -0.44      0.06
   -3   11   18     -0.85      0.00
   -2   11   18     -1.40     -0.01
   -1   11   18     -1.64      0.01
    0   11   18     -1.39      0.03
    1   11   18     -0.84      0.03
    2   11   18     -0.24      0.00
    3   11   18      0.14     -0.02
    4   11   18      0.18     -0.01
  -17   12   18     -0.21      0.00
  -16   12   18     -0.29     -0.01
  -15   12   18     -0.60     -0.04
  -14   12   18     -0.90     -0.11
  -13   12   18     -0.87     -0.19
  -12   12   18     -0.62     -0.20
  -11   12   18     -0.46     -0.08
  -10   12   18     -0.40      0.07
   -9   12   18     -0.28      0.14
   -8   12   18     -0.22      0.09
   -7   12   18     -0.46      0.02
   -6   12   18     -0.83     -0.02
   -5   12   18     -1.05      0.00
   -4   12   18     -1.22      0.03
   -3   12   18     -1.50      0.05
   -2   12   18     -1.59      0.05
   -1   12   18     -1.21      0.03
    0   12   18     -0.57      0.01
    1   12   18     -0.05     -0.01
    2   12   18      0.28     -0.01
  -15   13   18     -1.28     -0.06
  -14   13   18     -0.95     -0.05
  -13   13   18     -0.35      0.01
  -12   13   18      0.04      0.08
  -11   13   18      0.02      0.09
  -10   13   18      0.06      0.04
   -9   13   18      0.50     -0.02
   -8   13   18      0.90     -0.04
   -7   13   18      0.85      0.00
   -6   13   18      0.60      0.04
   -5   13   18      0.48      0.07
   -4   13   18      0.28      0.05
   -3   13   18     -0.15      0.00
   -2   13   18     -0.58     -0.04
   -1   13   18     -0.72     -0.04
    0   13   18     -0.56     -0.02
  -11   14   18     -0.80     -0.08
  -10   14   18     -0.49     -0.06
   -9   14   18     -0.10     -0.01
   -8   14   18      0.01      0.01
   -7   14   18     -0.14     -0.01
   -6   14   18     -0.24     -0.03
   -5   14   18     -0.24     -0.04
   -4   14   18     -0.37     -0.02
   -3   14   18     -0.72      0.00
  -24    1   19      0.28     -0.02
  -23    1   19     -0.05     -0.02
  -22    1   19     -0.29     -0.02
  -21    1   19     -0.21     -0.05
  -20    1   19      0.04     -0.06
  -19    1   19      0.16     -0.03
  -18    1   19     -0.03      0.01
  -17    1   19     -0.54      0.01
  -16    1   19     -1.13     -0.01
  -15    1   19     -1.50      0.01
  -14    1   19     -1.61      0.05
  -13    1   19     -1.64      0.08
  -12    1   19     -1.56      0.10
  -11    1   19     -1.01      0.14
  -10    1   19      0.04      0.14
   -9    1   19      0.92      0.10
   -8    1   19      0.90      0.05
   -7    1   19      0.07      0.03
   -6    1   19     -0.80      0.03
   -5    1   19     -1.15      0.03
   -4    1   19     -1.02      0.01
   -3    1   19     -0.79     -0.01
   -2    1   19     -0.64     -0.02
   -1    1   19     -0.51     -0.03
    0    1   19     -0.21     -0.02
    1    1   19      0.25     -0.01
    2    1   19      0.68     -0.01
    3    1   19      0.82     -0.03
    4    1   19      0.54     -0.05
    5    1   19     -0.05     -0.03
    6    1   19     -0.61      0.00
    7    1   19     -0.93      0.01
    8    1   19     -1.15      0.00
    9    1   19     -1.28      0.00
  -24    2   19     -0.03     -0.03
  -23    2   19     -0.12     -0.03
  -22    2   19     -0.43     -0.01
  -21    2   19     -0.60     -0.01
  -20    2   19     -0.39     -0.01
  -19    2   19     -0.23     -0.01
  -18    2   19     -0.59     -0.01
  -17    2   19     -1.16      0.00
  -16    2   19     -1.18      0.02
  -15    2   19     -0.58      0.04
  -14    2   19      0.06      0.01
  -13    2   19      0.35     -0.06
  -12    2   19      0.58     -0.14
  -11    2   19      0.89     -0.16
  -10    2   19      0.87     -0.12
   -9    2   19      0.20     -0.05
   -8    2   19     -0.67     -0.01
   -7    2   19     -0.94      0.01
   -6    2   19     -0.43      0.00
   -5    2   19      0.29      0.00
   -4    2   19      0.55     -0.01
   -3    2   19      0.17     -0.01
   -2    2   19     -0.35      0.00
   -1    2   19     -0.38      0.00
    0    2   19      0.05     -0.01
    1    2   19      0.31     -0.02
    2    2   19      0.14     -0.02
    3    2   19     -0.17      0.00
    4    2   19     -0.34      0.02
    5    2   19     -0.34      0.03
    6    2   19     -0.17      0.02
    7    2   19      0.15      0.01
    8    2   19      0.44      0.01
  -24    3   19      0.12     -0.03
  -23    3   19     -0.13     -0.02
  -22    3   19     -0.12     -0.02
  -21    3   19      0.22     -0.04
  -20    3   19      0.53     -0.04
  -19    3   19      0.49     -0.01
  -18    3   19      0.21      0.02
  -17    3   19     -0.03      0.01
  -16    3   19     -0.11     -0.03
  -15    3   19      0.01     -0.07
  -14    3   19      0.23     -0.12
  -13    3   19      0.35     -0.17
  -12    3   19      0.23     -0.15
  -11    3   19      0.02     -0.06
  -10    3   19     -0.08      0.03
   -9    3   19     -0.06      0.05
   -8    3   19     -0.08      0.03
   -7    3   19     -0.28      0.01
   -6    3   19     -0.55      0.02
   -5    3   19     -0.70      0.03
   -4    3   19     -0.67      0.02
   -3    3   19     -0.53      0.00
   -2    3   19     -0.26     -0.01
   -1    3   19      0.03     -0.01
    0    3   19      0.05     -0.01
    1    3   19     -0.11      0.00
    2    3   19     -0.01      0.00
    3    3   19      0.30      0.00
    4    3   19      0.35     -0.01
    5    3   19      0.10     -0.01
    6    3   19     -0.06     -0.01
    7    3   19     -0.05      0.00
    8    3   19     -0.16     -0.01
  -23    4   19      0.61     -0.03
  -22    4   19      0.07     -0.02
  -21    4   19     -0.46     -0.02
  -20    4   19     -0.67     -0.01
  -19    4   19     -0.79     -0.01
  -18    4   19     -1.22     -0.03
  -17    4   19     -1.67     -0.05
  -16    4   19     -1.39     -0.06
  -15    4   19     -0.44     -0.05
  -14    4   19      0.16     -0.05
  -13    4   19     -0.07     -0.04
  -12    4   19     -0.47     -0.02
  -11    4   19     -0.40      0.02
  -10    4   19     -0.14      0.06
   -9    4   19     -0.18      0.09
   -8    4   19     -0.48      0.08
   -7    4   19     -0.45      0.04
   -6    4   19      0.28      0.00
   -5    4   19      1.39     -0.01
   -4    4   19      1.95     -0.01
   -3    4   19      1.50     -0.01
   -2    4   19      0.65     -0.02
   -1    4   19      0.35     -0.01
    0    4   19      0.78      0.01
    1    4   19      1.31      0.02
    2    4   19      1.23      0.01
    3    4   19      0.56      0.01
    4    4   19      0.01      0.00
    5    4   19      0.12      0.00
    6    4   19      0.67      0.00
    7    4   19      1.02      0.01
    8    4   19      0.88      0.01
  -23    5   19     -1.37      0.01
  -22    5   19     -1.42      0.01
  -21    5   19     -1.09     -0.01
  -20    5   19     -0.64     -0.02
  -19    5   19     -0.26     -0.01
  -18    5   19      0.07     -0.02
  -17    5   19      0.49     -0.03
  -16    5   19      0.82      0.00
  -15    5   19      0.62      0.03
  -14    5   19     -0.07      0.02
  -13    5   19     -0.57     -0.05
  -12    5   19     -0.43     -0.10
  -11    5   19      0.08     -0.08
  -10    5   19      0.45     -0.03
   -9    5   19      0.45     -0.01
   -8    5   19      0.28     -0.04
   -7    5   19      0.35     -0.08
   -6    5   19      0.73     -0.07
   -5    5   19      0.90     -0.03
   -4    5   19      0.45     -0.01
   -3    5   19     -0.03     -0.02
   -2    5   19      0.22     -0.03
   -1    5   19      0.91     -0.03
    0    5   19      0.96     -0.01
    1    5   19      0.10     -0.02
    2    5   19     -0.78     -0.03
    3    5   19     -0.88     -0.05
    4    5   19     -0.41     -0.04
    5    5   19     -0.07     -0.02
    6    5   19     -0.23      0.01
    7    5   19     -0.70      0.02
  -22    6   19     -0.18     -0.04
  -21    6   19     -0.17     -0.04
  -20    6   19      0.10     -0.03
  -19    6   19      0.36     -0.03
  -18    6   19      0.25     -0.03
  -17    6   19     -0.15     -0.02
  -16    6   19     -0.46     -0.02
  -15    6   19     -0.50     -0.05
  -14    6   19     -0.34     -0.11
  -13    6   19     -0.07     -0.13
  -12    6   19      0.25     -0.09
  -11    6   19      0.47     -0.02
  -10    6   19      0.42      0.04
   -9    6   19      0.08      0.05
   -8    6   19     -0.27      0.02
   -7    6   19     -0.36     -0.01
   -6    6   19     -0.20     -0.03
   -5    6   19      0.03     -0.03
   -4    6   19      0.26     -0.03
   -3    6   19      0.45     -0.03
   -2    6   19      0.36     -0.02
   -1    6   19     -0.05      0.00
    0    6   19     -0.38      0.01
    1    6   19     -0.30      0.00
    2    6   19      0.03     -0.01
    3    6   19      0.20     -0.01
    4    6   19      0.14      0.01
    5    6   19      0.12      0.02
    6    6   19      0.25      0.01
    7    6   19      0.44      0.00
  -22    7   19     -0.14      0.01
  -21    7   19      0.31      0.02
  -20    7   19      0.64      0.01
  -19    7   19      0.58     -0.01
  -18    7   19      0.22     -0.04
  -17    7   19     -0.02     -0.02
  -16    7   19     -0.02      0.07
  -15    7   19     -0.14      0.15
  -14    7   19     -0.65      0.16
  -13    7   19     -1.15      0.10
  -12    7   19     -1.06      0.05
  -11    7   19     -0.42      0.05
  -10    7   19      0.02      0.09
   -9    7   19     -0.28      0.10
   -8    7   19     -1.00      0.04
   -7    7   19     -1.28     -0.03
   -6    7   19     -0.79     -0.04
   -5    7   19     -0.15      0.00
   -4    7   19     -0.01      0.03
   -3    7   19     -0.19      0.02
   -2    7   19      0.02      0.01
   -1    7   19      0.69      0.00
    0    7   19      1.15      0.01
    1    7   19      0.90      0.01
    2    7   19      0.28      0.01
    3    7   19     -0.08      0.00
    4    7   19     -0.04     -0.02
    5    7   19      0.09     -0.03
    6    7   19      0.02     -0.02
  -21    8   19     -0.19      0.00
  -20    8   19     -0.50     -0.01
  -19    8   19     -0.72     -0.02
  -18    8   19     -0.73      0.01
  -17    8   19     -0.63      0.05
  -16    8   19     -0.80      0.01
  -15    8   19     -1.29     -0.13
  -14    8   19     -1.53     -0.30
  -13    8   19     -1.10     -0.33
  -12    8   19     -0.39     -0.20
  -11    8   19     -0.26     -0.03
  -10    8   19     -0.94      0.03
   -9    8   19     -1.70     -0.01
   -8    8   19     -1.66     -0.05
   -7    8   19     -0.85     -0.05
   -6    8   19     -0.16     -0.01
   -5    8   19     -0.12      0.00
   -4    8   19     -0.19     -0.01
   -3    8   19      0.19     -0.02
   -2    8   19      0.53     -0.01
   -1    8   19      0.07      0.01
    0    8   19     -0.94      0.01
    1    8   19     -1.58     -0.01
    2    8   19     -1.44     -0.04
    3    8   19     -0.92     -0.04
    4    8   19     -0.51     -0.02
    5    8   19     -0.36      0.00
  -20    9   19      0.04      0.04
  -19    9   19      0.34      0.01
  -18    9   19      0.31     -0.01
  -17    9   19      0.01      0.01
  -16    9   19     -0.23      0.06
  -15    9   19     -0.17      0.14
  -14    9   19     -0.04      0.23
  -13    9   19     -0.18      0.30
  -12    9   19     -0.40      0.26
  -11    9   19     -0.22      0.11
  -10    9   19      0.31     -0.04
   -9    9   19      0.64     -0.10
   -8    9   19      0.52     -0.09
   -7    9   19      0.15     -0.07
   -6    9   19     -0.26     -0.06
   -5    9   19     -0.56     -0.06
   -4    9   19     -0.70     -0.06
   -3    9   19     -0.79     -0.04
   -2    9   19     -0.90     -0.02
   -1    9   19     -0.81     -0.01
    0    9   19     -0.32     -0.01
    1    9   19      0.31      0.00
    2    9   19      0.60      0.01
    3    9   19      0.39      0.03
    4    9   19     -0.02      0.02
  -19   10   19      0.29     -0.02
  -18   10   19      0.05      0.01
  -17   10   19     -0.36      0.02
  -16   10   19     -0.79     -0.07
  -15   10   19     -1.07     -0.29
  -14   10   19     -1.16     -0.53
  -13   10   19     -1.00     -0.62
  -12   10   19     -0.56     -0.46
  -11   10   19     -0.20     -0.17
  -10   10   19     -0.37      0.06
   -9   10   19     -0.91      0.14
   -8   10   19     -1.21      0.11
   -7   10   19     -1.08      0.05
   -6   10   19     -0.89      0.01
   -5   10   19     -0.83      0.01
   -4   10   19     -0.56      0.03
   -3   10   19      0.12      0.06
   -2   10   19      0.87      0.07
   -1   10   19      1.12      0.05
    0   10   19      0.80      0.01
    1   10   19      0.25     -0.01
    2   10   19     -0.23     -0.01
    3   10   19     -0.44      0.00
  -17   11   19     -0.55     -0.03
  -16   11   19     -0.21     -0.08
  -15   11   19      0.51     -0.01
  -14   11   19      0.77      0.25
  -13   11   19      0.31      0.62
  -12   11   19     -0.20      0.84
  -11   11   19     -0.14      0.74
  -10   11   19      0.31      0.42
   -9   11   19      0.63      0.12
   -8   11   19      0.63     -0.01
   -7   11   19      0.49     -0.02
   -6   11   19      0.30      0.01
   -5   11   19      0.12      0.03
   -4   11   19      0.11      0.02
   -3   11   19      0.28      0.00
   -2   11   19      0.28      0.00
   -1   11   19      0.08      0.00
    0   11   19      0.05      0.00
    1   11   19      0.33      0.00
    2   11   19      0.56      0.01
  -15   12   19      0.12      0.09
  -14   12   19     -0.41      0.08
  -13   12   19     -0.79      0.01
  -12   12   19     -0.43     -0.09
  -11   12   19      0.54     -0.15
  -10   12   19      1.20     -0.16
   -9   12   19      0.98     -0.11
   -8   12   19      0.28     -0.05
   -7   12   19     -0.28     -0.03
   -6   12   19     -0.58     -0.03
   -5   12   19     -0.64     -0.04
   -4   12   19     -0.38     -0.03
   -3   12   19      0.11      0.00
   -2   12   19      0.52      0.01
   -1   12   19      0.78      0.00
    0   12   19      0.92     -0.01
  -12   13   19      0.60      0.21
  -11   13   19      1.25      0.19
  -10   13   19      1.26      0.09
   -9   13   19      0.60      0.00
   -8   13   19      0.08     -0.03
   -7   13   19      0.20     -0.02
   -6   13   19      0.56      0.00
   -5   13   19      0.66      0.00
   -4   13   19      0.49      0.00
   -3   13   19      0.31     -0.01
  -23    0   20      0.14     -0.02
  -22    0   20      0.17     -0.02
  -21    0   20      0.00     -0.01
  -20    0   20     -0.22      0.02
  -19    0   20     -0.46      0.04
  -18    0   20     -0.59      0.04
  -17    0   20     -0.38      0.01
  -16    0   20      0.12     -0.02
  -15    0   20      0.65      0.00
  -14    0   20      1.24      0.09
  -13    0   20      1.98      0.18
  -12    0   20      2.56      0.16
  -11    0   20      2.50      0.05
  -10    0   20      1.76     -0.05
   -9    0   20      0.82     -0.07
   -8    0   20      0.20     -0.05
   -7    0   20      0.02     -0.05
   -6    0   20     -0.01     -0.05
   -5    0   20     -0.14     -0.04
   -4    0   20     -0.28     -0.01
   -3    0   20     -0.19      0.00
   -2    0   20      0.21      0.01
   -1    0   20      0.69      0.01
    0    0   20      0.80      0.01
    1    0   20      0.29      0.00
    2    0   20     -0.57      0.00
    3    0   20     -1.21      0.01
    4    0   20     -1.36      0.02
    5    0   20     -1.13      0.01
    6    0   20     -0.72     -0.01
    7    0   20     -0.15     -0.01
  -23    1   20      0.43      0.03
  -22    1   20      0.44      0.01
  -21    1   20      0.27      0.00
  -20    1   20      0.00      0.00
  -19    1   20     -0.10      0.01
  -18    1   20      0.10      0.01
  -17    1   20      0.35     -0.01
  -16    1   20      0.37     -0.03
  -15    1   20      0.26     -0.04
  -14    1   20      0.17     -0.02
  -13    1   20     -0.08      0.00
  -12    1   20     -0.66      0.00
  -11    1   20     -1.37     -0.01
  -10    1   20     -1.79     -0.02
   -9    1   20     -1.74      0.00
   -8    1   20     -1.34      0.02
   -7    1   20     -0.91      0.02
   -6    1   20     -0.71      0.01
   -5    1   20     -0.73      0.00
   -4    1   20     -0.75     -0.01
   -3    1   20     -0.66     -0.04
   -2    1   20     -0.51     -0.06
   -1    1   20     -0.45     -0.05
    0    1   20     -0.48     -0.03
    1    1   20     -0.45     -0.01
    2    1   20     -0.31      0.00
    3    1   20     -0.16      0.00
    4    1   20      0.00      0.01
    5    1   20      0.27      0.01
    6    1   20      0.59      0.00
    7    1   20      0.74     -0.01
  -23    2   20     -0.34      0.00
  -22    2   20     -0.66      0.01
  -21    2   20     -0.93      0.05
  -20    2   20     -0.93      0.09
  -19    2   20     -0.74      0.09
  -18    2   20     -0.60      0.06
  -17    2   20     -0.57     -0.01
  -16    2   20     -0.57     -0.04
  -15    2   20     -0.57     -0.01
  -14    2   20     -0.58      0.09
  -13    2   20     -0.55      0.16
  -12    2   20     -0.44      0.12
  -11    2   20     -0.38      0.01
  -10    2   20     -0.39     -0.07
   -9    2   20     -0.32     -0.05
   -8    2   20     -0.14      0.00
   -7    2   20      0.00      0.01
   -6    2   20      0.00      0.00
   -5    2   20     -0.09     -0.01
   -4    2   20     -0.23     -0.02
   -3    2   20     -0.31     -0.01
   -2    2   20     -0.17      0.00
   -1    2   20      0.18      0.02
    0    2   20      0.51      0.01
    1    2   20      0.49     -0.01
    2    2   20      0.13     -0.02
    3    2   20     -0.12     -0.01
    4    2   20      0.11      0.00
    5    2   20      0.50      0.01
    6    2   20      0.51      0.00
    7    2   20      0.17     -0.01
  -23    3   20     -0.31      0.03
  -22    3   20      0.04      0.03
  -21    3   20      0.25      0.06
  -20    3   20      0.10      0.08
  -19    3   20     -0.14      0.05
  -18    3   20     -0.14     -0.01
  -17    3   20     -0.11     -0.03
  -16    3   20     -0.35     -0.01
  -15    3   20     -0.66      0.02
  -14    3   20     -0.61      0.04
  -13    3   20     -0.29      0.03
  -12    3   20     -0.17      0.01
  -11    3   20     -0.29      0.01
  -10    3   20     -0.25      0.04
   -9    3   20      0.19      0.04
   -8    3   20      0.89      0.02
   -7    3   20      1.40      0.00
   -6    3   20      1.25     -0.01
   -5    3   20      0.36     -0.02
   -4    3   20     -0.61     -0.03
   -3    3   20     -0.88     -0.04
   -2    3   20     -0.44     -0.03
   -1    3   20      0.04     -0.02
    0    3   20      0.17      0.00
    1    3   20      0.19      0.01
    2    3   20      0.33      0.01
    3    3   20      0.52      0.00
    4    3   20      0.53     -0.01
    5    3   20      0.24     -0.03
    6    3   20     -0.21     -0.05
    7    3   20     -0.53     -0.05
  -22    4   20      0.19      0.03
  -21    4   20     -0.05      0.04
  -20    4   20     -0.24      0.02
  -19    4   20     -0.13     -0.02
  -18    4   20      0.01     -0.05
  -17    4   20     -0.13     -0.06
  -16    4   20     -0.35     -0.08
  -15    4   20     -0.18     -0.07
  -14    4   20      0.42     -0.04
  -13    4   20      0.85      0.01
  -12    4   20      0.70      0.02
  -11    4   20      0.18     -0.01
  -10    4   20     -0.10     -0.03
   -9    4   20      0.12     -0.01
   -8    4   20      0.37      0.03
   -7    4   20     -0.04      0.05
   -6    4   20     -1.08      0.04
   -5    4   20     -1.88      0.03
   -4    4   20     -1.82      0.02
   -3    4   20     -1.33      0.02
   -2    4   20     -1.11      0.02
   -1    4   20     -1.12      0.02
    0    4   20     -0.89      0.00
    1    4   20     -0.50     -0.02
    2    4   20     -0.35     -0.04
    3    4   20     -0.42     -0.03
    4    4   20     -0.36     -0.03
    5    4   20     -0.14     -0.03
    6    4   20      0.05     -0.02
  -22    5   20     -0.13      0.02
  -21    5   20     -0.03      0.02
  -20    5   20     -0.12      0.03
  -19    5   20     -0.20      0.03
  -18    5   20     -0.12      0.01
  -17    5   20      0.00      0.00
  -16    5   20      0.00      0.00
  -15    5   20     -0.13      0.02
  -14    5   20     -0.32      0.03
  -13    5   20     -0.64      0.01
  -12    5   20     -1.01      0.00
  -11    5   20     -1.15      0.00
  -10    5   20     -0.91     -0.01
   -9    5   20     -0.56     -0.04
   -8    5   20     -0.41     -0.06
   -7    5   20     -0.38     -0.05
   -6    5   20     -0.28     -0.02
   -5    5   20     -0.29      0.00
   -4    5   20     -0.52     -0.01
   -3    5   20     -0.65     -0.02
   -2    5   20     -0.35     -0.02
   -1    5   20      0.23     -0.01
    0    5   20      0.59      0.00
    1    5   20      0.52      0.00
    2    5   20      0.27     -0.01
    3    5   20      0.24     -0.03
    4    5   20      0.49     -0.05
    5    5   20      0.75     -0.04
    6    5   20      0.82     -0.02
  -21    6   20      0.57      0.01
  -20    6   20      0.39     -0.01
  -19    6   20      0.29     -0.01
  -18    6   20      0.13      0.01
  -17    6   20     -0.46      0.01
  -16    6   20     -1.37     -0.03
  -15    6   20     -1.85     -0.07
  -14    6   20     -1.35     -0.06
  -13    6   20     -0.34      0.02
  -12    6   20      0.22      0.09
  -11    6   20      0.00      0.09
  -10    6   20     -0.38      0.03
   -9    6   20     -0.11      0.00
   -8    6   20      0.84      0.00
   -7    6   20      1.60      0.02
   -6    6   20      1.49      0.00
   -5    6   20      0.94     -0.04
   -4    6   20      0.79     -0.07
   -3    6   20      1.01     -0.05
   -2    6   20      0.94     -0.03
   -1    6   20      0.43     -0.02
    0    6   20     -0.09     -0.04
    1    6   20     -0.31     -0.06
    2    6   20     -0.20     -0.06
    3    6   20      0.15     -0.03
    4    6   20      0.48      0.01
    5    6   20      0.49      0.03
  -21    7   20     -0.26      0.02
  -20    7   20     -0.58      0.03
  -19    7   20     -0.90      0.04
  -18    7   20     -1.16      0.02
  -17    7   20     -1.31     -0.01
  -16    7   20     -1.12     -0.01
  -15    7   20     -0.35      0.07
  -14    7   20      0.56      0.15
  -13    7   20      0.81      0.16
  -12    7   20      0.26      0.08
  -11    7   20     -0.25      0.00
  -10    7   20      0.03     -0.04
   -9    7   20      0.89     -0.02
   -8    7   20      1.43      0.01
   -7    7   20      1.16      0.03
   -6    7   20      0.54      0.03
   -5    7   20      0.16      0.03
   -4    7   20     -0.04      0.05
   -3    7   20     -0.41      0.06
   -2    7   20     -0.73      0.06
   -1    7   20     -0.63      0.03
    0    7   20     -0.26      0.01
    1    7   20      0.07      0.01
    2    7   20      0.25      0.03
    3    7   20      0.22      0.03
    4    7   20     -0.01      0.02
    5    7   20     -0.15      0.01
  -20    8   20     -0.38     -0.01
  -19    8   20     -0.59      0.01
  -18    8   20     -0.63      0.05
  -17    8   20     -0.60      0.08
  -16    8   20     -0.49      0.06
  -15    8   20     -0.18     -0.01
  -14    8   20      0.29     -0.07
  -13    8   20      0.67     -0.08
  -12    8   20      0.65     -0.03
  -11    8   20      0.24      0.03
  -10    8   20     -0.16      0.04
   -9    8   20     -0.21      0.02
   -8    8   20     -0.02      0.01
   -7    8   20      0.13      0.02
   -6    8   20      0.24      0.00
   -5    8   20      0.49     -0.02
   -4    8   20      0.84     -0.04
   -3    8   20      1.21     -0.04
   -2    8   20      1.47     -0.04
   -1    8   20      1.42     -0.03
    0    8   20      0.96     -0.03
    1    8   20      0.28     -0.03
    2    8   20     -0.26     -0.03
    3    8   20     -0.41     -0.03
    4    8   20     -0.13     -0.02
  -19    9   20     -0.93     -0.02
  -18    9   20     -0.77     -0.06
  -17    9   20     -0.39     -0.14
  -16    9   20      0.22     -0.19
  -15    9   20      0.91     -0.10
  -14    9   20      1.33      0.09
  -13    9   20      1.13      0.24
  -12    9   20      0.40      0.23
  -11    9   20     -0.12      0.10
  -10    9   20      0.22      0.00
   -9    9   20      1.19     -0.01
   -8    9   20      1.88      0.03
   -7    9   20      1.93      0.04
   -6    9   20      1.76      0.02
   -5    9   20      1.61      0.00
   -4    9   20      1.28     -0.01
   -3    9   20      0.64      0.00
   -2    9   20     -0.03      0.01
   -1    9   20     -0.43     -0.01
    0    9   20     -0.48     -0.01
    1    9   20     -0.26      0.00
    2    9   20      0.11      0.01
    3    9   20      0.36      0.02
  -17   10   20      0.29      0.03
  -16   10   20      0.31      0.10
  -15   10   20      0.06      0.15
  -14   10   20     -0.19      0.10
  -13   10   20     -0.21     -0.05
  -12   10   20     -0.02     -0.20
  -11   10   20      0.29     -0.26
  -10   10   20      0.57     -0.21
   -9   10   20      0.51     -0.11
   -8   10   20     -0.06     -0.04
   -7   10   20     -0.75     -0.02
   -6   10   20     -0.98     -0.02
   -5   10   20     -0.73     -0.02
   -4   10   20     -0.35      0.00
   -3   10   20      0.10      0.02
   -2   10   20      0.78      0.01
   -1   10   20      1.44      0.01
    0   10   20      1.55      0.00
    1   10   20      1.03      0.00
  -16   11   20      0.10     -0.08
  -15   11   20      0.45     -0.05
  -14   11   20      0.93      0.02
  -13   11   20      1.36      0.09
  -12   11   20      1.43      0.12
  -11   11   20      1.09      0.11
  -10   11   20      0.63      0.09
   -9   11   20      0.26      0.07
   -8   11   20      0.05      0.05
   -7   11   20      0.21      0.02
   -6   11   20      0.78      0.01
   -5   11   20      1.32      0.01
   -4   11   20      1.47      0.00
   -3   11   20      1.40     -0.01
   -2   11   20      1.30     -0.02
   -1   11   20      1.02     -0.02
  -13   12   20      0.10     -0.03
  -12   12   20      0.14     -0.17
  -11   12   20     -0.11     -0.23
  -10   12   20     -0.29     -0.19
   -9   12   20     -0.30     -0.12
   -8   12   20     -0.35     -0.06
   -7   12   20     -0.46     -0.03
   -6   12   20     -0.47     -0.02
   -5   12   20     -0.42     -0.02
   -4   12   20     -0.33     -0.02
   -3   12   20     -0.13     -0.02
  -22    1   21      0.50      0.05
  -21    1   21      0.45      0.06
  -20    1   21      0.08      0.01
  -19    1   21     -0.24     -0.06
  -18    1   21     -0.13     -0.11
  -17    1   21      0.28     -0.08
  -16    1   21      0.64      0.00
  -15    1   21      0.70      0.05
  -14    1   21      0.41      0.03
  -13    1   21      0.01     -0.01
  -12    1   21     -0.21      0.00
  -11    1   21     -0.22      0.04
  -10    1   21     -0.27      0.05
   -9    1   21     -0.46      0.01
   -8    1   21     -0.68     -0.03
   -7    1   21     -0.81     -0.03
   -6    1   21     -0.77     -0.01
   -5    1   21     -0.33      0.00
   -4    1   21      0.49      0.02
   -3    1   21      1.27      0.03
   -2    1   21      1.45      0.01
   -1    1   21      0.96     -0.02
    0    1   21      0.28     -0.01
    1    1   21     -0.05      0.00
    2    1   21     -0.04      0.01
    3    1   21     -0.09     -0.01
    4    1   21     -0.29     -0.01
    5    1   21     -0.36     -0.01
  -22    2   21     -0.63     -0.01
  -21    2   21     -0.73     -0.03
  -20    2   21     -0.65     -0.04
  -19    2   21     -0.60     -0.03
  -18    2   21     -0.56      0.01
  -17    2   21     -0.23      0.04
  -16    2   21      0.32      0.03
  -15    2   21      0.54      0.00
  -14    2   21      0.17     -0.04
  -13    2   21     -0.32     -0.04
  -12    2   21     -0.44     -0.01
  -11    2   21     -0.29      0.00
  -10    2   21     -0.05     -0.02
   -9    2   21      0.23     -0.05
   -8    2   21      0.32     -0.05
   -7    2   21      0.05     -0.03
   -6    2   21     -0.32     -0.01
   -5    2   21     -0.45      0.01
   -4    2   21     -0.36      0.01
   -3    2   21     -0.24      0.01
   -2    2   21     -0.09      0.02
   -1    2   21      0.10      0.03
    0    2   21      0.21      0.05
    1    2   21      0.17      0.05
    2    2   21      0.06      0.03
    3    2   21     -0.01     -0.01
    4    2   21      0.03     -0.03
    5    2   21      0.10     -0.02
  -22    3   21     -0.02      0.05
  -21    3   21     -0.01      0.05
  -20    3   21     -0.11      0.04
  -19    3   21     -0.20     -0.01
  -18    3   21      0.01     -0.06
  -17    3   21      0.55     -0.05
  -16    3   21      1.02      0.01
  -15    3   21      0.86      0.05
  -14    3   21      0.14      0.04
  -13    3   21     -0.50      0.02
  -12    3   21     -0.52      0.04
  -11    3   21     -0.04      0.08
  -10    3   21      0.28      0.08
   -9    3   21     -0.06      0.05
   -8    3   21     -0.79      0.03
   -7    3   21     -1.06      0.03
   -6    3   21     -0.55      0.04
   -5    3   21      0.32      0.03
   -4    3   21      1.11      0.01
   -3    3   21      1.72      0.01
   -2    3   21      1.98      0.02
   -1    3   21      1.70      0.01
    0    3   21      1.09      0.00
    1    3   21      0.60     -0.02
    2    3   21      0.39     -0.03
    3    3   21      0.19     -0.02
    4    3   21     -0.19      0.00
    5    3   21     -0.58      0.02
  -22    4   21     -1.26      0.02
  -21    4   21     -1.25     -0.01
  -20    4   21     -0.91     -0.06
  -19    4   21     -0.61     -0.06
  -18    4   21     -0.39      0.00
  -17    4   21     -0.06      0.07
  -16    4   21      0.15      0.07
  -15    4   21     -0.04      0.00
  -14    4   21     -0.28     -0.04
  -13    4   21     -0.04     -0.02
  -12    4   21      0.51      0.02
  -11    4   21      0.63      0.00
  -10    4   21      0.16     -0.05
   -9    4   21     -0.28     -0.08
   -8    4   21     -0.25     -0.05
   -7    4   21     -0.16     -0.01
   -6    4   21     -0.50      0.02
   -5    4   21     -0.98      0.03
   -4    4   21     -1.06      0.02
   -3    4   21     -0.68      0.03
   -2    4   21     -0.25      0.03
   -1    4   21     -0.09      0.03
    0    4   21     -0.33      0.02
    1    4   21     -0.76      0.01
    2    4   21     -1.00      0.02
    3    4   21     -0.93      0.02
    4    4   21     -0.75      0.01
    5    4   21     -0.66      0.00
  -21    5   21      0.06     -0.01
  -20    5   21      0.05      0.02
  -19    5   21     -0.26      0.04
  -18    5   21     -0.61      0.04
  -17    5   21     -0.55      0.02
  -16    5   21      0.02      0.02
  -15    5   21      0.74      0.02
  -14    5   21      1.06      0.02
  -13    5   21      0.76      0.01
  -12    5   21      0.18      0.01
  -11    5   21     -0.14      0.00
  -10    5   21     -0.15     -0.02
   -9    5   21     -0.28     -0.02
   -8    5   21     -0.74     -0.01
   -7    5   21     -1.15      0.02
   -6    5   21     -0.98      0.04
   -5    5   21     -0.23      0.05
   -4    5   21      0.64      0.04
   -3    5   21      1.24      0.02
   -2    5   21      1.35      0.00
   -1    5   21      0.87     -0.01
    0    5   21      0.17     -0.01
    1    5   21     -0.09      0.01
    2    5   21      0.18      0.02
    3    5   21      0.34      0.01
    4    5   21      0.13      0.00
  -20    6   21     -1.16     -0.01
  -19    6   21     -1.00     -0.01
  -18    6   21     -0.43      0.00
  -17    6   21      0.45      0.02
  -16    6   21      1.09      0.00
  -15    6   21      0.99     -0.03
  -14    6   21      0.36     -0.03
  -13    6   21     -0.05      0.00
  -12    6   21      0.01      0.02
  -11    6   21      0.11     -0.02
  -10    6   21     -0.08     -0.05
   -9    6   21     -0.26     -0.03
   -8    6   21     -0.10      0.02
   -7    6   21      0.26      0.06
   -6    6   21      0.45      0.06
   -5    6   21      0.43      0.04
   -4    6   21      0.40      0.00
   -3    6   21      0.40     -0.01
   -2    6   21      0.24      0.00
   -1    6   21     -0.07      0.02
    0    6   21     -0.28      0.03
    1    6   21     -0.26      0.03
    2    6   21     -0.10      0.03
    3    6   21      0.13      0.02
  -20    7   21     -0.13      0.02
  -19    7   21      0.17      0.05
  -18    7   21      0.30      0.05
  -17    7   21      0.36      0.03
  -16    7   21      0.50      0.03
  -15    7   21      0.71      0.04
  -14    7   21      0.80      0.04
  -13    7   21      0.63     -0.02
  -12    7   21      0.38     -0.11
  -11    7   21      0.37     -0.15
  -10    7   21      0.65     -0.11
   -9    7   21      0.94     -0.04
   -8    7   21      0.97     -0.03
   -7    7   21      0.80     -0.05
   -6    7   21      0.63     -0.08
   -5    7   21      0.55     -0.07
   -4    7   21      0.53     -0.05
   -3    7   21      0.46     -0.03
   -2    7   21      0.21     -0.01
   -1    7   21     -0.17      0.00
    0    7   21     -0.35      0.01
    1    7   21     -0.08      0.01
    2    7   21      0.36      0.00
    3    7   21      0.46     -0.02
  -19    8   21      0.41     -0.04
  -18    8   21      0.53     -0.05
  -17    8   21      0.77     -0.04
  -16    8   21      0.93     -0.04
  -15    8   21      0.68     -0.04
  -14    8   21      0.04     -0.04
  -13    8   21     -0.39     -0.02
  -12    8   21     -0.13      0.03
  -11    8   21      0.58      0.08
  -10    8   21      1.06      0.09
   -9    8   21      0.99      0.04
   -8    8   21      0.58     -0.05
   -7    8   21      0.14     -0.11
   -6    8   21     -0.17     -0.10
   -5    8   21     -0.28     -0.04
   -4    8   21     -0.22      0.00
   -3    8   21     -0.18      0.01
   -2    8   21     -0.33      0.01
   -1    8   21     -0.43      0.02
    0    8   21     -0.28      0.02
    1    8   21     -0.06      0.00
    2    8   21     -0.02      0.00
  -17    9   21      0.38      0.03
  -16    9   21      0.43      0.06
  -15    9   21      0.05      0.10
  -14    9   21     -0.35      0.13
  -13    9   21     -0.18      0.09
  -12    9   21      0.45     -0.01
  -11    9   21      0.73     -0.12
  -10    9   21      0.20     -0.16
   -9    9   21     -0.63     -0.14
   -8    9   21     -0.93     -0.08
   -7    9   21     -0.61     -0.01
   -6    9   21     -0.20      0.05
   -5    9   21     -0.03      0.07
   -4    9   21      0.00      0.05
   -3    9   21     -0.06      0.03
   -2    9   21     -0.38      0.01
   -1    9   21     -0.80      0.00
    0    9   21     -0.91      0.00
  -16   10   21     -0.19      0.08
  -15   10   21     -0.69      0.10
  -14   10   21     -0.80      0.06
  -13   10   21     -0.52     -0.01
  -12   10   21     -0.22     -0.06
  -11   10   21     -0.17     -0.06
  -10   10   21     -0.30     -0.02
   -9   10   21     -0.29      0.01
   -8   10   21     -0.11      0.02
   -7   10   21     -0.11      0.01
   -6   10   21     -0.44      0.00
   -5   10   21     -0.68     -0.01
   -4   10   21     -0.61     -0.01
   -3   10   21     -0.63     -0.02
   -2   10   21     -0.93     -0.03
   -1   10   21     -0.99     -0.02
  -13   11   21      0.49     -0.20
  -12   11   21      0.89     -0.21
  -11   11   21      0.82     -0.18
  -10   11   21      0.10     -0.11
   -9   11   21     -0.61     -0.05
   -8   11   21     -0.65     -0.02
   -7   11   21     -0.24     -0.01
   -6   11   21      0.09      0.00
   -5   11   21      0.27      0.01
   -4   11   21      0.36      0.00
  -21    0   22     -0.04      0.01
  -20    0   22      0.30      0.01
  -19    0   22      0.45      0.03
  -18    0   22      0.23      0.06
  -17    0   22     -0.24      0.06
  -16    0   22     -0.62      0.03
  -15    0   22     -0.51      0.01
  -14    0   22      0.06      0.03
  -13    0   22      0.57      0.05
  -12    0   22      0.49      0.03
  -11    0   22     -0.07      0.00
  -10    0   22     -0.50     -0.01
   -9    0   22     -0.52      0.00
   -8    0   22     -0.31      0.02
   -7    0   22     -0.05      0.04
   -6    0   22      0.05      0.06
   -5    0   22     -0.34      0.04
   -4    0   22     -1.22      0.01
   -3    0   22     -2.00     -0.01
   -2    0   22     -2.11      0.01
   -1    0   22     -1.64      0.02
    0    0   22     -1.01      0.01
    1    0   22     -0.55      0.00
    2    0   22     -0.27      0.01
    3    0   22      0.04      0.01
    4    0   22      0.33      0.01
  -21    1   22      0.42      0.05
  -20    1   22      0.16      0.00
  -19    1   22      0.00     -0.05
  -18    1   22     -0.05     -0.06
  -17    1   22     -0.07     -0.04
  -16    1   22     -0.03     -0.02
  -15    1   22      0.15      0.02
  -14    1   22      0.36      0.05
  -13    1   22      0.38      0.06
  -12    1   22      0.26      0.02
  -11    1   22      0.24     -0.02
  -10    1   22      0.36     -0.04
   -9    1   22      0.35     -0.04
   -8    1   22      0.14     -0.03
   -7    1   22     -0.06     -0.02
   -6    1   22     -0.07     -0.02
   -5    1   22      0.17     -0.03
   -4    1   22      0.74     -0.02
   -3    1   22      1.40      0.00
   -2    1   22      1.72      0.01
   -1    1   22      1.59      0.01
    0    1   22      1.21      0.00
    1    1   22      0.74     -0.01
    2    1   22      0.25      0.00
    3    1   22     -0.11      0.01
    4    1   22     -0.30      0.02
  -21    2   22     -0.03     -0.15
  -20    2   22      0.46     -0.19
  -19    2   22      0.96     -0.14
  -18    2   22      1.09     -0.03
  -17    2   22      0.76      0.04
  -16    2   22      0.27      0.04
  -15    2   22      0.10      0.04
  -14    2   22      0.33      0.05
  -13    2   22      0.49      0.04
  -12    2   22      0.21     -0.01
  -11    2   22     -0.34     -0.03
  -10    2   22     -0.71      0.00
   -9    2   22     -0.68      0.04
   -8    2   22     -0.31      0.07
   -7    2   22      0.17      0.07
   -6    2   22      0.56      0.05
   -5    2   22      0.64      0.04
   -4    2   22      0.18      0.03
   -3    2   22     -0.73      0.02
   -2    2   22     -1.64      0.01
   -1    2   22     -2.10      0.00
    0    2   22     -2.21     -0.01
    1    2   22     -2.20      0.00
    2    2   22     -2.04      0.01
    3    2   22     -1.61      0.01
  -21    3   22      1.21      0.00
  -20    3   22      1.25      0.04
  -19    3   22      1.05      0.07
  -18    3   22      0.53      0.05
  -17    3   22     -0.23      0.01
  -16    3   22     -0.70     -0.02
  -15    3   22     -0.59      0.01
  -14    3   22     -0.41      0.04
  -13    3   22     -0.71      0.04
  -12    3   22     -1.08      0.01
  -11    3   22     -0.83      0.00
  -10    3   22     -0.16      0.01
   -9    3   22      0.15      0.03
   -8    3   22     -0.13      0.03
   -7    3   22     -0.47      0.00
   -6    3   22     -0.37     -0.04
   -5    3   22      0.19     -0.05
   -4    3   22      0.81     -0.03
   -3    3   22      1.07     -0.01
   -2    3   22      0.79     -0.01
   -1    3   22      0.24     -0.01
    0    3   22     -0.17     -0.02
    1    3   22     -0.31     -0.02
    2    3   22     -0.32     -0.01
    3    3   22     -0.30      0.01
  -20    4   22      0.29     -0.11
  -19    4   22      0.16     -0.09
  -18    4   22      0.01     -0.06
  -17    4   22     -0.17     -0.04
  -16    4   22     -0.34     -0.03
  -15    4   22     -0.45      0.00
  -14    4   22     -0.43      0.03
  -13    4   22     -0.20      0.02
  -12    4   22      0.13      0.00
  -11    4   22      0.31     -0.02
  -10    4   22      0.20     -0.01
   -9    4   22      0.10      0.01
   -8    4   22      0.30      0.00
   -7    4   22      0.71     -0.04
   -6    4   22      0.95     -0.05
   -5    4   22      0.70     -0.04
   -4    4   22     -0.14     -0.03
   -3    4   22     -1.28     -0.02
   -2    4   22     -2.04     -0.01
   -1    4   22     -1.98     -0.01
    0    4   22     -1.46      0.00
    1    4   22     -1.05      0.01
    2    4   22     -0.82      0.02
    3    4   22     -0.55      0.01
  -20    5   22      0.82      0.03
  -19    5   22      0.98      0.04
  -18    5   22      0.75      0.01
  -17    5   22      0.12     -0.02
  -16    5   22     -0.20      0.01
  -15    5   22      0.29      0.05
  -14    5   22      0.91      0.05
  -13    5   22      0.74      0.00
  -12    5   22     -0.02     -0.03
  -11    5   22     -0.44      0.01
  -10    5   22     -0.20      0.07
   -9    5   22      0.07      0.10
   -8    5   22     -0.28      0.06
   -7    5   22     -1.07     -0.01
   -6    5   22     -1.57     -0.06
   -5    5   22     -1.32     -0.06
   -4    5   22     -0.58     -0.02
   -3    5   22      0.07      0.02
   -2    5   22      0.26      0.03
   -1    5   22      0.08      0.02
    0    5   22     -0.12      0.00
    1    5   22     -0.10     -0.01
    2    5   22     -0.03     -0.03
  -19    6   22      0.03     -0.03
  -18    6   22     -0.08     -0.04
  -17    6   22      0.17     -0.05
  -16    6   22      0.71     -0.06
  -15    6   22      0.78     -0.08
  -14    6   22     -0.07     -0.08
  -13    6   22     -1.20     -0.05
  -12    6   22     -1.59      0.00
  -11    6   22     -1.11      0.04
  -10    6   22     -0.52      0.01
   -9    6   22     -0.50     -0.06
   -8    6   22     -0.93     -0.13
   -7    6   22     -1.11     -0.13
   -6    6   22     -0.63     -0.06
   -5    6   22     -0.02      0.02
   -4    6   22     -0.16      0.07
   -3    6   22     -1.06      0.06
   -2    6   22     -1.79      0.04
   -1    6   22     -1.62      0.02
    0    6   22     -0.88      0.01
    1    6   22     -0.37      0.00
  -18    7   22      0.93     -0.04
  -17    7   22      0.50     -0.06
  -16    7   22     -0.24     -0.02
  -15    7   22     -0.88      0.02
  -14    7   22     -1.03      0.03
  -13    7   22     -0.67      0.01
  -12    7   22     -0.10     -0.01
  -11    7   22      0.32     -0.01
  -10    7   22      0.35     -0.02
   -9    7   22     -0.01     -0.04
   -8    7   22     -0.41     -0.03
   -7    7   22     -0.50     -0.02
   -6    7   22     -0.44     -0.01
   -5    7   22     -0.65     -0.02
   -4    7   22     -1.04     -0.02
   -3    7   22     -1.07     -0.02
   -2    7   22     -0.59     -0.02
   -1    7   22      0.01     -0.03
    0    7   22      0.35     -0.03
  -17    8   22     -0.76     -0.05
  -16    8   22     -0.84     -0.05
  -15    8   22     -0.56     -0.06
  -14    8   22     -0.20     -0.08
  -13    8   22     -0.16     -0.07
  -12    8   22     -0.36     -0.04
  -11    8   22     -0.41     -0.01
  -10    8   22     -0.21     -0.03
   -9    8   22     -0.07     -0.09
   -8    8   22     -0.23     -0.14
   -7    8   22     -0.50     -0.13
   -6    8   22     -0.55     -0.07
   -5    8   22     -0.34      0.00
   -4    8   22     -0.16      0.05
   -3    8   22     -0.16      0.06
   -2    8   22     -0.11      0.04
   -1    8   22      0.13      0.02
  -15    9   22      0.28      0.08
  -14    9   22      0.66      0.04
  -13    9   22      0.96     -0.02
  -12    9   22      1.07     -0.04
  -11    9   22      0.90     -0.04
  -10    9   22      0.37     -0.07
   -9    9   22     -0.34     -0.09
   -8    9   22     -0.75     -0.07
   -7    9   22     -0.52     -0.01
   -6    9   22      0.02      0.03
   -5    9   22      0.19      0.02
   -4    9   22     -0.13     -0.01
   -3    9   22     -0.33     -0.04
   -2    9   22     -0.10     -0.05
  -13   10   22      0.49     -0.11
  -12   10   22     -0.57     -0.03
  -11   10   22     -1.45      0.02
  -10   10   22     -1.37      0.03
   -9   10   22     -0.57      0.01
   -8   10   22      0.14      0.00
   -7   10   22      0.40     -0.01
   -6   10   22      0.32     -0.03
   -5   10   22      0.10     -0.04
  -20    1   23      0.28      0.05
  -19    1   23      0.47      0.05
  -18    1   23      0.72      0.03
  -17    1   23      0.84      0.02
  -16    1   23      0.66      0.03
  -15    1   23      0.11      0.02
  -14    1   23     -0.53      0.00
  -13    1   23     -0.80     -0.01
  -12    1   23     -0.54      0.02
  -11    1   23     -0.09      0.04
  -10    1   23      0.15      0.05
   -9    1   23      0.09      0.03
   -8    1   23     -0.02      0.01
   -7    1   23      0.06     -0.02
   -6    1   23      0.45     -0.02
   -5    1   23      1.10      0.00
   -4    1   23      1.70      0.02
   -3    1   23      1.93      0.01
   -2    1   23      1.73      0.00
   -1    1   23      1.34      0.00
    0    1   23      0.94      0.00
    1    1   23      0.57     -0.01
  -20    2   23     -0.75      0.00
  -19    2   23     -0.82      0.02
  -18    2   23     -0.53      0.02
  -17    2   23     -0.13      0.00
  -16    2   23     -0.21     -0.01
  -15    2   23     -0.67     -0.02
  -14    2   23     -0.73     -0.02
  -13    2   23     -0.06      0.00
  -12    2   23      0.65      0.02
  -11    2   23      0.66      0.01
  -10    2   23      0.09      0.00
   -9    2   23     -0.35     -0.01
   -8    2   23     -0.32      0.00
   -7    2   23      0.02      0.00
   -6    2   23      0.30      0.00
   -5    2   23      0.29      0.00
   -4    2   23     -0.06      0.00
   -3    2   23     -0.57     -0.01
   -2    2   23     -0.98     -0.02
   -1    2   23     -1.22     -0.03
    0    2   23     -1.31     -0.02
    1    2   23     -1.07      0.00
  -19    3   23      0.09      0.05
  -18    3   23      0.25      0.02
  -17    3   23      0.34      0.00
  -16    3   23      0.32      0.01
  -15    3   23      0.26      0.01
  -14    3   23      0.18      0.00
  -13    3   23      0.07     -0.01
  -12    3   23     -0.05      0.00
  -11    3   23     -0.11      0.00
  -10    3   23     -0.02      0.00
   -9    3   23      0.25     -0.01
   -8    3   23      0.51     -0.01
   -7    3   23      0.62      0.00
   -6    3   23      0.65      0.01
   -5    3   23      0.71      0.03
   -4    3   23      0.76      0.02
   -3    3   23      0.63      0.00
   -2    3   23      0.27     -0.01
   -1    3   23     -0.14      0.00
    0    3   23     -0.26      0.01
    1    3   23     -0.05      0.01
  -19    4   23     -0.14     -0.01
  -18    4   23      0.50     -0.01
  -17    4   23      1.44      0.00
  -16    4   23      1.68      0.00
  -15    4   23      0.84      0.00
  -14    4   23     -0.10      0.01
  -13    4   23     -0.14      0.02
  -12    4   23      0.49      0.02
  -11    4   23      0.86      0.00
  -10    4   23      0.61     -0.01
   -9    4   23      0.09     -0.02
   -8    4   23     -0.24     -0.01
   -7    4   23     -0.10      0.01
   -6    4   23      0.27      0.03
   -5    4   23      0.21      0.03
   -4    4   23     -0.59      0.00
   -3    4   23     -1.56     -0.01
   -2    4   23     -2.02     -0.01
   -1    4   23     -1.80      0.00
    0    4   23     -1.24     -0.01
  -18    5   23      1.20     -0.02
  -17    5   23      1.01      0.01
  -16    5   23     -0.01      0.03
  -15    5   23     -1.15      0.02
  -14    5   23     -1.43      0.00
  -13    5   23     -0.82     -0.01
  -12    5   23     -0.20     -0.01
  -11    5   23     -0.21      0.00
  -10    5   23     -0.65      0.01
   -9    5   23     -0.86      0.05
   -8    5   23     -0.53      0.10
   -7    5   23     -0.13      0.13
   -6    5   23     -0.35      0.11
   -5    5   23     -1.04      0.06
   -4    5   23     -1.25      0.02
   -3    5   23     -0.64      0.01
   -2    5   23      0.15      0.01
   -1    5   23      0.52      0.00
    0    5   23      0.53     -0.01
  -17    6   23     -0.38      0.03
  -16    6   23     -0.44      0.01
  -15    6   23     -0.47     -0.02
  -14    6   23     -0.21      0.00
  -13    6   23      0.28      0.03
  -12    6   23      0.61      0.03
  -11    6   23      0.53     -0.01
  -10    6   23      0.18     -0.05
   -9    6   23     -0.18     -0.08
   -8    6   23     -0.49     -0.06
   -7    6   23     -0.73      0.00
   -6    6   23     -0.70      0.05
   -5    6   23     -0.30      0.08
   -4    6   23      0.10      0.07
   -3    6   23      0.14      0.03
   -2    6   23     -0.10      0.00
   -1    6   23     -0.30     -0.01
  -16    7   23      0.29      0.03
  -15    7   23     -0.17      0.03
  -14    7   23     -0.19      0.02
  -13    7   23      0.25      0.00
  -12    7   23      0.46     -0.04
  -11    7   23     -0.08     -0.05
  -10    7   23     -1.05      0.01
   -9    7   23     -1.57      0.15
   -8    7   23     -1.21      0.31
   -7    7   23     -0.49      0.39
   -6    7   23     -0.22      0.33
   -5    7   23     -0.48      0.17
   -4    7   23     -0.68      0.02
   -3    7   23     -0.46     -0.05
   -2    7   23     -0.17     -0.05
  -14    8   23      0.49     -0.04
  -13    8   23      0.39     -0.01
  -12    8   23     -0.32      0.01
  -11    8   23     -1.04      0.03
  -10    8   23     -1.13      0.06
   -9    8   23     -0.58      0.10
   -8    8   23     -0.12      0.09
   -7    8   23     -0.21      0.03
   -6    8   23     -0.49     -0.03
   -5    8   23     -0.32     -0.06
   -4    8   23      0.18     -0.04
  -11    9   23     -0.24      0.02
  -10    9   23     -0.07      0.06
   -9    9   23      0.07      0.09
   -8    9   23      0.24      0.11
   -7    9   23      0.37      0.10
  -18    0   24      0.37      0.00
  -17    0   24     -0.17      0.00
  -16    0   24     -0.51      0.00
  -15    0   24     -0.54     -0.01
  -14    0   24     -0.53     -0.02
  -13    0   24     -0.74     -0.03
  -12    0   24     -0.98     -0.02
  -11    0   24     -0.98      0.00
  -10    0   24     -0.67      0.00
   -9    0   24     -0.05     -0.02
   -8    0   24      0.66     -0.03
   -7    0   24      0.87     -0.03
   -6    0   24      0.10     -0.03
   -5    0   24     -1.28     -0.03
   -4    0   24     -2.36     -0.02
   -3    0   24     -2.67      0.00
   -2    0   24     -2.39      0.01
   -1    0   24     -1.92     -0.01
  -18    1   24      0.12     -0.01
  -17    1   24     -0.18     -0.01
  -16    1   24     -0.09     -0.01
  -15    1   24      0.35      0.00
  -14    1   24      0.71     -0.01
  -13    1   24      0.78     -0.01
  -12    1   24      0.68      0.00
  -11    1   24      0.57      0.01
  -10    1   24      0.52      0.01
   -9    1   24      0.58     -0.01
   -8    1   24      0.67     -0.02
   -7    1   24      0.63     -0.01
   -6    1   24      0.46      0.01
   -5    1   24      0.22      0.02
   -4    1   24     -0.05      0.00
   -3    1   24     -0.27     -0.01
   -2    1   24     -0.28     -0.01
   -1    1   24     -0.04      0.00
  -18    2   24     -0.47      0.03
  -17    2   24     -0.44      0.03
  -16    2   24     -0.07      0.02
  -15    2   24      0.38      0.01
  -14    2   24      0.51      0.00
  -13    2   24      0.17     -0.01
  -12    2   24     -0.36     -0.01
  -11    2   24     -0.67     -0.01
  -10    2   24     -0.55     -0.02
   -9    2   24     -0.16     -0.04
   -8    2   24      0.09     -0.04
   -7    2   24     -0.24     -0.03
   -6    2   24     -1.32     -0.04
   -5    2   24     -2.68     -0.06
   -4    2   24     -3.39     -0.06
   -3    2   24     -2.98     -0.03
   -2    2   24     -1.90      0.00
   -1    2   24     -0.90      0.00
  -18    3   24      0.69     -0.02
  -17    3   24      0.34      0.02
  -16    3   24      0.29      0.05
  -15    3   24      0.58      0.03
  -14    3   24      0.58      0.00
  -13    3   24      0.05     -0.03
  -12    3   24     -0.52     -0.02
  -11    3   24     -0.73      0.00
  -10    3   24     -0.66      0.02
   -9    3   24     -0.50      0.01
   -8    3   24     -0.32      0.00
   -7    3   24     -0.18     -0.01
   -6    3   24     -0.01      0.00
   -5    3   24      0.41      0.01
   -4    3   24      0.98      0.03
   -3    3   24      1.30      0.03
   -2    3   24      1.24      0.02
  -17    4   24     -1.04      0.07
  -16    4   24     -0.91      0.02
  -15    4   24     -0.70      0.00
  -14    4   24     -0.73      0.00
  -13    4   24     -0.90      0.01
  -12    4   24     -0.87      0.02
  -11    4   24     -0.56      0.02
  -10    4   24     -0.13      0.00
   -9    4   24      0.14     -0.02
   -8    4   24      0.13     -0.03
   -7    4   24     -0.08     -0.04
   -6    4   24     -0.38     -0.03
   -5    4   24     -0.83     -0.03
   -4    4   24     -1.34     -0.03
   -3    4   24     -1.56     -0.02
   -2    4   24     -1.26     -0.02
  -16    5   24     -0.48      0.00
  -15    5   24     -0.18     -0.01
  -14    5   24      0.12     -0.03
  -13    5   24      0.30     -0.05
  -12    5   24      0.35     -0.05
  -11    5   24      0.14     -0.04
  -10    5   24     -0.33     -0.02
   -9    5   24     -0.62      0.01
   -8    5   24     -0.39      0.03
   -7    5   24      0.07      0.02
   -6    5   24      0.14      0.00
   -5    5   24     -0.12     -0.01
   -4    5   24     -0.22      0.00
   -3    5   24      0.03      0.00
  -15    6   24      0.02     -0.01
  -14    6   24      0.45      0.01
  -13    6   24      0.32      0.02
  -12    6   24     -0.24      0.02
  -11    6   24     -0.66      0.03
  -10    6   24     -0.58      0.06
   -9    6   24     -0.22      0.05
   -8    6   24     -0.13     -0.01
   -7    6   24     -0.43     -0.09
   -6    6   24     -0.64     -0.12
   -5    6   24     -0.44     -0.09
  -12    7   24     -0.76      0.01
  -11    7   24     -0.79      0.02
  -10    7   24     -0.73      0.02
   -9    7   24     -0.66      0.02
   -8    7   24     -0.36      0.01
   -7    7   24      0.20      0.00
  -16    1   25     -1.17     -0.01
  -15    1   25     -1.18     -0.02
  -14    1   25     -0.84     -0.01
  -13    1   25     -0.24      0.00
  -12    1   25      0.30      0.00
  -11    1   25      0.52      0.00
  -10    1   25      0.36      0.01
   -9    1   25     -0.22      0.00
   -8    1   25     -0.97      0.00
   -7    1   25     -1.19      0.00
   -6    1   25     -0.41      0.02
   -5    1   25      0.78      0.03
   -4    1   25      1.38      0.02
  -15    2   25     -0.43      0.02
  -14    2   25     -0.24      0.02
  -13    2   25      0.04      0.02
  -12    2   25      0.05      0.01
  -11    2   25     -0.04      0.00
  -10    2   25      0.04      0.00
   -9    2   25      0.24      0.00
   -8    2   25      0.45      0.00
   -7    2   25      0.65      0.00
   -6    2   25      0.61     -0.01
   -5    2   25      0.15     -0.01
  -15    3   25     -0.43     -0.01
  -14    3   25      0.03      0.00
  -13    3   25      0.63      0.02
  -12    3   25      0.95      0.01
  -11    3   25      0.88      0.00
  -10    3   25      0.47     -0.01
   -9    3   25     -0.13     -0.01
   -8    3   25     -0.68      0.00
   -7    3   25     -0.94      0.00
   -6    3   25     -0.70      0.01
  -13    4   25      0.31      0.02
  -12    4   25     -0.24     -0.01
  -11    4   25     -0.79     -0.02
  -10    4   25     -0.72     -0.02
   -9    4   25     -0.18     -0.02
   -8    4   25      0.32     -0.01
   -7    4   25      0.58      0.00
  -11    5   25      0.23      0.02
  -10    5   25      0.49      0.04
   -9    5   25      0.58      0.05
    0    0    0      0.00      0.00
# SQUEEZE RESULTS (APPEND TO CIF)
# Note: Data are Listed for all Voids in the P1 Unit Cell
# i.e. Centre of Gravity, Solvent Accessible Volume,
# Recovered number of Electrons in the Void and
# Details about the Squeezed Material
loop_
  _platon_squeeze_void_nr
  _platon_squeeze_void_average_x
  _platon_squeeze_void_average_y
  _platon_squeeze_void_average_z
  _platon_squeeze_void_volume
  _platon_squeeze_void_count_electrons
  _platon_squeeze_void_content
   1  0.000 -0.224  0.259      1561       233 ' '
_platon_squeeze_details
TITL rds210_0maP 21/c       R = 0.08
CELL   22.0024   16.5492   21.1852     90.00    112.79     90.00
SPGR P21/c
# Note: Atoms in Void as Cxxx and Qxxx all others
C101 0.062 0.255 0.377 !       2.05 eA-3
C102 0.982 0.163 0.740 !       1.24 eA-3
C103 0.147 0.453 0.047 !       1.15 eA-3
C104 0.062 0.580 0.704 !       1.13 eA-3
Q105 0.352 0.278 0.423 !       1.13 eA-3
C106 0.929 0.025 0.811 !       1.10 eA-3
C107 0.929 0.573 0.005 !       1.08 eA-3
C108 0.075 0.943 0.239 !       1.00 eA-3
C109 0.962 0.113 0.716 !       0.99 eA-3
C110 0.100 0.977 0.201 !       0.97 eA-3
C111 0.830 0.865 0.689 !       0.97 eA-3
Q112 0.015 0.317 0.590 !       0.92 eA-3
C113 0.101 0.355 0.768 !       0.92 eA-3
C114 0.041 0.564 0.818 !       0.89 eA-3
C115 0.023 0.526 0.135 !       0.88 eA-3
C116 0.007 0.975 0.651 !       0.88 eA-3
C117 0.077 1.005 0.621 !       0.88 eA-3
C118 0.977 0.351 0.303 !       0.86 eA-3
C119 0.117 0.095 0.253 !       0.83 eA-3
Q120 0.953 0.081 0.064 !       0.80 eA-3
Q121 0.945 0.158 0.040 !       0.78 eA-3
Q122 0.938 0.236 0.520 !       0.68 eA-3
Q123 0.967 0.714 0.327 !       0.67 eA-3
C124 0.072 0.314 0.777 !       0.67 eA-3
Q125 0.967 0.808 0.829 !       0.66 eA-3
C126 0.023 0.451 0.803 !       0.65 eA-3
Q127 0.717 0.648 0.590 !       0.65 eA-3
Q128 0.327 0.856 0.990 !       0.61 eA-3
Q129 0.077 0.877 0.085 !       0.59 eA-3
C130 0.962 0.532 0.942 !       0.53 eA-3
Q131 0.397 0.836 0.105 !       0.51 eA-3
Q132 0.633 0.045 0.672 !       0.50 eA-3
;
_shelx_fab_checksum              65858
loop_
_space_group_symop_operation_xyz
'x, y, z'
'-x, y+1/2, -z+1/2'
'-x, -y, -z'
'x, -y-1/2, z-1/2'
loop_
_atom_site_type_symbol
_atom_site_label
_atom_site_fract_x
_atom_site_fract_y
_atom_site_fract_z
_atom_site_U_iso_or_equiv
_atom_site_adp_type
_atom_site_calc_flag
_atom_site_refinement_flags_adp
_atom_site_refinement_flags_posn
_atom_site_occupancy
Zn Zn1 0.67641(2) 0.36656(2) 0.51937(2) 0.03571(14) Uani d U . 1
S S1 0.37429(4) 0.30451(5) 0.23278(4) 0.0381(2) Uani d U . 1
O O1 0.58456(11) 0.36396(14) 0.45277(11) 0.0380(5) Uani d U . 1
O O2 0.69034(11) 0.31174(14) 0.43572(11) 0.0382(5) Uani d U . 1
O O3 0.0221(3) 0.3196(6) 0.1340(6) 0.266(5) Uani d U . 1
O O4 0.0430(3) 0.1078(6) -0.0001(6) 0.262(5) Uani d U . 1
N N1 0.74103(13) 0.46033(17) 0.53229(14) 0.0379(7) Uani d U . 1
N N2 0.78288(14) 0.47118(18) 0.59932(14) 0.0427(7) Uani d U . 1
N N3 0.73936(13) 0.29189(18) 0.59207(14) 0.0389(7) Uani d U . 1
N N4 0.78165(13) 0.33193(18) 0.64896(14) 0.0398(7) Uani d U . 1
N N5 0.64929(13) 0.40877(17) 0.60075(13) 0.0356(6) Uani d U . 1
N N6 0.70262(13) 0.43988(17) 0.65403(14) 0.0385(7) Uani d U . 1
N N7 0.14805(15) 0.2263(2) 0.04810(17) 0.0604(9) Uani d U . 1
N N8 0.0069(3) 0.2584(6) 0.0845(5) 0.173(3) Uani d U . 1
N N9 0.0162(2) 0.1684(4) 0.0210(3) 0.121(2) Uani d U . 1
C C1 0.57649(16) 0.3315(2) 0.39436(17) 0.0347(7) Uani d U . 1
C C2 0.63621(15) 0.3049(2) 0.38486(17) 0.0345(7) Uani d U . 1
C C3 0.63017(15) 0.2737(2) 0.31888(17) 0.0344(7) Uani d U . 1
C C4 0.56797(16) 0.2651(2) 0.27014(17) 0.0363(8) Uani d U . 1
H H4 0.5632 0.2442 0.2267 0.044 Uiso calc U R 1
C C5 0.50940(16) 0.2861(2) 0.28096(17) 0.0345(7) Uani d U . 1
C C6 0.51490(16) 0.3203(2) 0.34220(16) 0.0349(7) Uani d U . 1
H H6 0.4763 0.3364 0.3488 0.042 Uiso calc U R 1
C C7 0.69186(16) 0.2500(2) 0.30655(19) 0.0411(8) Uani d U . 1
C C8 0.74054(17) 0.3211(2) 0.32331(19) 0.0431(9) Uani d U . 1
H H8A 0.7188 0.368 0.2955 0.065 Uiso calc U R 1
H H8B 0.7789 0.3058 0.3132 0.065 Uiso calc U R 1
H H8C 0.755 0.3348 0.3719 0.065 Uiso calc U R 1
C C9 0.72412(18) 0.1776(2) 0.3518(2) 0.0523(10) Uani d U . 1
H H9A 0.7372 0.1926 0.4 0.078 Uiso calc U R 1
H H9B 0.7632 0.1611 0.3435 0.078 Uiso calc U R 1
H H9C 0.6927 0.1327 0.3409 0.078 Uiso calc U R 1
C C10 0.67452(18) 0.2279(3) 0.2315(2) 0.0542(10) Uani d U . 1
H H10A 0.6444 0.1816 0.2193 0.081 Uiso calc U R 1
H H10B 0.7148 0.2138 0.2248 0.081 Uiso calc U R 1
H H10C 0.6532 0.2741 0.2024 0.081 Uiso calc U R 1
C C11 0.44578(16) 0.2681(2) 0.22715(17) 0.0350(7) Uani d U . 1
C C12 0.43042(16) 0.2195(2) 0.17081(18) 0.0408(8) Uani d U . 1
H H12 0.4628 0.1943 0.1581 0.049 Uiso calc U R 1
C C13 0.36249(16) 0.2103(2) 0.13370(19) 0.0426(8) Uani d U . 1
H H13 0.3444 0.1781 0.0936 0.051 Uiso calc U R 1
C C14 0.32501(16) 0.2521(2) 0.16074(18) 0.0379(8) Uani d U . 1
C C15 0.25313(16) 0.2520(2) 0.13811(19) 0.0414(8) Uani d U . 1
C C16 0.22198(18) 0.2653(2) 0.1825(2) 0.0510(10) Uani d U . 1
H H16 0.247 0.2796 0.2288 0.061 Uiso calc U R 1
C C17 0.15503(19) 0.2578(3) 0.1597(2) 0.0581(11) Uani d U . 1
H H17 0.1332 0.2667 0.1899 0.07 Uiso calc U R 1
C C18 0.12001(18) 0.2376(3) 0.0931(2) 0.0526(10) Uani d U . 1
C C19 0.21338(17) 0.2347(3) 0.0709(2) 0.0538(10) Uani d U . 1
H H19 0.2338 0.2284 0.039 0.065 Uiso calc U R 1
C C20 0.0486(2) 0.2226(3) 0.0671(3) 0.0714(13) Uani d U . 1
C C21 -0.0606(3) 0.2227(7) 0.0552(6) 0.183(3) Uani d U D 1
C C22 -0.0561(3) 0.1806(6) -0.0017(5) 0.161(3) Uani d U D 1
C C23 -0.1142(4) 0.2866(8) 0.0426(7) 0.237(5) Uani d U D 1
H H23A -0.1055 0.3173 0.0847 0.356 Uiso calc U R 1
H H23B -0.1573 0.26 0.0286 0.356 Uiso calc U R 1
H H23C -0.1143 0.3233 0.0062 0.356 Uiso calc U DR 1
C C24 -0.0711(5) 0.1610(8) 0.1057(6) 0.222(5) Uani d U D 1
H H24A -0.0533 0.1083 0.1004 0.333 Uiso calc U R 1
H H24B -0.1183 0.1558 0.0956 0.333 Uiso calc U R 1
H H24C -0.0482 0.1801 0.1528 0.333 Uiso calc U R 1
C C25 -0.0784(4) 0.2504(7) -0.0577(5) 0.208(5) Uani d U D 1
H H25A -0.0576 0.3014 -0.0368 0.313 Uiso calc U R 1
H H25B -0.1265 0.2564 -0.0754 0.313 Uiso calc U DR 1
H H25C -0.065 0.2365 -0.0953 0.313 Uiso calc U R 1
C C26 -0.0915(4) 0.1008(7) -0.0277(7) 0.224(5) Uani d U D 1
H H26A -0.0852 0.0844 -0.0692 0.336 Uiso calc U R 1
H H26B -0.1387 0.1074 -0.0382 0.336 Uiso calc U R 1
H H26C -0.0734 0.0592 0.0076 0.336 Uiso calc U R 1
C C27 0.76257(17) 0.5087(2) 0.49405(18) 0.0416(8) Uani d U . 1
C C28 0.8181(2) 0.5507(3) 0.5371(2) 0.0557(10) Uani d U . 1
H H28 0.8431 0.5888 0.5238 0.067 Uiso calc U R 1
C C29 0.82941(19) 0.5261(3) 0.6023(2) 0.0552(10) Uani d U . 1
C C30 0.72945(18) 0.5142(2) 0.41885(18) 0.0427(8) Uani d U . 1
C C31 0.66311(18) 0.4968(2) 0.38465(18) 0.0447(9) Uani d U . 1
H H31 0.6378 0.4812 0.4102 0.054 Uiso calc U R 1
C C32 0.6331(2) 0.5016(2) 0.31419(19) 0.0521(10) Uani d U . 1
H H32 0.5876 0.4888 0.2921 0.063 Uiso calc U R 1
C C33 0.6681(2) 0.5248(2) 0.2749(2) 0.0551(10) Uani d U . 1
C C34 0.7337(2) 0.5442(2) 0.3092(2) 0.0565(10) Uani d U . 1
H H34 0.7585 0.5618 0.2837 0.068 Uiso calc U R 1
C C35 0.7645(2) 0.5386(2) 0.3799(2) 0.0527(10) Uani d U . 1
H H35 0.81 0.5515 0.4019 0.063 Uiso calc U R 1
C C36 0.6331(3) 0.5275(3) 0.1970(2) 0.0712(13) Uani d U . 1
H H36 0.5939 0.4915 0.1866 0.085 Uiso calc U R 1
C C37 0.6705(4) 0.4911(5) 0.1609(3) 0.123(3) Uani d U . 1
H H37A 0.7103 0.523 0.1691 0.185 Uiso calc U R 1
H H37B 0.6434 0.4898 0.1118 0.185 Uiso calc U R 1
H H37C 0.6829 0.4359 0.1776 0.185 Uiso calc U R 1
C C38 0.6048(3) 0.6084(3) 0.1728(2) 0.0736(13) Uani d U . 1
H H38A 0.5752 0.6237 0.1954 0.11 Uiso calc U R 1
H H38B 0.58 0.6069 0.1231 0.11 Uiso calc U R 1
H H38C 0.6405 0.6481 0.1838 0.11 Uiso calc U R 1
C C39 0.8827(2) 0.5518(4) 0.6694(2) 0.0851(17) Uani d U . 1
H H39A 0.8623 0.5743 0.6993 0.128 Uiso calc U R 1
H H39B 0.9106 0.5928 0.6607 0.128 Uiso calc U R 1
H H39C 0.9096 0.5048 0.6916 0.128 Uiso calc U R 1
C C40 0.75396(17) 0.2131(2) 0.60128(18) 0.0426(8) Uani d U . 1
C C41 0.80644(18) 0.2028(3) 0.6641(2) 0.0514(9) Uani d U . 1
H H41 0.827 0.1532 0.6834 0.062 Uiso calc U R 1
C C42 0.82253(17) 0.2780(2) 0.69265(19) 0.0468(9) Uani d U . 1
C C43 0.71514(18) 0.1526(2) 0.55046(18) 0.0435(8) Uani d U . 1
C C44 0.64877(18) 0.1644(2) 0.51096(19) 0.0445(8) Uani d U . 1
H H44 0.6281 0.2129 0.5162 0.053 Uiso calc U R 1
C C45 0.61196(19) 0.1075(2) 0.46433(19) 0.0465(9) Uani d U . 1
H H45 0.5668 0.1179 0.4377 0.056 Uiso calc U R 1
C C46 0.6397(2) 0.0350(2) 0.4554(2) 0.0494(9) Uani d U . 1
C C47 0.7054(2) 0.0231(2) 0.4950(2) 0.0568(10) Uani d U . 1
H H47 0.7257 -0.0259 0.4903 0.068 Uiso calc U R 1
C C48 0.7429(2) 0.0804(2) 0.5415(2) 0.0548(10) Uani d U . 1
H H48 0.7883 0.0702 0.5675 0.066 Uiso calc U R 1
C C49 0.5989(2) -0.0282(2) 0.4054(2) 0.0586(10) Uani d U . 1
H H49 0.6287 -0.0745 0.4069 0.07 Uiso calc U R 1
C C50 0.5436(2) -0.0604(3) 0.4263(2) 0.0679(12) Uani d U . 1
H H50A 0.5629 -0.0816 0.4731 0.102 Uiso calc U R 1
H H50B 0.5197 -0.1037 0.3949 0.102 Uiso calc U R 1
H H50C 0.5131 -0.0164 0.4242 0.102 Uiso calc U R 1
C C51 0.5701(2) 0.0038(3) 0.3320(2) 0.0634(11) Uani d U . 1
H H51A 0.5395 0.0481 0.3287 0.095 Uiso calc U R 1
H H51B 0.5465 -0.0398 0.3008 0.095 Uiso calc U R 1
H H51C 0.6059 0.0235 0.3193 0.095 Uiso calc U R 1
C C52 0.8746(2) 0.3022(3) 0.7600(2) 0.0624(11) Uani d U . 1
H H52A 0.9048 0.3407 0.7524 0.094 Uiso calc U R 1
H H52B 0.8991 0.2542 0.7834 0.094 Uiso calc U R 1
H H52C 0.8538 0.3275 0.7885 0.094 Uiso calc U R 1
C C53 0.59561(16) 0.4296(2) 0.61229(17) 0.0362(7) Uani d U . 1
C C54 0.61436(17) 0.4762(2) 0.67171(17) 0.0407(8) Uani d U . 1
H H54 0.586 0.5 0.6907 0.049 Uiso calc U R 1
C C55 0.68186(17) 0.4809(2) 0.69725(17) 0.0404(8) Uani d U . 1
C C56 0.52958(16) 0.3974(2) 0.56964(16) 0.0356(7) Uani d U . 1
C C57 0.52191(17) 0.3167(2) 0.55112(18) 0.0412(8) Uani d U . 1
H H57 0.5596 0.2826 0.5647 0.049 Uiso calc U R 1
C C58 0.45993(18) 0.2845(2) 0.51286(19) 0.0471(9) Uani d U . 1
H H58 0.4559 0.229 0.5005 0.057 Uiso calc U R 1
C C59 0.40369(18) 0.3332(2) 0.49252(19) 0.0464(9) Uani d U . 1
C C60 0.41231(17) 0.4138(2) 0.51079(18) 0.0434(8) Uani d U . 1
H H60 0.375 0.4485 0.4963 0.052 Uiso calc U R 1
C C61 0.47371(16) 0.4455(2) 0.54955(17) 0.0380(8) Uani d U . 1
H H61 0.4776 0.5008 0.5625 0.046 Uiso calc U R 1
C C62 0.3337(2) 0.3032(3) 0.4524(2) 0.0580(11) Uani d U . 1
H H62 0.3048 0.3323 0.4714 0.07 Uiso calc U R 1
C C63 0.3105(3) 0.3259(3) 0.3801(2) 0.0796(15) Uani d U . 1
H H63A 0.3153 0.3844 0.3763 0.119 Uiso calc U R 1
H H63B 0.264 0.311 0.3569 0.119 Uiso calc U R 1
H H63C 0.3366 0.2976 0.3586 0.119 Uiso calc U R 1
C C64 0.3242(2) 0.2135(3) 0.4613(2) 0.0605(11) Uani d U . 1
H H64A 0.3506 0.182 0.442 0.091 Uiso calc U R 1
H H64B 0.2775 0.1995 0.4376 0.091 Uiso calc U R 1
H H64C 0.3383 0.2011 0.5102 0.091 Uiso calc U R 1
C C65 0.72918(19) 0.5199(2) 0.76134(19) 0.0481(9) Uani d U . 1
H H65A 0.7592 0.4789 0.7904 0.072 Uiso calc U R 1
H H65B 0.7046 0.5448 0.7862 0.072 Uiso calc U R 1
H H65C 0.7547 0.5614 0.7494 0.072 Uiso calc U R 1
B B1 0.77305(19) 0.4236(3) 0.6574(2) 0.0420(9) Uani d U . 1
H H1 0.8061 0.4421 0.7026 0.05 Uiso calc U R 1
loop_
_atom_site_aniso_label
_atom_site_aniso_U_11
_atom_site_aniso_U_22
_atom_site_aniso_U_33
_atom_site_aniso_U_12
_atom_site_aniso_U_13
_atom_site_aniso_U_23
Zn1 0.0290(2) 0.0439(3) 0.0324(2) 0.00054(17) 0.00982(17) 0.00051(17)
S1 0.0278(4) 0.0440(5) 0.0418(5) -0.0007(4) 0.0127(4) -0.0071(4)
O1 0.0298(12) 0.0508(14) 0.0328(12) 0.0013(10) 0.0114(10) -0.0020(10)
O2 0.0291(12) 0.0467(14) 0.0367(13) -0.0002(10) 0.0106(10) -0.0012(10)
O3 0.095(4) 0.315(10) 0.401(12) 0.007(5) 0.111(6) -0.137(9)
O4 0.095(4) 0.278(8) 0.388(12) -0.044(5) 0.065(6) -0.184(9)
N1 0.0308(14) 0.0477(17) 0.0346(15) -0.0021(12) 0.0121(12) -0.0016(12)
N2 0.0333(15) 0.0534(18) 0.0373(15) -0.0058(13) 0.0092(13) -0.0009(13)
N3 0.0320(15) 0.0486(17) 0.0356(15) 0.0018(12) 0.0125(12) 0.0013(12)
N4 0.0294(14) 0.0517(17) 0.0356(15) 0.0013(13) 0.0097(12) 0.0016(13)
N5 0.0285(14) 0.0463(17) 0.0291(14) 0.0011(12) 0.0079(11) 0.0014(12)
N6 0.0347(15) 0.0450(16) 0.0336(15) 0.0004(12) 0.0109(12) -0.0001(13)
N7 0.0327(17) 0.090(3) 0.053(2) 0.0026(17) 0.0101(15) -0.0087(18)
N8 0.054(3) 0.243(7) 0.241(7) -0.013(4) 0.076(4) -0.056(6)
N9 0.033(2) 0.165(5) 0.140(4) -0.012(3) 0.005(2) -0.030(4)
C1 0.0331(17) 0.0365(18) 0.0364(18) -0.0014(14) 0.0155(14) 0.0018(14)
C2 0.0272(16) 0.0372(18) 0.0382(17) -0.0029(14) 0.0115(14) -0.0004(14)
C3 0.0286(16) 0.0371(18) 0.0379(17) -0.0026(13) 0.0133(14) -0.0051(14)
C4 0.0332(17) 0.0394(19) 0.0369(18) -0.0016(14) 0.0140(14) -0.0045(15)
C5 0.0307(16) 0.0361(18) 0.0362(17) -0.0021(14) 0.0124(14) 0.0012(14)
C6 0.0266(16) 0.0417(19) 0.0371(18) 0.0008(14) 0.0133(14) 0.0002(14)
C7 0.0300(17) 0.046(2) 0.049(2) -0.0023(15) 0.0166(15) -0.0114(16)
C8 0.0318(18) 0.050(2) 0.051(2) -0.0026(16) 0.0200(16) -0.0069(17)
C9 0.037(2) 0.048(2) 0.073(3) 0.0028(17) 0.0217(19) -0.0076(19)
C10 0.035(2) 0.071(3) 0.062(2) -0.0083(19) 0.0240(18) -0.024(2)
C11 0.0301(16) 0.0378(18) 0.0373(18) 0.0006(14) 0.0133(14) -0.0001(14)
C12 0.0284(17) 0.051(2) 0.0416(19) 0.0028(15) 0.0121(15) -0.0076(16)
C13 0.0307(18) 0.050(2) 0.043(2) -0.0001(15) 0.0099(15) -0.0106(17)
C14 0.0283(16) 0.0407(19) 0.0412(19) 0.0006(14) 0.0095(14) -0.0027(15)
C15 0.0313(17) 0.040(2) 0.050(2) 0.0007(14) 0.0133(15) -0.0051(16)
C16 0.0365(19) 0.063(3) 0.052(2) -0.0028(17) 0.0157(17) -0.0108(19)
C17 0.037(2) 0.081(3) 0.062(2) -0.0037(19) 0.0245(18) -0.010(2)
C18 0.0314(18) 0.069(3) 0.057(2) 0.0017(17) 0.0163(17) 0.0004(19)
C19 0.0288(18) 0.080(3) 0.050(2) 0.0058(18) 0.0117(16) -0.010(2)
C20 0.027(2) 0.114(4) 0.071(3) 0.002(2) 0.0167(19) 0.022(3)
C21 0.046(3) 0.297(9) 0.212(7) -0.015(4) 0.055(4) 0.025(6)
C22 0.034(3) 0.274(8) 0.154(6) -0.031(4) 0.013(3) 0.021(5)
C23 0.075(5) 0.383(13) 0.267(12) 0.053(7) 0.082(7) 0.050(10)
C24 0.131(7) 0.348(13) 0.205(9) -0.062(8) 0.086(7) 0.067(9)
C25 0.076(5) 0.323(12) 0.171(8) -0.016(6) -0.013(5) 0.083(8)
C26 0.066(5) 0.265(10) 0.290(13) -0.055(6) 0.015(6) 0.001(8)
C27 0.0368(18) 0.046(2) 0.0442(18) 0.0000(15) 0.0175(15) 0.0005(15)
C28 0.048(2) 0.063(3) 0.054(2) -0.0150(19) 0.0173(18) 0.0046(19)
C29 0.044(2) 0.064(3) 0.052(2) -0.0153(19) 0.0122(17) 0.0011(18)
C30 0.046(2) 0.043(2) 0.0420(18) 0.0014(16) 0.0203(16) 0.0004(15)
C31 0.046(2) 0.045(2) 0.0429(19) 0.0056(16) 0.0178(16) 0.0031(16)
C32 0.056(2) 0.054(2) 0.043(2) 0.0095(19) 0.0147(18) -0.0015(17)
C33 0.074(3) 0.046(2) 0.045(2) 0.013(2) 0.0229(19) 0.0004(17)
C34 0.084(3) 0.049(2) 0.051(2) 0.005(2) 0.041(2) 0.0033(18)
C35 0.058(2) 0.052(2) 0.056(2) -0.0020(19) 0.0313(19) 0.0003(18)
C36 0.109(4) 0.059(3) 0.041(2) 0.020(3) 0.026(2) 0.0014(19)
C37 0.159(6) 0.157(6) 0.045(3) 0.080(5) 0.031(3) -0.006(3)
C38 0.103(4) 0.065(3) 0.048(3) 0.008(3) 0.024(3) 0.006(2)
C39 0.070(3) 0.108(4) 0.060(3) -0.049(3) 0.006(2) 0.000(3)
C40 0.0380(19) 0.048(2) 0.0426(19) 0.0078(15) 0.0169(15) 0.0055(15)
C41 0.043(2) 0.056(2) 0.049(2) 0.0112(17) 0.0112(17) 0.0091(18)
C42 0.0318(18) 0.063(2) 0.0416(19) 0.0079(16) 0.0101(15) 0.0080(17)
C43 0.045(2) 0.044(2) 0.0412(19) 0.0044(16) 0.0175(16) 0.0079(15)
C44 0.044(2) 0.042(2) 0.049(2) 0.0055(16) 0.0188(16) 0.0041(16)
C45 0.045(2) 0.046(2) 0.049(2) 0.0019(16) 0.0174(17) 0.0024(17)
C46 0.058(2) 0.041(2) 0.049(2) 0.0042(17) 0.0209(18) 0.0052(16)
C47 0.064(2) 0.043(2) 0.063(2) 0.0102(18) 0.024(2) 0.0025(18)
C48 0.050(2) 0.055(2) 0.056(2) 0.0114(18) 0.0167(19) 0.0060(18)
C49 0.068(3) 0.043(2) 0.062(2) 0.0001(19) 0.022(2) -0.0039(18)
C50 0.079(3) 0.049(2) 0.069(3) -0.013(2) 0.021(2) 0.006(2)
C51 0.074(3) 0.060(3) 0.055(2) -0.011(2) 0.025(2) -0.010(2)
C52 0.044(2) 0.079(3) 0.050(2) 0.010(2) 0.0027(18) 0.004(2)
C53 0.0359(17) 0.0401(19) 0.0337(17) 0.0031(14) 0.0146(14) 0.0043(14)
C54 0.0404(19) 0.044(2) 0.0379(18) 0.0047(15) 0.0157(15) 0.0007(15)
C55 0.0442(19) 0.041(2) 0.0338(17) 0.0020(15) 0.0127(15) 0.0014(15)
C56 0.0352(17) 0.0413(18) 0.0331(17) 0.0005(14) 0.0163(14) 0.0047(14)
C57 0.0378(18) 0.043(2) 0.044(2) 0.0025(15) 0.0161(16) 0.0071(15)
C58 0.048(2) 0.0382(19) 0.050(2) -0.0045(16) 0.0127(17) 0.0047(16)
C59 0.0416(19) 0.048(2) 0.044(2) -0.0041(16) 0.0108(16) 0.0082(16)
C60 0.0370(19) 0.049(2) 0.042(2) 0.0026(15) 0.0135(16) 0.0103(16)
C61 0.0401(18) 0.0411(19) 0.0357(18) 0.0012(15) 0.0178(15) 0.0040(15)
C62 0.045(2) 0.060(2) 0.059(2) -0.0076(18) 0.0094(19) 0.0092(19)
C63 0.072(3) 0.087(4) 0.060(3) -0.024(3) 0.003(2) 0.014(2)
C64 0.048(2) 0.058(2) 0.063(3) -0.0100(19) 0.008(2) 0.006(2)
C65 0.048(2) 0.047(2) 0.044(2) 0.0017(17) 0.0123(17) -0.0031(17)
B1 0.031(2) 0.057(2) 0.032(2) -0.0039(17) 0.0054(16) 0.0001(17)
loop_
_atom_type_symbol
_atom_type_description
_atom_type_scat_dispersion_real
_atom_type_scat_dispersion_imag
_atom_type_scat_source
C C 0.0033 0.0016 'International Tables Vol C Tables 4.2.6.8 and 6.1.1.4'
H H 0.0000 0.0000 'International Tables Vol C Tables 4.2.6.8 and 6.1.1.4'
N N 0.0061 0.0033 'International Tables Vol C Tables 4.2.6.8 and 6.1.1.4'
O O 0.0106 0.0060 'International Tables Vol C Tables 4.2.6.8 and 6.1.1.4'
B B 0.0013 0.0007 'International Tables Vol C Tables 4.2.6.8 and 6.1.1.4'
S S 0.1246 0.1234 'International Tables Vol C Tables 4.2.6.8 and 6.1.1.4'
Zn Zn 0.2839 1.4301 'International Tables Vol C Tables 4.2.6.8 and 6.1.1.4'
loop_
_geom_angle_atom_site_label_1
_geom_angle_atom_site_label_2
_geom_angle_atom_site_label_3
_geom_angle
O1 Zn1 N3 137.44(11)
O1 Zn1 N1 125.38(10)
N3 Zn1 N1 97.17(11)
O1 Zn1 O2 80.31(9)
N3 Zn1 O2 95.53(10)
N1 Zn1 O2 96.79(10)
O1 Zn1 N5 93.16(9)
N3 Zn1 N5 84.81(11)
N1 Zn1 N5 92.33(11)
O2 Zn1 N5 170.75(10)
C14 S1 C11 92.34(16)
C1 O1 Zn1 114.6(2)
C2 O2 Zn1 111.0(2)
C27 N1 N2 107.0(3)
C27 N1 Zn1 139.1(2)
N2 N1 Zn1 112.9(2)
C29 N2 N1 109.2(3)
C29 N2 B1 129.9(3)
N1 N2 B1 120.8(3)
C40 N3 N4 107.4(3)
C40 N3 Zn1 138.9(2)
N4 N3 Zn1 113.6(2)
C42 N4 N3 109.2(3)
C42 N4 B1 130.4(3)
N3 N4 B1 120.1(3)
C53 N5 N6 106.6(3)
C53 N5 Zn1 140.2(2)
N6 N5 Zn1 111.51(19)
C55 N6 N5 109.8(3)
C55 N6 B1 130.6(3)
N5 N6 B1 119.6(3)
C18 N7 C19 117.3(3)
C20 N8 O3 124.6(6)
C20 N8 C21 114.3(8)
O3 N8 C21 120.5(7)
C20 N9 O4 125.6(5)
C20 N9 C22 110.6(7)
O4 N9 C22 123.7(7)
O1 C1 C6 123.0(3)
O1 C1 C2 117.1(3)
C6 C1 C2 119.9(3)
O2 C2 C3 124.0(3)
O2 C2 C1 117.0(3)
C3 C2 C1 119.1(3)
C4 C3 C2 117.2(3)
C4 C3 C7 122.7(3)
C2 C3 C7 120.1(3)
C3 C4 C5 123.6(3)
C3 C4 H4 118.2
C5 C4 H4 118.2
C6 C5 C4 119.5(3)
C6 C5 C11 122.0(3)
C4 C5 C11 118.5(3)
C5 C6 C1 120.4(3)
C5 C6 H6 119.8
C1 C6 H6 119.8
C9 C7 C10 109.5(3)
C9 C7 C3 108.8(3)
C10 C7 C3 111.0(3)
C9 C7 C8 110.0(3)
C10 C7 C8 107.1(3)
C3 C7 C8 110.5(3)
C7 C8 H8A 109.5
C7 C8 H8B 109.5
H8A C8 H8B 109.5
C7 C8 H8C 109.5
H8A C8 H8C 109.5
H8B C8 H8C 109.5
C7 C9 H9A 109.5
C7 C9 H9B 109.5
H9A C9 H9B 109.5
C7 C9 H9C 109.5
H9A C9 H9C 109.5
H9B C9 H9C 109.5
C7 C10 H10A 109.5
C7 C10 H10B 109.5
H10A C10 H10B 109.5
C7 C10 H10C 109.5
H10A C10 H10C 109.5
H10B C10 H10C 109.5
C12 C11 C5 129.9(3)
C12 C11 S1 109.9(2)
C5 C11 S1 120.0(2)
C11 C12 C13 113.7(3)
C11 C12 H12 123.1
C13 C12 H12 123.1
C14 C13 C12 113.4(3)
C14 C13 H13 123.3
C12 C13 H13 123.3
C13 C14 C15 128.0(3)
C13 C14 S1 110.6(3)
C15 C14 S1 121.3(3)
C16 C15 C19 116.9(3)
C16 C15 C14 122.4(3)
C19 C15 C14 120.6(3)
C17 C16 C15 119.8(4)
C17 C16 H16 120.1
C15 C16 H16 120.1
C18 C17 C16 119.3(4)
C18 C17 H17 120.3
C16 C17 H17 120.3
N7 C18 C17 122.8(3)
N7 C18 C20 115.5(4)
C17 C18 C20 121.6(4)
N7 C19 C15 123.8(4)
N7 C19 H19 118.1
C15 C19 H19 118.1
N8 C20 N9 106.9(5)
N8 C20 C18 127.1(6)
N9 C20 C18 126.0(5)
C22 C21 N8 99.3(6)
C22 C21 C23 119.3(9)
N8 C21 C23 112.0(9)
C22 C21 C24 109.7(10)
N8 C21 C24 111.2(8)
C23 C21 C24 105.4(8)
C21 C22 N9 102.0(6)
C21 C22 C26 122.3(9)
N9 C22 C26 109.3(8)
C21 C22 C25 100.0(9)
N9 C22 C25 108.8(6)
C26 C22 C25 113.2(8)
C21 C23 H23A 109.5
C21 C23 H23B 109.5
H23A C23 H23B 109.5
C21 C23 H23C 109.5
H23A C23 H23C 109.5
H23B C23 H23C 109.5
C21 C24 H24A 109.5
C21 C24 H24B 109.5
H24A C24 H24B 109.5
C21 C24 H24C 109.5
H24A C24 H24C 109.5
H24B C24 H24C 109.5
C22 C25 H25A 109.5
C22 C25 H25B 109.5
H25A C25 H25B 109.5
C22 C25 H25C 109.5
H25A C25 H25C 109.5
H25B C25 H25C 109.5
C22 C26 H26A 109.5
C22 C26 H26B 109.5
H26A C26 H26B 109.5
C22 C26 H26C 109.5
H26A C26 H26C 109.5
H26B C26 H26C 109.5
N1 C27 C28 108.9(3)
N1 C27 C30 122.9(3)
C28 C27 C30 128.1(3)
C29 C28 C27 106.6(3)
C29 C28 H28 126.7
C27 C28 H28 126.7
N2 C29 C28 108.3(3)
N2 C29 C39 122.1(4)
C28 C29 C39 129.6(4)
C31 C30 C35 117.7(4)
C31 C30 C27 122.1(3)
C35 C30 C27 120.2(3)
C32 C31 C30 121.3(4)
C32 C31 H31 119.4
C30 C31 H31 119.4
C31 C32 C33 121.2(4)
C31 C32 H32 119.4
C33 C32 H32 119.4
C34 C33 C32 117.3(4)
C34 C33 C36 123.4(4)
C32 C33 C36 119.3(4)
C33 C34 C35 121.8(4)
C33 C34 H34 119.1
C35 C34 H34 119.1
C34 C35 C30 120.6(4)
C34 C35 H35 119.7
C30 C35 H35 119.7
C37 C36 C38 116.1(5)
C37 C36 C33 113.8(4)
C38 C36 C33 111.7(4)
C37 C36 H36 104.6
C38 C36 H36 104.6
C33 C36 H36 104.6
C36 C37 H37A 109.5
C36 C37 H37B 109.5
H37A C37 H37B 109.5
C36 C37 H37C 109.5
H37A C37 H37C 109.5
H37B C37 H37C 109.5
C36 C38 H38A 109.5
C36 C38 H38B 109.5
H38A C38 H38B 109.5
C36 C38 H38C 109.5
H38A C38 H38C 109.5
H38B C38 H38C 109.5
C29 C39 H39A 109.5
C29 C39 H39B 109.5
H39A C39 H39B 109.5
C29 C39 H39C 109.5
H39A C39 H39C 109.5
H39B C39 H39C 109.5
N3 C40 C41 108.8(3)
N3 C40 C43 121.0(3)
C41 C40 C43 130.1(3)
C42 C41 C40 106.6(3)
C42 C41 H41 126.7
C40 C41 H41 126.7
N4 C42 C41 108.0(3)
N4 C42 C52 122.6(4)
C41 C42 C52 129.4(4)
C44 C43 C48 117.0(4)
C44 C43 C40 121.5(3)
C48 C43 C40 121.5(3)
C45 C44 C43 121.8(4)
C45 C44 H44 119.1
C43 C44 H44 119.1
C44 C45 C46 121.3(4)
C44 C45 H45 119.4
C46 C45 H45 119.4
C47 C46 C45 117.0(4)
C47 C46 C49 121.7(4)
C45 C46 C49 121.3(4)
C46 C47 C48 122.1(4)
C46 C47 H47 119.0
C48 C47 H47 119.0
C47 C48 C43 120.9(4)
C47 C48 H48 119.5
C43 C48 H48 119.5
C46 C49 C51 111.9(3)
C46 C49 C50 111.0(4)
C51 C49 C50 110.5(4)
C46 C49 H49 107.8
C51 C49 H49 107.8
C50 C49 H49 107.8
C49 C50 H50A 109.5
C49 C50 H50B 109.5
H50A C50 H50B 109.5
C49 C50 H50C 109.5
H50A C50 H50C 109.5
H50B C50 H50C 109.5
C49 C51 H51A 109.5
C49 C51 H51B 109.5
H51A C51 H51B 109.5
C49 C51 H51C 109.5
H51A C51 H51C 109.5
H51B C51 H51C 109.5
C42 C52 H52A 109.5
C42 C52 H52B 109.5
H52A C52 H52B 109.5
C42 C52 H52C 109.5
H52A C52 H52C 109.5
H52B C52 H52C 109.5
N5 C53 C54 109.5(3)
N5 C53 C56 121.4(3)
C54 C53 C56 128.8(3)
C55 C54 C53 106.5(3)
C55 C54 H54 126.8
C53 C54 H54 126.8
N6 C55 C54 107.6(3)
N6 C55 C65 122.0(3)
C54 C55 C65 130.3(3)
C57 C56 C61 118.1(3)
C57 C56 C53 120.2(3)
C61 C56 C53 121.6(3)
C56 C57 C58 121.2(3)
C56 C57 H57 119.4
C58 C57 H57 119.4
C57 C58 C59 120.6(4)
C57 C58 H58 119.7
C59 C58 H58 119.7
C60 C59 C58 117.5(3)
C60 C59 C62 118.0(3)
C58 C59 C62 124.5(4)
C59 C60 C61 121.9(3)
C59 C60 H60 119.0
C61 C60 H60 119.0
C60 C61 C56 120.7(3)
C60 C61 H61 119.6
C56 C61 H61 119.6
C63 C62 C64 111.9(4)
C63 C62 C59 111.6(4)
C64 C62 C59 114.0(3)
C63 C62 H62 106.3
C64 C62 H62 106.3
C59 C62 H62 106.3
C62 C63 H63A 109.5
C62 C63 H63B 109.5
H63A C63 H63B 109.5
C62 C63 H63C 109.5
H63A C63 H63C 109.5
H63B C63 H63C 109.5
C62 C64 H64A 109.5
C62 C64 H64B 109.5
H64A C64 H64B 109.5
C62 C64 H64C 109.5
H64A C64 H64C 109.5
H64B C64 H64C 109.5
C55 C65 H65A 109.5
C55 C65 H65B 109.5
H65A C65 H65B 109.5
C55 C65 H65C 109.5
H65A C65 H65C 109.5
H65B C65 H65C 109.5
N2 B1 N6 108.8(3)
N2 B1 N4 110.3(3)
N6 B1 N4 109.3(3)
N2 B1 H1 109.5
N6 B1 H1 109.5
N4 B1 H1 109.5
loop_
_geom_bond_atom_site_label_1
_geom_bond_atom_site_label_2
_geom_bond_distance
Zn1 O1 1.967(2)
Zn1 N3 2.041(3)
Zn1 N1 2.050(3)
Zn1 O2 2.116(2)
Zn1 N5 2.148(3)
S1 C14 1.724(3)
S1 C11 1.731(3)
O1 C1 1.297(4)
O2 C2 1.264(4)
O3 N8 1.402(10)
O4 N9 1.326(9)
N1 C27 1.349(4)
N1 N2 1.372(4)
N2 C29 1.352(5)
N2 B1 1.544(5)
N3 C40 1.339(5)
N3 N4 1.374(4)
N4 C42 1.348(5)
N4 B1 1.548(5)
N5 C53 1.341(4)
N5 N6 1.375(4)
N6 C55 1.353(4)
N6 B1 1.547(5)
N7 C18 1.334(5)
N7 C19 1.334(5)
N8 C20 1.262(8)
N8 C21 1.492(10)
N9 C20 1.315(7)
N9 C22 1.487(8)
C1 C6 1.390(5)
C1 C2 1.471(5)
C2 C3 1.448(5)
C3 C4 1.365(5)
C3 C7 1.529(5)
C4 C5 1.436(5)
C4 H4 0.95
C5 C6 1.377(5)
C5 C11 1.453(5)
C6 H6 0.95
C7 C9 1.526(5)
C7 C10 1.528(5)
C7 C8 1.537(5)
C8 H8A 0.98
C8 H8B 0.98
C8 H8C 0.98
C9 H9A 0.98
C9 H9B 0.98
C9 H9C 0.98
C10 H10A 0.98
C10 H10B 0.98
C10 H10C 0.98
C11 C12 1.369(5)
C12 C13 1.402(5)
C12 H12 0.95
C13 C14 1.361(5)
C13 H13 0.95
C14 C15 1.464(5)
C15 C16 1.379(5)
C15 C19 1.383(5)
C16 C17 1.366(5)
C16 H16 0.95
C17 C18 1.361(6)
C17 H17 0.95
C18 C20 1.471(5)
C19 H19 0.95
C21 C22 1.428(11)
C21 C23 1.528(11)
C21 C24 1.558(11)
C22 C26 1.524(11)
C22 C25 1.591(7)
C23 H23A 0.98
C23 H23B 0.98
C23 H23C 0.98
C24 H24A 0.98
C24 H24B 0.98
C24 H24C 0.98
C25 H25A 0.98
C25 H25B 0.98
C25 H25C 0.98
C26 H26A 0.98
C26 H26B 0.98
C26 H26C 0.98
C27 C28 1.393(5)
C27 C30 1.476(5)
C28 C29 1.367(6)
C28 H28 0.95
C29 C39 1.510(6)
C30 C31 1.386(5)
C30 C35 1.389(5)
C31 C32 1.381(5)
C31 H31 0.95
C32 C33 1.390(6)
C32 H32 0.95
C33 C34 1.378(6)
C33 C36 1.528(6)
C34 C35 1.389(6)
C34 H34 0.95
C35 H35 0.95
C36 C37 1.454(7)
C36 C38 1.481(6)
C36 H36 1.0
C37 H37A 0.98
C37 H37B 0.98
C37 H37C 0.98
C38 H38A 0.98
C38 H38B 0.98
C38 H38C 0.98
C39 H39A 0.98
C39 H39B 0.98
C39 H39C 0.98
C40 C41 1.395(5)
C40 C43 1.476(5)
C41 C42 1.370(6)
C41 H41 0.95
C42 C52 1.497(5)
C43 C44 1.387(5)
C43 C48 1.389(5)
C44 C45 1.378(5)
C44 H44 0.95
C45 C46 1.391(5)
C45 H45 0.95
C46 C47 1.376(6)
C46 C49 1.512(6)
C47 C48 1.386(6)
C47 H47 0.95
C48 H48 0.95
C49 C51 1.530(6)
C49 C50 1.542(6)
C49 H49 1.0
C50 H50A 0.98
C50 H50B 0.98
C50 H50C 0.98
C51 H51A 0.98
C51 H51B 0.98
C51 H51C 0.98
C52 H52A 0.98
C52 H52B 0.98
C52 H52C 0.98
C53 C54 1.395(5)
C53 C56 1.481(5)
C54 C55 1.372(5)
C54 H54 0.95
C55 C65 1.499(5)
C56 C57 1.384(5)
C56 C61 1.386(5)
C57 C58 1.394(5)
C57 H57 0.95
C58 C59 1.398(5)
C58 H58 0.95
C59 C60 1.381(5)
C59 C62 1.525(5)
C60 C61 1.384(5)
C60 H60 0.95
C61 H61 0.95
C62 C63 1.464(6)
C62 C64 1.522(6)
C62 H62 1.0
C63 H63A 0.98
C63 H63B 0.98
C63 H63C 0.98
C64 H64A 0.98
C64 H64B 0.98
C64 H64C 0.98
C65 H65A 0.98
C65 H65B 0.98
C65 H65C 0.98
B1 H1 1.0
loop_
_geom_torsion_atom_site_label_1
_geom_torsion_atom_site_label_2
_geom_torsion_atom_site_label_3
_geom_torsion_atom_site_label_4
_geom_torsion
C27 N1 N2 C29 0.4(4)
Zn1 N1 N2 C29 171.6(3)
C27 N1 N2 B1 -179.2(3)
Zn1 N1 N2 B1 -8.0(4)
C40 N3 N4 C42 0.6(4)
Zn1 N3 N4 C42 -177.8(2)
C40 N3 N4 B1 -174.1(3)
Zn1 N3 N4 B1 7.5(4)
C53 N5 N6 C55 -1.2(4)
Zn1 N5 N6 C55 167.2(2)
C53 N5 N6 B1 177.8(3)
Zn1 N5 N6 B1 -13.8(4)
Zn1 O1 C1 C6 176.5(3)
Zn1 O1 C1 C2 -2.7(4)
Zn1 O2 C2 C3 176.6(3)
Zn1 O2 C2 C1 -2.8(4)
O1 C1 C2 O2 3.9(5)
C6 C1 C2 O2 -175.4(3)
O1 C1 C2 C3 -175.6(3)
C6 C1 C2 C3 5.1(5)
O2 C2 C3 C4 175.9(3)
C1 C2 C3 C4 -4.6(5)
O2 C2 C3 C7 -2.7(5)
C1 C2 C3 C7 176.7(3)
C2 C3 C4 C5 0.6(5)
C7 C3 C4 C5 179.2(3)
C3 C4 C5 C6 3.2(5)
C3 C4 C5 C11 -175.1(3)
C4 C5 C6 C1 -2.7(5)
C11 C5 C6 C1 175.5(3)
O1 C1 C6 C5 179.4(3)
C2 C1 C6 C5 -1.4(5)
C4 C3 C7 C9 -112.6(4)
C2 C3 C7 C9 66.0(4)
C4 C3 C7 C10 7.9(5)
C2 C3 C7 C10 -173.5(3)
C4 C3 C7 C8 126.6(4)
C2 C3 C7 C8 -54.8(4)
C6 C5 C11 C12 -163.9(4)
C4 C5 C11 C12 14.3(6)
C6 C5 C11 S1 10.6(5)
C4 C5 C11 S1 -171.1(3)
C14 S1 C11 C12 1.3(3)
C14 S1 C11 C5 -174.3(3)
C5 C11 C12 C13 173.8(3)
S1 C11 C12 C13 -1.2(4)
C11 C12 C13 C14 0.4(5)
C12 C13 C14 C15 -175.6(4)
C12 C13 C14 S1 0.6(4)
C11 S1 C14 C13 -1.1(3)
C11 S1 C14 C15 175.4(3)
C13 C14 C15 C16 150.7(4)
S1 C14 C15 C16 -25.1(5)
C13 C14 C15 C19 -26.3(6)
S1 C14 C15 C19 157.9(3)
C19 C15 C16 C17 2.5(6)
C14 C15 C16 C17 -174.6(4)
C15 C16 C17 C18 -0.2(7)
C19 N7 C18 C17 0.7(7)
C19 N7 C18 C20 -176.2(4)
C16 C17 C18 N7 -1.5(7)
C16 C17 C18 C20 175.2(4)
C18 N7 C19 C15 1.9(7)
C16 C15 C19 N7 -3.5(6)
C14 C15 C19 N7 173.7(4)
O3 N8 C20 N9 178.4(10)
C21 N8 C20 N9 6.8(10)
O3 N8 C20 C18 -1.2(15)
C21 N8 C20 C18 -172.8(7)
O4 N9 C20 N8 -165.7(10)
C22 N9 C20 N8 10.7(9)
O4 N9 C20 C18 13.9(12)
C22 N9 C20 C18 -169.7(5)
N7 C18 C20 N8 -147.2(7)
C17 C18 C20 N8 35.8(9)
N7 C18 C20 N9 33.2(8)
C17 C18 C20 N9 -143.7(6)
C20 N8 C21 C22 -21.3(11)
O3 N8 C21 C22 166.7(10)
C20 N8 C21 C23 -148.3(9)
O3 N8 C21 C23 39.7(15)
C20 N8 C21 C24 94.1(11)
O3 N8 C21 C24 -77.9(14)
N8 C21 C22 N9 24.0(9)
C23 C21 C22 N9 145.8(8)
C24 C21 C22 N9 -92.6(8)
N8 C21 C22 C26 146.4(8)
C23 C21 C22 C26 -91.8(12)
C24 C21 C22 C26 29.8(11)
N8 C21 C22 C25 -87.9(8)
C23 C21 C22 C25 34.0(10)
C24 C21 C22 C25 155.5(6)
C20 N9 C22 C21 -23.8(9)
O4 N9 C22 C21 152.7(10)
C20 N9 C22 C26 -154.7(8)
O4 N9 C22 C26 21.8(13)
C20 N9 C22 C25 81.2(10)
O4 N9 C22 C25 -102.3(12)
N2 N1 C27 C28 -0.3(4)
Zn1 N1 C27 C28 -167.8(3)
N2 N1 C27 C30 -179.4(3)
Zn1 N1 C27 C30 13.1(6)
N1 C27 C28 C29 0.1(5)
C30 C27 C28 C29 179.2(4)
N1 N2 C29 C28 -0.3(5)
B1 N2 C29 C28 179.2(4)
N1 N2 C29 C39 179.5(4)
B1 N2 C29 C39 -1.0(7)
C27 C28 C29 N2 0.1(5)
C27 C28 C29 C39 -179.7(5)
N1 C27 C30 C31 25.4(5)
C28 C27 C30 C31 -153.5(4)
N1 C27 C30 C35 -155.5(4)
C28 C27 C30 C35 25.6(6)
C35 C30 C31 C32 1.4(6)
C27 C30 C31 C32 -179.5(3)
C30 C31 C32 C33 -0.5(6)
C31 C32 C33 C34 -1.2(6)
C31 C32 C33 C36 178.7(4)
C32 C33 C34 C35 1.9(6)
C36 C33 C34 C35 -177.9(4)
C33 C34 C35 C30 -1.1(6)
C31 C30 C35 C34 -0.6(6)
C27 C30 C35 C34 -179.8(4)
C34 C33 C36 C37 45.2(7)
C32 C33 C36 C37 -134.7(5)
C34 C33 C36 C38 -88.7(6)
C32 C33 C36 C38 91.4(5)
N4 N3 C40 C41 -0.7(4)
Zn1 N3 C40 C41 177.2(3)
N4 N3 C40 C43 177.1(3)
Zn1 N3 C40 C43 -5.1(6)
N3 C40 C41 C42 0.5(4)
C43 C40 C41 C42 -177.0(4)
N3 N4 C42 C41 -0.3(4)
B1 N4 C42 C41 173.6(3)
N3 N4 C42 C52 -179.7(3)
B1 N4 C42 C52 -5.7(6)
C40 C41 C42 N4 -0.1(4)
C40 C41 C42 C52 179.2(4)
N3 C40 C43 C44 -30.4(5)
C41 C40 C43 C44 146.8(4)
N3 C40 C43 C48 151.5(4)
C41 C40 C43 C48 -31.3(6)
C48 C43 C44 C45 -0.6(5)
C40 C43 C44 C45 -178.8(3)
C43 C44 C45 C46 0.9(6)
C44 C45 C46 C47 -0.4(6)
C44 C45 C46 C49 178.6(4)
C45 C46 C47 C48 -0.4(6)
C49 C46 C47 C48 -179.3(4)
C46 C47 C48 C43 0.6(6)
C44 C43 C48 C47 -0.1(6)
C40 C43 C48 C47 178.1(4)
C47 C46 C49 C51 -120.2(4)
C45 C46 C49 C51 60.9(5)
C47 C46 C49 C50 116.0(4)
C45 C46 C49 C50 -62.9(5)
N6 N5 C53 C54 1.9(4)
Zn1 N5 C53 C54 -161.1(3)
N6 N5 C53 C56 -172.1(3)
Zn1 N5 C53 C56 24.9(5)
N5 C53 C54 C55 -1.9(4)
C56 C53 C54 C55 171.6(3)
N5 N6 C55 C54 0.0(4)
B1 N6 C55 C54 -178.8(3)
N5 N6 C55 C65 178.4(3)
B1 N6 C55 C65 -0.5(6)
C53 C54 C55 N6 1.1(4)
C53 C54 C55 C65 -177.1(4)
N5 C53 C56 C57 42.5(5)
C54 C53 C56 C57 -130.2(4)
N5 C53 C56 C61 -140.1(3)
C54 C53 C56 C61 47.1(5)
C61 C56 C57 C58 0.5(5)
C53 C56 C57 C58 177.9(3)
C56 C57 C58 C59 -0.4(6)
C57 C58 C59 C60 1.1(5)
C57 C58 C59 C62 -178.3(4)
C58 C59 C60 C61 -2.0(5)
C62 C59 C60 C61 177.4(3)
C59 C60 C61 C56 2.2(5)
C57 C56 C61 C60 -1.4(5)
C53 C56 C61 C60 -178.8(3)
C60 C59 C62 C63 77.8(5)
C58 C59 C62 C63 -102.9(5)
C60 C59 C62 C64 -154.3(4)
C58 C59 C62 C64 25.0(6)
C29 N2 B1 N6 124.0(4)
N1 N2 B1 N6 -56.6(4)
C29 N2 B1 N4 -116.2(4)
N1 N2 B1 N4 63.3(4)
C55 N6 B1 N2 -111.4(4)
N5 N6 B1 N2 69.9(4)
C55 N6 B1 N4 128.2(4)
N5 N6 B1 N4 -50.6(4)
C42 N4 B1 N2 123.8(4)
N3 N4 B1 N2 -62.8(4)
C42 N4 B1 N6 -116.7(4)
N3 N4 B1 N6 56.7(4)
