#------------------------------------------------------------------------------
#$Date: 2017-09-12 07:07:21 +0300 (Tue, 12 Sep 2017) $
#$Revision: 200754 $
#$URL: file:///home/coder/svn-repositories/cod/cif/1/54/63/1546317.cif $
#------------------------------------------------------------------------------
#
# This file is available in the Crystallography Open Database (COD),
# http://www.crystallography.net/
#
# All data on this site have been placed in the public domain by the
# contributors.
#
data_1546317
loop_
_publ_author_name
'Al-Saffar, Firas M'
'Brown, Richard C. D.'
_publ_section_title
;
 A Two-Directional Synthesis of (+)-\b-Isosparteine.
;
_journal_issue                   13
_journal_name_full               'Organic letters'
_journal_page_first              3502
_journal_page_last               3504
_journal_paper_doi               10.1021/acs.orglett.7b01475
_journal_volume                  19
_journal_year                    2017
_chemical_absolute_configuration ad
_chemical_formula_moiety         'C26 H34 Cl N O5 S'
_chemical_formula_sum            'C26 H34 Cl N O5 S'
_chemical_formula_weight         508.05
_space_group_crystal_system      hexagonal
_space_group_IT_number           170
_space_group_name_Hall           'P 65'
_space_group_name_H-M_alt        'P 65'
_symmetry_space_group_name_Hall  'P 65'
_symmetry_space_group_name_H-M   'P 65'
_atom_sites_solution_hydrogens   geom
_atom_sites_solution_primary     dual
_audit_creation_date             2016-12-13
_audit_creation_method
;
Olex2 1.2-alpha
(compiled 2016.11.30 svn.r3356 for OlexSys, GUI svn.r5269)
;
_cell_angle_alpha                90
_cell_angle_beta                 90
_cell_angle_gamma                120
_cell_formula_units_Z            6
_cell_length_a                   29.3480(19)
_cell_length_b                   29.3480(19)
_cell_length_c                   5.4131(4)
_cell_measurement_reflns_used    4937
_cell_measurement_temperature    100(2)
_cell_measurement_theta_max      30.5090
_cell_measurement_theta_min      2.1450
_cell_volume                     4037.7(5)
_computing_cell_refinement       'CrysAlisPro 1.171.39.9g (Rigaku OD, 2015)'
_computing_data_collection       'CrysAlisPro 1.171.39.9g (Rigaku OD, 2015)'
_computing_data_reduction        'CrysAlisPro 1.171.39.9g (Rigaku OD, 2015)'
_computing_molecular_graphics    'Olex2 (Dolomanov et al., 2009)'
_computing_publication_material  'Olex2 (Dolomanov et al., 2009)'
_computing_structure_refinement  'ShelXL (Sheldrick, 2015)'
_computing_structure_solution    'ShelXT (Sheldrick, 2015)'
_diffrn_ambient_temperature      100(2)
_diffrn_detector                 'CCD area detector'
_diffrn_detector_area_resol_mean 28.5714
_diffrn_detector_type            'Rigaku HG Saturn724+ (2x2 bin mode)'
_diffrn_measured_fraction_theta_full 0.9329
_diffrn_measured_fraction_theta_max 0.9102
_diffrn_measurement_details
;
List of Runs (angles in degrees, time in seconds):

  # Type    Start    End  Width  t~exp~   \w     \q     \k     \f   Frames
--------------------------------------------------------------------------
  1  \w    -80.00  59.00   1.00   25.00    --  -19.00  18.00   0.00  139
  2  \w    -60.00  15.00   1.00   25.00    --  -19.00 -72.00  60.00   75
  3  \w    -56.00  -9.00   1.00   25.00    --  -19.00  72.00 150.00   47
  4  \w    -80.00 -69.00   1.00   25.00    --  -19.00  18.00  90.00   11
;
_diffrn_measurement_device       'four-circle \k diffractometer'
_diffrn_measurement_device_type  'Rigaku AFC12 FRE-VHF'
_diffrn_measurement_method       'profile data from \w-scans'
_diffrn_measurement_specimen_support 'MiTeGen MicroMesh'
_diffrn_orient_matrix_type
'CrysAlisPro convention (1999,Acta A55,543-557)'
_diffrn_orient_matrix_UB_11      0.0221922000
_diffrn_orient_matrix_UB_12      0.0256625000
_diffrn_orient_matrix_UB_13      0.0102693000
_diffrn_orient_matrix_UB_21      0.0168445000
_diffrn_orient_matrix_UB_22      -0.0108153000
_diffrn_orient_matrix_UB_23      -0.0021702000
_diffrn_orient_matrix_UB_31      0.0015141000
_diffrn_orient_matrix_UB_32      0.0021750000
_diffrn_orient_matrix_UB_33      -0.1306400000
_diffrn_radiation_collimation    0.3
_diffrn_radiation_monochromator  'Confocal mirrors, VHF Varimax'
_diffrn_radiation_probe          x-ray
_diffrn_radiation_type           'Mo K\a'
_diffrn_radiation_wavelength     0.71075
_diffrn_radiation_xray_symbol    K-L~3~
_diffrn_reflns_av_R_equivalents  0.1557
_diffrn_reflns_av_unetI/netI     0.2085
_diffrn_reflns_Laue_measured_fraction_full 0.996
_diffrn_reflns_Laue_measured_fraction_max 0.997
_diffrn_reflns_limit_h_max       34
_diffrn_reflns_limit_h_min       -39
_diffrn_reflns_limit_k_max       39
_diffrn_reflns_limit_k_min       -39
_diffrn_reflns_limit_l_max       7
_diffrn_reflns_limit_l_min       -7
_diffrn_reflns_number            27278
_diffrn_reflns_point_group_measured_fraction_full 0.997
_diffrn_reflns_point_group_measured_fraction_max 0.998
_diffrn_reflns_theta_full        25.242
_diffrn_reflns_theta_max         28.697
_diffrn_reflns_theta_min         3.674
_diffrn_source                   'Rotating Anode'
_diffrn_source_current           55.0
_diffrn_source_power             2.475
_diffrn_source_target            Mo
_diffrn_source_type              'Rotating Anode'
_diffrn_source_voltage           45.0
_exptl_absorpt_coefficient_mu    0.254
_exptl_absorpt_correction_T_max  1.00000
_exptl_absorpt_correction_T_min  0.31574
_exptl_absorpt_correction_type   multi-scan
_exptl_absorpt_process_details
'CrysAlisPro 1.171.39.9g (Rigaku Oxford Diffraction, 2015) Empirical absorption correction using spherical harmonics, implemented in SCALE3 ABSPACK scaling algorithm.'
_exptl_crystal_colour            'clear colourless'
_exptl_crystal_colour_lustre     clear
_exptl_crystal_colour_primary    colourless
_exptl_crystal_density_diffrn    1.254
_exptl_crystal_description       needle
_exptl_crystal_F_000             1620
_exptl_crystal_recrystallization_method
'The material was recrystallised from THF by slow evaporation'
_exptl_crystal_size_max          0.14
_exptl_crystal_size_mid          0.02
_exptl_crystal_size_min          0.02
_refine_diff_density_max         0.694
_refine_diff_density_min         -0.910
_refine_diff_density_rms         0.090
_refine_ls_abs_structure_details
;
 Flack x determined using 870 quotients [(I+)-(I-)]/[(I+)+(I-)]
 (Parsons, Flack and Wagner, Acta Cryst. B69 (2013) 249-259).
;
_refine_ls_abs_structure_Flack   0.02(9)
_refine_ls_extinction_method     none
_refine_ls_goodness_of_fit_ref   1.005
_refine_ls_hydrogen_treatment    constr
_refine_ls_matrix_type           full
_refine_ls_number_parameters     325
_refine_ls_number_reflns         6945
_refine_ls_number_restraints     367
_refine_ls_restrained_S_all      0.992
_refine_ls_R_factor_all          0.2199
_refine_ls_R_factor_gt           0.1018
_refine_ls_shift/su_max          0.001
_refine_ls_shift/su_mean         0.000
_refine_ls_structure_factor_coef Fsqd
_refine_ls_weighting_details
'w=1/[\s^2^(Fo^2^)+(0.1202P)^2^] where P=(Fo^2^+2Fc^2^)/3'
_refine_ls_weighting_scheme      calc
_refine_ls_wR_factor_gt          0.2070
_refine_ls_wR_factor_ref         0.2642
_reflns_Friedel_coverage         0.817
_reflns_Friedel_fraction_full    1.000
_reflns_Friedel_fraction_max     0.999
_reflns_number_gt                3222
_reflns_number_total             6945
_reflns_threshold_expression     'I > 2\s(I)'
_iucr_refine_instructions_details
;
TITL 2016sot0091_r1_100k_a.res in P6(5)
    2016sot0091_r1_100k.res
    created by SHELXL-2016/6 at 13:24:22 on 13-Dec-2016
REM Old TITL 2016sot0091_R1_100K in P6(1)
REM SHELXT solution in P6(5)
REM R1 0.236, Rweak 0.092, Alpha 0.017, Orientation as input
REM Flack x = 0.188 ( 0.076 ) from Parsons' quotients
REM Formula found by SHELXT: C25A N O5 Cl
CELL 0.71073 29.348 29.348 5.4131 90 90 120
ZERR 6 0.0019 0.0019 0.0004 0 0 0
LATT -1
SYMM -Y,+X-Y,0.667+Z
SYMM +Y-X,-X,0.333+Z
SYMM -X,-Y,0.5+Z
SYMM +Y,-X+Y,0.167+Z
SYMM -Y+X,+X,0.833+Z
SFAC C H Cl N O S
UNIT 156 204 6 6 30 6
DFIX 1.7 C26B Cl1B
DFIX 1.54 C23B C18
SADI Cl1A C26A Cl1B C26A
SADI C23B C18 C23A C18 C24B C23B C24A C23A C25B C24B C25A C24A C26B C25B =
 C26A C25A
RIGU
ISOR 0.01 0.02 C24B C24A C23B C23A C25A C25B C26A C26B Cl1B Cl1A
EADP Cl1A Cl1B
EADP C26A C26B
EADP C23A C23B
EADP C24A C24B
EADP C25A C25B

L.S. 4 0 0
PLAN  20
TEMP -173(2)
BOND $H
list 4
fmap 2 53
acta
SHEL 7 0.74
OMIT -2 5 0
OMIT 0 4 0
OMIT -3 5 0
OMIT 0 1 -1
REM <olex2.extras>
REM <HklSrc "%.\\2016sot0091_R1_100K.hkl">
REM </olex2.extras>

WGHT    0.120200
FVAR       0.39484
PART 1
CL1A  3    0.144274    0.186323    0.718438    10.70000    0.04912    0.08883 =
         0.17310    0.04301    0.01875    0.03953
PART 0
S1    6    0.345461    0.166381    0.160472    11.00000    0.02669    0.01929 =
         0.04649    0.00196    0.00462    0.01200
O1    5    0.524330    0.293569    0.465039    11.00000    0.04913    0.03802 =
         0.05761   -0.01716   -0.01447    0.03285
O2    5    0.534387    0.360941    0.696478    11.00000    0.04478    0.03573 =
         0.05916   -0.01395   -0.00970    0.02224
O3    5    0.426064    0.384491    0.574956    11.00000    0.03358    0.02647 =
         0.04992   -0.00381   -0.00705    0.02028
O4    5    0.360785    0.345541    0.295610    11.00000    0.03097    0.02568 =
         0.06353   -0.00388   -0.01333    0.01773
O5    5    0.390038    0.189128   -0.019757    11.00000    0.03300    0.02645 =
         0.04488    0.00606    0.01733    0.01286
N1    4    0.358736    0.201781    0.414086    11.00000    0.03546    0.02190 =
         0.04387    0.00483    0.00508    0.01903
AFIX  43
H1    2    0.371071    0.193495    0.544211    11.00000   -1.20000
AFIX   0
C1    1    0.594396    0.280896    0.612301    11.00000    0.02674    0.02136 =
         0.04390    0.00284    0.00091    0.00881
AFIX  43
H1A   2    0.614924    0.298736    0.471507    11.00000   -1.20000
AFIX   0
C2    1    0.612434    0.259876    0.784872    11.00000    0.02479    0.02225 =
         0.05172   -0.00185    0.00197    0.01272
AFIX  43
H2    2    0.645873    0.262785    0.761594    11.00000   -1.20000
AFIX   0
C3    1    0.583708    0.234683    0.990860    11.00000    0.02932    0.00980 =
         0.05072   -0.00560   -0.00552    0.00709
AFIX  43
H3    2    0.597259    0.220709    1.109590    11.00000   -1.20000
AFIX   0
C4    1    0.534162    0.229787    1.024225    11.00000    0.03240    0.01619 =
         0.05374    0.00066    0.00848    0.00473
AFIX  43
H4    2    0.513788    0.212348    1.166012    11.00000   -1.20000
AFIX   0
C5    1    0.515184    0.250142    0.852440    11.00000    0.02382    0.02749 =
         0.06129   -0.01678   -0.00574    0.01401
AFIX  43
H5    2    0.481527    0.246832    0.873781    11.00000   -1.20000
AFIX   0
C6    1    0.544988    0.275372    0.649094    11.00000    0.03136    0.02578 =
         0.05244   -0.01388   -0.01036    0.01748
C7    1    0.520776    0.336771    0.511857    11.00000    0.02107    0.02070 =
         0.05776   -0.01052    0.00109    0.01155
C8    1    0.497219    0.348219    0.288550    11.00000    0.03274    0.02520 =
         0.05078   -0.00790    0.00629    0.01956
AFIX  23
H8A   2    0.497767    0.381875    0.314750    11.00000   -1.20000
H8B   2    0.519198    0.352423    0.142106    11.00000   -1.20000
AFIX   0
C9    1    0.441348    0.305355    0.237742    11.00000    0.03467    0.01914 =
         0.03509   -0.00389    0.00124    0.01467
AFIX  23
H9A   2    0.440954    0.271750    0.212519    11.00000   -1.20000
H9B   2    0.429280    0.313747    0.082431    11.00000   -1.20000
AFIX   0
C10   1    0.402975    0.298022    0.441778    11.00000    0.02397    0.02419 =
         0.04119    0.00348    0.00012    0.01384
AFIX  13
H10   2    0.419688    0.299375    0.604652    11.00000   -1.20000
AFIX   0
C11   1    0.392878    0.343428    0.426751    11.00000    0.01915    0.02605 =
         0.04467    0.00469    0.00184    0.01299
C12   1    0.422771    0.431335    0.556812    11.00000    0.02520    0.02345 =
         0.04657   -0.00234   -0.00463    0.01533
C13   1    0.446998    0.464014    0.363814    11.00000    0.03083    0.02482 =
         0.04588   -0.00330   -0.00192    0.01535
AFIX  43
H13   2    0.465142    0.455883    0.241978    11.00000   -1.20000
AFIX   0
C14   1    0.444280    0.510016    0.350881    11.00000    0.03793    0.03223 =
         0.05182    0.00455    0.00177    0.01929
AFIX  43
H14   2    0.461524    0.534353    0.220552    11.00000   -1.20000
AFIX   0
C15   1    0.416785    0.520246    0.525759    11.00000    0.03366    0.02333 =
         0.05968   -0.00823   -0.00425    0.01837
AFIX  43
H15   2    0.413696    0.550863    0.512189    11.00000   -1.20000
AFIX   0
C16   1    0.393749    0.486421    0.720069    11.00000    0.03993    0.03336 =
         0.06191   -0.01052    0.00628    0.02186
AFIX  43
H16   2    0.375652    0.494129    0.843872    11.00000   -1.20000
AFIX   0
C17   1    0.396906    0.440955    0.735600    11.00000    0.03256    0.02629 =
         0.05090   -0.00295    0.00053    0.01741
AFIX  43
H17   2    0.381175    0.417161    0.869341    11.00000   -1.20000
AFIX   0
C18   1    0.350329    0.246670    0.425978    11.00000    0.02684    0.02424 =
         0.05183    0.00760    0.00797    0.01689
PART 1
AFIX  13
H18   2    0.330572    0.247160    0.276439    10.70000   -1.20000
AFIX  13
PART 0
PART 2
H18A  2    0.336105    0.247761    0.259577    10.30000   -1.20000
AFIX   0
PART 0
C19   1    0.344519    0.108545    0.296878    11.00000    0.02935    0.01377 =
         0.04981    0.00101    0.00616    0.00964
C20   1    0.335488    0.071834    0.081593    11.00000    0.04666    0.01633 =
         0.04818    0.00504    0.00577    0.01257
AFIX 137
H20A  2    0.300352    0.059476    0.012590    11.00000   -1.50000
H20B  2    0.338217    0.041632    0.139234    11.00000   -1.50000
H20C  2    0.362064    0.090690   -0.046056    11.00000   -1.50000
AFIX   0
C21   1    0.397695    0.124612    0.417238    11.00000    0.03698    0.02954 =
         0.05742   -0.00142   -0.00002    0.02342
AFIX 137
H21A  2    0.426145    0.148132    0.305913    11.00000   -1.50000
H21B  2    0.400296    0.093133    0.449570    11.00000   -1.50000
H21C  2    0.400666    0.142848    0.573231    11.00000   -1.50000
AFIX   0
C22   1    0.297953    0.083350    0.470792    11.00000    0.03153    0.02370 =
         0.05559    0.00505    0.00508    0.01262
AFIX 137
H22A  2    0.301944    0.108686    0.598901    11.00000   -1.50000
H22B  2    0.296275    0.052356    0.548154    11.00000   -1.50000
H22C  2    0.265484    0.072693    0.377943    11.00000   -1.50000
AFIX   0
PART 1
C23A  1    0.318440    0.242085    0.661580    10.70000    0.02652    0.02428 =
         0.04095    0.00124   -0.00011    0.01407
AFIX  23
H23A  2    0.334613    0.234594    0.804930    10.70000   -1.20000
H23B  2    0.319995    0.276094    0.692133    10.70000   -1.20000
AFIX   0
C24A  1    0.260332    0.198201    0.638960    10.70000    0.02706    0.02734 =
         0.04153    0.00609   -0.00139    0.01439
AFIX  23
H24A  2    0.242465    0.208336    0.513573    10.70000   -1.20000
H24B  2    0.258646    0.165249    0.583449    10.70000   -1.20000
AFIX   0
C25A  1    0.231971    0.188828    0.887262    10.70000    0.05060    0.05134 =
         0.05538    0.00328    0.01393    0.02862
AFIX  23
H25A  2    0.246675    0.173442    1.003379    10.70000   -1.20000
H25B  2    0.239640    0.223262    0.955304    10.70000   -1.20000
AFIX   0
C26A  1    0.173510    0.153503    0.877087    10.70000    0.05594    0.06965 =
         0.09973    0.01440    0.00254    0.03505
AFIX  23
H26A  2    0.159184    0.144315    1.046803    10.70000   -1.20000
H26B  2    0.164918    0.120551    0.789431    10.70000   -1.20000
AFIX   0
PART 0
PART 2
CL1B  3    0.124535    0.147696    1.003416    10.30000    0.04912    0.08883 =
         0.17310    0.04301    0.01875    0.03953
C26B  1    0.157226    0.143865    0.740617    10.30000    0.05594    0.06965 =
         0.09973    0.01440    0.00254    0.03505
AFIX  23
H26C  2    0.148730    0.106987    0.716957    10.30000   -1.20000
H26D  2    0.144507    0.154327    0.593771    10.30000   -1.20000
AFIX   0
C25B  1    0.216639    0.179104    0.760989    10.30000    0.05060    0.05134 =
         0.05538    0.00328    0.01393    0.02862
AFIX  23
H25C  2    0.229589    0.162144    0.877646    10.30000   -1.20000
H25D  2    0.223574    0.212617    0.837489    10.30000   -1.20000
AFIX   0
C24B  1    0.250137    0.192687    0.526456    10.30000    0.02706    0.02734 =
         0.04153    0.00609   -0.00139    0.01439
AFIX  23
H24C  2    0.236181    0.206120    0.396420    10.30000   -1.20000
H24D  2    0.250605    0.161323    0.462471    10.30000   -1.20000
AFIX   0
C23B  1    0.305525    0.235306    0.605247    10.30000    0.02652    0.02428 =
         0.04095    0.00124   -0.00011    0.01407
AFIX  23
H23C  2    0.305045    0.268428    0.632194    10.30000   -1.20000
H23D  2    0.313605    0.224854    0.765980    10.30000   -1.20000
AFIX   0
HKLF 4




REM  2016sot0091_r1_100k_a.res in P6(5)
REM R1 =  0.1018 for    3222 Fo > 4sig(Fo)  and  0.2199 for all    6945 data
REM    325 parameters refined using    367 restraints

END  
     
WGHT      0.1202      0.0000 

REM Highest difference peak  0.694,  deepest hole -0.910,  1-sigma level  0.090
Q1    1   0.1223  0.1422  0.3864  11.00000  0.05    0.69
Q2    1   0.1318  0.1553  0.5179  11.00000  0.05    0.65
Q3    1   0.0036  0.0041  0.8043  11.00000  0.05    0.38
Q4    1   0.5005  0.3587  0.8485  11.00000  0.05    0.32
Q5    1   0.2197  0.1407  0.4043  11.00000  0.05    0.30
Q6    1   0.4609  0.2413  0.5006  11.00000  0.05    0.27
Q7    1   0.1578  0.1234  0.5983  11.00000  0.05    0.27
Q8    1   0.1843  0.1746  0.2930  11.00000  0.05    0.26
Q9    1   0.5395  0.3211  0.6564  11.00000  0.05    0.25
Q10   1   0.4010  0.2044  0.3706  11.00000  0.05    0.25
Q11   1   0.3822  0.2201  0.6850  11.00000  0.05    0.25
Q12   1   0.3818  0.4403  0.2479  11.00000  0.05    0.25
Q13   1   0.2587  0.1143  0.6628  11.00000  0.05    0.24
Q14   1   0.4408  0.3172  0.5652  11.00000  0.05    0.24
Q15   1   0.4944  0.3158  0.6998  11.00000  0.05    0.24
Q16   1   0.4063  0.2209  0.1697  11.00000  0.05    0.24
Q17   1   0.4158  0.5354  0.6103  11.00000  0.05    0.24
Q18   1   0.2586  0.0814  0.7183  11.00000  0.05    0.24
Q19   1   0.0141  0.0547  1.1715  11.00000  0.05    0.24
Q20   1   0.4619  0.3425 -0.1189  11.00000  0.05    0.23

  REM The information below was added by Olex2.
  REM
  REM R1 = 0.1018 for 3222 Fo > 4sig(Fo) and 0.2199 for all 28658 data
  REM n/a parameters refined using n/a restraints
  REM Highest difference peak 0.69, deepest hole -0.91
  REM Mean Shift 0, Max Shift -0.001.

  REM +++ Tabular Listing of Refinement Information +++
  REM R1_all = 0.2199
  REM R1_gt = 0.1018
  REM wR_ref = 0.2642
  REM GOOF = 1.005
  REM Shift_max = -0.001
  REM Shift_mean = 0
  REM Reflections_all = 28658
  REM Reflections_gt = 3222
  REM Parameters = n/a
  REM Hole = -0.91
  REM Peak = 0.69
  REM Flack = 0.02(9)
;
_cod_data_source_file            ol7b01475_si_003.cif
_cod_data_source_block           2016sot0091_r1_100k
_cod_depositor_comments
'Adding full bibliography for 1546317--1546319.cif.'
_cod_original_cell_volume        4037.7(6)
_cod_database_code               1546317
_shelx_shelxl_version_number     2016/6
_shelx_space_group_comment
;
The symmetry employed for this shelxl refinement is uniquely defined
by the following loop, which should always be used as a source of
symmetry information in preference to the above space-group names.
They are only intended as comments.
;
_diffrn_measurement_device_type2 'Rigaku AFC12 (Right)'
_reflns_odcompleteness_completeness 93.29
_reflns_odcompleteness_iscentric 1
_reflns_odcompleteness_theta     30.87
_olex2_refinement_description
;
1. Fixed Uiso
 At 1.2 times of:
  All C(H) groups, All C(H,H) groups, All N(H) groups
 At 1.5 times of:
  All C(H,H,H) groups
2. Restrained distances
 C26B-Cl1B
 1.7 with sigma of 0.02
 C23B-C18
 1.54 with sigma of 0.02
 Cl1A-C26A \\sim Cl1B-C26A
 with sigma of 0.02
 C23B-C18 \\sim C23A-C18 \\sim C24B-C23B \\sim C24A-C23A \\sim C25B-C24B \\sim
C25A-C24A \\sim C26B-
 C25B \\sim C26A-C25A
 with sigma of 0.02
3. Uiso/Uaniso restraints and constraints
Uanis(C24B) \\sim Ueq, Uanis(C24A) \\sim Ueq, Uanis(C23B) \\sim Ueq,
Uanis(C23A) \\sim Ueq, Uanis(C25A) \\sim Ueq, Uanis(C25B) \\sim Ueq,
Uanis(C26A) \\sim Ueq, Uanis(C26B) \\sim Ueq, Uanis(Cl1B) \\sim Ueq,
Uanis(Cl1A) \\sim Ueq: with sigma of 0.01 and sigma for terminal atoms of 0.02
Uanis(Cl1A) = Uanis(Cl1B)
Uanis(C26A) = Uanis(C26B)
Uanis(C23A) = Uanis(C23B)
Uanis(C24A) = Uanis(C24B)
Uanis(C25A) = Uanis(C25B)
4. Rigid body (RIGU) restrains
 All non-hydrogen atoms
 with sigma for 1-2 distances of 0.004 and sigma for 1-3 distances of 0.004
5. Others
 Fixed Sof: Cl1A(0.7) H18(0.7) H18A(0.3) C23A(0.7) H23A(0.7) H23B(0.7)
 C24A(0.7) H24A(0.7) H24B(0.7) C25A(0.7) H25A(0.7) H25B(0.7) C26A(0.7)
 H26A(0.7) H26B(0.7) Cl1B(0.3) C26B(0.3) H26C(0.3) H26D(0.3) C25B(0.3)
 H25C(0.3) H25D(0.3) C24B(0.3) H24C(0.3) H24D(0.3) C23B(0.3) H23C(0.3) H23D(0.3)
6.a Ternary CH refined with riding coordinates:
 C10(H10), C18(H18), C18(H18A)
6.b Secondary CH2 refined with riding coordinates:
 C8(H8A,H8B), C9(H9A,H9B), C23A(H23A,H23B), C24A(H24A,H24B), C25A(H25A,H25B),
 C26A(H26A,H26B), C26B(H26C,H26D), C25B(H25C,H25D), C24B(H24C,H24D), C23B(H23C,
 H23D)
6.c Aromatic/amide H refined with riding coordinates:
 N1(H1), C1(H1A), C2(H2), C3(H3), C4(H4), C5(H5), C13(H13), C14(H14), C15(H15),
  C16(H16), C17(H17)
6.d Idealised Me refined as rotating group:
 C20(H20A,H20B,H20C), C21(H21A,H21B,H21C), C22(H22A,H22B,H22C)
;
_olex2_date_sample_submission    2016-12-05
_olex2_diffrn_ambient_temperature_device 'Oxford Cryosystems'
_olex2_exptl_crystal_mounting_method
'The crystal was mounted on a glass fibre silicon oil'
_olex2_submission_original_sample_id 'fals/7902/21.P5 '
_olex2_submission_special_instructions 'No special instructions were received'
_oxdiff_exptl_absorpt_empirical_details
;
Empirical correction (ABSPACK) includes:
- Absorption correction using spherical harmonics
- Frame scaling
;
_oxdiff_exptl_absorpt_empirical_full_max 1.931
_oxdiff_exptl_absorpt_empirical_full_min 0.591
loop_
_space_group_symop_operation_xyz
'x, y, z'
'-y, x-y, z+2/3'
'-x+y, -x, z+1/3'
'-x, -y, z+1/2'
'y, -x+y, z+1/6'
'x-y, x, z+5/6'
loop_
_atom_site_label
_atom_site_type_symbol
_atom_site_fract_x
_atom_site_fract_y
_atom_site_fract_z
_atom_site_U_iso_or_equiv
_atom_site_adp_type
_atom_site_occupancy
_atom_site_site_symmetry_order
_atom_site_calc_flag
_atom_site_refinement_flags_posn
_atom_site_refinement_flags_adp
_atom_site_refinement_flags_occupancy
_atom_site_disorder_assembly
_atom_site_disorder_group
Cl1A Cl 0.14427(18) 0.1863(2) 0.7184(14) 0.1014(18) Uani 0.7 1 d D U P A 1
S1 S 0.34546(9) 0.16638(8) 0.1605(4) 0.0306(5) Uani 1 1 d . U . . .
O1 O 0.5243(3) 0.2936(2) 0.4650(12) 0.0433(16) Uani 1 1 d . U . . .
O2 O 0.5344(3) 0.3609(2) 0.6965(13) 0.0456(17) Uani 1 1 d . U . . .
O3 O 0.4261(2) 0.3845(2) 0.5750(11) 0.0343(14) Uani 1 1 d . U . . .
O4 O 0.3608(2) 0.3455(2) 0.2956(12) 0.0385(16) Uani 1 1 d . U . . .
O5 O 0.3900(2) 0.1891(2) -0.0198(11) 0.0357(15) Uani 1 1 d . U . . .
N1 N 0.3587(3) 0.2018(3) 0.4141(14) 0.0317(17) Uani 1 1 d . U . . .
H1 H 0.371071 0.193495 0.544211 0.038 Uiso 1 1 calc R . . . .
C1 C 0.5944(3) 0.2809(3) 0.6123(17) 0.0321(19) Uani 1 1 d . U . . .
H1A H 0.614924 0.298736 0.471507 0.039 Uiso 1 1 calc R . . . .
C2 C 0.6124(3) 0.2599(3) 0.7849(17) 0.032(2) Uani 1 1 d . U . . .
H2 H 0.645873 0.262785 0.761594 0.039 Uiso 1 1 calc R . . . .
C3 C 0.5837(3) 0.2347(3) 0.9909(17) 0.0311(19) Uani 1 1 d . U . . .
H3 H 0.597259 0.220709 1.109590 0.037 Uiso 1 1 calc R . . . .
C4 C 0.5342(4) 0.2298(3) 1.0242(18) 0.037(2) Uani 1 1 d . U . . .
H4 H 0.513788 0.212348 1.166012 0.045 Uiso 1 1 calc R . . . .
C5 C 0.5152(3) 0.2501(3) 0.8524(19) 0.037(2) Uani 1 1 d . U . . .
H5 H 0.481527 0.246832 0.873781 0.044 Uiso 1 1 calc R . . . .
C6 C 0.5450(3) 0.2754(3) 0.6491(17) 0.035(2) Uani 1 1 d . U . . .
C7 C 0.5208(3) 0.3368(3) 0.5119(18) 0.0327(19) Uani 1 1 d . U . . .
C8 C 0.4972(3) 0.3482(3) 0.2885(17) 0.034(2) Uani 1 1 d . U . . .
H8A H 0.497767 0.381875 0.314750 0.041 Uiso 1 1 calc R . . . .
H8B H 0.519198 0.352423 0.142106 0.041 Uiso 1 1 calc R . . . .
C9 C 0.4413(3) 0.3054(3) 0.2377(16) 0.0291(19) Uani 1 1 d . U . . .
H9A H 0.440954 0.271750 0.212519 0.035 Uiso 1 1 calc R . . . .
H9B H 0.429280 0.313747 0.082431 0.035 Uiso 1 1 calc R . . . .
C10 C 0.4030(3) 0.2980(3) 0.4418(16) 0.0290(18) Uani 1 1 d . U . . .
H10 H 0.419688 0.299375 0.604652 0.035 Uiso 1 1 calc R . . . .
C11 C 0.3929(3) 0.3434(3) 0.4268(16) 0.0292(19) Uani 1 1 d . U . . .
C12 C 0.4228(3) 0.4313(3) 0.5568(16) 0.0303(19) Uani 1 1 d . U . . .
C13 C 0.4470(3) 0.4640(3) 0.3638(17) 0.033(2) Uani 1 1 d . U . . .
H13 H 0.465142 0.455883 0.241978 0.040 Uiso 1 1 calc R . . . .
C14 C 0.4443(4) 0.5100(4) 0.3509(19) 0.040(2) Uani 1 1 d . U . . .
H14 H 0.461524 0.534353 0.220552 0.048 Uiso 1 1 calc R . . . .
C15 C 0.4168(3) 0.5202(3) 0.5258(17) 0.037(2) Uani 1 1 d . U . . .
H15 H 0.413696 0.550863 0.512189 0.044 Uiso 1 1 calc R . . . .
C16 C 0.3937(4) 0.4864(4) 0.7201(19) 0.043(2) Uani 1 1 d . U . . .
H16 H 0.375652 0.494129 0.843872 0.052 Uiso 1 1 calc R . . . .
C17 C 0.3969(3) 0.4410(3) 0.7356(18) 0.035(2) Uani 1 1 d . U . . .
H17 H 0.381175 0.417161 0.869341 0.042 Uiso 1 1 calc R . . . .
C18 C 0.3503(3) 0.2467(3) 0.4260(16) 0.032(2) Uani 1 1 d D U . . .
H18 H 0.330572 0.247160 0.276439 0.039 Uiso 0.7 1 calc R . P B 1
H18A H 0.336105 0.247761 0.259577 0.039 Uiso 0.3 1 calc R . P C 2
C19 C 0.3445(3) 0.1085(3) 0.2969(17) 0.0315(19) Uani 1 1 d . U . . .
C20 C 0.3355(4) 0.0718(3) 0.0816(17) 0.038(2) Uani 1 1 d . U . . .
H20A H 0.300352 0.059476 0.012590 0.058 Uiso 1 1 calc GR . . . .
H20B H 0.338217 0.041632 0.139234 0.058 Uiso 1 1 calc GR . . . .
H20C H 0.362064 0.090690 -0.046056 0.058 Uiso 1 1 calc GR . . . .
C21 C 0.3977(3) 0.1246(4) 0.4172(18) 0.038(2) Uani 1 1 d . U . . .
H21A H 0.426145 0.148132 0.305913 0.057 Uiso 1 1 calc GR . . . .
H21B H 0.400296 0.093133 0.449570 0.057 Uiso 1 1 calc GR . . . .
H21C H 0.400666 0.142848 0.573231 0.057 Uiso 1 1 calc GR . . . .
C22 C 0.2980(3) 0.0834(3) 0.4708(18) 0.037(2) Uani 1 1 d . U . . .
H22A H 0.301944 0.108686 0.598901 0.056 Uiso 1 1 calc GR . . . .
H22B H 0.296275 0.052356 0.548154 0.056 Uiso 1 1 calc GR . . . .
H22C H 0.265484 0.072693 0.377943 0.056 Uiso 1 1 calc GR . . . .
C23A C 0.3184(4) 0.2421(7) 0.662(2) 0.030(3) Uani 0.7 1 d D U P A 1
H23A H 0.334613 0.234594 0.804930 0.036 Uiso 0.7 1 calc R . P A 1
H23B H 0.319995 0.276094 0.692133 0.036 Uiso 0.7 1 calc R . P A 1
C24A C 0.2603(4) 0.1982(5) 0.639(2) 0.032(3) Uani 0.7 1 d D U P A 1
H24A H 0.242465 0.208336 0.513573 0.038 Uiso 0.7 1 calc R . P A 1
H24B H 0.258646 0.165249 0.583449 0.038 Uiso 0.7 1 calc R . P A 1
C25A C 0.2320(5) 0.1888(6) 0.887(3) 0.051(4) Uani 0.7 1 d D U P A 1
H25A H 0.246675 0.173442 1.003379 0.061 Uiso 0.7 1 calc R . P A 1
H25B H 0.239640 0.223262 0.955304 0.061 Uiso 0.7 1 calc R . P A 1
C26A C 0.1735(6) 0.1535(8) 0.877(4) 0.073(4) Uani 0.7 1 d D U P A 1
H26A H 0.159184 0.144315 1.046803 0.088 Uiso 0.7 1 calc R . P A 1
H26B H 0.164918 0.120551 0.789431 0.088 Uiso 0.7 1 calc R . P A 1
Cl1B Cl 0.1245(4) 0.1477(5) 1.003(3) 0.1014(18) Uani 0.3 1 d D U P A 2
C26B C 0.1572(12) 0.1439(17) 0.741(7) 0.073(4) Uani 0.3 1 d D U P A 2
H26C H 0.148730 0.106987 0.716957 0.088 Uiso 0.3 1 calc R . P A 2
H26D H 0.144507 0.154327 0.593771 0.088 Uiso 0.3 1 calc R . P A 2
C25B C 0.2166(12) 0.1791(15) 0.761(6) 0.051(4) Uani 0.3 1 d D U P A 2
H25C H 0.229589 0.162144 0.877646 0.061 Uiso 0.3 1 calc R . P A 2
H25D H 0.223574 0.212617 0.837489 0.061 Uiso 0.3 1 calc R . P A 2
C24B C 0.2501(11) 0.1927(13) 0.526(5) 0.032(3) Uani 0.3 1 d D U P A 2
H24C H 0.236181 0.206120 0.396420 0.038 Uiso 0.3 1 calc R . P A 2
H24D H 0.250605 0.161323 0.462471 0.038 Uiso 0.3 1 calc R . P A 2
C23B C 0.3055(9) 0.2353(17) 0.605(6) 0.030(3) Uani 0.3 1 d D U P A 2
H23C H 0.305045 0.268428 0.632194 0.036 Uiso 0.3 1 calc R . P A 2
H23D H 0.313605 0.224854 0.765980 0.036 Uiso 0.3 1 calc R . P A 2
loop_
_atom_site_aniso_label
_atom_site_aniso_U_11
_atom_site_aniso_U_22
_atom_site_aniso_U_33
_atom_site_aniso_U_23
_atom_site_aniso_U_13
_atom_site_aniso_U_12
Cl1A 0.049(3) 0.089(3) 0.173(5) 0.043(4) 0.019(3) 0.040(3)
S1 0.0267(12) 0.0193(11) 0.0465(12) 0.0020(10) 0.0046(10) 0.0120(10)
O1 0.049(4) 0.038(4) 0.058(4) -0.017(3) -0.014(4) 0.033(3)
O2 0.045(4) 0.036(4) 0.059(4) -0.014(3) -0.010(3) 0.022(3)
O3 0.034(3) 0.026(3) 0.050(4) -0.004(3) -0.007(3) 0.020(3)
O4 0.031(3) 0.026(3) 0.064(4) -0.004(3) -0.013(3) 0.018(3)
O5 0.033(3) 0.026(3) 0.045(4) 0.006(3) 0.017(3) 0.013(3)
N1 0.035(4) 0.022(4) 0.044(4) 0.005(3) 0.005(3) 0.019(3)
C1 0.027(4) 0.021(4) 0.044(5) 0.003(4) 0.001(4) 0.009(4)
C2 0.025(4) 0.022(4) 0.052(5) -0.002(4) 0.002(4) 0.013(4)
C3 0.029(4) 0.010(4) 0.051(5) -0.006(4) -0.006(4) 0.007(4)
C4 0.032(5) 0.016(4) 0.054(5) 0.001(4) 0.008(4) 0.005(4)
C5 0.024(4) 0.027(5) 0.061(5) -0.017(4) -0.006(4) 0.014(4)
C6 0.031(5) 0.026(5) 0.052(5) -0.014(4) -0.010(4) 0.017(4)
C7 0.021(4) 0.021(4) 0.058(5) -0.011(4) 0.001(4) 0.012(4)
C8 0.033(4) 0.025(4) 0.051(5) -0.008(4) 0.006(4) 0.020(4)
C9 0.035(5) 0.019(4) 0.035(4) -0.004(4) 0.001(4) 0.015(4)
C10 0.024(4) 0.024(4) 0.041(5) 0.003(4) 0.000(4) 0.014(3)
C11 0.019(4) 0.026(4) 0.045(5) 0.005(4) 0.002(4) 0.013(4)
C12 0.025(5) 0.023(4) 0.047(5) -0.002(4) -0.005(4) 0.015(4)
C13 0.031(5) 0.025(4) 0.046(5) -0.003(4) -0.002(4) 0.015(4)
C14 0.038(5) 0.032(5) 0.052(5) 0.005(4) 0.002(5) 0.019(4)
C15 0.034(5) 0.023(5) 0.060(6) -0.008(4) -0.004(4) 0.018(4)
C16 0.040(6) 0.033(5) 0.062(6) -0.011(4) 0.006(5) 0.022(5)
C17 0.033(5) 0.026(5) 0.051(5) -0.003(4) 0.001(4) 0.017(4)
C18 0.027(4) 0.024(4) 0.052(5) 0.008(4) 0.008(4) 0.017(4)
C19 0.029(4) 0.014(4) 0.050(5) 0.001(4) 0.006(4) 0.010(4)
C20 0.047(6) 0.016(4) 0.048(5) 0.005(4) 0.006(4) 0.013(4)
C21 0.037(5) 0.030(5) 0.057(6) -0.001(4) 0.000(4) 0.023(4)
C22 0.032(5) 0.024(5) 0.056(5) 0.005(4) 0.005(4) 0.013(4)
C23A 0.027(5) 0.024(5) 0.041(6) 0.001(5) 0.000(5) 0.014(5)
C24A 0.027(5) 0.027(5) 0.042(6) 0.006(6) -0.001(5) 0.014(4)
C25A 0.051(6) 0.051(7) 0.055(7) 0.003(6) 0.014(5) 0.029(5)
C26A 0.056(6) 0.070(8) 0.100(9) 0.014(7) 0.003(6) 0.035(6)
Cl1B 0.049(3) 0.089(3) 0.173(5) 0.043(4) 0.019(3) 0.040(3)
C26B 0.056(6) 0.070(8) 0.100(9) 0.014(7) 0.003(6) 0.035(6)
C25B 0.051(6) 0.051(7) 0.055(7) 0.003(6) 0.014(5) 0.029(5)
C24B 0.027(5) 0.027(5) 0.042(6) 0.006(6) -0.001(5) 0.014(4)
C23B 0.027(5) 0.024(5) 0.041(6) 0.001(5) 0.000(5) 0.014(5)
loop_
_atom_type_symbol
_atom_type_description
_atom_type_scat_dispersion_real
_atom_type_scat_dispersion_imag
_atom_type_scat_source
C C 0.0033 0.0016 'International Tables Vol C Tables 4.2.6.8 and 6.1.1.4'
H H 0.0000 0.0000 'International Tables Vol C Tables 4.2.6.8 and 6.1.1.4'
Cl Cl 0.1484 0.1585 'International Tables Vol C Tables 4.2.6.8 and 6.1.1.4'
N N 0.0061 0.0033 'International Tables Vol C Tables 4.2.6.8 and 6.1.1.4'
O O 0.0106 0.0060 'International Tables Vol C Tables 4.2.6.8 and 6.1.1.4'
S S 0.1246 0.1234 'International Tables Vol C Tables 4.2.6.8 and 6.1.1.4'
loop_
_geom_angle_atom_site_label_1
_geom_angle_atom_site_label_2
_geom_angle_atom_site_label_3
_geom_angle
O5 S1 N1 112.6(3)
O5 S1 C19 106.3(4)
N1 S1 C19 97.9(4)
C7 O1 C6 118.4(7)
C11 O3 C12 116.5(6)
S1 N1 H1 119.6
C18 N1 S1 120.9(6)
C18 N1 H1 119.6
C2 C1 H1A 121.1
C2 C1 C6 117.8(8)
C6 C1 H1A 121.1
C1 C2 H2 119.1
C1 C2 C3 121.9(8)
C3 C2 H2 119.1
C2 C3 H3 120.4
C2 C3 C4 119.2(9)
C4 C3 H3 120.4
C3 C4 H4 120.1
C5 C4 C3 119.8(9)
C5 C4 H4 120.1
C4 C5 H5 120.2
C4 C5 C6 119.6(8)
C6 C5 H5 120.2
C1 C6 O1 118.5(8)
C5 C6 O1 119.7(8)
C5 C6 C1 121.7(8)
O1 C7 C8 108.5(7)
O2 C7 O1 124.5(9)
O2 C7 C8 127.0(8)
C7 C8 H8A 109.0
C7 C8 H8B 109.0
H8A C8 H8B 107.8
C9 C8 C7 112.8(7)
C9 C8 H8A 109.0
C9 C8 H8B 109.0
C8 C9 H9A 108.8
C8 C9 H9B 108.8
C8 C9 C10 113.9(7)
H9A C9 H9B 107.7
C10 C9 H9A 108.8
C10 C9 H9B 108.8
C9 C10 H10 108.8
C9 C10 C18 114.4(7)
C11 C10 C9 107.2(7)
C11 C10 H10 108.8
C11 C10 C18 108.7(7)
C18 C10 H10 108.8
O3 C11 C10 112.3(7)
O4 C11 O3 122.0(8)
O4 C11 C10 125.6(8)
C13 C12 O3 118.0(7)
C17 C12 O3 118.0(8)
C17 C12 C13 123.9(8)
C12 C13 H13 121.3
C12 C13 C14 117.4(9)
C14 C13 H13 121.3
C13 C14 H14 119.9
C15 C14 C13 120.2(9)
C15 C14 H14 119.9
C14 C15 H15 119.9
C16 C15 C14 120.2(8)
C16 C15 H15 119.9
C15 C16 H16 120.1
C15 C16 C17 119.9(9)
C17 C16 H16 120.1
C12 C17 C16 118.4(9)
C12 C17 H17 120.8
C16 C17 H17 120.8
N1 C18 C10 110.4(7)
N1 C18 H18 109.8
N1 C18 H18A 104.5
N1 C18 C23A 109.0(9)
N1 C18 C23B 110(2)
C10 C18 H18 109.8
C10 C18 H18A 104.5
C10 C18 C23A 108.0(8)
C10 C18 C23B 120.9(15)
C23A C18 H18 109.8
C23B C18 H18A 104.5
C20 C19 S1 105.3(6)
C20 C19 C21 109.5(7)
C21 C19 S1 110.1(6)
C22 C19 S1 107.1(6)
C22 C19 C20 109.7(7)
C22 C19 C21 114.7(8)
C19 C20 H20A 109.5
C19 C20 H20B 109.5
C19 C20 H20C 109.5
H20A C20 H20B 109.5
H20A C20 H20C 109.5
H20B C20 H20C 109.5
C19 C21 H21A 109.5
C19 C21 H21B 109.5
C19 C21 H21C 109.5
H21A C21 H21B 109.5
H21A C21 H21C 109.5
H21B C21 H21C 109.5
C19 C22 H22A 109.5
C19 C22 H22B 109.5
C19 C22 H22C 109.5
H22A C22 H22B 109.5
H22A C22 H22C 109.5
H22B C22 H22C 109.5
C18 C23A H23A 109.2
C18 C23A H23B 109.2
H23A C23A H23B 107.9
C24A C23A C18 112.0(10)
C24A C23A H23A 109.2
C24A C23A H23B 109.2
C23A C24A H24A 109.5
C23A C24A H24B 109.5
H24A C24A H24B 108.1
C25A C24A C23A 110.8(11)
C25A C24A H24A 109.5
C25A C24A H24B 109.5
C24A C25A H25A 108.5
C24A C25A H25B 108.5
H25A C25A H25B 107.5
C26A C25A C24A 115.1(14)
C26A C25A H25A 108.5
C26A C25A H25B 108.5
Cl1A C26A H26A 109.8
Cl1A C26A H26B 109.8
C25A C26A Cl1A 109.6(13)
C25A C26A H26A 109.8
C25A C26A H26B 109.8
H26A C26A H26B 108.2
Cl1B C26B H26C 109.2
Cl1B C26B H26D 109.2
H26C C26B H26D 107.9
C25B C26B Cl1B 112(2)
C25B C26B H26C 109.2
C25B C26B H26D 109.2
C26B C25B H25C 107.6
C26B C25B H25D 107.6
C26B C25B C24B 119(3)
H25C C25B H25D 107.0
C24B C25B H25C 107.6
C24B C25B H25D 107.6
C25B C24B H24C 110.7
C25B C24B H24D 110.7
C25B C24B C23B 105(2)
H24C C24B H24D 108.8
C23B C24B H24C 110.7
C23B C24B H24D 110.7
C18 C23B C24B 116(2)
C18 C23B H23C 108.2
C18 C23B H23D 108.2
C24B C23B H23C 108.2
C24B C23B H23D 108.2
H23C C23B H23D 107.3
loop_
_geom_bond_atom_site_label_1
_geom_bond_atom_site_label_2
_geom_bond_distance
Cl1A C26A 1.797(18)
S1 O5 1.495(6)
S1 N1 1.647(8)
S1 C19 1.838(8)
O1 C6 1.403(10)
O1 C7 1.347(10)
O2 C7 1.174(10)
O3 C11 1.368(10)
O3 C12 1.429(9)
O4 C11 1.206(9)
N1 H1 0.8800
N1 C18 1.458(10)
C1 H1A 0.9500
C1 C2 1.364(12)
C1 C6 1.390(12)
C2 H2 0.9500
C2 C3 1.370(12)
C3 H3 0.9500
C3 C4 1.400(12)
C4 H4 0.9500
C4 C5 1.365(13)
C5 H5 0.9500
C5 C6 1.370(13)
C7 C8 1.511(13)
C8 H8A 0.9900
C8 H8B 0.9900
C8 C9 1.511(12)
C9 H9A 0.9900
C9 H9B 0.9900
C9 C10 1.514(12)
C10 H10 1.0000
C10 C11 1.505(11)
C10 C18 1.529(11)
C12 C13 1.355(12)
C12 C17 1.344(12)
C13 H13 0.9500
C13 C14 1.393(12)
C14 H14 0.9500
C14 C15 1.371(12)
C15 H15 0.9500
C15 C16 1.370(13)
C16 H16 0.9500
C16 C17 1.386(12)
C17 H17 0.9500
C18 H18 1.0000
C18 H18A 1.0000
C18 C23A 1.547(13)
C18 C23B 1.531(16)
C19 C20 1.518(12)
C19 C21 1.532(12)
C19 C22 1.513(12)
C20 H20A 0.9800
C20 H20B 0.9800
C20 H20C 0.9800
C21 H21A 0.9800
C21 H21B 0.9800
C21 H21C 0.9800
C22 H22A 0.9800
C22 H22B 0.9800
C22 H22C 0.9800
C23A H23A 0.9900
C23A H23B 0.9900
C23A C24A 1.545(14)
C24A H24A 0.9900
C24A H24B 0.9900
C24A C25A 1.532(15)
C25A H25A 0.9900
C25A H25B 0.9900
C25A C26A 1.498(16)
C26A H26A 0.9900
C26A H26B 0.9900
Cl1B C26B 1.75(2)
C26B H26C 0.9900
C26B H26D 0.9900
C26B C25B 1.52(2)
C25B H25C 0.9900
C25B H25D 0.9900
C25B C24B 1.53(2)
C24B H24C 0.9900
C24B H24D 0.9900
C24B C23B 1.53(2)
C23B H23C 0.9900
C23B H23D 0.9900
loop_
_refln_index_h
_refln_index_k
_refln_index_l
_refln_F_squared_meas
_refln_F_squared_sigma
0 0 -7 36.73 26.32
0 0 -6 65.02 24.84
0 0 -5 -20.99 18.89
0 0 -4 -7.62 14.95
0 0 -3 15.33 13.23
0 0 -2 6.56 9.81
0 0 -1 14.13 6.96
0 0 1 0.62 5.75
0 0 4 -15.03 14.02
0 0 5 1.85 15.08
0 0 6 18.02 21.31
0 0 7 43.78 27.74
0 -1 -7 3.92 20.57
-1 0 -7 -10.01 19.24
1 -1 -7 -7.97 18.96
0 1 -6 -19.87 17.33
1 -1 -6 29.8 20.53
-1 0 -6 4.9 17.26
-1 1 -6 23.38 18.19
0 -1 -6 0.89 17.51
1 0 -6 9.6 20.24
-1 1 -5 -8.16 16.18
1 -1 -5 6.18 15.87
0 -1 -5 30.23 18.29
1 0 -5 -12.55 15.88
0 1 -5 4.69 16.07
-1 0 -5 8.73 16.58
-1 1 -4 20.95 17.59
1 0 -4 57.02 20.02
-1 0 -4 22.17 15.37
0 -1 -4 50.99 18.65
1 -1 -4 70.25 24.28
0 1 -4 49.53 18.52
0 -1 -3 12.23 15.35
-1 1 -3 14.13 8.29
1 0 -3 4.41 11.38
0 1 -3 -0.42 10.4
0 1 -3 0.45 3.79
1 -1 -3 12.68 12.88
-1 1 -3 5.56 12.04
-1 0 -3 5.33 10.59
-1 1 -2 226.74 17.3
0 1 -2 290.27 26
-1 1 -2 252.61 23.11
0 -1 -2 255.89 25.23
-1 0 -2 168.51 14.76
1 -1 -2 254.72 25.38
1 0 -2 250.72 25.04
-1 0 -2 258.46 23.17
0 1 -2 220.65 14.69
1 -1 -1 348.77 20.73
0 1 -1 356.49 19.54
0 -1 -1 364.36 20.29
-1 0 -1 356.79 18.09
-1 1 -1 370.28 16.55
1 0 -1 379.84 21.59
-1 0 -1 366.05 16.03
-1 1 -1 381.34 18.1
-1 1 1 390.57 21.19
1 -1 1 369.86 16.05
1 -1 1 383.22 18
0 -1 1 391.08 19.26
1 0 1 360.35 16.02
-1 0 1 338.75 19.85
-1 0 1 373.84 20.63
1 -1 2 251.8 21.76
1 -1 2 227.51 15.64
1 0 2 224.31 15.26
-1 0 2 264.05 24.2
0 -1 2 186.28 12.72
0 -1 2 242.62 22.33
-1 0 2 230.24 22.77
0 -1 3 22.77 13.39
-1 1 3 5.37 13.57
-1 0 3 -1.74 12.17
1 0 3 10.02 4.68
1 -1 3 12.26 4.95
0 -1 3 9.54 3.41
-1 1 4 26.07 19.13
1 -1 4 76.13 22.45
0 -1 4 22.38 16.88
0 1 4 61.79 23
-1 0 4 42.8 20.47
-1 1 5 7.12 15.85
0 -1 5 -12.41 12.99
1 -1 5 13.17 14.08
1 0 5 -24.26 19.84
-1 0 5 15.27 15.36
0 1 5 -4.01 16.05
-1 1 6 -13.83 22.6
-1 0 6 -9.58 16.75
1 -1 6 51.56 21.5
0 -1 6 6.04 18.23
1 0 6 11.42 20.15
0 1 6 -10.02 18.21
0 1 7 86.87 36.24
-1 1 7 31.3 26.73
-1 0 7 30.11 23.92
1 -1 7 -1.35 19.79
1 0 7 -7.88 28.87
0 -1 7 65.92 32.59
2 -1 -7 17.61 19.98
-1 -1 -7 -10.82 19.55
1 -2 -7 25.78 21.51
2 -1 -6 45.88 26.09
1 1 -6 5.89 18.13
-2 1 -6 30.75 21.23
-1 -1 -6 -8.9 17.47
1 -2 -6 20.01 22.41
-1 2 -6 -15.36 15.2
-2 1 -5 3.39 13.26
-1 -1 -5 16.27 16.19
1 1 -5 27.72 20.28
2 -1 -5 -13.2 17.84
1 -2 -5 25.44 20.35
-1 2 -5 26.57 19.79
1 1 -4 198.08 31.69
-1 2 -4 200.56 29.72
-1 -1 -4 234.53 34.14
-2 1 -4 217.95 33.09
2 -1 -4 243.17 35.63
1 -2 -4 205.51 33.12
2 -1 -3 103.08 22.41
-2 1 -3 24.69 10.3
1 1 -3 103.55 21.34
1 -2 -3 53.82 17.89
-1 2 -3 72.26 12.85
-1 2 -3 97.02 19.59
-2 1 -3 86.12 18.96
-1 -1 -3 86.41 18.58
-1 -1 -2 185.51 21.05
1 1 -2 234.05 24.98
-1 2 -2 208.77 21.89
1 -2 -2 216.54 23.65
-1 2 -2 213.11 16.8
-2 1 -2 187.72 18.32
2 -1 -2 239.81 25.54
-2 1 -2 225.73 20.83
1 -2 -1 873.91 32.79
-1 2 -1 873.45 26.98
1 1 -1 868.94 31.54
-2 1 -1 912.99 26.09
-1 2 -1 892.72 26.84
-2 1 -1 841.02 28.7
2 -1 -1 893.92 33.79
1 1 -1 895.41 29.46
-1 -1 1 876.71 31.09
-2 1 1 912.71 33.17
1 -2 1 905.92 27.48
-1 -1 1 882.32 28.31
1 -2 1 909.21 27.65
2 -1 1 891.05 28.77
1 1 1 852.95 26.33
-2 1 1 937.9 33.96
1 -2 2 170.97 20.24
-1 -1 2 198.63 21
2 -1 2 198.3 17.25
1 -2 2 185.9 15.25
-1 -1 2 183.65 20.91
-2 1 2 193.83 22.21
1 1 2 187.26 15.33
-2 1 2 177.5 22.51
-2 1 3 67.18 17.09
-1 -1 3 78.36 17.73
2 -1 3 61.42 10.07
1 1 3 73.35 9.7
-1 -1 3 59.23 17.37
1 -2 3 62.66 9.44
-1 -1 4 218.01 30.93
-2 1 4 219.96 34.79
1 -2 4 232.09 32.56
2 -1 4 136.26 13.45
-1 2 4 247.5 36.49
-1 2 5 12.08 21.61
-2 1 5 11.56 17.64
1 -2 5 3.11 15.34
1 1 5 -1.5 15.73
-1 -1 5 -3.53 16.74
2 -1 5 14.39 16.81
1 -2 6 37.08 22.45
-2 1 6 32.71 24.55
-1 -1 6 -7.76 15.55
-1 2 6 -15.11 20.38
1 1 6 28.79 25.59
2 -1 6 20.31 21.62
-1 -1 7 0.03 21.1
1 1 7 23.31 20.87
1 -2 7 -17.61 23.84
2 -1 7 10.89 20.34
-1 2 7 -30.29 27.69
-2 1 7 -18.37 22.56
2 -2 -7 7.52 20.68
0 -2 -7 3.49 22.09
2 -2 -6 69.66 31.38
0 2 -6 79.15 26.95
2 0 -6 110.48 34.96
-2 2 -6 79.1 28.58
0 -2 -6 45.16 27.53
-2 0 -6 75.2 28.04
-2 0 -5 -8.26 14.83
0 2 -5 10.06 18.07
2 -2 -5 36.12 24.95
0 -2 -5 33.68 20.22
-2 2 -5 15.88 14.6
2 0 -5 39.43 21.95
2 -2 -4 53.12 21.79
-2 0 -4 32.54 18.8
2 0 -4 48.13 21.18
0 -2 -4 79.36 22.15
-2 2 -4 75.08 19.89
-2 2 -4 27.12 8.53
0 2 -4 73.61 22.16
-2 2 -3 179.38 24.02
-2 2 -3 157.25 18.98
2 -2 -3 153.61 23.89
0 2 -3 168.35 24.73
0 -2 -3 139.4 23.79
-2 0 -3 153.29 23.4
2 0 -3 209.29 31.05
0 2 -3 166.1 14.3
-2 0 -2 114.38 16.29
2 0 -2 160.11 21.62
-2 2 -2 139.05 18.13
0 -2 -2 129.9 19.21
-2 0 -2 136.04 17.72
2 -2 -2 140.73 20.67
-2 2 -2 156.35 17.21
0 2 -2 142.27 18.15
0 2 -2 119.11 12.54
0 2 -1 1943.98 42
2 0 -1 1832.02 48.01
2 -2 -1 1883.74 49.78
-2 0 -1 1835.36 43.82
-2 2 -1 1954.28 43.65
0 2 -1 1922.13 38.52
2 0 -1 1996.19 46.24
-2 2 -1 1964.29 36.78
2 -2 0 -3.02 2.26
2 0 0 -1.51 2.09
-2 2 0 -2.26 2.66
0 2 0 -2.68 2.68
2 -2 1 1989.16 35.59
0 -2 1 1935.18 38.24
2 0 1 2002.39 44.01
-2 2 1 1963.43 48.91
2 -2 1 1967.43 43.76
0 -2 1 1902.48 38
0 -2 1 2001.8 43.08
-2 2 1 1910.32 49.48
-2 0 1 1922.14 45.14
-2 0 1 1855.31 48.93
2 -2 2 115.03 15.18
-2 0 2 128.43 19.31
2 0 2 143.81 15.41
0 2 2 131.27 12.54
-2 0 2 150.74 18.33
2 -2 2 132.33 15.22
0 -2 2 121.5 11.42
0 -2 2 127.79 17.11
0 -2 2 133.71 18.12
0 2 3 117.05 10.2
-2 2 3 197.94 28.46
-2 0 3 169.7 23.54
0 -2 3 192.98 24.63
0 -2 3 166.68 23.28
0 -2 3 128.72 11.73
2 -2 3 174.96 16.55
2 0 3 173.54 16.65
-2 0 4 73.07 21.89
0 -2 4 81.03 20.5
2 -2 4 64.99 20.39
2 0 4 38.04 7.61
-2 2 4 77.63 25.49
2 -2 4 45.7 8.81
-2 0 5 6.44 16.78
2 0 5 -9.99 16.46
2 -2 5 25.71 20.21
0 -2 5 46.55 21.33
0 2 5 -1.69 18.19
-2 2 5 25.68 20.98
-2 0 6 74.63 27.52
2 -2 6 90.27 30.87
-2 2 6 77.04 31.71
2 0 6 78.73 29.06
0 2 6 78.12 32.17
0 -2 6 100.01 33.37
0 -2 7 -19.44 19.77
2 -2 7 27.21 25.97
-2 2 7 25.85 27.19
0 2 7 8.29 25.57
-2 0 7 18.66 22.02
2 0 7 23.42 26.59
3 -2 -7 7.34 20.36
1 -3 -7 64.85 28.86
-2 -1 -7 76.68 29.17
2 1 -6 21.11 22.64
1 -3 -6 3.16 18.76
-2 -1 -6 23.71 19.34
-3 2 -6 30.23 21.94
3 -2 -6 31.13 26.38
-3 2 -5 17.14 17.54
3 -2 -5 32.66 19.75
1 -3 -5 48.24 22.42
-1 3 -5 38.18 20.24
2 1 -5 -10.82 18.95
-2 -1 -5 36.74 21.41
-2 -1 -4 17.14 16.35
3 -2 -4 -17.92 16.48
2 1 -4 5.64 15.03
-1 3 -4 -2.87 13.07
-3 2 -4 3.67 14.03
-1 3 -4 7.39 6.51
1 -3 -4 46.12 19.94
-3 2 -4 9.21 9.13
3 -2 -3 2.58 13.65
-1 3 -3 4.48 6.8
-1 3 -3 20.82 6.49
-3 2 -3 12.72 10.41
-1 3 -3 33.65 14.98
-3 2 -3 11.38 11.95
2 1 -3 54.25 17.31
1 -3 -3 25.48 13.46
-2 -1 -3 8.21 12.33
-1 3 -2 37.49 11.11
-2 -1 -2 20.46 10.52
-3 2 -2 24.72 10.61
1 -3 -2 44.68 13.7
-1 3 -2 14.58 8.41
3 -2 -2 48.47 14.87
2 1 -2 20.47 5.33
-3 2 -2 23.49 11.46
2 1 -2 18.68 11.89
2 1 -1 2160.97 46.7
-2 -1 -1 2111.42 46.3
-3 2 -1 2146.83 35.46
-1 3 -1 2145.1 47.68
3 -2 -1 2133.12 53.85
2 1 -1 2134.05 51.26
3 -2 -1 2144.26 54.48
-3 2 -1 2093.41 51.64
3 -2 0 0.66 1.67
-1 3 0 11.02 4.79
3 -2 0 -3.07 4.15
1 -3 0 0.59 3.44
-3 2 0 4.46 4.75
1 -3 1 2117.22 41.56
-1 3 1 2098.19 35.6
1 -3 1 2102.41 46.91
-1 3 1 2092.36 39.1
3 -2 1 2157.17 50.55
-2 -1 1 2116.86 45.26
2 1 1 2119.4 49.56
1 -3 1 2122.9 36.78
-2 -1 1 2137.83 52.16
-3 2 1 2176.47 53.79
-3 2 1 2150.02 53.13
-2 -1 2 23.45 9.16
1 -3 2 30.25 9.66
3 -2 2 8.6 9.3
-1 3 2 23.4 5.68
-1 3 2 20.96 6.8
1 -3 2 46.09 11.95
-2 -1 2 34.16 10.65
-3 2 2 39.97 13.94
1 -3 2 32.35 9.71
2 1 2 28.83 10.55
-3 2 2 33.85 13.93
1 -3 3 23.41 10.45
-3 2 3 4.73 12.01
1 -3 3 32.7 14.82
1 -3 3 25.39 8.08
3 -2 3 23.1 9.16
2 1 3 34.53 9.51
-2 -1 3 12.49 13.45
2 1 4 7.38 5.52
-1 3 4 2.58 18.79
3 -2 4 0.88 5.82
1 -3 4 4.9 13.2
-3 2 4 -8.46 15.59
-2 -1 4 -19.58 14.53
-2 -1 5 25.48 19.31
2 1 5 40.23 24.22
-3 2 5 40.88 23.5
-1 3 5 26.73 22.17
3 -2 5 11.28 16.14
1 -3 5 34.54 22.02
2 1 6 63.71 30.39
-2 -1 6 4.96 18.89
3 -2 6 50.06 23.03
1 -3 6 -10.6 16.75
-1 3 6 35.27 25.67
-3 2 6 -2.67 22.79
-2 -1 7 34.6 24.09
3 -2 7 2.46 20.47
-1 3 7 53.59 34.16
2 1 7 -10.61 26.15
1 -3 7 49.97 28.63
-3 2 7 -20.24 29.17
-1 -2 -7 27.25 21.63
2 -3 -7 34.31 25.36
-3 1 -6 7.14 17.77
-2 3 -6 7.4 17.16
-1 -2 -6 4.11 19.41
3 -1 -6 20.48 19.52
2 -3 -6 -45.21 27.54
2 -3 -5 51.53 27.3
-1 -2 -5 60.74 22.46
-3 1 -5 63.44 20.48
3 -1 -5 93.41 28.69
-2 3 -5 37.01 18.54
1 2 -5 45.95 20.7
-2 3 -4 51.63 17.81
-3 1 -4 31.69 16.39
1 2 -4 61.43 21.89
-1 -2 -4 52.32 22.73
-2 3 -4 32.73 10.66
3 -1 -4 67.19 23.45
2 -3 -4 21.22 14.67
1 2 -4 19.91 4.74
-3 1 -3 37.7 13.95
3 -1 -3 52.77 14.68
-3 1 -3 28.34 12.05
1 2 -3 12.33 14.08
2 -3 -3 32.86 18.11
-1 -2 -3 39 15.66
1 2 -3 40.86 7.39
-2 3 -3 61.76 18.22
-2 3 -3 60.27 12.85
-3 1 -2 48.97 12.13
-3 1 -2 49.84 14.08
1 2 -2 68.95 15.75
3 -1 -2 47.55 15.57
-2 3 -2 65.47 9.23
-2 3 -2 66.48 14.15
2 -3 -2 51.67 6.6
-2 3 -2 66.63 12.23
1 2 -2 65.24 9.76
2 -3 -2 77.29 18.13
-3 1 -1 3091.14 63.37
-2 3 -1 3187.61 60.08
2 -3 -1 3205.68 43.51
3 -1 -1 3256.71 66.25
1 2 -1 3209.67 51.2
3 -1 -1 3340.09 63.37
1 2 -1 3243.12 52.4
2 -3 -1 3221.61 65.63
3 -1 0 -0.45 4.14
3 -1 0 -2.85 2.06
2 -3 1 3260.45 46.91
2 -3 1 3180.88 59.95
-1 -2 1 3241.1 59.22
-2 3 1 3144.42 43.3
-1 -2 1 3181.8 50.98
-3 1 1 3260.55 63.13
3 -1 1 3215.26 62.02
-3 1 1 3233.38 66.74
1 2 1 3154.04 54.07
1 2 2 56.52 10.98
-1 -2 2 42.49 12.33
-1 -2 2 54.45 12.6
2 -3 2 46.69 10.04
2 -3 2 69.18 13.31
-3 1 2 77.59 16.1
3 -1 2 51.97 12.59
-3 1 2 44.83 13.06
3 -1 3 46.01 11
-1 -2 3 36.89 13.53
-3 1 3 59.71 18.6
1 2 3 28.98 7.49
2 -3 3 31.28 9.17
-1 -2 3 33.85 11.39
2 -3 4 28.14 7.53
-2 3 4 28.02 18.12
2 -3 4 20.93 14.67
3 -1 4 31.97 8.18
-1 -2 4 30.63 13.6
2 -3 5 54.69 22.61
3 -1 5 77.05 26.08
-2 3 5 92.61 30.05
-1 -2 5 64.17 21.83
1 2 5 106.61 30.92
-3 1 5 40.3 21.68
3 -1 6 -12.99 19.81
1 2 6 20.77 27.12
2 -3 6 -1.94 17.1
-1 -2 6 3.05 14.42
-2 3 6 -40.67 25.75
-3 1 6 -30.97 25.18
1 2 7 -25.35 25.14
-1 -2 7 -6.47 26.25
-2 3 7 -54.22 34.6
2 -3 7 42.8 28.14
3 -1 7 -7.68 22.45
-3 1 7 -19.05 24.76
3 -3 -7 -14.71 23.06
0 -3 -7 11.7 24.97
-3 0 -6 41.83 21.02
3 0 -6 24.23 21.97
0 -3 -6 53.51 25.18
3 -3 -6 65.76 27.94
-3 3 -6 63.93 23.82
-3 0 -5 46.95 20.95
3 0 -5 -17.16 21.04
-3 3 -5 7.96 14.79
3 -3 -5 -9.31 18.3
0 -3 -5 16.28 19.44
0 3 -5 76.52 26.86
-3 0 -4 337.73 37.03
0 -3 -4 330.21 39.2
-3 3 -4 209.08 22.12
-3 3 -4 355.64 38.27
3 0 -4 369.83 45.72
0 3 -4 380.78 42.65
3 -3 -4 295.72 40.62
-3 3 -3 53.97 13.5
3 -3 -3 51.02 19.1
3 0 -3 71.07 19.19
-3 0 -3 39.77 12.71
0 -3 -3 38.9 13.29
0 3 -3 83.33 19.2
3 -3 -3 41.28 6.08
-3 0 -3 79.56 18.99
0 3 -3 53.66 10.34
-3 3 -3 80.08 17.61
3 -3 -2 52.02 16.75
-3 3 -2 31.72 10.94
0 3 -2 38.98 10.27
-3 3 -2 19.59 11.77
-3 0 -2 36.9 12.45
0 3 -2 34.53 12.58
3 0 -2 34.28 12.78
-3 0 -2 56.11 13.01
-3 0 -1 1964.89 51.31
-3 3 -1 1902.7 49.53
3 0 -1 1930.75 47.89
3 -3 -1 1888.85 34.92
0 3 -1 1946.08 45.33
3 0 -1 1866.69 37.1
0 3 -1 1892.64 36.75
-3 3 -1 1959.24 32.12
3 0 -1 1953.33 51.02
3 0 0 -1.16 5.66
3 -3 0 -3.04 2.73
3 0 0 -0.17 2.95
3 -3 0 1.83 5.86
-3 3 0 5.22 6.41
0 -3 0 -0.72 4.15
-3 3 0 5.92 3.39
-3 0 0 -4.49 5.58
0 3 0 2.84 6.18
3 -3 1 1909.95 30.71
0 -3 1 1914.43 35.28
3 0 1 1740.49 50.54
-3 3 1 1947.91 52.77
-3 0 1 1940.01 47.14
3 -3 1 1945.81 41.59
3 -3 1 1950.85 50.32
-3 3 1 1873.49 34.85
0 -3 1 1866.94 44.46
-3 3 1 1922.72 51.63
-3 0 1 1902.33 51.1
0 -3 2 34.06 11.51
-3 0 2 43.13 14.42
-3 0 2 28.04 12.18
0 3 2 36.55 10.86
3 0 2 38.37 11.78
3 -3 2 46.08 13.09
3 -3 2 31.95 9.74
-3 3 2 32.42 12.74
0 -3 2 41.68 10.21
0 -3 2 36.56 10.54
0 -3 3 43.54 14.29
0 3 3 59.55 8.57
3 -3 3 81.55 14.52
-3 0 3 83.18 19.53
-3 3 3 58.52 19.03
3 0 3 72.78 13.69
0 -3 3 75.53 15.39
0 -3 3 54.38 9.68
3 -3 4 233.86 21.14
-3 3 4 366.5 45.68
3 0 4 267.97 22.29
0 -3 4 353.84 37.9
-3 0 4 321.58 38.5
3 -3 5 43.28 22.48
-3 3 5 -9.17 17.88
-3 0 5 16.53 17.41
0 -3 5 14.27 14.73
-3 0 6 38.19 26.54
0 -3 6 50.1 25.61
-3 3 6 8.51 22.11
0 3 6 19.89 27.19
3 0 6 20.79 21.22
3 -3 6 5.28 16.82
0 -3 7 -25.39 20.84
0 3 7 -14.76 24.72
3 -3 7 35.98 30.73
-3 0 7 60.65 28.13
3 0 7 12.77 26.37
-3 3 7 26.35 27.65
4 -3 -7 21.27 29.4
1 -4 -7 2.02 26.25
-4 3 -6 4.93 18.35
4 -3 -6 53.49 26.6
1 -4 -6 5.96 25.1
-3 -1 -6 23.25 19.86
3 1 -5 119.64 30.28
1 -4 -5 98.43 31.2
-4 3 -5 135.6 27.96
-3 -1 -5 133.18 29.49
4 -3 -5 131.22 34.24
4 -3 -4 29.69 17.35
-4 3 -4 44.98 19.14
-1 4 -4 41.97 18.49
1 -4 -4 -28.77 17.77
-3 -1 -4 25.74 13.74
-4 3 -4 21.56 12.12
-1 4 -4 7.69 7.42
3 1 -4 35.15 19.59
-1 4 -3 106.25 19.59
4 -3 -3 102.53 22.34
-4 3 -3 79.95 18.89
-4 3 -3 103.02 17.47
3 1 -3 87.09 21.9
1 -4 -3 100.07 19.25
-3 -1 -3 100.43 19.63
-1 4 -3 125.12 16.53
-1 4 -2 323.87 23.43
-4 3 -2 323.33 22.91
-3 -1 -2 386.25 26.37
3 1 -2 308.39 25.77
3 1 -2 307.02 28.78
4 -3 -2 378.48 32.28
3 1 -2 306.38 17.1
-4 3 -2 300.49 27.53
4 -3 -1 2116.89 57.82
3 1 -1 2183.55 49.39
4 -3 -1 2076.06 40.67
-3 -1 -1 2001.76 55.27
-1 4 -1 2094.71 51.9
-4 3 -1 2083.52 56.71
1 -4 0 36.71 9.38
4 -3 0 37.65 6.57
4 -3 0 36.19 6.18
3 1 0 30.61 9.43
-4 3 0 53.89 6.83
-4 3 0 37.47 5.87
-1 4 0 40.3 10.21
-4 3 0 36.56 9.67
4 -3 0 43.91 10.58
1 -4 1 2105.36 51.79
4 -3 1 2157.76 57.36
-3 -1 1 2158.88 47.7
-4 3 1 2066.66 41.08
1 -4 1 2066.81 32.02
-4 3 1 2253.83 57.85
-1 4 1 2114.09 46.9
-3 -1 1 2123.46 53.64
-4 3 1 2173.81 55.45
-4 3 2 313.93 28.96
1 -4 2 331.06 23.44
-1 4 2 321.79 18.68
3 1 2 362.75 27.62
-4 3 2 397.77 32.36
-3 -1 2 328.64 28.77
4 -3 2 320.18 24.89
1 -4 2 333.56 23.97
-3 -1 2 329.03 26.47
1 -4 2 379.29 27.37
1 -4 3 87.87 19.63
-4 3 3 115.92 23.7
4 -3 3 117.21 17.73
-1 4 3 62.63 9.18
-3 -1 3 88 18.08
1 -4 3 76.92 13.05
3 1 3 100.83 16.39
1 -4 3 98.49 18.97
-1 4 3 78.34 8.74
-3 -1 4 22.98 15.19
4 -3 4 8.77 8.09
-4 3 4 77.24 23.53
3 1 4 26.24 9.69
1 -4 4 54.69 19.19
-3 -1 5 156.43 31.57
4 -3 5 212.7 38.7
1 -4 5 163.95 31.03
-4 3 5 171.45 35.77
-1 4 5 126.18 34.6
1 -4 6 40.51 23.33
3 1 6 2.8 20.17
-3 -1 6 13.91 17.57
-1 4 6 -6.28 26.07
-4 3 6 -26.25 24.64
4 -3 7 22.65 27.94
3 1 7 -17.41 25.8
-4 3 7 25.28 27.7
-1 4 7 24.26 32.33
-3 -1 7 7.43 18.94
-2 -2 -7 -26.99 25.37
4 -2 -7 2.81 23.17
2 -4 -7 17.49 21.01
-4 2 -6 8.49 15.4
-2 -2 -6 17.91 20.2
2 -4 -6 74.75 29.83
4 -2 -6 44.23 26.67
-2 -2 -5 27.38 20.33
2 2 -5 62.71 22.93
-4 2 -5 28.41 15.84
2 -4 -5 52.77 23.4
-2 4 -5 48.96 20.18
4 -2 -5 46.37 24.18
-4 2 -4 17.66 10.97
-2 4 -4 7.47 12.42
2 2 -4 28.88 18.41
2 -4 -4 15.99 16.67
-2 4 -4 17.48 10.7
-4 2 -4 -5.16 11.93
-2 -2 -4 31.57 17.45
4 -2 -4 30.57 17.8
-4 2 -3 51.24 14.02
-2 -2 -3 35.92 12.64
-2 4 -3 56.54 15.05
-4 2 -3 68.82 15.88
2 -4 -3 43.7 16.72
4 -2 -3 53.1 19.5
-2 4 -3 49.62 12.71
2 2 -3 37.2 6.8
2 2 -3 71 19.44
2 -4 -2 8.59 11.66
-2 4 -2 22.39 9.19
2 2 -2 8.04 11.94
-4 2 -2 13.25 12.17
2 2 -2 19.59 7.62
-2 4 -2 27.5 9.63
4 -2 -2 -5.1 12.81
-4 2 -2 15.65 8.08
-4 2 -1 1628.74 50.92
4 -2 -1 1659.69 48.18
2 -4 -1 1611.22 38.33
2 2 -1 1654.75 39.82
4 -2 -1 1637.44 35.7
-2 4 -1 1599.96 47.28
4 -2 -1 1561.44 50.12
-2 4 0 1343.68 38.63
-4 2 0 1295.9 39.45
4 -2 0 1260.49 27.32
2 -4 0 1175.17 35.31
-4 2 0 1292.79 26.82
4 -2 0 1296.9 37.92
-4 2 0 1285.7 27.43
-2 4 1 1629.78 38.2
-4 2 1 1592.81 49.05
4 -2 1 1598.82 48.2
2 2 1 1691.95 46.35
-2 -2 1 1636.16 45.62
-2 -2 1 1661.73 38.97
2 -4 1 1644.56 47.44
-4 2 1 1635.31 46.96
-4 2 1 1608.68 36.3
2 2 2 16.63 11.01
-4 2 2 -14.72 12.75
-2 4 2 14.27 5.95
-2 -2 2 22.44 10.95
-4 2 2 29.72 13.24
2 -4 2 36.6 10.8
2 -4 2 19.77 8.56
-2 -2 2 18.77 10.95
4 -2 2 16.76 10.12
2 -4 3 67.01 15.8
2 2 3 60.94 12.35
4 -2 3 69.01 15.36
-4 2 3 72.88 20.16
2 -4 3 70.73 13.66
2 -4 3 50.63 12.7
-2 -2 3 75.44 16.99
-4 2 4 38.89 20.81
2 -4 4 5.54 12.26
-2 -2 4 12.21 14.57
4 -2 4 27.17 11.66
2 -4 4 12.16 6.73
2 2 4 13.02 7.03
-2 4 4 32.08 22.53
-2 -2 5 42.75 18.73
2 -4 5 54.77 23.31
-4 2 5 21.81 19.45
4 -2 5 11.58 15.92
-2 4 5 -2.03 18.35
-2 4 6 23.3 23.96
2 2 6 64.19 34.55
-2 -2 6 9.73 17.21
4 -2 6 41.18 23.91
-4 2 6 42.69 28.31
2 -4 6 52 24.92
2 2 7 55.15 40.39
-2 4 7 26.24 28.66
-4 2 7 8.82 24.8
4 -2 7 11.52 23.79
-2 -2 7 -5.77 18.18
3 -4 -7 40.14 27.41
-1 -3 -7 13.09 23.26
-1 -3 -6 -19.3 19.34
-4 1 -6 -3.28 18.45
3 -4 -6 -33.14 19.44
4 -1 -6 22.34 20.17
4 -1 -5 254.71 42.48
3 -4 -5 251.7 41.83
-4 1 -5 276.64 37.36
1 3 -5 231.68 38.66
-3 4 -5 230.33 34.84
-1 -3 -5 255.08 39.53
-3 4 -4 74.95 20.9
1 3 -4 74.03 20.99
-4 1 -4 68.52 19.89
-3 4 -4 60.99 16.2
4 -1 -4 49.65 20.43
3 -4 -4 52.13 19.48
-1 -3 -4 38.99 15.63
-4 1 -3 73.21 16.62
4 -1 -3 29.42 16.85
-3 4 -3 56.59 14.03
-1 -3 -3 50.94 15.74
-4 1 -3 44.03 16.15
3 -4 -3 45.18 18.18
1 3 -3 86.55 21
1 3 -3 58.18 9.92
-3 4 -3 54.01 15.81
-3 4 -2 264.82 21.52
4 -1 -2 248.78 27.34
-3 4 -2 226.3 22.44
3 -4 -2 266.23 28.36
-4 1 -2 222.7 24.86
1 3 -2 230.02 18.43
-4 1 -2 242.15 20.62
3 -4 -1 2197.63 43.33
-3 4 -1 2241.71 48.44
3 -4 -1 2235.21 58.29
4 -1 -1 2263.88 55.11
-4 1 -1 2067.75 58.82
1 3 -1 2262.24 50.27
-3 4 -1 2134.71 56.23
4 -1 -1 2282.73 45.43
4 -1 -1 1965.89 53.85
1 3 -1 2232.39 42.22
-3 4 0 368.88 13.81
4 -1 0 383.35 22.42
3 -4 0 390.25 21.78
-3 4 0 340.01 21.01
-4 1 0 367.79 16.67
3 -4 0 389.68 14.58
-4 1 0 382.94 22.55
4 -1 0 375.35 15.79
3 -4 0 375.44 20.04
-1 -3 1 2246.31 40.73
3 -4 1 2269.75 57.38
-4 1 1 2207.25 58.67
3 -4 1 2189.56 35.16
-4 1 1 2244.54 53.28
-3 4 1 2243.7 44.62
4 -1 1 2218.22 58.94
-4 1 1 2157.2 43.52
-4 1 2 246.89 25.85
4 -1 2 220.54 21.81
-1 -3 2 219.92 22.12
3 -4 2 242.9 20.24
3 -4 2 260.08 23.24
-1 -3 2 249.59 21.26
-4 1 2 219.08 26.18
1 3 2 204.15 20.58
1 3 3 57.66 11.84
-4 1 3 35.12 16.58
-1 -3 3 86.49 16.88
4 -1 3 54.08 14.13
-3 4 3 37.95 16.63
3 -4 3 60.77 12.7
-1 -3 3 38.64 13.44
1 3 4 32.44 6.91
-3 4 4 100.22 27.62
3 -4 4 89.42 22.01
-4 1 4 63.94 20.36
3 -4 4 24.37 9.81
4 -1 4 59.2 13.8
1 3 4 46.96 8.09
-1 -3 4 83.66 19.63
-1 -3 5 210.31 35.97
-4 1 5 217.5 38.1
3 -4 5 251.62 39.87
-3 4 5 275.59 47.65
4 -1 6 -21.96 20.76
3 -4 6 7 16.83
1 3 6 26.24 31.98
-1 -3 6 3.26 14.97
-4 1 6 14.35 18.62
-3 4 6 42.25 30.43
4 -1 7 36.72 29.61
-4 1 7 -5.14 24.54
1 3 7 52.57 33.48
-3 4 7 12.18 24.41
-1 -3 7 12.11 22.17
4 -4 -7 -2.43 28.64
0 -4 -7 -5.24 21.21
4 -4 -6 63.7 29.62
4 0 -6 47.31 25.67
-4 0 -6 -0.47 15.94
0 -4 -6 14.32 21.11
0 -4 -5 302.95 45.44
4 0 -5 287.22 45.04
4 -4 -5 304.65 46.04
-4 0 -5 258.84 39.96
-4 4 -5 314.01 40.7
0 4 -4 1.6 6.71
4 -4 -4 35.39 20.89
0 4 -4 47.49 17.35
-4 4 -4 10.67 13.29
-4 0 -4 15.85 14.74
0 -4 -4 16.4 15.11
4 0 -4 7.65 16.16
0 4 -4 9.15 5.84
-4 4 -4 2.96 10.96
0 4 -3 116.09 14.6
-4 4 -3 133.85 19.53
0 4 -3 132.14 22.92
0 -4 -3 133.04 22.44
-4 0 -3 159.49 22.41
-4 4 -3 150.93 20.82
4 -4 -3 133.84 25.5
-4 0 -3 176.99 22.91
4 0 -3 95.7 21.16
0 4 -2 23 10.17
-4 4 -2 5.19 12.01
4 -4 -2 4.23 12.91
4 0 -2 10.56 5.1
4 0 -2 8.8 10.81
-4 4 -2 13.09 7.96
4 0 -2 6.6 12.14
-4 0 -2 28.41 15.16
4 0 -2 10.05 6.69
4 0 -1 962.53 35.43
4 0 -1 902.55 37.72
4 -4 -1 944.92 40.51
4 -4 -1 900.85 30.32
0 4 -1 901.56 24.74
0 4 -1 860.63 35.4
4 0 -1 917.17 31.89
-4 0 -1 921.38 41.4
-4 4 -1 812.35 37.49
4 0 0 34.96 10.67
-4 4 0 49.78 11.21
-4 4 0 38.31 6.57
-4 0 0 40.98 10.86
4 -4 0 45.52 7.07
4 -4 0 42.99 9.82
4 0 0 40.56 7.32
0 4 0 50.29 10.88
4 -4 1 938.69 33.49
-4 0 1 906.77 37.78
0 -4 1 924.63 36.61
4 0 1 899.3 41.6
-4 0 1 969.39 34.82
-4 4 1 930.6 30.16
4 -4 1 998.67 40.5
0 -4 1 945.04 23.47
4 -4 2 8.41 11.07
0 4 2 18.19 9.02
0 -4 2 11.54 8.67
-4 0 2 10.91 12.18
0 -4 2 8.03 8.81
-4 4 2 10.92 13.35
-4 0 2 6.87 10.88
0 -4 2 20.69 9.59
4 0 2 8.01 12.03
4 0 3 94.78 16.58
-4 0 3 148.04 23.47
-4 4 3 150.55 28.76
0 -4 3 96.26 18.26
0 4 3 123.99 15.52
4 -4 3 132.67 19.26
0 -4 3 116.75 14.94
0 4 3 76.6 11.16
0 -4 3 146.14 20.91
-4 0 4 8.59 14.01
4 0 4 31.37 12.31
4 -4 4 14.81 10.24
-4 4 4 28.1 15.81
0 -4 4 51.62 15.98
0 -4 5 266.23 37.64
0 4 5 242.3 44.24
4 -4 5 266.89 42.26
-4 4 5 238.44 43.21
-4 0 5 300.97 41.73
-4 0 6 -25.16 22.38
0 4 6 2.46 22.17
0 -4 6 15.24 17.6
4 0 6 -13.44 19.31
4 -4 6 -7.66 22.93
-4 4 6 64.29 27.08
4 0 7 20.58 28.97
0 4 7 6.77 28.69
-4 0 7 6.71 21.21
-4 4 7 4.89 33.44
1 -5 -7 9.9 25.4
5 -4 -7 5.92 25.59
-5 4 -6 1.67 14.85
1 -5 -6 54.52 25.68
-4 -1 -6 44.57 21.79
5 -4 -6 -9.17 22.3
1 -5 -5 41.89 22.6
5 -4 -5 4.56 21.08
4 1 -5 -5.51 22.56
-4 -1 -5 -8.49 14.2
-5 4 -5 26.8 16.59
5 -4 -4 137.14 31.01
-1 5 -4 91.62 14.79
1 -5 -4 107.49 27.05
-4 -1 -4 119.55 26.03
4 1 -4 110.78 26.09
-5 4 -4 73.99 18.3
-5 4 -4 144.77 24.05
5 -4 -3 70.52 22.42
1 -5 -3 35.08 17.08
-1 5 -3 61.4 13.26
4 1 -3 63.5 17.64
-4 -1 -3 60.97 15.28
-5 4 -3 50.15 17.35
-5 4 -3 83.8 16.53
5 -4 -2 190.02 12.44
-4 -1 -2 185.64 23.01
-1 5 -2 257.07 24.14
-5 4 -2 224.38 25.1
4 1 -2 228.08 23.33
5 -4 -2 296.59 31.88
4 1 -2 318.38 30.03
-5 4 -2 259.6 19.14
4 1 -2 225.59 16.58
4 1 -2 230.26 17.16
-4 -1 -1 1693.48 53.94
4 1 -1 1594.67 44.31
4 1 -1 1708.97 45.81
5 -4 -1 1637.06 43.27
5 -4 -1 1689.11 54.25
5 -4 -1 1696.76 53.14
-5 4 -1 1623.11 54.92
-1 5 -1 1583.77 50.85
-1 5 -1 1663.4 28.89
5 -4 0 107.61 10.01
1 -5 0 91.07 14.4
5 -4 0 99.67 14.54
-5 4 0 98.68 14.49
-5 4 0 104.07 9.65
-1 5 0 100.76 14.92
5 -4 0 96.17 9.06
4 1 0 115.94 15.14
-5 4 0 109.93 9.61
-5 4 1 1530.63 49.06
1 -5 1 1629.38 26.01
1 -5 1 1664.67 50.96
-1 5 1 1683.76 47.7
-5 4 1 1740.11 54
-4 -1 1 1757.5 52.28
-4 -1 1 1695.36 44.28
-5 4 1 1656.53 43.73
5 -4 1 1679.68 55.66
4 1 1 1808.87 58.43
1 -5 2 248.9 23.2
-1 5 2 234.5 18.68
4 1 2 200.45 25.83
5 -4 2 249.5 24.49
-5 4 2 215.32 26.05
-4 -1 2 266.92 23.71
-5 4 2 199.01 25.3
-4 -1 2 283.02 27.31
-5 4 2 195.69 12.79
1 -5 2 241.82 19.18
1 -5 2 263.56 23.4
-5 4 3 36.81 18.19
-4 -1 3 61.07 17.21
1 -5 3 41.1 12.86
5 -4 3 58.19 14.16
1 -5 3 55.33 15.03
4 1 3 47.31 13.99
1 -5 3 54.22 12.3
-1 5 3 54.28 10.58
-1 5 3 45.96 9.3
-4 -1 4 139.96 27.31
4 1 4 95.3 17.86
5 -4 4 117.77 20.18
1 -5 4 118.14 24.21
-5 4 4 136.21 31.53
-5 4 5 104 32.6
1 -5 5 21.84 13.55
5 -4 5 52.65 22.23
-4 -1 5 11.93 22.17
-1 5 5 59.69 34.2
-5 4 6 14.39 20.92
-1 5 6 5.09 27.72
4 1 6 36.34 28.39
-4 -1 6 5.96 19.51
5 -4 6 34.91 23.46
1 -5 6 18.69 16.34
4 1 7 -14.81 32.1
-5 4 7 30.26 26.19
-1 5 7 12.46 26.33
-4 -1 7 7.71 18.01
2 -5 -7 0.6 22.73
5 -3 -7 10.01 26.09
5 -3 -6 -22.23 23.72
-5 3 -6 -9.32 15.29
-3 -2 -6 -6.76 16.59
2 -5 -6 -24.21 20.28
3 2 -5 46.11 21.67
-5 3 -5 100.34 24.21
5 -3 -5 95.95 29.45
2 -5 -5 73.63 28.25
-3 -2 -5 81.53 25.01
2 -5 -4 115.02 27.64
-5 3 -4 139.35 24.65
-3 -2 -4 101.25 23.1
-2 5 -4 123.82 18.62
3 2 -4 102.04 26.96
5 -3 -4 117.08 30.19
-5 3 -4 92.6 19.33
-5 3 -3 90.01 17.26
-2 5 -3 86.5 15.25
2 -5 -3 77.11 20.73
3 2 -3 77.78 9.55
-5 3 -3 78.47 18.44
5 -3 -3 68 20.73
-3 -2 -3 95.87 18.56
-2 5 -3 101.46 13.57
3 2 -3 94.85 23.73
5 -3 -2 36.26 15.24
-2 5 -2 58.23 14.11
-5 3 -2 51.76 11.14
-5 3 -2 27.4 13.63
3 2 -2 33.46 12.62
3 2 -2 18.64 7.75
-5 3 -1 584.56 34.83
5 -3 -1 618.71 34.48
5 -3 -1 596.25 26.73
2 -5 -1 608.32 27.65
-2 5 -1 593.35 31.9
3 2 -1 614.6 26.54
5 -3 -1 535.66 29.67
-5 3 0 25.38 5.9
5 -3 0 24.28 9.6
-5 3 0 13.82 5.41
5 -3 0 22.01 6.65
-5 3 0 25.73 10.6
5 -3 0 20.74 5.74
-2 5 0 10.13 8.61
2 -5 0 32.97 9.7
-5 3 1 599.22 25.97
-5 3 1 602.6 32.51
-5 3 1 648.27 31.58
-2 5 1 667.96 28.1
2 -5 1 595.01 32.34
-3 -2 1 610.29 24.88
-2 5 1 624.63 28.45
5 -3 1 636.33 34.67
3 2 1 619.19 32.29
3 2 2 32.89 14.9
-2 5 2 39.4 8.88
5 -3 2 54.63 10.27
-5 3 2 43.36 16
5 -3 2 49.07 14.46
2 -5 2 25.05 9.78
-5 3 2 51.23 14.95
-3 -2 2 51.14 12.62
2 -5 2 43.57 10.85
2 -5 2 38.9 9.93
-3 -2 2 35.25 12.8
-2 5 3 58.66 8.02
2 -5 3 93.62 17.97
-2 5 3 64.32 8.87
2 -5 3 101.7 19.07
3 2 3 113.26 18.63
2 -5 3 111.19 17.69
-3 -2 3 111.69 19.36
-5 3 3 130.64 24.92
5 -3 3 98.25 17.93
2 -5 4 124.23 25.32
-5 3 4 136.29 29.24
-3 -2 4 145.58 26.77
5 -3 4 121.89 19.93
3 2 4 88.76 15.7
2 -5 4 108.62 15.82
2 -5 5 84.21 23.66
-2 5 5 87.12 32.71
-5 3 5 74.6 24.59
-3 -2 5 78.79 23.34
2 -5 6 5.99 17.65
-2 5 6 -7 23.89
5 -3 6 -7.27 22.18
3 2 6 20.78 26.43
-3 -2 6 -10.66 16.18
-5 3 6 -3.1 20.31
3 2 7 10.5 27.22
-5 3 7 -3.8 24.5
-2 5 7 -15.74 32.95
5 -3 7 12.88 29.88
-3 -2 7 -19.09 20.02
3 -5 -7 -10.5 25.17
-2 -3 -7 62.23 30.3
-2 -3 -6 0.67 18.56
3 -5 -6 25.51 24.83
5 -2 -6 -16.48 23.03
-5 2 -6 4.1 15.07
-2 -3 -5 13.29 18.06
5 -2 -5 12.37 17.75
3 -5 -5 15.63 19.91
-5 2 -5 20.9 14.76
-2 -3 -4 68.72 19.97
5 -2 -4 45.2 19.33
-3 5 -4 66.85 17.44
2 3 -4 72.74 23.93
-5 2 -4 73.29 18.58
-5 2 -4 32 15.8
-3 5 -4 67.77 20.44
3 -5 -4 60.32 21.74
2 3 -3 148.25 14.3
-5 2 -3 167.69 25.39
-5 2 -3 184.57 21.99
-3 5 -3 138.06 20.94
2 3 -3 194.34 29.01
-3 5 -3 129.16 18.57
5 -2 -3 167.03 27.75
3 -5 -3 141.5 24.58
-2 -3 -3 139.57 21.99
2 3 -2 286.05 20.63
3 -5 -2 288.82 28.87
-3 5 -2 258.79 24.32
-5 2 -2 250.36 19.58
2 3 -2 293.1 25.45
-5 2 -2 227.65 27.36
5 -2 -2 329.25 29.73
5 -2 -2 300.45 30.31
-3 5 -2 283.9 21.17
5 -2 -1 417.75 27.37
2 3 -1 397.91 24.23
3 -5 -1 374.86 21.99
5 -2 -1 405.4 22.86
-3 5 -1 371.73 27.06
-5 2 -1 397.61 30.23
3 -5 -1 414.52 22.78
2 3 -1 367.7 19.51
5 -2 -1 418.14 25.48
5 -2 0 346.27 22.69
-3 5 0 320.09 22.51
-5 2 0 336.36 23.21
-5 2 0 319.54 16.9
-5 2 0 317.24 15.61
-3 5 0 351.3 21.61
5 -2 0 326.52 16.04
-3 5 0 337.42 14.75
3 -5 0 335.6 22.21
-2 -3 1 390.94 18.96
-5 2 1 391.41 22.44
-5 2 1 371.96 25.56
-5 2 1 398.75 25.11
3 -5 1 456.44 28.53
-3 5 1 398.87 22.06
5 -2 1 373.1 27.71
3 -5 2 243.17 23.79
-2 -3 2 253.24 21.5
-2 -3 2 246.5 24.35
-5 2 2 265.43 27.29
-5 2 2 248.72 26.49
2 3 2 204.21 23.75
5 -2 2 243.22 24.9
3 -5 2 249.14 20.18
-3 5 2 242.75 16.04
3 -5 3 186.97 20.8
3 -5 3 177.12 22.88
-2 -3 3 151.03 21.86
5 -2 3 133.87 21.23
2 3 3 208.69 22.36
3 -5 3 159 21.87
-5 2 3 156.01 24.95
-5 2 4 88.72 25.13
3 -5 4 78.89 22.04
-3 5 4 62.68 23.79
-2 -3 4 40.87 14.92
2 3 4 42.57 10.51
3 -5 4 36.13 11.84
5 -2 4 20.18 10.77
-5 2 5 38.35 21.85
-3 5 5 30.74 23.69
3 -5 5 41.2 21.42
-2 -3 5 29.15 19.05
-2 -3 6 -5.21 14.58
-3 5 6 -50.16 24.82
2 3 6 -44.67 29.35
5 -2 6 16.37 20.64
3 -5 6 22.28 21.69
-5 2 6 2.61 19.19
-5 2 7 -23.31 31.37
-3 5 7 0.82 24.94
2 3 7 -2.56 27.8
5 -2 7 -4.03 23.8
-2 -3 7 17.1 21.78
4 -5 -7 -7.07 22.65
-1 -4 -7 -18.61 23.46
-1 -4 -6 30.89 24.8
-5 1 -6 9.76 17.95
5 -1 -6 42.96 27.17
4 -5 -6 32.85 21.62
4 -5 -5 65.21 26.97
5 -1 -5 132.56 34.47
-4 5 -5 94.19 26.06
-1 -4 -5 72.11 24.88
-5 1 -5 55.25 20.72
1 4 -4 26.3 7.34
-4 5 -4 60.29 19.47
4 -5 -4 44.65 21
5 -1 -4 75.82 26.66
-1 -4 -4 58.77 19.01
-4 5 -4 39.29 14.7
-5 1 -4 67.13 20.25
-5 1 -3 138.15 20.13
-1 -4 -3 124.91 23.11
5 -1 -3 153.68 27.11
-4 5 -3 152.69 21.74
-4 5 -3 156.24 21.3
-5 1 -3 137.71 24.41
1 4 -3 143.96 15.84
4 -5 -3 117.59 25.76
5 -1 -2 819.01 28.29
-5 1 -2 913.07 49.4
1 4 -2 877.89 37.62
4 -5 -2 879.25 50.25
5 -1 -2 884.63 47.79
-4 5 -2 933.4 35.98
5 -1 -2 892.95 50.88
-4 5 -2 900.21 44.26
1 4 -1 155.42 12.07
-4 5 -1 165.06 20.15
5 -1 -1 162.47 16.3
5 -1 -1 132.98 16.41
4 -5 -1 161.22 18.7
5 -1 -1 195.99 20.2
1 4 -1 134.27 16.44
-5 1 -1 120.85 21.27
4 -5 -1 152.23 15.35
-4 5 0 1116.49 41.54
-5 1 0 1175.12 42.11
-5 1 0 1101.15 31.32
5 -1 0 1105.12 41.21
-4 5 0 1132.14 26.83
5 -1 0 1097.46 30.97
4 -5 0 1116.9 37.84
4 -5 0 1131.77 41.04
4 -5 0 1135.89 27.58
-4 5 1 157.95 15.57
-5 1 1 150.79 15.6
-4 5 1 137.59 17.09
5 -1 1 131.55 20.22
4 -5 1 154.53 17.38
-5 1 1 151.27 17.68
-1 -4 1 158.77 11.4
-5 1 1 157.74 16.43
-4 5 2 788.6 27.22
5 -1 2 883.4 45.28
1 4 2 884.41 40.05
-4 5 2 906.19 51.24
-5 1 2 898.81 48.71
4 -5 2 912.23 44.54
-1 -4 2 925.66 38.02
-5 1 2 957.37 46.46
4 -5 2 900.27 35.09
-1 -4 2 907.9 44.37
-5 1 3 165.41 24.99
4 -5 3 162.41 22.38
5 -1 3 164.5 21.93
-1 -4 3 119.69 20.97
-1 -4 3 153.77 21.16
-4 5 3 167.92 28.45
1 4 3 162.5 20.05
5 -1 4 67.04 16.28
-1 -4 4 46.33 14.48
1 4 4 65.2 11.27
1 4 4 37.45 8.59
4 -5 4 57.24 14.15
4 -5 4 65.92 17.14
-5 1 4 105.54 25.28
-4 5 4 73.42 24.55
-5 1 5 103.28 28.34
4 -5 5 98.19 25.07
-1 -4 5 96.56 25.59
-4 5 5 53.18 23.03
-4 5 6 -19.77 22.84
1 4 6 9.54 29.09
-1 -4 6 19.09 15.34
-5 1 6 18.38 20.48
5 -1 6 25.73 23.86
4 -5 6 45.56 24.84
1 4 7 1.12 26.92
-4 5 7 0.03 25.67
5 -1 7 -11.2 24.71
-5 1 7 11.31 27.07
0 -5 -7 -18.68 22.44
5 -5 -7 -17.87 23.57
5 -5 -6 24.53 22.17
-5 0 -6 30.3 18.73
0 -5 -5 -5.13 18.38
5 0 -5 -14.68 19.13
-5 5 -5 -5.94 9.47
5 -5 -5 -13.71 21.11
-5 5 -5 2.64 12.73
-5 0 -5 17.27 15.94
5 -5 -4 4.04 15.79
-5 5 -4 22.87 14.28
0 -5 -4 19.84 16.22
-5 0 -4 19.24 13.25
0 5 -4 21.57 8.83
-5 5 -4 28.46 13.78
5 0 -4 41.98 20.19
5 0 -3 81.5 22
-5 5 -3 88.82 19.41
-5 0 -3 71.64 18.94
5 -5 -3 83.25 23.14
-5 5 -3 67.11 15.61
-5 0 -3 80.56 16.51
0 5 -3 98.47 16.24
0 -5 -3 72.75 18.88
-5 5 -2 48.57 14.31
-5 0 -2 35.45 16
5 -5 -2 56.42 8.94
5 0 -2 77.68 19.29
5 0 -2 66.82 15.67
5 0 -2 57.92 12.06
5 -5 -2 52.63 15.78
-5 5 -2 70.29 11.26
0 5 -2 66.2 15.14
5 -5 -1 7.7 10.85
5 0 -1 10.7 11.27
-5 0 -1 -13.53 13.76
0 5 -1 15.53 10.26
-5 5 -1 -4.21 12.33
5 -5 -1 -2.76 7.99
0 5 -1 5.91 5.26
5 -5 -1 11.04 8.83
5 0 -1 0.31 8.72
0 5 0 1158.39 43.22
5 -5 0 1097.53 42.16
5 -5 0 1085.4 29.58
5 0 0 1123.54 32.6
5 0 0 1172.43 44.92
-5 5 0 1125.75 29.23
-5 5 0 1122.44 42.31
5 -5 0 1051.76 28.78
-5 0 0 1156.01 43.47
5 -5 1 5.39 11.99
-5 0 1 -3.16 8.32
0 -5 1 11.79 9.69
-5 5 1 0.86 10.47
-5 0 1 1.97 9.09
5 0 1 11.26 12.15
5 -5 1 10.88 9.69
0 -5 1 4.14 3.75
-5 5 1 1.96 8.49
5 -5 2 52.14 15.89
-5 0 2 69.21 17.43
0 -5 2 54.5 11.95
0 -5 2 56.77 12.99
-5 5 2 59.57 9.04
-5 0 2 60.04 17.45
-5 5 2 38.07 15.96
0 -5 2 68 11.77
5 0 2 48.43 14.96
0 5 3 70.82 12.46
5 -5 3 88.84 17.79
-5 0 3 91.69 18.56
0 -5 3 83.96 15.87
0 5 3 71.85 15.16
5 0 3 97.19 18.58
0 -5 3 69.36 18.44
-5 5 3 67.84 19.85
0 -5 3 58.85 12.92
-5 5 4 23.92 18.66
0 5 4 11.91 6.16
5 0 4 16.22 11.64
5 -5 4 9.73 10.5
0 -5 4 21.89 13.03
-5 0 4 9.55 13.31
0 5 4 9.94 5.24
-5 5 5 13.57 19.41
0 -5 5 17.02 15.11
5 -5 5 -24.71 16.89
-5 0 5 -12.17 16.11
0 -5 6 49.1 23.15
-5 5 6 4.84 21.08
-5 0 6 -8.98 24.63
5 -5 6 13.27 20.38
5 0 6 47.41 28.7
0 5 6 -34.58 31.05
-5 5 7 -13.02 27.98
5 0 7 -10.8 22.01
0 5 7 42.15 32.91
-5 0 7 39.69 26.85
1 -6 -7 30.74 31.74
6 -5 -7 13.5 22.66
1 -6 -6 20.14 21.89
6 -5 -6 -0.29 22.83
-5 -1 -6 1.04 15.08
6 -5 -5 181.66 37.27
-6 5 -5 149.85 26.91
-5 -1 -5 144.17 28.4
1 -6 -5 172.63 35.52
5 1 -4 104 27.22
6 -5 -4 46.51 9.28
-6 5 -4 57.67 15.08
-6 5 -4 94.72 19.95
1 -6 -4 111.71 25.73
-5 -1 -4 76.16 19.88
-1 6 -4 92.76 14.86
6 -5 -4 104.46 30.52
-1 6 -4 81.36 15.51
5 1 -3 9.75 5.1
5 1 -3 15.88 7.62
-5 -1 -3 31.23 11.99
-6 5 -3 32.42 12.44
-6 5 -3 10 11.3
5 1 -3 24.04 15.52
6 -5 -3 39.06 20.25
-1 6 -3 13.62 10.34
1 -6 -3 12.75 12.29
-6 5 -2 102.48 20.31
-6 5 -2 134.78 12.77
5 1 -2 88.93 14.15
6 -5 -2 96.79 11.35
-1 6 -2 102.25 17.34
6 -5 -2 146.07 24.94
5 1 -2 95.29 15.86
-5 -1 -2 105.95 20.65
-1 6 -1 1946.12 31.19
6 -5 -1 2112.73 55.46
5 1 -1 1941.95 54.75
-1 6 -1 1981.89 61.54
-5 -1 -1 2027.18 64.06
6 -5 -1 2046.91 60.82
-6 5 -1 1973.83 65.85
5 1 -1 1975.42 52.67
6 -5 -1 2070.32 62.08
6 -5 0 1078.68 31.45
-1 6 0 1153.4 44.68
-5 -1 0 1171.14 45.08
-6 5 0 1103.08 30.34
5 1 0 1129.01 44.59
-6 5 0 1082.41 45.08
6 -5 0 1086.2 44.97
-6 5 0 1064.98 30.09
6 -5 0 1067.88 30.16
-6 5 1 2037.4 58.68
1 -6 1 2008.95 61.4
-6 5 1 2055.45 55.28
-5 -1 1 1979.98 51.19
1 -6 1 1930.27 28.01
6 -5 1 2034 66.6
-1 6 1 2039.51 58.45
5 1 1 1943.83 67.96
-5 -1 1 2018.5 59.57
-6 5 1 1997.87 59.57
1 -6 2 92.95 15.89
1 -6 2 123.56 18.79
-5 -1 2 84.25 17.25
-6 5 2 102.25 11.87
-6 5 2 95.19 20.23
6 -5 2 88.04 19.3
1 -6 2 103.76 11.98
5 1 2 77.89 19.14
-6 5 2 90.76 17.79
-1 6 2 100.39 12.96
-1 6 2 128.13 16.28
-5 -1 2 120.48 18.62
6 -5 3 -2.09 10.97
5 1 3 18.73 10.36
1 -6 3 29.49 12.04
1 -6 3 15.87 12.55
-1 6 3 31.57 9.48
1 -6 3 -2.88 9.49
-5 -1 3 7.84 9.65
-6 5 3 2.17 13.9
-1 6 3 28.83 12.66
6 -5 4 88.08 19.09
5 1 4 89.2 18.4
-1 6 4 61.7 9.11
-5 -1 4 128 26.88
-6 5 4 107.47 25.88
-1 6 4 45.79 7.6
1 -6 4 106.5 20.85
-1 6 5 173.51 42.68
-6 5 5 164.67 38.58
6 -5 5 188.9 36.31
-5 -1 5 126 28.04
1 -6 5 144.12 28.45
-5 -1 6 -18.36 18.67
-1 6 6 -39.38 28.84
6 -5 6 12.48 21.09
-6 5 6 -6.45 22.34
1 -6 6 4.86 15.97
-1 6 7 49.21 30.34
5 1 7 2.71 24.72
-6 5 7 0.03 23.74
-5 -1 7 6.83 22.73
2 -6 -7 -37.38 28.1
6 -4 -7 9.48 24.28
-6 4 -6 10.15 14.7
6 -4 -6 21.6 19.98
2 -6 -6 40.78 25.44
-4 -2 -6 38.07 22.41
-4 -2 -5 15.87 17.8
-6 4 -5 47.41 18.38
-6 4 -5 10.9 12
6 -4 -5 47.41 24.28
2 -6 -5 50.57 21.81
-2 6 -4 116.3 18.06
6 -4 -4 146.48 29.96
-4 -2 -4 120.2 23.28
-6 4 -4 107.24 23.1
2 -6 -4 130.87 26.73
4 2 -4 157.64 30.99
-6 4 -4 140.08 23.95
4 2 -3 27.39 7.78
4 2 -3 40.24 17.65
-2 6 -3 54.08 14.45
2 -6 -3 9.5 13.68
-6 4 -3 49.52 14.64
4 2 -3 40.64 8.26
-6 4 -3 20.44 12.02
6 -4 -3 75.05 20.91
4 2 -2 491.62 26.81
-2 6 -2 461.93 32.57
6 -4 -2 473.81 38.79
-6 4 -2 428.02 35.61
6 -4 -2 395.18 20.02
-6 4 -2 502 24.11
4 2 -2 457.26 31.7
6 -4 -1 444.62 28.91
6 -4 -1 445.38 25.54
-6 4 -1 476.34 34.51
6 -4 -1 484.06 31.33
2 -6 -1 457.51 27.22
-2 6 -1 460.71 30.25
4 2 -1 473.13 25.29
-6 4 0 522.08 32.13
6 -4 0 558.41 22.98
-2 6 0 592.64 32.49
-6 4 0 573.75 22.54
-6 4 0 553.75 22.38
6 -4 0 550.97 32.45
2 -6 0 588.59 31.88
6 -4 0 592.75 22.2
-6 4 1 430.64 26.87
2 -6 1 408.42 29.4
-6 4 1 426.53 27.36
-2 6 1 446.81 28.05
-6 4 1 431.43 25.51
6 -4 1 460.58 31.86
4 2 1 400.35 29.99
-4 -2 1 454.87 23.08
2 -6 2 462.7 33.22
-6 4 2 473.86 36.52
2 -6 2 458.71 28.92
2 -6 2 457.25 23.77
6 -4 2 507.16 27.83
-2 6 2 434.05 25.98
-6 4 2 418.69 21.38
4 2 2 465.15 37.79
-6 4 2 461.35 36.34
-4 -2 2 479.05 30.93
-4 -2 2 487.15 36.16
6 -4 2 467.75 35
-2 6 3 45.51 10.54
4 2 3 36.51 14.36
-6 4 3 30.89 16.71
-4 -2 3 41.42 13.75
2 -6 3 48.32 12.83
6 -4 3 43.07 14.14
-2 6 3 36.1 8.13
2 -6 3 46.59 13.12
2 -6 3 74.14 15.95
2 -6 4 147.89 23.19
4 2 4 115.1 19.92
6 -4 4 134.24 23.46
-6 4 4 150.15 30.64
-4 -2 4 164.14 26.98
2 -6 4 101.92 16.96
-4 -2 5 16.87 14.72
-2 6 5 76.87 29.47
-6 4 5 17.75 21.52
2 -6 5 41.44 19.21
-6 4 6 -25.45 20.81
6 -4 6 8.18 22.4
4 2 6 66.89 31.66
-4 -2 6 -25.74 19.85
-2 6 6 53.92 33.1
2 -6 6 21.62 15.04
-2 6 7 -8.98 27.74
4 2 7 54.54 33.31
-4 -2 7 -22.86 21.52
-6 4 7 24.49 28.91
6 -3 -7 2.69 23.45
3 -6 -7 11.58 22.47
-3 -3 -7 -0.72 17.69
-3 -3 -6 0.67 16.14
3 -6 -6 -32.43 22.57
6 -3 -6 -31.99 24.98
-6 3 -6 -10.39 17.71
6 -3 -5 36.78 20.71
3 -6 -5 28.86 20.86
-3 -3 -5 39.36 21.78
-6 3 -5 23.57 15.19
-3 6 -4 94.19 18.07
-6 3 -4 57.7 15.76
-3 -3 -4 101.21 23
-6 3 -4 47.27 16.74
3 -6 -4 45.57 19.98
3 3 -3 62.58 10.66
-3 6 -3 62.44 14.88
6 -3 -3 58.24 19.29
-6 3 -3 65.47 20.24
3 -6 -3 82.21 20.76
-6 3 -3 47.42 14.76
-3 6 -3 72.4 13.04
3 3 -2 74.52 14.34
-3 6 -2 41.5 14.24
-6 3 -2 79.62 11.43
6 -3 -2 89.32 19.48
-6 3 -2 70.62 18.96
3 3 -2 76.69 12.92
6 -3 -2 70.99 9.67
6 -3 -2 69.4 17.15
3 -6 -2 84.45 18.49
6 -3 -1 1144.33 46.34
3 3 -1 1241.49 37.13
-3 6 -1 1225.29 49.12
6 -3 -1 1159.74 40.62
3 -6 -1 1169.4 40.85
-6 3 -1 1245.27 52.43
-3 6 0 4062.32 80.87
6 -3 0 4068.79 60.02
-6 3 0 4133.85 84
-6 3 0 4064.27 58.94
3 -6 0 4191.09 82.13
6 -3 0 4039.65 81.67
-6 3 0 4016.63 60.28
6 -3 1 1092.72 47.43
-3 6 1 1168.67 41.44
-6 3 1 1174.65 40.81
-3 -3 1 1205.11 34.79
-3 6 1 1202.11 40.25
-6 3 1 1119.1 44.7
-6 3 1 1145.91 43.17
3 3 1 1268.37 47.33
3 -6 1 1161.81 47.05
3 -6 2 66.73 12.07
-6 3 2 63.5 16.28
-3 6 2 66.21 11.05
-6 3 2 38.46 9.28
3 -6 2 53.04 15.49
-3 -3 2 63.72 14.15
3 3 2 56.43 16.17
6 -3 2 77.19 17.12
-6 3 2 53.74 14.38
-3 -3 2 61.61 13.27
3 -6 2 88.14 12.71
3 -6 3 73.37 15.95
-3 -3 3 62.13 14.55
3 -6 3 67.98 14.86
6 -3 3 52.39 14.65
-3 6 3 40.24 8.53
3 -6 3 51.79 12.13
-6 3 3 82.11 22.42
-3 6 3 50.52 8.31
3 3 3 93.87 19.38
-3 6 4 122.06 30.13
-3 -3 4 82.27 20.35
3 -6 4 46.37 13.55
3 3 4 83.04 16.46
3 -6 4 69.43 17.77
6 -3 4 100.17 21.01
-6 3 4 90.93 27
-3 6 5 32.17 26
3 -6 5 43.74 21.11
-6 3 5 39.09 20.86
-3 -3 5 54.47 18.41
-3 6 6 64.02 30.12
-6 3 6 -10.53 19.14
-3 -3 6 -3.21 14.51
3 3 6 22.45 25.36
6 -3 6 21.77 20.67
3 -6 6 -21.35 19.4
-3 6 7 -31.07 33.57
-6 3 7 53.14 33.06
6 -3 7 -6.46 24.4
-3 -3 7 4.89 17.12
3 3 7 -24.52 32.42
4 -6 -7 53.57 29.63
-2 -4 -7 6.76 21.21
-6 2 -6 30.33 17.69
-2 -4 -6 37.1 24.13
6 -2 -6 77.15 31.44
-6 2 -5 -17.66 13.12
-4 6 -5 -2.02 9.02
6 -2 -5 9.07 22.32
-2 -4 -5 -1.62 16.4
4 -6 -5 -2.82 19.17
-6 2 -4 -12.33 16.19
4 -6 -4 1.99 16.02
-2 -4 -4 3.78 17.55
-6 2 -4 4.96 11.94
-4 6 -4 26.58 12.56
6 -2 -4 3.66 17.65
2 4 -4 15.39 5.8
-4 6 -3 441.64 35.24
6 -2 -3 525.91 45.37
4 -6 -3 442.68 42.57
2 4 -3 477.05 28.58
-6 2 -3 388.16 30.28
-6 2 -3 470.13 39.93
6 -2 -2 422.4 21.87
2 4 -2 442.39 28.43
-6 2 -2 547.78 40.03
4 -6 -2 471.2 26.63
4 -6 -2 448.59 36.19
-4 6 -2 465.91 28.28
6 -2 -2 547.91 40.28
6 -2 -2 478.34 35.63
2 4 -2 431.7 29.49
-4 6 -2 477.21 33.33
-4 6 -1 259.66 26.22
6 -2 -1 279.4 22.49
4 -6 -1 251.03 20.57
-6 2 -1 233.71 26.65
4 -6 -1 260.61 21.01
-4 6 -1 268.72 22.55
6 -2 -1 284.62 22.13
6 -2 -1 265.71 23.43
2 4 -1 248.19 21.9
2 4 -1 299.04 17.75
-4 6 0 179.75 12.49
-4 6 0 177.85 18.21
-6 2 0 189.43 14.93
4 -6 0 181.47 18.52
-4 6 0 203.43 21.1
6 -2 0 178.81 20.4
6 -2 0 170.11 13.97
4 -6 0 175.44 18.9
-6 2 0 184.32 20.67
-4 6 1 259.64 21.22
6 -2 1 240.3 26.05
-2 -4 1 264.67 15.56
-6 2 1 253.82 22.23
4 -6 1 291.38 25.68
-6 2 1 285.51 23.25
-6 2 1 276.56 21.9
4 -6 2 445.12 26.29
2 4 2 466.81 33.26
-2 -4 2 447.73 27.11
-2 -4 2 466.01 33.66
-6 2 2 494.77 34.99
6 -2 2 420.94 33.2
-6 2 2 427.71 36.12
-4 6 2 401.73 22.69
4 -6 2 492.44 34.71
-2 -4 3 427.78 33.43
6 -2 3 447.51 36.66
2 4 3 455.02 36.75
4 -6 3 448.38 34.85
-6 2 3 469.29 41.48
4 -6 3 457.79 33.21
-4 6 3 476.92 43.79
6 -2 4 14.39 13.89
-6 2 4 -2.48 14.63
2 4 4 34.41 11.27
4 -6 4 17.45 13.16
4 -6 4 4.06 9.8
-4 6 4 -24.12 16.95
-2 -4 4 4.63 9.94
-6 2 5 15.23 20.38
-2 -4 5 22.79 15.12
4 -6 5 28.1 18.59
-4 6 5 1.94 18.43
6 -2 6 78.18 33.37
4 -6 6 42.63 25.23
-6 2 6 25.58 22.94
2 4 6 33.95 29.45
-2 -4 6 8.78 14.07
-4 6 6 -0.33 23.5
-4 6 7 34.82 31.96
2 4 7 -48.3 36.38
-6 2 7 69.4 32.9
6 -2 7 14.81 24.5
-1 -5 -7 7.25 20.18
5 -6 -7 -2.68 25.82
-6 1 -6 32.47 19.7
-1 -5 -6 10.86 19.72
5 -6 -6 0.44 20.7
6 -1 -6 36.2 24.88
5 -6 -5 6.23 17.41
-5 6 -5 16.47 13.54
-6 1 -5 6.11 13.92
6 -1 -5 19.38 20.85
-1 -5 -5 18.97 19.71
1 5 -4 39.05 10.39
-1 -5 -4 58.94 19.81
-5 6 -4 58.22 19.64
6 -1 -4 37.74 21.76
-5 6 -4 30.32 13.36
5 -6 -4 30.62 20.41
-6 1 -4 23.15 15.01
-6 1 -3 30.45 12.42
-6 1 -3 33.02 16.34
-5 6 -3 31.27 12.21
1 5 -3 37.72 11.76
5 -6 -3 19.97 15.5
6 -1 -3 22.42 15.51
-5 6 -3 38.46 15.7
5 -6 -3 33.3 9.18
1 5 -2 197.56 21.15
6 -1 -2 190.83 25.78
5 -6 -2 220.86 29.46
5 -6 -2 198.5 16.15
6 -1 -2 191.03 23.25
1 5 -2 216.19 19.9
6 -1 -2 235.63 19.62
-6 1 -2 174.64 25.98
-5 6 -2 202.13 24.26
6 -1 -1 146.04 19.09
-6 1 -1 177.08 23.89
1 5 -1 182.5 13.15
6 -1 -1 201.69 19.64
1 5 -1 179.43 19.85
5 -6 -1 186.44 22.09
-5 6 -1 195.13 22.71
5 -6 -1 184.28 18.16
6 -1 0 9928.51 134.59
-5 6 0 9989.7 132.15
5 -6 0 9643.32 88.99
5 -6 0 9999 133.35
-5 6 0 9857.63 87.02
6 -1 0 9793.53 99.75
-6 1 0 9883.21 132.1
-6 1 1 205.36 18.97
-5 6 1 191.66 18.92
-6 1 1 166.52 20.1
5 -6 1 195.86 23.71
5 -6 1 212.37 20.95
-6 1 1 194.17 20.21
-1 -5 1 199.17 12.52
-5 6 1 230.59 21.71
6 -1 1 184.02 25.83
-5 6 2 210.37 16.95
5 -6 2 218.1 16.63
-1 -5 2 221.46 23.3
-1 -5 2 202.87 18.43
-6 1 2 212.36 25.11
-5 6 2 237.34 27.97
-6 1 2 231.29 24.46
6 -1 2 215.97 26.88
5 -6 2 189.44 23.64
-5 6 3 51.21 20.75
5 -6 3 56.24 16.61
-1 -5 3 28.54 10.86
6 -1 3 55.92 16.76
-6 1 3 11.23 12.21
-1 -5 3 26.02 12.83
1 5 3 26.61 13.15
6 -1 3 46.75 7.73
1 5 4 27.09 9.5
-6 1 4 33.04 15.38
-1 -5 4 35.29 15.84
-5 6 4 36.68 19.94
1 5 4 42.68 10.98
5 -6 4 41.3 14.8
5 -6 4 51.07 17.16
6 -1 4 56.52 17.46
-1 -5 5 -10.66 15.78
5 -6 5 -1.86 16.43
-5 6 5 -4.8 18.42
-6 1 5 5.32 17.8
-6 1 6 44.45 24.72
6 -1 6 -9.76 20.37
-1 -5 6 62.74 21.14
1 5 6 6.22 25.73
-5 6 6 -11.62 21.36
5 -6 6 75.08 28.62
-5 6 7 76.16 37.16
6 -1 7 22.64 29.79
1 5 7 -5.37 34.21
-6 1 7 44.56 27.4
0 -6 -7 16.89 26.7
6 -6 -7 23.8 25.77
0 -6 -6 12.42 22.45
6 -6 -6 -18.29 25.28
-6 0 -6 31.03 17.12
6 0 -5 9.84 16.86
0 -6 -5 -10.55 16.22
-6 6 -5 -11.78 13.53
-6 0 -5 -7.3 14.12
6 -6 -5 -9.66 22.46
6 -6 -4 26.21 19.21
6 0 -4 62.11 24.52
-6 0 -4 27.26 14.43
0 6 -4 56.82 14.13
-6 6 -4 26.79 13.46
-6 6 -4 29.56 14.74
0 -6 -4 33.46 14.4
6 -6 -3 249.64 36.05
-6 6 -3 261.96 24.75
-6 0 -3 228.33 31.35
6 0 -3 169.58 12.84
-6 6 -3 180.94 26.23
0 6 -3 196.4 22.82
6 0 -3 223.82 31.35
-6 0 -3 208.51 23.57
6 0 -2 46.35 13.96
-6 0 -2 45.69 16.97
0 6 -2 46.91 14.41
6 0 -2 33.37 14.52
6 -6 -2 54.52 16.91
-6 6 -2 55.17 17.71
6 -6 -2 35.68 8.63
6 0 -2 41.56 11.8
0 6 -1 77.59 15.88
0 6 -1 106.79 9.46
6 -6 -1 79.6 16.29
6 0 -1 81.28 13.34
-6 0 -1 89.83 17.64
6 -6 -1 105.38 17.31
6 -6 -1 116.7 16.04
-6 6 -1 97.23 20.87
6 0 -1 104.87 17.72
6 0 0 1146.62 36.76
6 -6 0 1137.9 48.18
0 6 0 1167.89 47.36
6 -6 0 1168.51 33.5
6 0 0 1146.22 48.54
-6 6 0 1195.03 47.62
-6 0 0 1133.91 47.61
-6 6 0 1143.65 31.88
6 -6 0 1156.53 32.92
6 0 1 98.39 20.25
0 6 1 108.9 18.68
-6 6 1 104.65 16.06
-6 6 1 116.55 15.73
0 -6 1 101.1 16.87
-6 0 1 96.42 13.88
6 -6 1 100.18 17.69
-6 0 1 101.1 15.1
6 -6 1 125.14 17.36
0 -6 1 108.89 8.61
-6 6 2 32.54 15.03
-6 0 2 46.94 15.59
6 0 2 58.2 18.96
0 -6 2 46.48 11.38
0 -6 2 41.07 12.95
0 -6 2 57.49 10.43
-6 0 2 55.46 16.37
-6 6 2 47.38 9.74
6 -6 2 93.91 19.74
6 -6 3 203.32 26.18
0 -6 3 212.66 22.61
-6 6 3 227.83 33.31
0 6 3 207.53 20.46
0 6 3 240.55 24.56
0 -6 3 186.55 26.46
-6 0 3 175.21 24.53
6 0 3 209.44 27.98
0 6 4 30.35 8.65
-6 0 4 63.48 21.57
0 6 4 36.39 9.75
-6 6 4 45.65 22.25
6 0 4 51.48 16.7
0 -6 4 61.89 15.32
6 -6 4 11.06 13.6
6 -6 5 22.28 17.43
-6 6 5 -14.96 17.64
-6 0 5 1.61 16.88
0 -6 5 -14.25 13.06
-6 6 6 67.44 32.7
6 -6 6 30.84 22.21
0 6 6 76.93 35.08
0 -6 6 62.53 23.35
-6 0 6 56.31 26.57
-6 6 7 7.79 28.86
-6 0 7 2.2 20.17
0 6 7 -4.25 36
6 0 7 9.2 25.38
1 -7 -7 10.19 25.39
7 -6 -7 16.38 26.29
1 -7 -6 8.09 25.97
7 -6 -6 61.73 31.46
-6 -1 -6 8.74 17.72
-7 6 -5 14.66 14.18
-7 6 -5 18.07 15.98
-6 -1 -5 7 12.69
1 -7 -5 -15.99 21.12
7 -6 -5 0.06 17.94
-1 7 -4 33.54 13.2
-7 6 -4 43.13 13.69
-7 6 -4 21.35 17.12
7 -6 -4 33.95 9.35
-6 -1 -4 40.13 17.93
6 1 -4 29.55 18.82
1 -7 -4 46.85 22.04
7 -6 -4 57.7 24.59
6 1 -3 123.53 14.2
-7 6 -3 124.43 24.69
-7 6 -3 131.34 16.72
7 -6 -3 125.61 28.22
-1 7 -3 137.05 21.73
6 1 -3 119.42 15.63
7 -6 -2 472.79 39.2
-7 6 -2 598.44 22.61
6 1 -2 597.83 33.99
7 -6 -2 588.81 28.7
-6 -1 -2 561.76 42.69
-7 6 -2 539.75 41.86
-1 7 -2 587.23 39.03
6 1 -2 590.33 38.59
-7 6 -1 1627.18 65.17
7 -6 -1 1674.01 58.43
6 1 -1 1765.37 57.47
-1 7 -1 1700.72 29.62
7 -6 -1 1761.52 56.11
7 -6 -1 1680.06 58.01
-1 7 -1 1795.01 61.71
-6 -1 -1 1732.21 64.41
6 1 -1 1801.99 52.56
7 -6 0 651.68 26.59
-6 -1 0 716.06 39.16
7 -6 0 649.75 38.02
-1 7 0 644.26 37.61
-7 6 0 585.57 38.72
-7 6 0 668.82 26.35
7 -6 0 659.99 26.18
6 1 0 630.67 28.59
6 1 0 644.57 38.19
1 -7 0 587.68 35.53
6 1 1 1787.36 67.42
-7 6 1 1769.61 56.58
-1 7 1 1663.15 57.37
-6 -1 1 1720.32 50.38
7 -6 1 1707.82 66.12
1 -7 1 1785.46 62.5
-7 6 1 1739.59 56.89
-7 6 1 1691.04 57.54
1 -7 2 551.2 38.07
-7 6 2 587.29 29.32
-6 -1 2 584.93 36.38
-1 7 2 543.78 32.73
7 -6 2 544.13 40.73
-7 6 2 628.96 43.56
7 -6 2 581.94 35.08
1 -7 2 552.02 25.88
1 -7 2 542.96 33.16
-6 -1 2 521.35 40.04
6 1 2 559.42 45.31
1 -7 3 119.1 19.67
-1 7 3 144.36 18.18
-1 7 3 104.57 16.5
6 1 3 79.79 19.02
1 -7 3 101.71 15.33
-6 -1 3 126.45 21.35
-7 6 3 159.27 27.81
1 -7 3 115.97 20.11
7 -6 3 122.83 22.03
6 1 4 33.25 14.78
1 -7 4 31.96 12.32
-6 -1 4 34.99 17.06
7 -6 4 46.2 17.46
-1 7 4 12.25 6.58
-1 7 4 16.16 7.46
-7 6 4 38.38 24.06
-6 -1 5 3.85 14.36
-7 6 5 16.7 21.63
1 -7 5 19.73 15.83
-6 -1 6 -0.46 17.69
7 -6 6 15.03 23.04
-7 6 6 82.95 29.07
1 -7 6 26.89 18.15
-1 7 6 20.55 23.98
-1 7 7 -12.52 32.46
-7 6 7 -55.27 32.96
6 1 7 4.76 29.23
-6 -1 7 -10.7 20.62
7 -5 -7 24.96 26.75
2 -7 -7 -16.95 23.43
7 -5 -6 19.85 24.4
-5 -2 -6 6.55 17.49
2 -7 -6 36.62 22.02
-5 -2 -5 -8.66 13.93
2 -7 -5 26.04 20.83
7 -5 -5 -0.53 23.19
-7 5 -5 24.7 15.78
-7 5 -5 46.41 17.48
-5 -2 -4 50.47 18.32
-2 7 -4 63.89 13.21
2 -7 -4 48.14 18.53
-2 7 -4 7 11.62
-7 5 -4 43.7 17.15
-7 5 -4 -4.25 14.87
7 -5 -4 34.3 23.39
7 -5 -3 384.83 41.93
5 2 -3 246.76 22
5 2 -3 307.45 22.17
-7 5 -3 326.88 26.37
-7 5 -3 254.3 33.22
2 -7 -3 298.35 33.76
-2 7 -3 341.17 31.37
-7 5 -2 244.94 29
7 -5 -2 250.06 18.64
5 2 -2 264.37 25.43
7 -5 -2 232.81 28.39
-2 7 -2 242.88 25.87
-7 5 -2 284.18 17.16
-7 5 -1 1439.64 61.44
7 -5 -1 1514.54 53.63
7 -5 -1 1424.84 54.59
5 2 -1 1534.24 46.11
7 -5 -1 1514.91 50.25
-2 7 -1 1465.8 56.28
2 -7 -1 1474.7 53.12
-7 5 0 931.8 31.08
7 -5 0 981.18 31.2
7 -5 0 963.24 45.39
-2 7 0 963.78 44.71
-7 5 0 967.62 31.31
-7 5 0 943.05 45.29
2 -7 0 991.78 44.32
5 2 0 1000.1 42.68
7 -5 0 975.46 31.91
5 2 1 1493.29 61.59
2 -7 1 1530.9 58.77
-7 5 1 1547.24 54.33
-7 5 1 1456.12 50.51
-5 -2 1 1537.31 44.78
-7 5 1 1466.16 51.84
-2 7 1 1475.79 52.31
7 -5 1 1536.61 60.33
-5 -2 2 249.23 24.65
-7 5 2 244.5 28.47
-5 -2 2 264.83 27.67
-2 7 2 260.4 22.96
-7 5 2 209.01 26.57
2 -7 2 220.06 21.3
2 -7 2 264.03 26.66
7 -5 2 274.4 29.58
2 -7 2 268.19 17.5
5 2 2 253.17 30.18
-7 5 2 237.51 19.66
-5 -2 3 316.29 31.88
7 -5 3 341.94 34.44
2 -7 3 326.53 26.9
2 -7 3 292.21 31.73
-7 5 3 306.96 34.31
2 -7 3 335.77 30.35
-2 7 3 311.67 25.15
-2 7 3 322.78 23.18
5 2 3 311.01 33.41
-7 5 4 37.54 19.24
2 -7 4 31.34 13.52
5 2 4 25.79 14.41
-5 -2 4 49.15 19.14
7 -5 4 11.92 12.33
2 -7 4 31.06 12.52
-2 7 4 15.48 5.68
-2 7 4 13.04 4.82
2 -7 5 40.45 19.61
-5 -2 5 10.16 13.49
-2 7 5 34.79 25.54
-7 5 5 45.13 22.9
7 -5 6 -12.39 23.27
2 -7 6 18.55 17.13
-7 5 6 68.1 32.72
-2 7 6 12.94 23.77
-5 -2 6 -21.36 20.32
-7 5 7 36.54 29.67
5 2 7 77.87 42.66
-5 -2 7 28.28 24.84
-2 7 7 -14.15 29.8
7 -4 -7 12.83 24.74
3 -7 -7 10.74 22.64
3 -7 -6 58.82 27.69
-4 -3 -6 -30.29 21.85
7 -4 -6 42.95 30.02
-7 4 -6 35.81 18.67
7 -4 -5 49.19 23.13
-7 4 -5 28.35 16.23
-7 4 -5 36.74 16.14
-4 -3 -5 59.39 22.4
3 -7 -5 59.93 25.83
-7 4 -4 79.56 20.55
3 -7 -4 129.23 27.07
-4 -3 -4 69.89 17.57
-3 7 -4 112.11 20.66
-7 4 -4 105.47 19.89
7 -4 -4 114.36 26.89
3 -7 -3 46.76 18.52
-7 4 -3 44.85 11.87
4 3 -3 40.09 10.09
-3 7 -3 44.55 16.39
7 -4 -3 30.58 16.4
-3 7 -3 56.26 13.9
-7 4 -3 51.54 20.42
4 3 -2 264.08 24.65
7 -4 -2 327.88 33.51
7 -4 -2 256.22 18.55
4 3 -2 266.3 23.19
-7 4 -2 300.08 18.04
-7 4 -2 279.88 31.45
7 -4 -2 283.14 29.32
-3 7 -2 295.59 29.03
-7 4 -1 801.39 47.26
-3 7 -1 852.91 44.78
7 -4 -1 798.24 39.88
7 -4 -1 906.5 39.79
3 -7 -1 873.4 39.97
7 -4 -1 783.26 38.71
4 3 -1 826.7 32.36
-7 4 0 4899.67 99.01
7 -4 0 4751.74 66.78
-7 4 0 4827.96 69.9
-3 7 0 4939.51 95.19
-7 4 0 4816.83 69.57
3 -7 0 4844.05 96.38
7 -4 0 4746.81 70.59
7 -4 0 4789.75 97.1
7 -4 1 898.25 46.27
-3 7 1 863.35 38.83
-7 4 1 724.2 35.54
4 3 1 788.91 43.91
-4 -3 1 870.84 32.51
-3 7 1 805.71 36.1
3 -7 1 850.32 43.64
-7 4 1 802.61 40.19
-7 4 1 869.21 38.61
-4 -3 2 262.54 28.46
3 -7 2 278.47 28.27
4 3 2 250.12 29.4
3 -7 2 263.62 22.36
3 -7 2 285.86 17.98
-4 -3 2 273.94 23.65
-7 4 2 255.74 27.93
-7 4 2 275.82 21.29
-3 7 2 269.29 21.86
-7 4 2 241.21 28.22
7 -4 2 280.55 29.13
3 -7 3 58.22 15.08
3 -7 3 48.65 11.98
3 -7 3 39.31 12.19
7 -4 3 41.96 14.77
-7 4 3 67.64 21.23
4 3 3 66.53 17.85
-3 7 3 50.77 9.87
-4 -3 3 72.88 17.71
-7 4 4 107.86 26.9
4 3 4 78.13 18.26
3 -7 4 85.46 19.65
-4 -3 4 116.08 24.31
7 -4 4 110.64 23.15
3 -7 4 96.91 18.99
-3 7 5 32.34 25.58
-7 4 5 31.13 24.11
3 -7 5 42.1 18.66
-4 -3 5 21.53 17.77
7 -4 6 7.86 23.12
-3 7 6 -37.01 27.43
-4 -3 6 6.36 14.74
-7 4 6 21.9 24.83
3 -7 6 3.11 17.16
-3 7 7 57.69 38.04
-7 4 7 17.32 25.83
-4 -3 7 -22.64 19.52
4 3 7 -6.67 29.22
4 -7 -7 31.81 26.35
-3 -4 -7 -3.51 21.42
-7 3 -6 22.07 18.05
4 -7 -6 -33.18 25.58
7 -3 -6 26.01 25.62
-3 -4 -6 -6.36 21.62
-4 7 -5 16.87 11.54
-7 3 -5 8.77 12.99
4 -7 -5 21.9 21.95
7 -3 -5 52.61 25.31
-3 -4 -5 44.4 20.35
-4 7 -4 117.6 21.52
3 4 -4 65.05 9.98
-3 -4 -4 116.09 24.35
-7 3 -4 97.78 25.31
4 -7 -4 121.12 25.97
-7 3 -4 83.69 20.3
7 -3 -4 83.27 27.55
3 4 -3 228.46 21.61
4 -7 -3 208.46 30.86
-4 7 -3 209.65 25.02
-7 3 -3 229.35 31.55
7 -3 -3 307.68 38.07
-7 3 -3 252.86 24.2
7 -3 -2 49.19 19.02
3 4 -2 38.45 12.55
3 4 -2 34.95 11.1
7 -3 -2 55.2 16.24
4 -7 -2 53.84 14.24
7 -3 -2 46.13 9.91
-4 7 -2 63.72 18.51
-7 3 -2 51.14 19.91
-4 7 -2 64.71 14.41
3 4 -1 1066.84 34.66
7 -3 -1 1079.34 43.79
7 -3 -1 921.28 40.14
4 -7 -1 1017.81 42.37
-4 7 -1 1050.3 49.07
-7 3 -1 1102.74 51.96
7 -3 -1 1011.16 45.42
-4 7 -1 979.09 42.1
-7 3 0 587 36.03
7 -3 0 543.59 33.59
-7 3 0 526.48 24.14
7 -3 0 578.98 25.43
-4 7 0 559.16 21.6
4 -7 0 577.84 34.54
-7 3 0 568.55 25.54
-4 7 0 604.58 35.65
-4 7 0 563.63 31.49
-7 3 1 1048.78 45.63
-4 7 1 1040.91 42.95
7 -3 1 1016.79 49.9
-7 3 1 1077.89 43.42
4 -7 1 1123.47 49.72
-7 3 1 1139.69 44.32
-3 -4 1 1088 33.81
-4 7 2 40.8 10.96
4 -7 2 57.75 9.64
-7 3 2 54.32 16.71
-7 3 2 44.24 11
4 -7 2 48.61 10.42
-7 3 2 43.34 14.64
4 -7 2 45.56 14.69
-3 -4 2 43.65 9.82
3 4 2 28.99 14.09
-3 -4 2 48.55 13.45
7 -3 2 51.05 15.7
4 -7 3 218.44 24.27
7 -3 3 254.17 29.65
-7 3 3 246.84 31.83
-3 -4 3 237.33 26.22
-4 7 3 200.16 16.01
4 -7 3 238 26.86
3 4 3 256.29 30.5
4 -7 3 216.41 22.86
4 -7 4 104.38 20.02
-7 3 4 135.11 27.74
-3 -4 4 115.09 21.12
3 4 4 82 16.47
-4 7 4 115.56 30.77
4 -7 4 120.45 24.76
7 -3 4 90.07 21.82
-7 3 5 0.94 16.17
-3 -4 5 34.08 15.57
4 -7 5 42.38 17.4
-4 7 5 47.08 23.77
7 -3 6 -11.03 23.52
3 4 6 24.84 30.5
-4 7 6 13.09 24.92
4 -7 6 10.84 16.41
-3 -4 6 -2 17.3
-7 3 6 29.57 23.05
3 4 7 -4.49 28.84
-7 3 7 30.3 30.36
7 -3 7 11.48 25.47
-4 7 7 11.3 30.32
-2 -5 -7 7.43 19.07
5 -7 -7 26.1 29.44
7 -2 -6 6.84 18.84
-2 -5 -6 59.57 28.2
-7 2 -6 -16.62 17.28
5 -7 -6 12.71 21.35
-2 -5 -5 33.36 20.62
7 -2 -5 44.57 25.64
-7 2 -5 -21.36 15.58
5 -7 -5 38 22.19
-5 7 -5 1.64 11.62
-7 2 -4 84.53 18.66
7 -2 -4 121.34 32.48
2 5 -4 63.56 11.79
5 -7 -4 75.19 22.62
-7 2 -4 79.37 22.5
-2 -5 -4 107.74 26.47
-5 7 -4 49.61 16.68
5 -7 -3 63.6 23.26
-7 2 -3 44.32 13.65
-5 7 -3 84.61 18.72
2 5 -3 83.65 14.88
-7 2 -3 61.5 21.21
7 -2 -3 72.31 24.2
-5 7 -2 25.24 12.31
5 -7 -2 31.79 14.12
2 5 -2 49.82 12.5
5 -7 -2 42.09 11.07
7 -2 -2 56.74 17.82
-7 2 -2 55.49 18.98
5 -7 -2 50.06 9.94
2 5 -2 45.49 14.22
7 -2 -2 53.83 11.05
7 -2 -2 62.13 16.35
-5 7 -1 1116.13 50.97
5 -7 -1 1230.97 46.04
-7 2 -1 1089.93 55.42
7 -2 -1 1109.66 44.16
7 -2 -1 1104.64 46.52
-5 7 -1 1263.82 47.52
2 5 -1 1138.68 33.6
7 -2 -1 1162.2 46.9
5 -7 -1 1150.3 44.67
2 5 -1 1112.19 47.31
-7 2 0 517.45 34.48
-7 2 0 496.14 25.34
5 -7 0 457.1 29.28
-5 7 0 478.09 21.14
-5 7 0 483.85 33.44
7 -2 0 490.86 32.88
7 -2 0 464.93 23.5
5 -7 0 501.38 31.68
-5 7 1 1146.46 44.9
-7 2 1 1137.77 43.78
-5 7 1 1153.06 47.13
-2 -5 1 1181.56 32.85
5 -7 1 1172.59 52.57
-7 2 1 1119.78 46.47
7 -2 1 1177.92 52.96
-7 2 1 1166.71 47.65
5 -7 2 49.52 9.76
-2 -5 2 47.4 9.89
-7 2 2 69.26 17.75
-2 -5 2 59.69 13.58
-7 2 2 31.87 14.45
2 5 2 45.31 15.24
-5 7 2 47.56 10.68
7 -2 2 73.36 17.84
5 -7 2 71.72 17.77
-5 7 2 26.02 15.61
7 -2 3 77.3 11.06
2 5 3 70.16 19.9
-5 7 3 63.74 9.14
-2 -5 3 67.44 15.82
5 -7 3 98.51 19.67
-7 2 3 81.57 20.13
5 -7 3 68.26 13.9
7 -2 3 71.02 19.37
-5 7 3 73.22 20.19
2 5 4 100.15 18.71
-2 -5 4 116.69 22.2
7 -2 4 94.63 21.76
-7 2 4 95.69 24.83
-5 7 4 46.15 22.38
5 -7 4 111.68 22.86
5 -7 4 76.86 18.68
-5 7 5 29.06 20.88
5 -7 5 5.62 14.31
-7 2 5 0.49 15.73
-2 -5 5 1.54 13.68
5 -7 6 24.58 20.78
-7 2 6 41.95 21.25
-5 7 6 -6.03 21.37
2 5 6 16.91 24.47
-2 -5 6 24.34 15.18
2 5 7 -23.46 28.53
-5 7 7 14.37 28.57
7 -2 7 12.09 26.19
-7 2 7 30.44 25
6 -7 -7 20.19 24.74
-1 -6 -7 -12.17 22.2
-1 -6 -6 8.12 18.82
6 -7 -6 20.55 22.87
-7 1 -6 9.56 15.3
-1 -6 -5 86.05 26.07
-7 1 -5 55.83 22.32
6 -7 -5 121.36 36.01
-6 7 -5 65.21 19.55
7 -1 -5 53.42 25.87
7 -1 -4 31.9 17.77
6 -7 -4 30.01 21.47
-1 -6 -4 8.42 14.61
1 6 -4 46.51 12.77
-7 1 -4 36.68 14.96
-6 7 -4 44.67 19.56
7 -1 -3 60.47 8.77
6 -7 -3 77.35 20.44
-6 7 -3 57.5 17.17
1 6 -3 101.67 17.91
-7 1 -3 50.85 12.9
7 -1 -3 73.54 9.56
6 -7 -3 70.49 13.14
7 -1 -3 103.9 25.03
-7 1 -3 85.86 22.3
7 -1 -2 371.45 32.36
6 -7 -2 389.44 35.76
1 6 -2 417.08 32.19
6 -7 -2 367.29 23.62
7 -1 -2 389.48 28.78
-6 7 -2 337.71 32.18
-7 1 -2 354.32 36.53
1 6 -2 370.02 25.34
7 -1 -2 346.65 34.23
1 6 -1 112.97 18.54
7 -1 -1 93.13 17.09
6 -7 -1 119.61 18.68
7 -1 -1 98.68 14.78
6 -7 -1 105.44 15.72
-7 1 -1 90.08 22.93
1 6 -1 96.01 9.92
-6 7 -1 98.92 20.55
7 -1 0 1306.9 53.75
-7 1 0 1313.18 53.44
-6 7 0 1205.7 33.44
7 -1 0 1263.09 39.45
-6 7 0 1205.85 51.05
6 -7 0 1188.1 34.56
6 -7 0 1226.03 51.9
1 6 0 1250.12 49.97
-7 1 1 106.8 15.37
-6 7 1 91.46 17.07
6 -7 1 111.04 17.43
6 -7 1 122.68 22.44
6 -7 1 96.68 7.56
-6 7 1 114.05 17.9
-7 1 1 107.24 17.35
-1 -6 1 98.78 10.58
7 -1 1 111.99 21.28
-7 1 1 107.57 16.5
-6 7 2 368.18 24.28
-7 1 2 395.22 31.57
7 -1 2 338.18 35.55
-1 -6 2 327.46 28.08
-6 7 2 355.72 35.36
6 -7 2 394.13 20.73
-1 -6 2 356.97 22.66
6 -7 2 406.24 35.17
-7 1 2 307.09 32.99
-1 -6 3 76.36 15.19
6 -7 3 94.55 20.32
-6 7 3 61.9 8.01
7 -1 3 105.04 22.82
1 6 3 63.52 17.85
-6 7 3 96.95 22.75
-7 1 3 88.53 21.75
7 -1 4 44.84 17.79
-7 1 4 70 21.78
1 6 4 52.59 12.58
6 -7 4 48.44 16.43
-6 7 4 43.43 24.65
-1 -6 4 64.32 17.42
1 6 4 17.6 11.58
-7 1 5 96.28 26.16
-6 7 5 69.08 30.68
6 -7 5 76.4 20.77
-1 -6 5 59.68 21.23
6 -7 6 9.34 19.03
-1 -6 6 15.83 17.7
-7 1 6 7.87 18.16
-6 7 6 10.18 22.75
1 6 6 74.12 39.98
1 6 7 -4.11 34.43
-6 7 7 -14.46 26.4
7 -1 7 -4.49 28.01
-7 1 7 -7.38 23.16
0 -7 -7 12.83 22.57
7 -7 -7 11.96 27.25
0 -7 -6 17.35 19.94
7 -7 -6 3 21.12
-7 0 -6 16.15 15.56
0 -7 -5 7.1 16.61
-7 0 -5 24.18 16.77
7 -7 -5 27.55 24.26
-7 7 -5 22.86 15.56
-7 7 -4 8.03 14.66
-7 0 -4 8.02 11.18
7 0 -4 14.63 16.59
7 -7 -4 -11.39 17.86
0 7 -4 5.9 11.32
0 -7 -4 30.53 17.22
7 0 -3 14.43 7.94
7 -7 -3 10.11 15.47
7 0 -3 19.76 8.29
-7 7 -3 29.57 14.12
0 7 -3 26.06 14.01
-7 0 -3 13.46 18.91
7 0 -3 8.39 14.36
7 -7 -2 178.62 26
0 7 -2 215.46 25.07
0 7 -2 218.72 18.36
7 0 -2 200.39 25.3
7 0 -2 228.69 25.3
-7 7 -2 244.02 29.98
7 -7 -2 218.65 19.65
-7 0 -2 134.5 25.35
7 0 -1 596.68 32.32
7 -7 -1 578.99 34.29
0 7 -1 575.18 37.59
7 -7 -1 597.42 35.72
-7 7 -1 551.4 40.23
-7 0 -1 538.96 39.65
7 -7 -1 580.68 36.76
0 7 -1 561.92 20.05
7 0 -1 543.95 37.48
-7 7 0 127.38 22.92
7 0 0 138.83 15.08
0 7 0 154.59 21.79
7 0 0 136.69 21.77
7 -7 0 132.83 21.15
7 -7 0 146.49 14.43
-7 7 0 137.53 13.71
-7 0 0 185.78 25.42
7 -7 0 145.63 13.88
0 7 1 641.22 38.85
7 -7 1 641.92 41.31
7 -7 1 589.57 20.38
-7 7 1 590.9 35.37
-7 7 1 563.53 34.73
-7 0 1 583.31 31.11
-7 0 1 567.53 34.99
0 -7 1 561.49 36.52
7 0 1 601.08 41.66
-7 0 2 207.82 26.32
-7 0 2 211.36 24.23
0 -7 2 207.62 16.04
-7 7 2 203.92 28.49
7 0 2 210.71 29.67
0 7 2 158.42 22.4
0 -7 2 199.12 24.14
0 -7 2 203.86 21.66
7 -7 2 218.41 26.99
-7 7 2 224 19.65
0 7 3 26.19 12.53
-7 0 3 35.3 16.57
-7 7 3 25.86 6.39
0 7 3 15.63 11.82
0 -7 3 22.26 13.48
0 -7 3 28.7 10.23
7 -7 3 20.11 14.03
7 0 3 26.87 14.78
-7 7 3 30.4 17.48
0 7 4 -11.06 10.07
0 7 4 20.89 9.72
0 -7 4 -10.55 12
7 -7 4 12.27 14.35
7 0 4 18.85 15.13
-7 0 4 14.6 17.77
-7 7 4 -0.59 16.43
7 -7 5 36.93 21.44
-7 7 5 41.41 25.4
0 -7 5 27.73 13.15
-7 0 5 19.81 17.54
7 -7 6 7.31 19.75
0 -7 6 54.89 22.82
-7 7 6 36.5 26.66
-7 0 6 0.48 18.59
0 7 6 21.96 27.03
7 0 7 36.69 33.16
-7 0 7 10.15 25.27
0 7 7 -16.5 29.48
-7 7 7 -11.1 25.67
1 -8 -7 -0.68 26.52
8 -7 -7 -24.62 28.7
-7 -1 -6 -33.12 18.18
1 -8 -6 29.43 23.97
8 -7 -6 -29.28 21.46
-7 -1 -5 -10.36 14.17
8 -7 -5 23.94 20.16
1 -8 -5 51 22.06
-8 7 -5 30.3 17.62
-8 7 -4 15.7 15.59
-7 -1 -4 8.6 13.03
8 -7 -4 -5.43 16.33
8 -7 -4 7.33 7.46
1 -8 -4 -23.95 18.54
-1 8 -4 22.85 12.57
7 1 -3 108.48 14.86
8 -7 -3 112.81 27.01
7 1 -3 137.47 19.17
8 -7 -3 89.25 10.79
-1 8 -3 129.52 23.09
-8 7 -3 126.8 28.07
-8 7 -2 240 30.41
-7 -1 -2 229.66 31.58
7 1 -2 204.22 25.21
-1 8 -2 215.8 26.95
7 1 -2 226.01 25.87
8 -7 -2 237.2 29.45
8 -7 -2 205.28 20.19
-8 7 -1 360.48 37.37
-7 -1 -1 297.17 33.85
8 -7 -1 377.75 28.83
8 -7 -1 403.68 30.06
-1 8 -1 343.29 14.16
8 -7 -1 336.17 27.66
7 1 -1 289.24 30.1
7 1 -1 349.1 24.9
-1 8 -1 310.99 30.63
8 -7 0 196.89 16.93
1 -8 0 205.66 24.01
7 1 0 195.31 18.02
-8 7 0 189.83 25.22
-8 7 0 195.32 16.42
7 1 0 235.11 25.72
8 -7 0 210.16 17.1
-7 -1 0 216.19 25.51
8 -7 0 218.33 25.47
-1 8 0 196.95 23.59
8 -7 1 330.64 17.52
-1 8 1 301.32 28.86
-8 7 1 374.71 29.41
-7 -1 1 333.87 23.91
-8 7 1 330.61 29.25
7 1 1 336.21 34.69
8 -7 1 361.17 33.37
1 -8 1 333.76 31.28
7 1 2 191.81 29.39
8 -7 2 211.98 29.52
8 -7 2 235.18 24.82
-8 7 2 220.38 21.18
-7 -1 2 196.85 27.38
1 -8 2 222.13 15.34
-8 7 2 239.74 28.73
-1 8 2 223.8 23.68
-7 -1 2 211.25 23.37
1 -8 2 216.46 25.4
-8 7 3 92.43 11.46
-8 7 3 135.05 28.29
1 -8 3 117.32 20.36
1 -8 3 125.83 20.98
1 -8 3 107.1 15.5
7 1 3 110.98 24.5
-7 -1 3 116.75 22.13
8 -7 3 200.38 29.71
-1 8 3 111.98 17.51
7 1 4 -2.33 13.09
1 -8 4 5.17 10.86
-1 8 4 8.11 10.18
8 -7 4 5.57 16.46
-8 7 4 12.6 15.63
-1 8 4 10.13 8.76
-7 -1 4 27.07 16.51
-7 -1 5 52.25 22
1 -8 5 27.13 16.28
-8 7 5 55.17 25.56
8 -7 6 -3.37 19.17
-1 8 6 -0.61 27.89
-8 7 6 0.5 21.37
-7 -1 6 3.11 17.09
1 -8 6 -14.49 14.02
-1 8 7 42.77 36.05
7 1 7 -29.78 37.04
-8 7 7 -48.76 35.58
-7 -1 7 3.93 18.95
8 -6 -7 -13.99 24.84
2 -8 -7 -33.46 29.66
2 -8 -6 1.43 22.65
-6 -2 -6 28.72 20.13
8 -6 -6 32.48 30.2
8 -6 -5 -16.4 24.35
2 -8 -5 -16.41 17.23
-6 -2 -5 -29.95 19.53
-8 6 -5 13.17 16.11
-8 6 -5 -16.15 13.8
2 -8 -4 37.82 19.69
-2 8 -4 24.04 12.06
-8 6 -4 32.96 14.53
-6 -2 -4 15.48 13.75
-2 8 -4 9.91 10.83
-8 6 -4 23.32 17.11
8 -6 -4 20.1 22.33
-8 6 -3 101.97 23.22
6 2 -3 93.9 16.4
-2 8 -3 143.62 22.18
-8 6 -3 113.79 16.06
6 2 -3 119.79 16.34
8 -6 -3 99.97 26.23
8 -6 -2 796.98 52.25
6 2 -2 860.91 41.71
-8 6 -2 868.95 53.74
-2 8 -2 891.4 49.84
-8 6 -2 868.72 25.42
8 -6 -2 830.44 36.36
8 -6 -2 865.27 51.72
6 2 -2 793.3 43.8
6 2 -1 3127.88 68.75
-8 6 -1 3065.49 91.39
6 2 -1 3170.75 77.92
8 -6 -1 3079.97 78.27
-2 8 -1 2971.85 85.12
8 -6 -1 3138.07 80.27
8 -6 -1 3061.81 78.46
8 -6 0 2032.51 69.31
-8 6 0 1961.89 46.9
-8 6 0 1765.72 68.66
-2 8 0 1855.12 65.24
-8 6 0 1909.28 46.63
8 -6 0 1981.52 48.83
8 -6 0 1854.17 46.23
2 -8 0 2017.31 67.63
6 2 0 1966.93 64.99
-8 6 1 3096.63 80.99
-2 8 1 3103.84 81.71
-8 6 1 3072.39 76.51
2 -8 1 3132.84 86.57
8 -6 1 3013.34 90.32
-6 -2 1 3114.03 67.48
6 2 1 3199.1 91.28
-8 6 1 2963.91 77.53
8 -6 2 823.27 51.39
-6 -2 2 817.46 48.33
2 -8 2 857.63 28.22
-8 6 2 836.35 37.94
-8 6 2 754.29 47.34
2 -8 2 801.71 39.51
-6 -2 2 889.04 43.4
-2 8 2 823.09 39.75
2 -8 2 881.57 48.07
-2 8 2 831.21 42.15
6 2 2 910.97 56.56
-8 6 2 777.36 48.67
6 2 3 124.19 24.65
-8 6 3 121.3 25.74
8 -6 3 117.23 23.87
2 -8 3 115.25 20.85
-2 8 3 99.37 15.94
2 -8 3 125.76 20.71
2 -8 3 114.93 15.23
-6 -2 3 86.65 17.56
-6 -2 4 41.82 17.24
-8 6 4 42.69 19.94
6 2 4 22.2 15.41
2 -8 4 24.01 11.48
-2 8 4 11.58 7.61
8 -6 4 35.58 17.05
-2 8 4 17 8.76
2 -8 4 19.5 12.12
2 -8 5 25.81 18.99
-2 8 5 23.48 24.65
-8 6 5 51.97 24.94
-6 -2 5 -7.93 14.79
8 -6 6 54.11 28.23
-6 -2 6 -25.45 22.82
-8 6 6 21.31 21.47
-2 8 6 80.02 38.19
2 -8 6 25.98 23.68
-6 -2 7 -39.37 27.18
6 2 7 -6.95 28.75
-2 8 7 10.28 28.61
-8 6 7 -20.79 24.66
8 -5 -7 -32.12 29.78
3 -8 -7 20.06 26.69
3 -8 -6 22.5 22.83
-5 -3 -6 33.59 21.05
8 -5 -6 26.65 20.89
-8 5 -5 37.03 16.88
-3 8 -5 51.99 15.64
8 -5 -5 59.92 28.42
-5 -3 -5 66.83 23.85
3 -8 -5 66.2 24.63
-8 5 -5 43.54 16.61
-8 5 -4 17.24 10.59
-3 8 -4 14.47 13.15
8 -5 -4 37.93 23.64
3 -8 -4 17.78 15.26
5 3 -4 3.6 4.29
-8 5 -4 30.04 17.81
5 3 -4 5.59 5.32
-5 -3 -4 18.36 13.27
5 3 -3 605.74 33.67
-8 5 -3 556.84 33.74
5 3 -3 546.55 33.08
-8 5 -3 534.62 48.34
8 -5 -3 577.67 50.63
3 -8 -3 501.32 43.62
-3 8 -3 556.31 41.64
-3 8 -2 263.31 28.67
5 3 -2 301.36 27.36
8 -5 -2 252.54 32.64
-8 5 -2 281.93 15.92
8 -5 -2 317.53 33.48
-8 5 -2 280.54 32.31
8 -5 -2 260.87 21.16
5 3 -1 1336.45 43.84
-8 5 -1 1298.56 60.79
3 -8 -1 1311.6 52.62
8 -5 -1 1261.05 49.92
8 -5 -1 1265.23 51.85
8 -5 -1 1257.08 50.7
-3 8 -1 1291.25 56.16
-8 5 0 214.53 26.32
-3 8 0 201.52 25.47
-8 5 0 202.23 16.89
8 -5 0 202.62 16.31
8 -5 0 213.74 17.22
3 -8 0 175.79 21.99
8 -5 0 203.81 24.17
-8 5 0 193.37 16.47
3 -8 1 1235.11 56.58
-3 8 1 1318.92 52.07
5 3 1 1268.78 56.09
-8 5 1 1314.15 49.55
-8 5 1 1269.08 51.24
-5 -3 1 1262.52 41.4
-8 5 1 1316.26 52.72
8 -5 1 1234.62 57.12
-8 5 2 293.22 31.14
-8 5 2 322.31 24.57
-5 -3 2 258.19 28.88
3 -8 2 312.93 23.7
3 -8 2 326.3 30.55
8 -5 2 277.61 31.37
-8 5 2 305.83 30.3
5 3 2 328.06 33.18
-5 -3 2 281.33 24.55
-3 8 2 281.22 24.59
3 -8 2 296.99 16.67
-3 8 3 563.6 31.57
3 -8 3 578.73 33.57
-5 -3 3 586.78 40.54
-8 5 3 519.45 47.06
8 -5 3 542.64 43.28
5 3 3 585.2 50.14
3 -8 3 564.52 41.11
3 -8 3 535.12 37.85
8 -5 4 26.34 17.3
5 3 4 7.82 12.35
-3 8 4 13.06 4.41
-3 8 4 0.52 4.47
3 -8 4 2.91 10.46
-5 -3 4 8.52 12.31
3 -8 4 26.67 13.1
-5 -3 5 91.77 26.27
3 -8 5 30.47 17.28
-3 8 5 27.24 21.23
-8 5 5 65.87 27.66
-8 5 6 13.73 22.26
-5 -3 6 6.91 19.27
3 -8 6 -3.63 15.39
-3 8 6 -19.74 27.53
8 -5 6 41.43 29.42
5 3 7 34.39 35.34
-8 5 7 -44.21 30.84
-3 8 7 28.66 29.66
-5 -3 7 25.16 24.82
4 -8 -7 50.38 31.23
-4 -4 -6 16.57 19.71
4 -8 -6 45.42 26.27
8 -4 -6 29.35 25.64
-4 -4 -5 2.46 15.4
8 -4 -5 -33.39 25.64
4 -8 -5 40.38 23.29
-4 8 -5 24.58 15.25
-8 4 -5 -0.4 14.07
-8 4 -5 22.75 14.61
-8 4 -4 45.63 22.56
-4 -4 -4 32.89 17.59
4 -8 -4 15.52 15.43
4 4 -4 13.04 7.72
-8 4 -4 24.97 11.65
8 -4 -4 37.93 22.89
4 4 -4 23.79 7.74
-4 8 -4 40.36 15.75
8 -4 -3 6.22 17.12
-4 8 -3 25.46 10.48
4 4 -3 21.71 10.12
4 -8 -3 16.03 14.94
-4 8 -3 20.52 15.04
-8 4 -3 11.86 10.87
-8 4 -3 24.65 17.33
4 4 -2 426.99 30.37
-8 4 -2 449.68 21.2
-8 4 -2 468.14 43.09
8 -4 -2 364.97 34.97
8 -4 -2 411.82 36.7
4 4 -2 450.87 32.22
8 -4 -2 446.55 27.36
-4 8 -2 409.8 34.68
8 -4 -1 939.37 45.14
-8 4 -1 1011.88 53.45
4 -8 -1 958.92 43.54
8 -4 -1 945.81 43.7
-4 8 -1 919.85 48.21
8 -4 -1 958.17 42.94
4 4 -1 920.23 34.67
8 -4 0 398.04 22.64
4 -8 0 373.84 29.83
-8 4 0 419.84 33.79
-4 8 0 341.95 31.2
-8 4 0 422.64 23.52
-8 4 0 410.58 23.21
8 -4 0 406.24 32.38
-4 8 1 930.11 42.09
-4 -4 1 968.11 34.37
-8 4 1 900.54 44.94
-8 4 1 895.52 41.48
-4 8 1 889.42 43.79
8 -4 1 857.75 47.65
4 -8 1 1027.37 50.08
-8 4 1 905.02 43.57
4 4 2 334.54 36.58
4 -8 2 419.8 19.64
-8 4 2 456.26 28.6
4 -8 2 430.35 36.39
-8 4 2 390.92 33.71
4 -8 2 395.95 24.8
-4 -4 2 439.97 28.45
-4 -4 2 450.31 35.79
-4 8 2 431.61 28.84
-8 4 2 439.11 38.46
8 -4 2 395.19 37.07
4 -8 3 14.67 11.52
-4 8 3 17.07 8.86
4 -8 3 9.94 9.41
-8 4 3 19.95 18.04
-4 -4 3 14.15 10.17
4 4 3 13.24 13.41
8 -4 3 17.35 9.65
4 -8 3 9.45 9.18
8 -4 3 5.64 12.98
-4 -4 4 27.06 14.44
8 -4 4 41.37 17.87
4 -8 4 4.23 10.97
4 4 4 14.47 14.73
4 -8 4 27.13 12.92
-8 4 4 42.15 22.47
-4 8 4 32.15 17.22
-4 8 5 3 23.34
-8 4 5 25.53 19.06
4 -8 5 62.34 21.01
-4 -4 5 8.03 13.39
-4 8 6 -0.34 23.47
-4 -4 6 23.87 18.2
8 -4 6 41.06 26.18
-8 4 6 12.57 21.61
4 -8 6 54.99 22.47
-4 8 7 23.56 31.78
4 4 7 14.95 34.02
-8 4 7 -29.62 27.5
-3 -5 -7 23.15 21.66
5 -8 -7 44.24 31.3
5 -8 -6 22.95 22.58
8 -3 -6 -13.58 23.98
-3 -5 -6 25.68 20.43
-8 3 -5 34.9 16.41
8 -3 -5 69.1 30.42
-3 -5 -5 32.24 22.39
5 -8 -5 49.28 24.57
-5 8 -5 12.92 15.5
-8 3 -4 131.9 28.15
-8 3 -4 190.85 25.81
5 -8 -4 139.41 30.43
-5 8 -4 134.77 23.62
-3 -5 -4 155.45 28.97
8 -3 -4 173.69 37.14
3 5 -4 132.32 16.75
8 -3 -3 157.03 11.71
3 5 -3 258.78 24.85
5 -8 -3 221.09 31.69
-8 3 -3 206.68 20.89
8 -3 -3 234.87 35.74
-5 8 -3 220.05 27.08
-8 3 -3 239.33 33.92
8 -3 -2 190.03 25.07
5 -8 -2 161.58 24.79
8 -3 -2 153.98 18.65
-8 3 -2 148.65 27.15
3 5 -2 159.19 20.86
-5 8 -2 154.61 19.93
-5 8 -2 177.11 27.01
3 5 -2 181.41 20.05
8 -3 -2 167.28 25.31
5 -8 -2 166.4 18.28
8 -3 -1 623.45 37.35
5 -8 -1 613.34 36.4
-5 8 -1 637.72 40.91
8 -3 -1 529.24 32.19
-5 8 -1 534.66 35.15
-8 3 -1 632.67 43.92
3 5 -1 618.54 26.73
8 -3 -1 664.78 37.39
-8 3 0 710.74 29.56
8 -3 0 668.67 40.25
8 -3 0 705.39 30.29
-8 3 0 702.82 42.4
-8 3 0 714.06 31.21
5 -8 0 694.61 41.37
-5 8 0 669.65 25.79
-5 8 0 699.34 41.91
-5 8 0 745.48 39.21
-8 3 1 642.65 36.96
-5 8 1 565.58 34.58
8 -3 1 604.47 42.06
5 -8 1 656.88 41.82
-8 3 1 617.56 34.19
-3 -5 1 582.51 25.35
-8 3 1 588.13 36.6
-8 3 2 211.3 25.46
5 -8 2 179.76 16.18
-5 8 2 169.77 18.89
-3 -5 2 150.49 16.86
8 -3 2 167.16 25.5
3 5 2 171.2 23.29
-8 3 2 169.81 20
-8 3 2 173.44 26.66
5 -8 2 153.87 23.11
-3 -5 2 174.79 22.49
3 5 3 264.13 33.83
5 -8 3 259.37 29.5
-5 8 3 262.87 36.04
5 -8 3 234.26 23.65
8 -3 3 224.42 29.51
5 -8 3 218.14 22.32
-3 -5 3 231.08 24.72
-8 3 3 235.97 32.9
-5 8 3 201.72 17.79
3 5 4 119.42 21.81
-8 3 4 123.36 28.15
5 -8 4 149.66 22.82
8 -3 4 124.07 25.23
-3 -5 4 162.53 26.6
5 -8 4 128.86 23.1
-5 8 4 176.06 36.63
5 -8 5 22.22 15.71
-3 -5 5 35.24 16.85
-8 3 5 34.12 23.35
-5 8 5 18.02 21.24
5 -8 6 -25.36 17.8
-5 8 6 -17.55 22.2
-8 3 6 -18.07 21.72
-3 -5 6 6.06 13.59
-8 3 7 60.09 33.03
-5 8 7 -9.42 26.56
3 5 7 -4.46 34.68
-2 -6 -7 -16.16 22.47
6 -8 -7 12.46 26.89
6 -8 -6 44.74 26.32
-8 2 -6 13.58 17.49
-2 -6 -6 -25.76 20.72
8 -2 -5 138.33 33.46
-8 2 -5 55.16 19.83
6 -8 -5 84.66 29.33
-6 8 -5 81.98 21.61
-2 -6 -5 46.06 21.07
2 6 -4 22.66 10.17
-8 2 -4 18.6 15.51
-6 8 -4 49.35 17.73
-2 -6 -4 62.37 21.76
-8 2 -4 50.96 16.52
8 -2 -4 71.75 25.23
8 -2 -3 247.79 16.27
6 -8 -3 337.81 38.66
-8 2 -3 330.3 40.58
8 -2 -3 415.66 42.76
-6 8 -3 360.26 34.79
-8 2 -3 305.44 26.52
2 6 -3 353.85 30.53
6 -8 -2 450.29 28.16
8 -2 -2 415.26 36.44
8 -2 -2 438.1 36.76
2 6 -2 462.16 29.28
8 -2 -2 450.55 30.04
-8 2 -2 466.7 43.1
6 -8 -2 421.17 29.5
-6 8 -2 462.5 36.75
2 6 -2 459.36 33.81
2 6 -1 246.39 26.19
-6 8 -1 307.04 31.27
6 -8 -1 262.34 24.25
8 -2 -1 312.23 27.69
6 -8 -1 291.33 24.8
-8 2 -1 259.02 33.8
2 6 -1 252.46 16.65
8 -2 -1 280.47 24.18
8 -2 0 1821.65 48.82
-6 8 0 1760.1 41.81
6 -8 0 1675.05 57.91
6 -8 0 1823.13 44.46
6 -8 0 1826.12 65.84
-8 2 0 1777.41 66.09
-8 2 0 1695.28 50.39
-6 8 0 1776.76 65.5
8 -2 0 1841.37 66.53
8 -2 1 241.96 28.17
-8 2 1 265.43 22.46
-8 2 1 275.71 27.49
6 -8 1 246.12 27.69
-6 8 1 297.7 26.81
-6 8 1 234.49 24.15
-8 2 1 278.6 26.55
-2 -6 2 435.52 34.12
-6 8 2 420.91 36.96
-6 8 2 460.54 29.65
6 -8 2 487.57 24.13
-2 -6 2 418.91 24.64
-8 2 2 394.22 38.83
8 -2 2 475.7 40.36
-8 2 2 466.56 35.27
6 -8 2 425.68 36.51
8 -2 3 294.74 35.78
6 -8 3 363.6 36.5
-6 8 3 279.04 19.78
6 -8 3 329.06 26.59
-8 2 3 300.01 33.72
-2 -6 3 330 29
-6 8 3 363.51 41.8
2 6 3 370.58 35.66
2 6 4 44.23 14.86
-8 2 4 30.29 15.47
-2 -6 4 45.35 14.74
6 -8 4 44.75 15.39
2 6 4 16.76 10.72
6 -8 4 70.93 18.69
8 -2 4 35.14 16.06
-6 8 4 51.75 22.56
-8 2 5 92.62 27.58
-2 -6 5 93 23.53
-6 8 5 26.47 18.7
6 -8 5 83.54 23.65
-8 2 6 -7.6 20.85
-6 8 6 -5.64 22.04
-2 -6 6 4.73 15.74
2 6 6 12.73 25.57
6 -8 6 11.15 16.62
-6 8 7 -39.18 36.92
8 -2 7 11.81 30.23
-8 2 7 24.35 24.28
2 6 7 49.05 33.78
7 -8 -7 20.57 31.07
-1 -7 -7 -7.01 26.35
-1 -7 -6 51.06 29.5
-8 1 -6 18.59 16.1
7 -8 -6 -1.95 21.86
-8 1 -5 70.76 21.98
8 -1 -5 93.55 32.29
-1 -7 -5 39.45 23.77
7 -8 -5 55.07 26.12
-7 8 -5 33.06 17.83
-7 8 -4 121.79 25.86
-1 -7 -4 96.36 23.19
1 7 -4 110.23 18.24
8 -1 -4 156.18 34.54
7 -8 -4 171.25 34.56
-8 1 -4 117.37 21.69
7 -8 -3 183.67 28.9
1 7 -3 217.86 25.8
7 -8 -3 196.61 21.09
8 -1 -3 229.31 35.66
-7 8 -3 174.91 27.09
8 -1 -3 176.24 17.22
-8 1 -3 203.68 33.53
-8 1 -2 464.78 43.26
7 -8 -2 464.27 40.62
-7 8 -2 514.79 41.57
8 -1 -2 575.85 43.19
8 -1 -2 570.66 39.06
8 -1 -2 482.3 37.04
7 -8 -2 562.01 31.6
1 7 -2 543.97 39.73
1 7 -2 520.73 29.4
-8 1 -1 381.61 39.16
8 -1 -1 476.22 30.64
1 7 -1 457.38 20.4
7 -8 -1 462.32 34.12
-7 8 -1 445.38 37.08
1 7 -1 436.92 33.45
8 -1 -1 450.78 36.64
7 -8 -1 474.59 33.06
-7 8 0 317.14 31.1
7 -8 0 385.34 21.87
-8 1 0 354.16 31.2
1 7 0 346.35 30.08
8 -1 0 345.91 31.97
-7 8 0 366.67 20.47
7 -8 0 340.5 31.12
8 -1 0 362.36 23.64
8 -1 1 449.88 39.36
-8 1 1 500.96 33.83
-8 1 1 474.39 35.11
7 -8 1 488.92 40.17
7 -8 1 474.48 16.24
-8 1 1 459.16 28.88
-7 8 1 475.91 32.65
-7 8 1 444.63 32.9
7 -8 1 433.87 32.48
-8 1 2 465.65 39.03
7 -8 2 548.59 22.2
-7 8 2 480.51 40.1
7 -8 2 535.57 42.71
-8 1 2 524.72 37.23
-7 8 2 550.36 32.49
-1 -7 2 549.89 26.97
8 -1 2 528.76 44.37
-1 -7 3 177.47 21.96
-8 1 3 209.35 28.04
7 -8 3 222.4 30.54
-7 8 3 167.11 15.89
-7 8 3 140.4 30.17
1 7 3 182.45 24.81
1 7 3 199.85 17.64
8 -1 3 226.81 31.31
7 -8 4 119.68 24.86
-1 -7 4 131.68 21.98
-8 1 4 129.26 27.74
-7 8 4 162.13 33.56
8 -1 4 88.24 22.76
1 7 4 130.63 20.3
1 7 4 110.35 19.86
-7 8 5 70.71 30.09
-8 1 5 48.17 23.14
-1 -7 5 47.1 15.82
7 -8 5 59.97 21.64
7 -8 6 16.61 20.91
-1 -7 6 -13.92 13.68
-7 8 6 9.8 23.59
-8 1 6 -40.77 21.32
-7 8 7 18.16 28.19
1 7 7 3.65 29.9
-8 1 7 -2.17 24.77
8 -1 7 26.89 27.88
8 -8 -7 -41.61 35.42
0 -8 -7 47.08 30.48
8 -8 -6 11.84 25.3
-8 0 -6 6.35 14.58
0 -8 -6 23.54 24.54
8 -8 -5 29.13 22.34
-8 0 -5 7.51 12.81
0 -8 -5 24.1 22.21
-8 8 -5 -1.76 15.27
0 -8 -4 17.15 16.29
-8 8 -4 -22.23 16.46
-8 0 -4 34.35 14.7
8 -8 -4 9.72 20.18
0 8 -4 -7.33 11.42
8 -8 -3 413.47 24.35
8 -8 -3 442.34 46.55
8 0 -3 409.87 30.98
-8 8 -3 411.29 41.23
-8 0 -3 453.15 47.98
0 8 -3 437.24 37.72
-8 0 -2 104.01 26.05
0 8 -2 148.71 23.55
0 8 -2 123.72 14.7
-8 8 -2 110.72 24.42
8 -8 -2 111.68 21.59
8 0 -2 117.51 19.68
8 0 -2 125.67 21.02
8 -8 -2 121.78 16.82
0 8 -1 1059.54 28.35
0 8 -1 1037.37 52.79
8 -8 -1 1078.66 49.99
-8 0 -1 1140.84 58.5
8 -8 -1 1096.71 48.88
-8 8 -1 1017.36 55.41
8 -8 -1 1085.09 50.8
8 0 -1 970.99 53.27
8 0 -1 1036.48 43.97
0 8 0 -8.1 13.08
-8 8 0 10.36 8.83
8 -8 0 -4.4 8.47
8 -8 0 9.39 14.37
8 0 0 8.26 13.19
-8 0 0 24.63 16.79
8 0 0 10.62 9
-8 8 0 12.48 14.02
8 -8 0 1.65 8.07
0 8 1 1063.07 52.93
-8 0 1 1084.5 43.68
0 -8 1 1089.49 54.3
8 -8 1 1125.65 58.14
-8 8 1 1044.67 50.42
8 0 1 1052.88 57.83
-8 8 1 1054.87 48.08
8 -8 1 1066.93 28.49
-8 0 1 1062.19 50.18
-8 0 2 137.92 20.62
-8 8 2 122.82 17.53
0 8 2 130.12 20.79
0 -8 2 121.38 12.1
0 -8 2 108.2 20.48
8 0 2 151.22 28.94
-8 8 2 156.8 25.06
8 -8 2 119.21 25.52
0 8 3 432.78 36.12
8 -8 3 412.25 40.48
0 8 3 404.85 32.76
-8 0 3 394.32 39.9
0 -8 3 454.36 30.31
8 0 3 437.97 43.49
-8 8 3 390.03 23.94
-8 8 3 448.89 44.64
8 0 4 21.65 17.24
0 8 4 4.76 11.73
-8 0 4 17.15 14.69
0 8 4 26.69 11.69
0 -8 4 17.21 12.43
8 -8 4 48.67 20.04
-8 8 4 16.92 16.83
8 -8 5 8.03 18.56
0 -8 5 25.41 14.2
-8 8 5 -16.08 20.63
0 8 6 58.66 30.01
-8 8 6 58.07 35.79
8 -8 6 31.19 22.89
-8 0 6 31.78 21.61
0 -8 6 -1.99 13.35
0 8 7 -3.13 31.18
-8 8 7 44.59 33.56
-8 0 7 0.2 24.93
8 0 7 -14.01 26.76
9 -8 -7 39.2 31.68
1 -9 -7 23.83 28.16
-8 -1 -6 8.96 16.13
9 -8 -6 22.98 27.5
1 -9 -6 -16.38 23.53
-9 8 -5 20.42 19.74
-8 -1 -5 -20.62 20.28
9 -8 -5 -17.71 23.53
1 -9 -5 -2.09 16.26
8 1 -4 67.27 8.07
-8 -1 -4 155.98 25.45
-9 8 -4 114.06 27.89
9 -8 -4 184.67 35.7
1 -9 -4 114.85 24.6
8 1 -4 78.91 8.13
9 -8 -4 106.17 18.25
-1 9 -4 129.38 21.41
-9 8 -3 203.2 32.76
9 -8 -3 107.1 13.34
-1 9 -3 161.89 25.84
8 1 -3 179.66 24.68
9 -8 -3 200.74 33.18
8 1 -3 155.4 18.51
-8 -1 -2 271.12 35
8 1 -2 291.89 30.11
8 1 -2 250.9 27.26
-9 8 -2 260.51 32.54
9 -8 -2 321.95 36.58
9 -8 -2 318.14 27.82
-1 9 -2 315.8 33.7
-1 9 -2 285.28 19.1
8 1 -1 430.82 37.6
8 1 -1 480.78 30.59
-9 8 -1 445.3 39.53
9 -8 -1 498.17 34.08
9 -8 -1 471.87 35.3
-8 -1 -1 446.33 42.85
-1 9 -1 487.11 17.91
9 -8 -1 495.92 35.07
-1 9 -1 444.13 38.31
9 -8 0 505.71 39.46
9 -8 0 460.46 25.14
-1 9 0 502.88 39.27
9 -8 0 468.62 26.7
1 -9 0 484.23 36.43
8 1 0 461.69 37.31
-8 -1 0 472.31 36.49
-9 8 0 450.07 37.27
-9 8 0 492.47 25.9
8 1 0 482.34 28.35
9 -8 1 516.03 43.06
1 -9 1 493.58 39.34
-9 8 1 389.53 33.19
-1 9 1 452.68 36.4
-9 8 1 438.02 31.59
8 1 1 476.94 42.92
9 -8 1 472.36 21.57
-8 -1 1 484.76 30.88
8 1 2 294.64 38.58
1 -9 2 323.66 17.81
1 -9 2 277.62 30.49
-8 -1 2 301.66 28.28
-9 8 2 295.89 33.33
9 -8 2 285.68 33.42
9 -8 2 296.28 28.52
-9 8 2 303.62 26.58
-1 9 2 266.11 27.62
1 -9 3 168.98 18.73
1 -9 3 143.43 24.3
8 1 3 150.53 28.37
1 -9 3 119.66 21.21
-9 8 3 131.03 15.95
9 -8 3 190.28 31.29
-9 8 3 149.59 28.52
-1 9 3 183.85 22.94
-8 -1 3 181.11 27.14
-8 -1 4 136.06 27.92
-1 9 4 129.11 19.45
8 1 4 134.8 29.42
1 -9 4 149.34 22.48
-1 9 4 85.77 18.38
-9 8 4 170.45 33.24
1 -9 5 26.17 13.84
-8 -1 5 4.38 13.97
-9 8 5 -19.1 20.08
-8 -1 6 -20.94 19.43
-1 9 6 0.47 25.5
-9 8 6 17.36 23.16
9 -8 6 18.08 19.52
-8 -1 7 25.11 21.09
8 1 7 -4.8 24.76
-1 9 7 29.34 30.85
9 -7 -7 18.32 28.03
2 -9 -7 7.53 24.04
9 -7 -6 -26.72 27.73
2 -9 -6 5.9 21.55
-7 -2 -6 6.96 20.88
9 -7 -5 89.28 28.32
-7 -2 -5 109.86 26.47
2 -9 -5 43.3 24.62
-9 7 -4 6.34 9.95
7 2 -4 7.66 5.34
-9 7 -4 5.9 16.2
9 -7 -4 14.83 19.5
7 2 -4 -1.56 3.7
-7 -2 -4 23.96 13.8
-2 9 -4 35.28 16.05
2 -9 -4 18.98 15.11
-9 7 -3 75.58 22.41
7 2 -3 126.98 19.45
7 2 -3 101.81 16.1
-9 7 -3 118.17 14.12
-2 9 -3 102.2 21.8
9 -7 -3 142.48 28.15
9 -7 -3 92.7 11.71
9 -7 -2 327.34 37.21
-9 7 -2 257.44 32.39
-2 9 -2 341.17 33.62
9 -7 -2 329.24 26.47
7 2 -2 314.14 28.64
7 2 -2 332.52 29.55
-9 7 -1 451.21 38.69
9 -7 -1 470.87 34.31
7 2 -1 389.15 34.09
9 -7 -1 439.99 33.34
-2 9 -1 389.74 35.71
-2 9 -1 435.72 14.2
9 -7 -1 470.44 33.08
7 2 -1 438.02 28.17
-9 7 0 1941.79 49.55
-9 7 0 1884.95 49.51
9 -7 0 1929.59 72.15
-2 9 0 1882.25 70.57
-9 7 0 1795.04 72.08
7 2 0 1924.03 68.98
9 -7 0 1870.91 50.99
9 -7 0 1887.81 48.84
2 -9 0 1914.3 70.26
7 2 1 402.53 38.24
-7 -2 1 490.22 29.84
9 -7 1 456.93 22.52
9 -7 1 396.25 37.48
-9 7 1 470.75 31.76
2 -9 1 451.3 36.25
-2 9 1 429.53 34.64
-9 7 1 453.8 34.46
-9 7 1 473.3 33.69
-7 -2 2 342.92 28.4
-9 7 2 307.77 26.25
7 2 2 333.28 37.78
2 -9 2 299.96 32.03
9 -7 2 340.67 34.84
-9 7 2 330.04 32.97
-2 9 2 318.45 28.96
2 -9 2 331.64 16.49
-2 9 2 330.87 27.99
2 -9 3 117.27 22.36
-9 7 3 80.11 12.3
9 -7 3 120.25 25.24
-7 -2 3 104.56 20.42
2 -9 3 94.11 18.25
7 2 3 80.41 23.18
-9 7 3 97.97 23.74
2 -9 3 94.04 14.82
-2 9 3 96.3 15.72
2 -9 4 14.58 12.96
2 -9 4 13.65 12.49
-7 -2 4 16.66 13.59
7 2 4 -8.53 15.21
9 -7 4 -21.05 18.76
-9 7 4 28.52 20
-2 9 4 23.7 13.48
-2 9 4 9.77 9.2
-7 -2 5 90.08 22.14
-9 7 5 76.89 29.63
2 -9 5 64.01 18.81
-7 -2 6 72.07 28.24
-9 7 6 48.4 29.72
-2 9 6 127.01 44.77
9 -7 6 19.82 22.01
-2 9 7 48.16 34.18
-7 -2 7 -20.34 22.72
7 2 7 6.08 28.89
-9 7 7 -24.65 30.53
3 -9 -7 70.79 35.85
9 -6 -7 -24.88 31.94
9 -6 -6 -33.75 26.61
3 -9 -6 -6.05 20.94
-6 -3 -6 -30.7 19.27
-6 -3 -5 42.68 21.3
3 -9 -5 -8.09 17.1
9 -6 -5 -16.74 23.38
-3 9 -5 6.38 10.74
-9 6 -5 15.07 11.39
-9 6 -5 12.33 15.08
-3 9 -4 154.88 24.8
3 -9 -4 136.42 27.81
6 3 -4 150.47 15.07
6 3 -4 97.15 13.5
-9 6 -4 188.44 33.02
9 -6 -4 215.49 39.28
-3 9 -4 187.82 23.22
-6 -3 -4 180.68 29.05
-9 6 -4 210.7 25.79
9 -6 -3 111.35 11.9
3 -9 -3 157.37 25.92
-9 6 -3 178.13 30.78
6 3 -3 138.4 19.67
-3 9 -3 154.6 25.42
6 3 -3 165.85 20.52
9 -6 -3 147.1 27.08
-9 6 -3 171.29 18.21
-3 9 -2 853.72 51.64
9 -6 -2 833.05 38.94
9 -6 -2 850.42 56.1
-9 6 -2 883.14 56.92
-9 6 -2 820.02 23.79
6 3 -2 917.24 46.6
6 3 -1 196.5 18.78
-3 9 -1 156.52 23.97
-9 6 -1 135.12 24.71
3 -9 -1 195.28 24.17
9 -6 -1 193.13 22.57
9 -6 -1 162.14 22.71
9 -6 -1 173.23 24.38
-9 6 0 82.62 11.93
9 -6 0 85.15 12.49
9 -6 0 66.76 18.37
-9 6 0 64.15 20
9 -6 0 79.43 11.96
3 -9 0 80.83 19.6
-9 6 0 64.71 11.48
6 3 0 65.14 16.15
-3 9 0 86.49 20.56
-9 6 1 194.68 21.24
3 -9 1 177.83 24.69
-6 -3 1 175.93 18.02
-3 9 1 182.74 23.35
-9 6 1 162.94 23.76
9 -6 1 173.55 26.11
-9 6 1 185.96 20.55
6 3 1 169.6 27.53
-9 6 2 833.03 50.57
-3 9 2 815.27 43.75
-6 -3 2 849.69 42.16
6 3 2 957.12 59.16
-6 -3 2 784.49 48.78
9 -6 2 816.44 52.87
3 -9 2 844.79 24.66
-9 6 2 805.21 41.67
3 -9 2 803.5 50.35
3 -9 3 151.58 24.57
-6 -3 3 183.14 24.51
-3 9 3 167.73 19.7
6 3 3 119.36 26.37
3 -9 3 156.1 17.36
3 -9 3 140.4 20.65
9 -6 3 162.98 27.76
-9 6 3 92.21 11.5
-9 6 3 154.65 27.67
-3 9 4 136.84 17.37
-9 6 4 170.65 33.01
-6 -3 4 177.06 28.22
3 -9 4 221.61 25.71
9 -6 4 175.65 30.19
-3 9 4 140.04 15.79
6 3 4 202.45 31.81
3 -9 4 181.22 26.75
3 -9 5 4.8 12.19
-3 9 5 11.41 22.22
-9 6 5 45.87 26.04
-6 -3 5 28.63 16.26
-6 -3 6 -10.04 14.46
-9 6 6 24.46 23.67
9 -6 6 -7.28 23.32
-3 9 6 14.59 28.42
-9 6 7 -48.94 26.6
6 3 7 -17.84 29.96
-3 9 7 43.42 31.06
9 -5 -7 10.82 29.05
4 -9 -7 9.74 23.22
9 -5 -6 -53.55 28.38
4 -9 -6 31.54 26.9
-5 -4 -6 -29.58 23.62
4 -9 -5 -10.67 19.46
-5 -4 -5 30.58 18.45
9 -5 -5 19.65 22.18
-9 5 -5 27.38 19.17
-4 9 -5 3.47 13.76
-9 5 -5 24.18 14.24
-9 5 -4 35.03 19.51
4 -9 -4 103.16 27.26
-5 -4 -4 65.79 20.01
5 4 -4 66.7 12.77
5 4 -4 20.53 10.01
9 -5 -4 77.3 26.93
-4 9 -4 78.04 19.06
-9 5 -4 51.43 15.82
-4 9 -3 335.18 30.33
4 -9 -3 265.06 33.87
-9 5 -3 258.61 38.47
9 -5 -3 353.33 42.62
5 4 -3 337.41 28.9
9 -5 -3 246.08 16.44
-9 5 -3 331.41 24.9
-4 9 -3 311.14 33.93
-9 5 -2 845.84 26.95
-4 9 -2 775.65 50.37
5 4 -2 844.65 42.85
9 -5 -2 973.3 55.8
5 4 -2 882.96 44.89
9 -5 -2 888.79 40.05
-9 5 -2 864.03 55.86
9 -5 -1 522.43 35.63
-9 5 -1 444.68 40.72
-4 9 -1 429.24 36.54
9 -5 -1 522.68 34.33
4 -9 -1 473.02 33.9
9 -5 -1 458.06 32.02
5 4 -1 474.98 26.97
9 -5 0 204.91 23.73
-9 5 0 203.56 27.72
9 -5 0 217.37 18.15
-9 5 0 210.63 18.11
4 -9 0 228.82 26.89
-4 9 0 218.8 26.36
-9 5 0 216.7 18.84
-4 9 1 489.99 33.91
-5 -4 1 430.95 25.36
-9 5 1 472.28 30.97
9 -5 1 467.34 37.71
4 -9 1 459.29 37.44
5 4 1 518.18 38.24
-4 9 1 515.21 35.79
-9 5 1 461.97 32.87
-9 5 1 496.09 35.76
-5 -4 2 854.93 41.09
-4 9 2 844.37 42.71
4 -9 2 824.37 24.31
4 -9 2 796.06 35.53
9 -5 2 897.74 55.31
-5 -4 2 832.1 50.44
-9 5 2 887.65 42.98
5 4 2 906.99 54.93
4 -9 2 882.87 51.84
-9 5 2 880.01 51
-9 5 3 303.14 37.41
-5 -4 3 317.38 29.7
5 4 3 336.31 38.56
9 -5 3 386.74 30.8
4 -9 3 290.45 28.24
4 -9 3 348.45 34.99
-4 9 3 290.13 24.02
9 -5 3 320.11 36.28
4 -9 3 336.2 25.03
-4 9 4 29.78 7.5
-4 9 4 33.47 7.93
4 -9 4 64.62 17.61
-5 -4 4 55.9 16.26
4 -9 4 59.85 18.15
9 -5 4 79.62 23.54
-4 9 4 39.89 22.23
5 4 4 43.62 16.89
-9 5 4 79.23 28.54
4 -9 5 22.3 14.67
-4 9 5 56.19 26.58
-9 5 5 -4.52 19.14
-5 -4 5 18.46 14.78
9 -5 6 2.08 19.96
-4 9 6 20.64 22.76
-5 -4 6 -9.18 13.02
-9 5 6 -22.24 22.03
-9 5 7 -13.53 25.01
5 4 7 16.91 27.93
-4 9 7 -11.89 27.46
5 -9 -7 30.07 29.68
9 -4 -6 25.06 25.64
-4 -5 -6 -30.09 23.03
5 -9 -6 18.74 21.77
-9 4 -5 17.05 12.65
-9 4 -5 25.72 18.29
5 -9 -5 6.35 17.33
9 -4 -5 34.72 21.4
-4 -5 -5 63.89 24.29
-5 9 -5 63.81 19.54
-9 4 -4 54.55 24.3
9 -4 -4 66.57 27.04
5 -9 -4 115.93 28.48
-5 9 -4 50.13 16.82
-4 -5 -4 78.71 24.56
4 5 -4 45.49 11.87
-9 4 -4 89.74 19.9
4 5 -3 26.47 12.54
9 -4 -3 18.9 6.12
-9 4 -3 27.29 20.63
-5 9 -3 20.74 16.72
4 5 -3 25.67 12.07
5 -9 -3 43.26 19.34
-9 4 -3 29.78 10.37
9 -4 -3 32.29 21.08
-5 9 -2 469.66 34.92
4 5 -2 448.18 34.02
9 -4 -2 578.69 43.72
9 -4 -2 469.08 31.11
5 -9 -2 540.44 34.4
-9 4 -2 487.11 44.2
4 5 -2 490.93 32.35
-5 9 -2 450.47 38.72
5 -9 -1 1443.45 57.23
9 -4 -1 1463.88 55.68
9 -4 -1 1396.85 55.58
-5 9 -1 1355.99 56.33
9 -4 -1 1469.91 58.87
-5 9 -1 1369.33 62.12
-9 4 -1 1342.34 65.88
4 5 -1 1388.86 43.01
9 -4 0 3366.67 92.42
9 -4 0 3391.78 68.1
-5 9 0 3308.35 59.44
-5 9 0 3448.11 86.45
-9 4 0 3328.07 67.03
-9 4 0 3373.44 68.96
-9 4 0 3456.48 94.88
5 -9 0 3481.12 92.67
-5 9 0 3280.6 91.95
-5 9 1 1463.98 58.56
5 -9 1 1472.34 63.92
9 -4 1 1309.19 62.2
-9 4 1 1430.08 57.44
-4 -5 1 1401.76 43.3
-9 4 1 1449.94 57.85
-9 4 1 1291.28 49.31
5 -9 2 447.83 18.66
5 -9 2 482.54 39.3
-9 4 2 473.95 31.83
4 5 2 428.6 38.4
5 -9 2 455.9 25.84
9 -4 2 421.27 39.73
-5 9 2 461.22 31.89
-9 4 2 493.44 38.52
-4 -5 2 478.03 38.2
-4 -5 2 486.25 28.96
-9 4 3 20.9 14.79
5 -9 3 21.87 13.31
-4 -5 3 24.5 11.78
5 -9 3 35.98 11.27
4 5 3 3.07 15.06
5 -9 3 33.06 9.96
9 -4 3 32.38 16.02
-5 9 3 25.36 10.65
5 -9 4 34.57 14.93
-5 9 4 105.98 31.65
5 -9 4 68.74 18.87
-4 -5 4 99.29 20.48
-9 4 4 85.24 24.56
4 5 4 35.25 15.44
9 -4 4 47.76 18.03
5 -9 4 75.13 17.97
-9 4 5 75.94 20.59
-5 9 5 23.7 25.52
5 -9 5 50.74 18.14
-4 -5 5 59.58 20.43
-5 9 6 -14.65 25.16
-9 4 6 29.7 25.84
-4 -5 6 34.54 20.25
-5 9 7 2.25 27.12
-9 4 7 11.02 30.05
4 5 7 -22.15 32.44
-3 -6 -7 14.65 24.36
6 -9 -7 -30.62 23.03
9 -3 -6 34.73 28.48
6 -9 -6 12.28 23.1
-3 -6 -6 28.6 22.13
6 -9 -5 17.44 18.17
-9 3 -5 33.24 16.43
-6 9 -5 -12.29 15.24
-3 -6 -5 39.34 23.82
9 -3 -5 52.3 27.81
3 6 -4 43.84 12.96
-3 -6 -4 42.15 18.47
9 -3 -4 62.07 27.2
6 -9 -4 46.19 20.89
-9 3 -4 24.49 22.49
-6 9 -4 40.95 16.29
-9 3 -4 37.72 12.82
3 6 -3 249.26 26.61
9 -3 -3 287.72 38.05
9 -3 -3 202.5 16.53
-9 3 -3 247.74 37.93
-6 9 -3 231.79 29.88
6 -9 -3 219.2 31.99
-9 3 -3 212.64 21.6
9 -3 -2 57.19 13.83
6 -9 -2 66.04 17.13
-9 3 -2 46.56 17.36
-6 9 -2 74.16 17.99
3 6 -2 52.19 12.02
3 6 -2 47.28 15.07
9 -3 -2 74.31 18.96
9 -3 -2 38.11 15.19
6 -9 -2 56.93 13.81
-6 9 -1 285.03 32.22
6 -9 -1 251.76 24.75
6 -9 -1 270.82 26.98
9 -3 -1 289.1 27.95
-6 9 -1 279 27.17
3 6 -1 257.07 18.52
-9 3 -1 275.47 32.02
9 -3 -1 298.65 27.56
9 -3 -1 222.49 22.59
9 -3 0 174.9 24.86
-6 9 0 187.42 26.55
9 -3 0 173.32 17.28
-6 9 0 170.86 15.26
-9 3 0 177.67 18.03
-9 3 0 160.86 26.28
6 -9 0 153.6 22.18
-6 9 1 258.99 25.07
9 -3 1 262.31 29.16
6 -9 1 284.82 31.34
-6 9 1 300.59 29.47
-9 3 1 288.62 29.05
-9 3 1 292 25.35
-9 3 1 278.69 26.52
-6 9 2 44.1 13.15
-9 3 2 53.57 14.81
-6 9 2 38.52 14.83
3 6 2 39.5 13.77
-3 -6 2 47.36 13.83
6 -9 2 50.14 16.53
-9 3 2 64.9 15.05
-3 -6 2 50.79 10.34
9 -3 2 36.11 15.96
6 -9 2 58.9 9.57
6 -9 3 246.81 22.19
9 -3 3 229.53 32.37
3 6 3 267.9 34.81
6 -9 3 299.34 33.8
-9 3 3 234.68 32.23
-6 9 3 291.82 38.93
-3 -6 3 241.28 24.23
6 -9 3 242.45 23.07
-6 9 3 240.22 21.49
9 -3 4 59.62 21.14
3 6 4 51.29 18.54
-3 -6 4 51.99 16.73
6 -9 4 38.98 15.72
6 -9 4 15.86 12.56
-9 3 4 61.19 21.78
-6 9 4 42.04 23.06
-3 -6 5 8.46 11.37
6 -9 5 -26.33 16.13
-6 9 5 10.21 22.82
-9 3 5 31.13 20.61
-9 3 6 -15 23.34
-6 9 6 37.38 30.1
-3 -6 6 9.18 14.17
-6 9 7 -13.47 31.12
3 6 7 -15.5 39.81
-9 3 7 28.5 24.26
7 -9 -7 -28.13 32.77
-2 -7 -7 47.69 27.76
7 -9 -6 51.66 27.73
-2 -7 -6 -0.3 22.28
-9 2 -5 24.61 15.98
9 -2 -5 37.46 21.37
-2 -7 -5 29.24 19.22
-7 9 -5 23.72 16.62
7 -9 -5 31.69 35.76
-9 2 -4 14.19 18.44
-9 2 -4 45.74 15.99
9 -2 -4 31.98 24.04
-7 9 -4 -13.75 13.06
-2 -7 -4 14.83 14.9
2 7 -4 34.95 13.83
7 -9 -4 26.76 16.39
9 -2 -3 -6.42 14.35
9 -2 -3 14.92 7.8
-7 9 -3 16.92 14.78
-9 2 -3 3.38 15.97
2 7 -3 45.35 14.95
7 -9 -3 34.21 15.53
9 -2 -2 17.72 12.61
7 -9 -2 46.92 10.91
-7 9 -2 45.75 16.26
7 -9 -2 29.49 10.95
2 7 -2 34 10.34
7 -9 -2 34.66 14.82
9 -2 -2 26.14 12.34
-9 2 -2 26.86 15.93
9 -2 -2 34 15.15
2 7 -2 38.7 13.78
9 -2 -1 771.14 39.82
7 -9 -1 770.76 42.63
9 -2 -1 795.78 47.18
2 7 -1 767.06 28.78
-7 9 -1 754.67 48.64
-9 2 -1 742.89 51.76
7 -9 -1 740.76 42.17
2 7 -1 830.48 47.17
7 -9 0 1657.39 45.58
9 -2 0 1718.32 69.18
9 -2 0 1628.25 49.49
7 -9 0 1743.37 67.41
-7 9 0 1629 67.77
-7 9 0 1665.82 43.77
7 -9 0 1586.06 59.68
-9 2 0 1654.24 69.04
-7 9 1 739.94 39.51
-9 2 1 729.07 37.87
-9 2 1 818.38 45.8
-7 9 1 734.54 42.64
7 -9 1 719.29 47.23
7 -9 1 729.48 19.63
9 -2 1 751.11 49.29
-9 2 1 683.46 40.38
7 -9 2 43.89 8.28
9 -2 2 47.73 17.72
-7 9 2 55.9 18.66
-9 2 2 22.15 11.85
-2 -7 2 34.21 8.9
7 -9 2 32.4 17.9
-7 9 2 30.25 12.88
2 7 3 14.7 13.67
-9 2 3 33.77 17.57
-2 -7 3 12.53 8.62
9 -2 3 22.41 17.22
-7 9 3 18.29 18.72
-7 9 3 7.76 7.54
7 -9 3 23.59 13.7
7 -9 3 22.65 9.77
2 7 4 37.98 16.52
-7 9 4 35.47 25.07
-9 2 4 2.16 16.34
-2 -7 4 23.73 12.74
2 7 4 19.3 14.83
7 -9 4 20.31 15.45
7 -9 4 16.18 13.45
9 -2 4 30.39 17.16
7 -9 5 73.53 22.96
-9 2 5 48.19 21.94
-2 -7 5 5.82 11.59
-7 9 5 25.22 29.67
-9 2 6 13.27 21.25
-7 9 6 11.73 26.24
-2 -7 6 16.28 15.04
2 7 7 -28.24 37.32
9 -2 7 48.56 34.82
-9 2 7 53.04 29.78
-7 9 7 11.71 26.34
-1 -8 -7 45.16 30.14
8 -9 -7 2.3 24.59
-1 -8 -6 31.19 25.05
8 -9 -6 36.64 27.46
-1 -8 -5 64.6 26.64
8 -9 -5 45.19 27.3
-8 9 -5 18.39 17.18
-9 1 -5 31.11 15.27
8 -9 -4 113.2 29.36
-9 1 -4 108.07 27.11
9 -1 -4 73.19 27.32
-9 1 -4 42.05 16.39
1 8 -4 118.33 21.7
-1 -8 -4 128.46 26.6
-8 9 -4 108.71 24.96
9 -1 -3 83.22 15.64
-8 9 -3 75.88 22.69
8 -9 -3 91.24 25.42
8 -9 -3 73.82 14.87
9 -1 -3 96.66 25.89
-9 1 -3 93.25 25.38
8 -9 -3 112.9 15.2
1 8 -3 108.42 21.17
9 -1 -2 385.14 33.98
-9 1 -2 339.94 38.52
8 -9 -2 367.69 37.12
9 -1 -2 308.93 31.29
1 8 -2 342.75 31.58
1 8 -2 353.42 24.5
8 -9 -2 351.22 27.97
-8 9 -2 339.6 36
1 8 -1 1244.15 34.65
-8 9 -1 1237.43 63.36
9 -1 -1 1319.71 52.06
-9 1 -1 1230.03 65.64
9 -1 -1 1245.58 61.12
1 8 -1 1278.38 59.33
8 -9 -1 1262.66 56.08
8 -9 -1 1348.35 56.79
1 8 0 6.63 13.43
-8 9 0 14.1 6.83
9 -1 0 -1.27 14.53
8 -9 0 0.38 7.23
-9 1 0 11.25 16.87
8 -9 0 8.83 13.91
9 -1 0 14.08 8.29
-8 9 0 32.63 18.25
9 -1 1 1276.74 65.85
8 -9 1 1328.71 58.39
-8 9 1 1317.58 57.98
-9 1 1 1267.71 54.63
8 -9 1 1304.11 64.62
-9 1 1 1287.26 57.9
-8 9 1 1220.86 51.42
8 -9 1 1305.9 29.7
-9 1 1 1260.12 49
8 -9 2 314.74 35.9
-8 9 2 353.46 28.39
8 -9 2 323.57 15.61
-9 1 2 365.74 30.88
9 -1 2 357.77 39.59
-1 -8 2 331.05 20.59
-8 9 2 339.51 33.41
-8 9 3 95.78 23.84
-9 1 3 98.58 20.85
-1 -8 3 87.24 14.73
1 8 3 92.09 20.54
-8 9 3 95.29 14.51
8 -9 3 88.12 22.67
9 -1 3 85.31 24.43
1 8 3 78.04 18.24
-8 9 4 65.44 24.89
9 -1 4 98.81 25.26
1 8 4 84.5 22.19
-9 1 4 77.07 24.12
-1 -8 4 97.47 18.68
1 8 4 88.83 17.89
-8 9 5 -11.38 22.06
-9 1 5 54.03 21.54
8 -9 5 36.36 19.24
-1 -8 5 20.59 13.78
-1 -8 6 -8.87 15.77
1 8 6 15.38 27.59
-8 9 6 1.38 23.56
-9 1 6 43.74 22.63
-8 9 7 -45.15 33.72
-9 1 7 -2.93 21.69
9 -1 7 15.14 28.51
0 -9 -7 35.42 30.42
9 -9 -7 -5.44 25.17
9 -9 -6 10.39 22.45
-9 0 -6 1.47 14.22
0 -9 -6 -22.72 24.45
-9 0 -5 2.47 14.2
0 -9 -5 26.67 20.78
9 -9 -5 -3.17 18.99
0 9 -5 18.82 12.51
-9 9 -5 43.44 19.68
0 -9 -4 185.19 34.14
9 -9 -4 193.98 36.99
-9 0 -4 167.34 25.78
0 9 -4 173.63 26.02
-9 9 -4 146.94 30.83
9 -9 -3 30.85 17.16
9 0 -3 15.33 12.69
9 -9 -3 4.75 6.79
0 9 -3 -16.61 13.86
-9 9 -3 13.83 13.96
-9 0 -3 -11.17 16.03
9 -9 -2 317.33 36.15
0 9 -2 236.99 18.34
0 9 -2 248.68 30.76
9 0 -2 300.46 32
-9 0 -2 268.99 36.21
-9 9 -2 243.2 32.46
9 -9 -2 288.19 26.01
9 -9 -1 1120.52 54.81
9 0 -1 1096.2 47.4
9 -9 -1 1053.3 51.89
-9 9 -1 1124.17 62.44
0 9 -1 1015.33 56.16
0 9 -1 1078.65 30.41
9 -9 -1 1123.75 53.91
-9 0 -1 1103.79 60.68
9 0 -1 1092.33 58.43
9 -9 0 505.98 39.69
0 9 0 543.83 40.71
9 -9 0 523.25 28.1
9 -9 0 510.46 27.8
-9 9 0 553.8 27.52
-9 0 0 514.89 40.44
9 0 0 573.12 32.08
-9 9 0 506.52 39.06
9 0 0 559.46 41.21
-9 0 1 1095.91 46.4
9 -9 1 1088.19 30.69
-9 0 1 1137.19 54.39
9 0 1 1180.23 64.29
-9 9 1 1072.65 53.98
-9 9 1 1065.4 48.84
0 9 1 1092 55.96
9 -9 1 1091.69 62
-9 0 2 297.3 28.9
9 -9 2 267.56 33.21
9 0 2 256.42 36.21
0 -9 2 264.77 17.34
-9 9 2 235.45 25.62
-9 9 2 285.72 32.89
0 9 2 270.39 29.4
0 9 3 -5.55 10.16
-9 9 3 -11.89 8.55
9 -9 3 3.08 12.67
0 9 3 2.39 10.27
-9 0 3 -19.24 13.64
-9 9 3 -6.12 15.87
9 0 3 7.63 16.67
0 -9 3 11.34 8.55
-9 0 4 195.13 31.23
0 -9 4 152.38 22.2
9 0 4 121.69 12.79
0 9 4 137.32 25.1
0 9 4 206.5 25.42
-9 9 4 180.9 35.74
-9 0 5 -12.24 16.02
-9 9 5 -14.37 26.7
9 -9 5 35.72 20.48
0 -9 5 -4.54 11.53
0 9 6 26.91 27.98
-9 0 6 25.76 24.53
-9 9 6 19.01 24.78
9 0 7 23.2 32.96
0 9 7 26.98 34.13
-9 9 7 -20.99 26.62
-9 0 7 47.12 31.9
1 -10 -7 -5.54 24.01
10 -9 -7 -2.89 24.96
10 -9 -6 16.37 26.2
1 -10 -6 -12.6 21.26
-9 -1 -6 -6.9 14.66
10 -9 -5 -0.41 21.24
-9 -1 -5 18.49 15.2
1 -10 -5 34.24 19.12
-10 9 -5 24.06 16.27
-1 10 -5 31.38 14.92
9 1 -4 106.19 14.18
10 -9 -4 202.2 38.64
-10 9 -4 188.57 36.12
1 -10 -4 161.33 29.85
9 1 -4 150.88 15.95
10 -9 -4 144.12 21.82
-1 10 -4 176.73 28.45
-9 -1 -4 180.73 27.54
10 -9 -3 -7.18 7.18
-1 10 -3 -11.72 16.58
9 1 -3 -0.82 11.74
10 -9 -3 2.18 15.88
-10 9 -3 -4.32 18.2
-10 9 -2 494.08 47.98
10 -9 -2 599.42 48.37
9 1 -2 603.84 44.39
10 -9 -2 527.62 36.18
-1 10 -2 517.45 25.31
-9 -1 -2 587.49 50.93
-1 10 -2 571.29 45.22
-1 10 -1 57.8 7.3
9 1 -1 50.55 13.48
-1 10 -1 62.97 19.66
9 1 -1 60.72 19.39
-9 -1 -1 80.15 21.54
10 -9 -1 100.72 19.24
10 -9 -1 82.95 18.83
10 -9 -1 51.76 13.09
-10 9 -1 92.6 24.09
-1 10 0 55.74 21.06
10 -9 0 62.36 19.04
-10 9 0 28.53 17.68
-10 9 0 49.2 10.89
-9 -1 0 56.11 20.71
10 -9 0 29.65 9.73
9 1 0 36.6 11.21
9 1 0 42.97 17.4
10 -9 0 46.55 11.49
-10 9 1 81.63 20.37
10 -9 1 50.86 18.07
-9 -1 1 68.88 15.36
-10 9 1 85.94 17.63
9 1 1 62.04 21
10 -9 1 61.14 9.11
1 -10 1 63.35 19.39
-1 10 1 75.82 17.38
-10 9 2 514.19 42.56
-9 -1 2 567.98 37.72
1 -10 2 560.17 43.94
10 -9 2 549.31 46.65
9 1 2 501.25 50.36
1 -10 2 543.86 22.32
-1 10 2 504.04 40.57
10 -9 2 521.42 39.84
-10 9 2 561.81 37.99
-10 9 3 14.91 16.19
9 1 3 5.65 15.01
1 -10 3 9.66 6.67
-1 10 3 7.24 12.55
-10 9 3 -0.46 9.44
-9 -1 3 -2.84 11.93
1 -10 3 5 12.47
-1 10 4 111.62 23
-10 9 4 248.43 42.24
1 -10 4 188.28 23.71
-1 10 4 189.78 24.44
-9 -1 4 223.17 32.63
-9 -1 5 33.37 20.04
-10 9 5 60.86 28.71
1 -10 5 44.94 16.22
-1 10 6 -22.42 24.54
-9 -1 6 18.41 21.12
-10 9 6 -17.69 23.98
-10 9 7 12.08 26.32
-9 -1 7 -7.32 20.56
-1 10 7 36.49 36.31
2 -10 -7 4.96 23.31
10 -8 -7 13.3 29.17
2 -10 -6 18.29 26.69
10 -8 -6 29.71 30.52
-8 -2 -6 -16.73 20.89
10 -8 -5 24.24 23.7
2 -10 -5 20.41 18.8
-2 10 -5 33.52 16.95
-8 -2 -5 89.46 24.77
-10 8 -5 47.24 25.68
10 -8 -4 -13.04 21.1
-8 -2 -4 30.59 13.55
-2 10 -4 -0.31 14.07
2 -10 -4 7.32 15.32
-10 8 -4 9.08 16.15
8 2 -4 8.36 7.58
8 2 -4 15.38 7.64
8 2 -3 -0.59 13.35
10 -8 -3 18.07 8.48
-10 8 -3 23.79 19.07
8 2 -3 25.3 12.05
10 -8 -3 41.36 22.81
-2 10 -3 6.02 13.82
-2 10 -2 715.75 49.66
8 2 -2 680.5 47.54
10 -8 -2 696 39.92
8 2 -2 690.37 43.95
10 -8 -2 767.29 53.16
-10 8 -2 757.06 56.51
-10 8 -1 3.77 15.14
8 2 -1 3.09 8.84
-2 10 -1 9.68 15.18
8 2 -1 6.02 11.81
10 -8 -1 9.74 10.64
10 -8 -1 22.39 16.13
-2 10 -1 3.47 3.64
10 -8 -1 9.25 14.19
8 2 0 74.63 14.17
-10 8 0 63.73 18.36
10 -8 0 88.86 13.37
8 2 0 70.82 18.98
10 -8 0 80.53 20.25
-2 10 0 72.84 21.41
2 -10 0 93.98 20.58
-10 8 0 81.12 12.75
10 -8 0 70.09 13.7
-8 -2 1 -1.11 10.88
10 -8 1 11.16 5.65
-10 8 1 13.73 12.51
2 -10 1 -20.31 17.22
-10 8 1 -0.43 11.18
8 2 1 -0.11 14.59
-10 8 1 9.33 14.47
10 -8 1 3.63 17.57
-2 10 1 18.45 15.26
-2 10 2 708.6 44.81
-10 8 2 689.22 42.03
8 2 2 690.16 56.26
10 -8 2 714.33 52.64
2 -10 2 676.36 22.69
-8 -2 2 729.96 42.21
-10 8 2 732.85 48.46
2 -10 2 707.97 48.58
-2 10 3 -8.48 11.25
8 2 3 26 19
-10 8 3 14.84 14.83
-10 8 3 6.37 8.63
2 -10 3 16.89 14.89
-8 -2 3 17.5 11.66
2 -10 3 9.38 10.86
2 -10 3 16.2 8.48
-2 10 4 6.43 9.25
-2 10 4 -6.27 14.93
2 -10 4 17.21 10.76
-8 -2 4 33.86 17.69
-10 8 4 -19.28 19.51
-8 -2 5 108.32 27.4
2 -10 5 49.42 18.09
-10 8 5 57.49 30.12
-2 10 6 -26.99 30.83
10 -8 6 6.81 21.15
-10 8 6 -0.45 22.67
-8 -2 6 -34.63 21.17
-10 8 7 16.65 28.97
8 2 7 5.57 28.03
-8 -2 7 -15.97 21.41
-2 10 7 -26.92 32.7
10 -7 -7 27.02 29.29
3 -10 -7 38.6 33.23
3 -10 -6 13.5 20.75
-7 -3 -6 2.84 15.75
10 -7 -6 -35.62 23.82
-7 -3 -5 58.43 22.69
10 -7 -5 91.47 32.25
-3 10 -5 53.02 18.25
-10 7 -5 41.19 21.97
3 -10 -5 51.3 23.24
-10 7 -4 63.85 14.37
-3 10 -4 69.28 21.62
-3 10 -4 53.42 15.8
-7 -3 -4 79.55 22.32
7 3 -4 49.53 11.26
7 3 -4 37.62 12.16
10 -7 -4 108.81 30.04
-10 7 -4 42.84 25.83
3 -10 -4 38.97 18.8
10 -7 -3 1.29 6.56
7 3 -3 -3.29 9.37
-3 10 -3 9.07 13.93
-10 7 -3 3.32 14.29
-10 7 -3 -12.31 7.65
7 3 -3 20.3 12.22
10 -7 -3 3.45 15.63
7 3 -2 312.65 29.17
7 3 -2 300.99 29.89
-3 10 -2 297.23 34.35
10 -7 -2 309.36 35.67
10 -7 -2 317.41 27.66
-10 7 -2 294.75 36.68
-3 10 -1 391.96 36.86
10 -7 -1 404.75 34.29
7 3 -1 441.18 34.25
3 -10 -1 466.75 35.49
10 -7 -1 431.85 32.88
7 3 -1 433.82 28.85
-10 7 -1 467.12 42.35
10 -7 -1 425.85 33.65
10 -7 0 3.81 8.69
-10 7 0 -12.73 15.3
3 -10 0 0.58 12.34
-10 7 0 4.24 7.59
7 3 0 27.76 14.91
10 -7 0 -6.41 13.82
10 -7 0 5.21 7.78
-3 10 0 -10.66 15.12
-10 7 0 5.55 7.85
-10 7 1 358.6 30.85
-3 10 1 407.72 34.8
-10 7 1 416.2 35.48
10 -7 1 414.75 24.06
-10 7 1 435.47 32.07
7 3 1 390.14 38.6
10 -7 1 449.31 39.5
-7 -3 1 398.87 27.2
3 -10 1 419.03 36.9
10 -7 2 345.23 37.23
3 -10 2 315.29 33.6
7 3 2 305.17 38.89
-10 7 2 341.29 29.39
-3 10 2 291 27.64
-3 10 2 310.89 29.07
-10 7 2 300.62 34.42
3 -10 2 297.87 13.72
-7 -3 2 324.02 27.4
3 -10 3 -22.36 15.01
7 3 3 7.31 20.04
3 -10 3 15.83 13.53
-7 -3 3 14.98 10.3
-3 10 3 0.59 9.93
10 -7 3 -1.6 12.98
3 -10 3 -14.61 8.13
-10 7 3 -4.89 16.11
-10 7 3 0.64 8.09
3 -10 4 48.81 17.85
-10 7 4 82.84 26.75
-3 10 4 40.41 15.15
-3 10 4 34.08 10.55
7 3 4 51.27 21.24
3 -10 4 64.83 14.59
-7 -3 4 62.57 19.02
-7 -3 5 90.34 25.2
-10 7 5 58.36 27.71
-3 10 5 109.56 36.57
3 -10 5 68.42 19.47
10 -7 6 16.49 25.98
-3 10 6 38.62 36.07
-10 7 6 -29.74 20.68
-7 -3 6 56 21.13
7 3 7 40.32 39.55
-3 10 7 -1.93 27.95
-10 7 7 30.64 28.09
4 -10 -7 49.46 34.11
10 -6 -7 38.81 29.05
10 -6 -6 -5.26 24.05
-6 -4 -6 5.3 16.3
4 -10 -6 17.55 22.95
10 -6 -5 3.29 21.57
-10 6 -5 22.04 13.53
-4 10 -5 -2.26 13.81
-6 -4 -5 40.55 20.55
4 -10 -5 55.5 25.46
-10 6 -5 2.33 16.19
-10 6 -4 30.65 21.1
6 4 -4 28.74 11.22
4 -10 -4 44.23 18.76
10 -6 -4 46.76 26.06
6 4 -4 39.09 11.6
-4 10 -4 59.64 21.24
-10 6 -4 39.8 12.95
4 -10 -3 181.26 29.25
10 -6 -3 164.79 16.14
-10 6 -3 211.02 19.03
-10 6 -3 196.48 35.54
6 4 -3 210.7 24.44
-4 10 -3 225.24 29.99
10 -6 -3 160.83 33.36
-10 6 -2 135.42 9.54
10 -6 -2 137.73 25.55
-10 6 -2 92.41 24.77
6 4 -2 159.71 20.98
-4 10 -2 154.35 26.61
10 -6 -2 147.89 19.03
10 -6 -1 108.35 19.47
4 -10 -1 88.63 19.82
-4 10 -1 99.9 21.55
10 -6 -1 77.89 16.47
-10 6 -1 78.09 7.42
10 -6 -1 95.56 19.61
6 4 -1 75.56 12.89
-10 6 -1 75.8 23.68
-10 6 0 1308.28 44.5
10 -6 0 1367.38 43.29
-10 6 0 1342.52 44.07
-4 10 0 1298.11 61.01
-10 6 0 1289.78 64.17
4 -10 0 1359.28 61.61
10 -6 0 1277.45 60.61
10 -6 0 1312.71 44.69
-6 -4 1 73.47 12.88
6 4 1 67.59 17.66
-4 10 1 115 22.2
10 -6 1 93.74 13.21
-10 6 1 96.05 17.43
-10 6 1 133.66 20.71
-10 6 1 74.32 21.22
4 -10 1 45.39 16.54
10 -6 1 65.15 16.86
-4 10 1 112.47 19.91
6 4 2 130.7 26.33
10 -6 2 174.5 28.63
-10 6 2 126.6 20.9
-4 10 2 169.49 23.75
4 -10 2 146.8 26.16
-10 6 2 149.62 23.79
4 -10 2 134.41 8.64
-6 -4 2 142.03 18.7
10 -6 3 185.91 30.3
4 -10 3 182.83 26.97
4 -10 3 157.05 22.85
-4 10 3 199.83 22.62
6 4 3 164.86 32.52
-10 6 3 157.84 16.24
4 -10 3 188.7 17.96
-10 6 3 178.85 30.17
-6 -4 3 200.89 25.28
10 -6 3 205.78 25.01
-6 -4 4 55.05 20.25
6 4 4 32.52 18.01
4 -10 4 34.34 15.28
-4 10 4 44.1 11.28
4 -10 4 44.9 13.44
-10 6 4 23.42 16.02
-4 10 4 16.03 8.42
-4 10 5 -29.58 22.54
-6 -4 5 16.84 12.26
-10 6 5 37.51 24.89
4 -10 5 13.45 13.81
-6 -4 6 45.63 24.18
-4 10 6 71.71 34.75
-10 6 6 42.16 28.81
-10 6 7 -48.78 32.51
6 4 7 -30.88 29.1
5 -10 -7 -3.34 25.12
-5 -5 -6 32.14 21.89
5 -10 -6 -19.81 25.65
10 -5 -6 5.51 22.93
-10 5 -5 19.29 14.08
5 -10 -5 43.54 26.42
10 -5 -5 -33.58 25.74
-5 -5 -5 27.74 19.93
-10 5 -5 -2.42 18.2
-5 10 -5 12.65 13.87
10 -5 -4 84.22 27.75
-10 5 -4 29.44 19.43
5 5 -4 60.43 14.08
5 -10 -4 52.99 20.27
-10 5 -4 57.8 14.88
-5 10 -4 72.63 22.43
5 5 -4 33.21 14.58
-10 5 -3 158.36 30.65
-5 10 -3 121.36 24.54
10 -5 -3 140.13 14.42
10 -5 -3 175.64 30.7
-10 5 -3 171.4 17.91
5 5 -3 171.97 23.46
-5 10 -3 157.72 23.32
5 -10 -3 155.64 25.47
5 -10 -2 36.24 15.65
-5 10 -2 21.39 17.69
10 -5 -2 7.58 9.73
10 -5 -2 15.04 13.28
5 5 -2 -0.61 11.2
-10 5 -2 17.82 18.92
-5 10 -2 15.87 13.03
5 5 -2 25.47 11.47
10 -5 -1 275.19 27.88
5 -10 -1 284.25 29.05
5 5 -1 283.11 21.3
10 -5 -1 272.47 27.27
-5 10 -1 265.36 30.99
-10 5 -1 331 36.19
10 -5 -1 293.34 26.45
-5 10 0 5.05 13.53
5 -10 0 16.62 15.04
-5 10 0 18.69 16.23
-10 5 0 -1.48 8.35
10 -5 0 -3.91 13.69
10 -5 0 9.56 7.61
-10 5 0 -8.93 17.01
-10 5 0 11.14 9.01
5 -10 1 277.67 31.39
-5 10 1 284.54 29.23
-5 -5 1 256.05 21.13
-5 10 1 270.01 26.57
-10 5 1 295.35 27.37
10 -5 1 285 32.42
-10 5 1 291.16 26.16
-10 5 1 290.5 30.44
-5 -5 2 -8.45 12.55
-10 5 2 17.42 13.64
-5 -5 2 15.31 8.15
10 -5 2 18.35 15.78
-10 5 2 16.56 11.46
5 5 2 21.29 15.29
5 -10 2 11.07 3.85
-5 10 2 5.07 11.18
5 -10 2 12.91 14.49
-10 5 3 195.87 31.17
10 -5 3 139.62 28.19
5 -10 3 177.98 28.29
5 -10 3 136.85 19.04
-5 -5 3 157.81 21.53
5 -10 3 159.21 17.21
-5 10 3 143.26 18.88
5 5 3 173.95 31.55
-5 10 4 7.22 7.91
5 -10 4 58.8 15.45
-5 10 4 14.59 17.8
5 -10 4 47.86 17.05
-5 -5 4 68.22 17.89
-5 10 4 24.87 7.2
-10 5 4 35.83 19.07
5 5 4 64.09 19.28
-5 10 5 -15.59 27.68
-10 5 5 -4.87 18.01
-5 -5 5 17.23 13.77
5 -10 5 7.97 11.97
-5 10 6 30.52 29.38
-10 5 6 -18.72 21.85
-5 -5 6 5.8 14.88
5 5 7 50.44 36.54
-5 10 7 27.23 30.93
-10 5 7 -13.77 23.95
6 -10 -7 29.93 29.42
-4 -6 -7 6.24 25.79
6 -10 -6 28.36 25.08
-4 -6 -6 21.67 19.85
10 -4 -6 31.79 26.67
-6 10 -5 11.07 14.03
10 -4 -5 32.16 19.58
-4 -6 -5 2.95 17.22
-10 4 -5 49.69 22.66
-10 4 -5 13.61 12.72
6 -10 -5 24.03 17.4
10 -4 -4 55.66 27.28
6 -10 -4 36.42 19.52
-10 4 -4 0.87 9.73
-6 10 -4 33.33 18.3
4 6 -4 19.39 12.08
-10 4 -4 17.27 19.9
-10 4 -3 306.99 24.4
-6 10 -3 335.82 37.41
4 6 -3 354.13 32.53
6 -10 -3 320.33 38.73
10 -4 -3 303.56 21.33
4 6 -3 354.42 34.74
10 -4 -3 402.58 45.74
-10 4 -3 349.11 44.11
6 -10 -2 512.74 35.3
-6 10 -2 479.25 37.1
4 6 -2 452.57 30.98
10 -4 -2 467.85 40.13
10 -4 -2 507.05 35.24
4 6 -2 442.4 35.88
-6 10 -2 494.54 42.63
-10 4 -2 521.1 48.85
10 -4 -1 702.68 45.1
10 -4 -1 690.25 41.04
4 6 -1 708.17 31.42
-10 4 -1 681.94 52
-6 10 -1 669.58 47.89
-6 10 -1 711.26 44.28
10 -4 -1 686.4 39.17
6 -10 -1 668.22 42.32
-10 4 0 619.01 45.15
-6 10 0 638.96 43.34
6 -10 0 656.48 43.98
-6 10 0 633.16 27.16
10 -4 0 639.57 32.15
-10 4 0 615.65 32.19
-6 10 0 637.95 40.37
-10 4 0 641.85 31.91
10 -4 0 636.04 45.26
6 -10 1 705.31 47.65
-10 4 1 626.79 36.59
-10 4 1 697.57 44.99
-6 10 1 717.02 40.03
-10 4 1 651.05 40.51
-6 10 1 714.92 43.26
10 -4 1 661.54 47.91
6 -10 2 513.76 43.48
10 -4 2 444.16 42.3
-6 10 2 487.38 35.2
-10 4 2 412.06 37.67
-10 4 2 531.51 37.64
6 -10 2 431.76 16.25
-4 -6 2 493.65 29.55
4 6 2 454.64 41.41
6 -10 2 454.67 24.27
-10 4 3 353.29 38.25
10 -4 3 301.88 36.05
-4 -6 3 349.27 29.06
6 -10 3 300.22 34.46
4 6 3 340.72 40.06
-6 10 3 335.03 41.11
-6 10 3 362.19 28.44
6 -10 3 334.48 24.27
6 -10 3 325.76 26.85
6 -10 4 5.69 10.8
6 -10 4 17.76 13.53
-6 10 4 12.05 6.23
6 -10 4 37.9 17.34
-6 10 4 28.08 23.68
-4 -6 4 28.99 12.52
-10 4 4 36.11 22.78
4 6 4 26.75 15.68
-10 4 5 -18.85 22.37
-6 10 5 40.74 23.54
-4 -6 5 -4.01 11.73
6 -10 5 15.25 13.3
-10 4 6 -19.58 26.48
-6 10 6 23.08 29.17
-4 -6 6 29.33 19.11
4 6 7 -46.71 38.72
-6 10 7 15.53 27.45
-10 4 7 5.8 25.44
-3 -7 -7 -2.22 23.64
7 -10 -7 -17.51 22.34
-3 -7 -6 -3.24 20.03
7 -10 -6 -9.52 22.36
-7 10 -5 20.37 17.6
-3 -7 -5 5.96 16.03
10 -3 -5 28.8 25.49
7 -10 -5 22.28 19.58
-10 3 -5 16.09 11.41
-7 10 -4 5.05 13.78
10 -3 -4 4.68 18.81
3 7 -4 22.04 12.91
-10 3 -4 2.66 10.18
7 -10 -4 9.3 16.12
-10 3 -4 24.09 18.69
-7 10 -3 -14.63 17.47
10 -3 -3 5.96 18.02
3 7 -3 21.65 13.13
3 7 -3 -6.43 12.39
10 -3 -3 17.03 9.11
7 -10 -3 31.77 17.6
-10 3 -3 5.54 8.49
-10 3 -3 14.62 16.7
-10 3 -2 237.2 36.19
3 7 -2 276.51 29.15
7 -10 -2 235.17 29.21
10 -3 -2 252.02 27.17
-7 10 -2 268.05 33.25
10 -3 -2 237.93 32.06
7 -10 -2 267.21 25.96
3 7 -2 264.27 23.81
3 7 -1 374.02 33.03
7 -10 -1 387.77 32.97
10 -3 -1 347.21 28.57
7 -10 -1 442.95 34.35
-7 10 -1 400.49 39.26
10 -3 -1 460.27 37.31
3 7 -1 422.09 23.34
-10 3 -1 411.39 40.38
-10 3 0 43.62 12.32
7 -10 0 46.04 17.18
-7 10 0 43.95 17.53
-10 3 0 23.7 19.51
10 -3 0 26.38 9.5
-7 10 0 27.15 8.9
10 -3 0 11.97 13.39
-10 3 1 422.38 34.6
-7 10 1 419.91 32.1
-7 10 1 440.87 35.92
-10 3 1 399.62 29.47
-10 3 1 402.34 32.43
7 -10 1 416.18 38.81
10 -3 1 364.8 39.03
7 -10 2 247.3 16.53
-10 3 2 256.24 28.58
-7 10 2 196.9 26.69
7 -10 2 261.27 32.18
-10 3 2 247.71 25.59
-7 10 2 269.82 27.68
10 -3 2 281.14 34.45
-3 -7 2 264.09 20.47
7 -10 3 -2.11 8
7 -10 3 1.38 8.18
7 -10 3 25.58 16.07
10 -3 3 14.79 17.43
-3 -7 3 2.38 6.67
-10 3 3 -7.52 13.03
-7 10 3 -5.59 8.12
3 7 3 17.73 16.1
7 -10 4 -6.21 9.84
-3 -7 4 23.92 12.65
3 7 4 23.31 16.41
-10 3 4 -1.43 14.92
-7 10 4 8.34 19.97
-10 3 5 58.24 25.72
-7 10 5 36.08 25.23
7 -10 5 51.5 19.6
-3 -7 5 17.97 11.24
-7 10 6 -19.77 26.04
-3 -7 6 -5.14 12.51
-10 3 6 -17.56 22.57
-10 3 7 -11.43 25.62
-7 10 7 46.42 33.43
3 7 7 13.14 32.01
-2 -8 -7 15.6 23.25
8 -10 -7 27.16 30.52
-2 -8 -6 11.26 21.22
8 -10 -6 -15.76 26.24
-2 -8 -5 54.53 24.09
-10 2 -5 57.22 18.43
-8 10 -5 17.91 17.43
8 -10 -5 38.57 25.43
10 -2 -4 53.36 25.19
8 -10 -4 66.9 24.47
-10 2 -4 58.34 15.66
2 8 -4 49.13 16.81
-8 10 -4 68.05 22.3
-10 2 -4 64.56 26.78
10 -2 -3 27.91 16.73
2 8 -3 14.49 11.5
-8 10 -3 0.81 15.41
10 -2 -3 18.59 10.54
8 -10 -3 43.34 19.51
-10 2 -3 30.66 22.39
2 8 -2 534.94 40.76
8 -10 -2 571.29 46.02
2 8 -2 580.86 32.75
8 -10 -2 573.32 37.39
-10 2 -2 563.01 48.83
10 -2 -2 605.24 42.2
-8 10 -2 565.23 46.94
8 -10 -2 611.18 40.48
-10 2 -1 112.01 26.98
-8 10 -1 84.57 22.08
10 -2 -1 136.26 22.78
10 -2 -1 86.26 14.81
8 -10 -1 121.97 19.8
8 -10 -1 115.93 20.96
2 8 -1 129.41 13.82
2 8 -1 103.05 21.65
8 -10 0 92.21 21.1
8 -10 0 93.17 12.65
8 -10 0 72.23 16.55
10 -2 0 63.28 19.02
-8 10 0 94.79 22.16
-8 10 0 89.21 12.87
10 -2 0 95.79 14.75
-10 2 0 74.84 19.53
-10 2 1 116.33 19.92
-10 2 1 131.4 18.75
8 -10 1 121.49 9.19
-8 10 1 118.64 17.89
10 -2 1 106.04 23.12
8 -10 1 131.15 23.36
-8 10 1 76.65 16.76
-10 2 1 123.09 21.47
-8 10 2 570.62 38.18
10 -2 2 541.78 49.2
8 -10 2 554.53 23.18
8 -10 2 627.7 48.77
-10 2 2 587.45 40.46
-8 10 2 564.97 44.58
-2 -8 2 608.36 29.89
-10 2 3 11.45 12.99
-8 10 3 22.42 9.2
-8 10 3 26.51 16.93
8 -10 3 19.35 16.31
-2 -8 3 12.53 7.76
10 -2 3 25.52 14.41
2 8 3 15.42 15.1
8 -10 3 17.05 7.94
8 -10 4 48.47 16.1
2 8 4 29.28 15.58
-10 2 4 61.84 21.37
-2 -8 4 48.58 13.85
-8 10 4 61.79 25.95
2 8 4 63.65 19.63
8 -10 5 56.18 19.83
-8 10 5 63.55 32.02
-2 -8 5 44.39 19.22
-10 2 5 64.91 29.1
-10 2 6 17.61 24.17
-2 -8 6 58.2 20.01
-8 10 6 -10.7 23.45
-8 10 7 -6.91 29.67
-10 2 7 -42.63 29.87
2 8 7 38.69 40.48
10 -2 7 40.34 38.32
-1 -9 -7 8.06 26.15
9 -10 -7 -17.9 28.04
9 -10 -6 -0.43 28.92
-1 -9 -6 8.37 19.71
9 -10 -5 5.76 21.53
-10 1 -5 -26.93 15.3
-1 -9 -5 -0.36 21.92
-9 10 -5 19.2 19.15
9 -10 -4 35.82 21.89
-10 1 -4 72.94 26.65
-10 1 -4 78.78 18.96
-9 10 -4 14.22 18.63
1 9 -4 80.38 20.46
9 -10 -3 13.7 9.92
9 -10 -3 13.68 8.42
-9 10 -3 11.42 18.23
9 -10 -3 40.93 19.89
10 -1 -3 28.29 14.16
-10 1 -3 -20.54 20.14
1 9 -3 32.73 13.97
1 9 -2 364.41 36.95
-9 10 -2 330.56 37.19
9 -10 -2 350.92 30.63
10 -1 -2 386.18 37.28
-10 1 -2 329.55 43.07
1 9 -2 362.56 25.01
9 -10 -2 380.68 39.45
1 9 -1 126.36 23.5
9 -10 -1 141.49 22.73
10 -1 -1 116.76 16.99
1 9 -1 133.65 12.98
9 -10 -1 152.14 24.17
10 -1 -1 130.16 23.09
-9 10 -1 100.96 22.55
-10 1 -1 123.07 25.87
1 9 0 306.07 32.89
-10 1 0 272.96 31.62
-9 10 0 277.45 20.51
10 -1 0 290.94 33.56
9 -10 0 237.75 28.1
9 -10 0 284.18 21.22
-9 10 0 316.31 34.47
10 -1 0 299.21 23.66
10 -1 1 146.58 28
1 9 1 133.84 23.94
-10 1 1 139.26 20.98
-9 10 1 129.63 19.69
9 -10 1 171.24 28.06
-9 10 1 137.91 22.59
9 -10 1 139.3 11.37
-10 1 1 144.69 21.82
-10 1 1 129.36 19.26
9 -10 1 131.12 21.58
9 -10 2 296.61 13.03
1 9 2 357.76 32.77
10 -1 2 292.03 38.7
-9 10 2 385.32 32.26
-1 -9 2 359.98 21.81
-9 10 2 351.83 36.25
9 -10 2 393.29 41.73
-10 1 2 353.46 31.8
1 9 3 7.55 14.35
-1 -9 3 4.96 7.83
-10 1 3 8.88 13.29
1 9 3 28.51 14.99
-9 10 3 12.36 17.65
-9 10 3 13.4 9.09
1 9 4 36.26 17.21
1 9 4 57.01 17.27
-1 -9 4 73.93 16.74
-10 1 4 66.24 23.39
-9 10 4 62.25 25.23
10 -1 4 42.97 10.72
-9 10 5 47.11 26.77
-1 -9 5 -11.53 13.35
-10 1 5 28.74 24.62
9 -10 5 -14.83 17.61
-10 1 6 -5.45 21.65
-9 10 6 18.42 25.85
-10 1 7 -9.21 21.72
1 9 7 -34.4 33.43
-9 10 7 -40.49 31.97
10 -1 7 -11.09 29.11
10 -10 -7 34.69 31.87
0 -10 -7 33.23 33.03
0 -10 -6 -13.92 27.34
10 -10 -6 0.08 21.58
-10 10 -5 18.79 19.58
0 -10 -5 8.27 17.69
-10 0 -5 24.57 16.75
10 -10 -5 41.57 23.69
-10 10 -4 75.7 26.46
10 -10 -4 21.31 11.87
-10 0 -4 52.71 17.77
10 -10 -4 28.43 21.42
10 0 -4 11.12 5.79
0 10 -4 60.3 19.82
10 0 -4 6.92 6.09
10 -10 -3 126.34 18.05
-10 10 -3 152.91 28.32
10 0 -3 147.68 23.57
-10 0 -3 137.23 31.08
0 10 -3 159.84 26.12
10 -10 -3 187.6 33.45
10 -10 -2 113.61 24.28
10 0 -2 123.14 25.55
0 10 -2 139.22 15.35
-10 0 -2 191.48 31.55
-10 10 -2 125.88 27.41
10 -10 -2 130.73 20.82
0 10 -2 139.86 25.08
-10 0 -1 225.08 31.63
-10 10 -1 232.29 35.27
0 10 -1 190.37 28.29
10 -10 -1 223.78 26.48
10 -10 -1 251.51 27.72
10 -10 -1 206.57 26.6
0 10 -1 230.32 15.6
10 0 -1 211.12 23.2
10 0 -1 204.88 30.8
10 0 0 599.96 33.95
0 10 0 531.3 43.97
10 -10 0 560.78 31.47
-10 10 0 609.96 30.36
10 -10 0 566.68 30.98
-10 0 0 619.33 45.7
10 -10 0 553.19 45.02
-10 10 0 505.95 42.2
10 0 0 560.18 45.29
10 -10 1 216.13 15.38
0 10 1 211.93 26.93
-10 10 1 241.7 27.79
10 -10 1 186.22 10.88
10 -10 1 244.4 32.94
10 0 1 206.55 29.56
-10 0 1 244.54 24.76
-10 10 1 211.08 24.53
-10 10 2 128.93 21.04
10 -10 2 136.76 26.4
-10 0 2 156.77 23.91
-10 10 2 122.04 24.28
0 -10 2 128.31 12.85
10 -10 2 165.64 26.4
10 0 2 151.16 29.18
0 10 2 119.4 23.26
0 10 3 146.42 23.47
-10 0 3 145.95 24.42
0 -10 3 147.29 16.84
-10 10 3 146.02 19.76
-10 10 3 148.88 29.42
0 10 3 194.18 23.25
-10 10 4 8.7 17.01
0 10 4 -2.21 13.57
0 -10 4 39.03 11.71
0 10 4 31.77 14.73
-10 0 4 56.27 22.83
10 -10 5 -4.51 14.95
-10 10 5 31.94 22.17
0 -10 5 10.42 11.88
-10 0 5 13.89 19.72
0 10 6 43.98 30.22
-10 10 6 4.28 22.98
-10 0 6 23.39 21.97
0 10 7 -23.08 36.45
-10 0 7 -25.21 24.48
-10 10 7 14.59 29.04
1 -11 -7 16.51 25.35
11 -10 -7 -37.21 36.2
11 -10 -6 8.14 22.65
1 -11 -6 28.66 29.76
-11 10 -5 20.57 18.51
-1 11 -5 6.57 14.28
11 -10 -5 4.54 20.45
-10 -1 -5 38.08 19.25
1 -11 -5 -9.05 18.15
10 1 -4 50.16 12.86
-11 10 -4 50.89 22.5
11 -10 -4 54.78 15.93
11 -10 -4 87.45 31.84
-1 11 -4 69.7 21.61
1 -11 -4 26.38 14.61
10 1 -4 82.21 15.6
-1 11 -3 58.33 19.31
11 -10 -3 80.88 22.8
11 -10 -3 100.72 16.38
-11 10 -3 114.83 28.54
10 1 -3 65.97 20.77
-1 11 -2 352.97 20.93
11 -10 -2 322.33 31.07
-11 10 -2 279.89 37.34
-1 11 -2 365.74 39.3
-10 -1 -2 283.36 38.67
11 -10 -2 345.16 37.5
10 1 -2 341.9 38.79
10 1 -1 331.57 35.63
11 -10 -1 328.15 32.95
-1 11 -1 360.68 18.06
-11 10 -1 323.58 39
10 1 -1 355.76 28.61
-10 -1 -1 340.14 38.43
11 -10 -1 317.7 29.78
11 -10 -1 292.98 29.05
-1 11 -1 298.43 36.44
10 1 0 1335.25 68.9
-1 11 0 1407.63 68.91
-10 -1 0 1454.16 68.67
11 -10 0 1348.8 47.41
10 1 0 1422.9 52.91
-11 10 0 1361.55 46.88
11 -10 0 1322.58 69.58
11 -10 0 1371.09 49.37
-11 10 0 1368.13 69.47
-11 10 1 303.61 28.61
10 1 1 342.01 38.65
1 -11 1 325.67 35.89
11 -10 1 328.63 38.29
-11 10 1 333.79 33.85
-10 -1 1 282.96 25.53
11 -10 1 265.11 13.06
11 -10 1 316.07 20.2
-1 11 1 331.64 34.84
-10 -1 2 324.46 30.67
-1 11 2 337.02 35.54
-11 10 2 320.23 35.28
-11 10 2 322.74 32.42
11 -10 2 341.97 34.53
1 -11 2 355.88 37.92
-10 -1 3 102.88 21.62
-1 11 3 84.37 18.74
-11 10 3 102.86 17
-1 11 3 117.44 20.28
1 -11 3 101.23 13.28
-11 10 3 134.05 29.68
1 -11 4 73.79 15.44
-11 10 4 100.82 27.39
-1 11 4 85.55 20.95
-10 -1 4 85.45 20.8
-1 11 4 43.97 17.83
1 -11 5 -5.76 11.93
-11 10 5 -24.96 22.92
-10 -1 5 -2.55 16.4
-10 -1 6 -15.92 23.72
-1 11 6 -21.16 29.85
-11 10 6 -35.43 28.17
-11 10 7 -20.36 25.22
-1 11 7 -31.6 34.78
-10 -1 7 -17.94 24.53
11 -9 -7 30.75 27.83
2 -11 -7 -3.49 26.84
11 -9 -6 14.62 28.08
2 -11 -6 13.73 24.8
-9 -2 -6 -6.02 15.97
-9 -2 -5 1.3 15.84
-2 11 -5 7.37 13.31
2 -11 -5 -15.9 17.67
-11 9 -5 -21.34 18.83
11 -9 -5 3.92 19.55
9 2 -4 98.1 16.24
-2 11 -4 92.2 23.24
11 -9 -4 98.33 30.86
9 2 -4 74.32 15.56
-11 9 -4 116.62 31.95
2 -11 -4 86.24 24.43
-11 9 -3 -9.2 17.5
-2 11 -3 25.9 15.55
9 2 -3 24.55 14.89
11 -9 -3 14.85 15.21
11 -9 -3 25.61 10.16
11 -9 -2 1001.88 60.9
11 -9 -2 1030.4 52.06
-2 11 -2 1021.53 61.37
-11 9 -2 957.22 65.26
9 2 -2 1116.84 60.25
9 2 -1 1018.47 47.42
9 2 -1 1052.35 58.72
11 -9 -1 1138.71 54.28
-11 9 -1 1100.44 65.51
-2 11 -1 1035.43 60.84
11 -9 -1 1116.63 58.51
-2 11 -1 1059.34 26.61
11 -9 -1 986.63 52.31
-2 11 0 232.89 29.24
2 -11 0 193.26 27.58
11 -9 0 195.49 19.66
-11 9 0 209.37 20.02
11 -9 0 207.78 28.55
9 2 0 259.34 31.97
11 -9 0 205.88 19.79
9 2 0 181.39 20
-11 9 0 221.41 30.47
-11 9 1 1032.28 56.54
9 2 1 1148.94 66.05
-11 9 1 1062.4 49.76
11 -9 1 1085.5 36.81
2 -11 1 1103.19 61.37
-2 11 1 1067.45 58.74
11 -9 1 1109.21 64
-9 -2 1 1097.62 48.2
11 -9 2 996.52 65.73
9 2 2 1046.12 69.92
2 -11 2 997.06 61.98
-9 -2 2 1023.16 50.75
-11 9 2 1016.78 53.15
-2 11 2 1027.65 56.45
-11 9 2 1065.73 58.63
-9 -2 3 27.81 14.97
-11 9 3 30.3 12.25
2 -11 3 20.75 16.22
-2 11 3 3.41 11.16
-11 9 3 11.95 14.58
2 -11 3 16.46 6.22
-2 11 4 109.39 20.14
2 -11 4 109.29 17.35
-2 11 4 55.32 20.31
-11 9 4 86.3 26.99
-9 -2 4 153.61 28.43
-11 9 5 29.54 22.9
-9 -2 5 -9.91 13.8
2 -11 5 -6.7 12.48
-9 -2 6 25.81 19.72
-11 9 6 -25.08 22.36
-2 11 6 27.75 25.7
-2 11 7 26.87 32.89
-9 -2 7 36.33 28.85
-11 9 7 2.85 26.28
11 -8 -7 -13.2 30.04
3 -11 -7 -17.29 27.39
3 -11 -6 36.48 25.05
-8 -3 -6 -2.37 17.28
-3 11 -5 -8.96 14.63
11 -8 -5 37.83 26.08
3 -11 -5 29.97 23.27
-8 -3 -5 4.6 15.69
-11 8 -5 14.86 21.31
3 -11 -4 23.52 18.67
-11 8 -4 22.88 21.54
11 -8 -4 50.34 27.7
-3 11 -4 38.08 15.01
8 3 -4 36.64 13.76
8 3 -4 28.94 11.5
-3 11 -4 29.35 15.19
8 3 -3 49.98 18.75
-11 8 -3 52.85 24.13
11 -8 -3 24.82 9.17
-3 11 -3 48.42 18.91
8 3 -3 66.7 16.74
11 -8 -3 91.6 26.09
11 -8 -2 14.6 15.52
-3 11 -2 -7.58 14
11 -8 -2 24.87 13.06
8 3 -2 20.76 14.69
8 3 -2 35.38 12.34
-11 8 -2 30.67 17.13
11 -8 -1 231.38 26.16
3 -11 -1 222.23 27.94
8 3 -1 267.89 29.2
8 3 -1 244.35 22.67
-3 11 -1 229.53 31.24
-11 8 -1 278.97 37.55
11 -8 -1 227.16 26.27
11 -8 -1 233.58 29.4
-3 11 -1 207.7 10.35
-11 8 0 239.15 32.86
3 -11 0 306.42 34.26
-3 11 0 274.44 33.38
8 3 0 285.43 32.59
11 -8 0 289.76 22.24
11 -8 0 265.37 30.85
11 -8 0 251.14 22.26
-11 8 0 297.08 23.43
-11 8 0 256.87 21.34
3 -11 1 237.8 31.01
-3 11 1 244.08 30.03
11 -8 1 197.62 28.23
-11 8 1 219.6 28.49
8 3 1 245.07 30.8
-11 8 1 233.17 24.63
-11 8 1 218.99 25.12
11 -8 1 241.4 18.97
-8 -3 1 269.27 23.71
-3 11 2 31.51 14.65
11 -8 2 18.83 16.54
-11 8 2 36.27 14.42
-3 11 2 31.76 14.87
8 3 2 8.54 17.37
3 -11 2 27.21 13.09
-11 8 2 32.5 17.26
-8 -3 2 41.29 13.63
3 -11 3 35.72 13.42
3 -11 3 25.81 13.24
-11 8 3 42.71 18.02
-11 8 3 51.05 14.3
-8 -3 3 35.61 13.73
-3 11 3 52.6 15.37
3 -11 3 39.48 9.38
-3 11 4 57.54 18.64
-11 8 4 59.08 26.73
3 -11 4 42.37 11.53
-3 11 4 57.75 15.43
-8 -3 4 37.69 19.05
-11 8 5 34.44 23.7
-3 11 5 7.38 23.02
3 -11 5 20.69 13.59
-8 -3 5 39.01 19.11
-3 11 6 42.4 35.05
-8 -3 6 -9.34 21.09
11 -8 6 28.89 23.7
-11 8 6 23.22 27.68
-3 11 7 -5.81 27.84
-11 8 7 12.4 28.99
11 -7 -7 -16.54 23.47
4 -11 -7 -23.6 29.49
4 -11 -6 48.25 28.2
-7 -4 -6 7.92 19.49
11 -7 -6 20.42 26.42
4 -11 -5 34.19 20.41
-11 7 -5 19.01 12.7
-7 -4 -5 31.35 19.4
-11 7 -5 38.31 21.61
-4 11 -5 -22.93 17.93
11 -7 -5 36.09 27.09
-11 7 -4 20.5 17.72
7 4 -4 34.44 15.5
7 4 -4 41.41 13.16
-4 11 -4 59.19 17.63
-4 11 -4 22.26 15.46
11 -7 -4 34.2 21.06
-11 7 -4 35.1 11.12
4 -11 -4 17.06 15.12
7 4 -3 100.19 21.68
11 -7 -3 124.34 16.25
-11 7 -3 120.38 13.46
-11 7 -3 133.5 25.07
11 -7 -3 133.39 26.01
-4 11 -3 130.78 25.21
7 4 -3 133.98 21.74
-11 7 -2 105.11 27.53
11 -7 -2 98.1 23.13
11 -7 -2 88.3 17.69
7 4 -2 85.94 15.77
-4 11 -2 89.26 21.12
4 -11 -1 202.27 27.29
11 -7 -1 169.06 22.59
-4 11 -1 139.61 25.98
-11 7 -1 221.55 31.99
11 -7 -1 145.36 21.11
11 -7 -1 189.77 24.77
-11 7 -1 170.38 10.9
7 4 -1 195.14 20.18
11 -7 0 352.12 25.14
4 -11 0 334.87 34.16
-11 7 0 370.31 25.34
11 -7 0 382.31 36.98
7 4 0 386.52 35.55
-11 7 0 373.49 37.37
-4 11 0 354.25 33.69
11 -7 0 370.71 24.91
-11 7 0 393.97 26.16
7 4 1 193.38 28.53
-7 -4 1 170.69 20.34
-11 7 1 160.73 27.15
4 -11 1 165.42 26.99
-11 7 1 196.31 23.87
-11 7 1 153.41 21.84
11 -7 1 159.53 27.71
-4 11 1 245.14 29.41
11 -7 1 194.95 17.57
-4 11 2 88.74 17.85
-11 7 2 73.83 17.43
7 4 2 86.27 25.04
-11 7 2 70.57 18.1
-7 -4 2 74.17 15.3
4 -11 2 79.43 21
-4 11 2 80.83 17.38
11 -7 2 70.63 22.16
11 -7 3 133.68 22.48
-11 7 3 105.26 16.92
-7 -4 3 135.75 21.64
4 -11 3 123.18 24.54
4 -11 3 127.01 13.8
-11 7 3 120.5 25.4
-4 11 3 148.14 21.19
4 -11 3 94.9 17.3
7 4 3 87.32 26.05
-4 11 4 35.55 14.51
-4 11 4 45.61 12.45
4 -11 4 31.56 11.4
-11 7 4 51.7 25.06
-7 -4 4 34.63 17.31
-11 7 5 37.49 26.57
-7 -4 5 26.28 16.63
4 -11 5 9.95 11.55
-4 11 5 12.5 21.82
-4 11 6 21.74 25.05
-11 7 6 -31.77 25.36
-7 -4 6 -4.45 20.07
-4 11 7 59.17 39.58
-11 7 7 0.03 27.58
5 -11 -7 53.12 35.28
-6 -5 -6 -25.61 20.96
5 -11 -6 15.81 25.41
11 -6 -6 6.72 24.82
-11 6 -5 19.89 10.66
-11 6 -5 37.02 20.91
5 -11 -5 1.68 18.84
-6 -5 -5 14.74 19.85
11 -6 -5 39.05 26.09
-5 11 -5 20.52 16.79
-11 6 -4 26.2 23.5
-5 11 -4 6.21 15.04
11 -6 -4 5.15 20.97
-11 6 -4 29.24 11.6
6 5 -4 2.64 11.91
5 -11 -4 18.85 17.83
6 5 -4 28.11 12.27
-11 6 -3 54.51 25.54
-5 11 -3 64.04 18.06
11 -6 -3 60.14 12.15
6 5 -3 60.36 15.51
-5 11 -3 102.36 25.84
11 -6 -3 48.51 21.85
-11 6 -3 79.34 12.17
5 -11 -3 85.78 21.93
-11 6 -2 427.34 44.52
11 -6 -2 447.96 40.81
11 -6 -2 396.01 32.11
-5 11 -2 411.88 41.67
6 5 -2 431.84 32.78
-5 11 -1 117.97 27.83
5 -11 -1 113.36 21.57
11 -6 -1 109.8 19.44
-11 6 -1 110.33 10.74
-11 6 -1 133.72 30.36
11 -6 -1 102.24 19.29
11 -6 -1 101.49 18.12
6 5 -1 106.98 14.91
5 -11 0 983.38 58.5
11 -6 0 1026.92 57.6
-11 6 0 981.09 41
-11 6 0 987.57 58.32
-11 6 0 963.5 40.81
11 -6 0 925.67 40
-5 11 0 1031.72 57.41
11 -6 1 131.11 24.73
-5 11 1 128.77 21.71
5 -11 1 127.98 23.29
-11 6 1 94.76 19.63
-11 6 1 110.52 19.64
-11 6 1 115.6 20.5
6 5 1 131.24 24.08
11 -6 1 113.56 14.9
-5 11 1 115.31 20.81
5 -11 2 422.81 40.17
6 5 2 410.95 44.51
-11 6 2 418.46 34.99
11 -6 2 415.92 42.81
-5 11 2 391.71 33.67
-11 6 2 445.65 38.64
-6 -5 2 440.24 30.72
5 -11 3 62.34 21.1
-11 6 3 54.9 18.94
5 -11 3 65.15 15.29
5 -11 3 65.99 10.9
-11 6 3 56.35 13.13
-6 -5 3 84.9 16.57
-5 11 3 62.61 16.65
6 5 3 32.27 22.37
-5 11 4 11.68 10.25
6 5 4 27.97 16.39
-5 11 4 49.58 26.7
5 -11 4 9.45 10.47
-11 6 4 13.37 17.52
-6 -5 4 22 12.76
-5 11 4 18.25 9.87
-5 11 5 36.99 25.35
5 -11 5 15.83 12.58
-6 -5 5 21.88 16.7
-11 6 5 72.43 27.61
-11 6 6 46.58 27.01
-6 -5 6 30.09 16.3
-5 11 6 -0.14 25.9
6 5 7 51.42 42.52
-5 11 7 23.26 27.8
-11 6 7 -12.06 25.27
6 -11 -7 6.76 23.75
6 -11 -6 -18.86 20.95
-5 -6 -6 27.22 19.61
11 -5 -6 16.13 26.53
-11 5 -5 -17.18 19.86
-11 5 -5 -4.24 10.21
-5 -6 -5 -28.13 22.26
11 -5 -5 -53.59 27.48
6 -11 -5 18.03 20.76
-6 11 -5 8.09 15.59
-11 5 -4 21.11 22.04
11 -5 -4 38.89 19.92
-6 11 -4 4.95 18.13
6 -11 -4 28.66 19.43
5 6 -4 36.23 14.23
-11 5 -4 29.92 13.26
-11 5 -3 19.7 20.15
-6 11 -3 33.19 13.51
6 -11 -3 17.57 14.18
5 6 -3 30.24 14.01
-11 5 -3 12.88 6.72
-6 11 -3 48.66 20.45
11 -5 -3 -10.11 19.37
11 -5 -3 27.16 10.02
6 -11 -2 260.66 29.17
11 -5 -2 226.74 30.71
5 6 -2 185.02 24.09
-11 5 -2 227.09 34.76
5 6 -2 233.65 24.44
11 -5 -2 212.35 26.44
-6 11 -2 203.28 30.66
-6 11 -2 204.91 27.63
6 -11 -1 414.13 36.17
-11 5 -1 437.82 42.67
11 -5 -1 395.75 36.06
-6 11 -1 384.97 34.71
-6 11 -1 383.13 37.6
11 -5 -1 420.03 32.47
11 -5 -1 406.72 32.65
5 6 -1 416.94 26.09
-11 5 0 486.41 42.22
11 -5 0 449.33 39.87
-11 5 0 487.09 30
-11 5 0 477.84 29.39
-6 11 0 504.79 40.34
6 -11 0 456.51 39.39
11 -5 0 482.27 29.76
-6 11 0 471.74 25.19
-6 11 0 440.39 35.51
11 -5 1 369.1 37.47
-11 5 1 402.91 30.54
-11 5 1 402.08 36.12
-11 5 1 404.16 33.2
6 -11 1 427.1 39.79
-6 11 1 468.23 38.02
-5 -6 2 226.52 21.75
-6 11 2 240.17 28.06
6 -11 2 189.66 28.07
-11 5 2 230.77 28.9
5 6 2 239.7 33.44
11 -5 2 246.21 34.71
-11 5 2 234.32 28.87
6 -11 3 28.39 10.14
-6 11 3 30.93 13.21
-6 11 3 42.87 20.98
6 -11 3 33.18 8.83
5 6 3 19.85 16.44
6 -11 3 19.99 14.56
-11 5 3 36.31 17.21
-5 -6 3 31.03 10.77
-11 5 4 4.94 15.17
5 6 4 18.41 19.6
-6 11 4 4.09 7.59
-6 11 4 17.51 18.47
-5 -6 4 -0.38 9.98
-6 11 4 -6.96 9.23
6 -11 4 0.99 10.5
6 -11 4 3.55 8.94
-6 11 5 21.03 27.58
6 -11 5 34.42 15.68
-5 -6 5 0.11 12.66
-11 5 5 -10.47 19.67
-5 -6 6 12.77 16.44
-6 11 6 12.24 25.02
-11 5 6 21.65 25.43
5 6 7 41.5 38.25
-6 11 7 49.59 31.71
-11 5 7 -65.47 34.98
7 -11 -7 33.64 32.3
-4 -7 -7 -39.04 30.72
-4 -7 -6 12.61 23.65
7 -11 -6 24.67 24.26
11 -4 -5 -11.52 22.62
-4 -7 -5 24.5 22.67
-11 4 -5 -10.17 16.52
-7 11 -5 26.63 16.6
7 -11 -5 -1.82 18
-11 4 -5 10.66 11.03
-11 4 -4 144.44 20.24
7 -11 -4 169.38 32.8
4 7 -4 178.78 25.2
-11 4 -4 164.52 33.72
11 -4 -4 256.05 41.46
-7 11 -4 142.73 28.15
11 -4 -3 -12.38 14.4
-11 4 -3 5.77 7.87
-7 11 -3 11.19 18.3
-11 4 -3 0.77 16.58
7 -11 -3 33.75 18.56
4 7 -3 -7.03 11.5
11 -4 -3 -0.63 7.55
4 7 -3 34.93 14.88
4 7 -2 266.94 29.77
7 -11 -2 256.59 26.69
4 7 -2 293.69 26.15
11 -4 -2 301.12 35.03
-11 4 -2 215.85 36.46
-7 11 -2 255.21 33.89
11 -4 -2 255.27 28.65
4 7 -1 49 10.64
11 -4 -1 50.19 16.56
7 -11 -1 54.85 18.18
-11 4 -1 47.07 21.68
11 -4 -1 57.98 14.7
-7 11 -1 50.69 17.29
-7 11 -1 42.41 18.75
-11 4 0 302.97 23.65
11 -4 0 310.49 33.48
7 -11 0 285.38 33.21
-7 11 0 278.92 33.41
-11 4 0 333.21 36.62
-11 4 0 304.17 25.64
-7 11 0 307.19 20.45
11 -4 0 312.65 23.83
-11 4 1 43.63 17.58
11 -4 1 55.57 19.51
7 -11 1 61.77 19.96
-11 4 1 53.8 16.33
-7 11 1 72.33 18.27
-7 11 1 66.5 21.24
-11 4 1 68.94 15.45
11 -4 2 192.12 30.25
-11 4 2 258.17 28.94
-4 -7 2 240.89 21.86
7 -11 2 227.64 30.77
-7 11 2 224.62 31.96
4 7 2 217.63 30.93
-7 11 2 268.28 29.33
-11 4 2 228.24 28.47
-4 -7 3 13.09 8.84
-7 11 3 38.42 23.4
-7 11 3 1.68 10.64
7 -11 3 4.42 6.09
4 7 3 -7.82 17.14
7 -11 3 9.31 9.33
-11 4 3 11.19 12.72
7 -11 4 121.79 20.42
4 7 4 104.12 27.43
-7 11 4 125.4 15.13
-7 11 4 171.87 37.82
-11 4 4 200.05 36.06
7 -11 4 199.23 23.68
-4 -7 4 175.14 24.63
-4 -7 5 12.26 13.64
-11 4 5 22.73 23.44
-7 11 5 14.5 23.09
-11 4 6 41.08 28.19
-4 -7 6 18.08 15.7
-7 11 6 28.8 26.51
4 7 7 53.05 39.18
-7 11 7 -35.47 35.62
-11 4 7 33.83 28.15
-3 -8 -7 67.45 37.13
8 -11 -7 79.24 35.66
-3 -8 -6 22.44 22.88
8 -11 -6 -11.51 21.61
11 -3 -5 24.18 21.84
-11 3 -5 -10.06 11.15
8 -11 -5 17.2 19.67
-3 -8 -5 3.2 16.53
-8 11 -5 32.13 21.07
8 -11 -4 102.45 30.97
11 -3 -4 129.37 32.6
3 8 -4 82.84 18.91
-11 3 -4 76.46 16.62
-11 3 -4 74.2 27.29
-8 11 -4 63.39 21.65
11 -3 -3 42.92 11.87
3 8 -3 76.53 19.81
8 -11 -3 51.75 20.27
11 -3 -3 42.72 20.19
-11 3 -3 54.04 26
3 8 -3 59.65 16.47
-8 11 -3 82.08 23.45
8 -11 -2 217.28 26.07
3 8 -2 248.83 29.5
8 -11 -2 247.58 26.95
3 8 -2 264.26 23.85
-11 3 -2 221.26 36.36
-8 11 -2 201.12 30.6
8 -11 -2 226.45 31.03
11 -3 -2 261.33 29.62
11 -3 -2 261.91 32.71
-11 3 -1 416.01 42.69
3 8 -1 441.63 24.85
3 8 -1 421.15 37.19
8 -11 -1 443.52 36.95
-8 11 -1 478.58 42.63
11 -3 -1 486.92 40.52
11 -3 -1 416.73 32.3
8 -11 -1 434.79 36.34
11 -3 0 791.19 37.87
-8 11 0 799.58 33.12
-8 11 0 824.82 52.47
8 -11 0 768.12 49.42
11 -3 0 711.63 49.67
-11 3 0 821.34 52.54
11 -3 1 430.8 40.99
8 -11 1 463.53 41.71
-11 3 1 401.02 33.15
8 -11 1 429.56 16.08
-8 11 1 455.67 33.25
-8 11 1 441.81 38.51
-11 3 1 495.55 40.83
-11 3 1 476.46 33.52
-11 3 2 266.77 29.44
-11 3 2 254.63 29.05
11 -3 2 213.47 32.85
-8 11 2 256.06 28.5
8 -11 2 227.67 15.13
-8 11 2 228.88 31.02
-3 -8 2 221.04 19.4
8 -11 2 204.6 30.67
-11 3 3 35.19 17.01
-8 11 3 39.65 12.38
3 8 3 32.29 18.2
-8 11 3 58.06 18.06
8 -11 3 36.36 10.3
-3 -8 3 57.46 12.63
11 -3 4 74.2 14.35
-11 3 4 80.8 24.44
-8 11 4 49.82 9.76
3 8 4 37.95 18.53
-3 -8 4 93.83 19.3
8 -11 4 67.99 16.75
-8 11 4 75.75 29.12
3 8 4 96.31 22.21
-8 11 5 49.07 28.24
8 -11 5 14.56 14.18
-11 3 5 63.61 27.74
-3 -8 5 31.45 14.72
-11 3 6 1.35 18.71
-3 -8 6 27 15.29
-8 11 6 28.93 27.07
-11 3 7 -7.65 22.03
-8 11 7 25.93 34.96
3 8 7 32.42 40.39
9 -11 -7 36.48 30.17
-2 -9 -7 10.96 27.26
9 -11 -6 4.69 21.94
-2 -9 -6 8.09 20.87
-9 11 -5 -0.08 16.84
-11 2 -5 -13.02 11.92
-2 -9 -5 13.91 20.27
9 -11 -5 8.54 20.17
-11 2 -4 6.13 18.1
2 9 -4 19.83 14.39
-11 2 -4 43.39 14.74
11 -2 -4 15.08 5.73
9 -11 -4 -3.12 15.99
11 -2 -4 12.31 4.22
9 -11 -3 10.8 15.81
9 -11 -3 -7.5 10.45
-9 11 -3 10.34 18.35
-11 2 -3 -1.4 18.68
2 9 -3 -8.07 15.16
2 9 -3 5.1 9.57
11 -2 -3 16.14 12.48
9 -11 -3 -0.57 8.68
9 -11 -2 426.12 40.19
11 -2 -2 479.21 41.42
-11 2 -2 384.94 45.3
2 9 -2 420.37 39.07
9 -11 -2 426.18 34.87
2 9 -2 422.03 28.02
9 -11 -2 373.98 33.56
-9 11 -2 369.5 38.86
11 -2 -1 399.47 37.81
9 -11 -1 408.68 34.62
-9 11 -1 340.85 37.79
2 9 -1 351.95 35.73
-11 2 -1 345.14 39.23
9 -11 -1 324.77 32.65
11 -2 -1 386.21 30.53
2 9 -1 343.05 21.01
9 -11 -1 375.75 33.62
11 -2 0 13.54 8.19
-9 11 0 -2.91 15.43
-11 2 0 32.14 16.35
11 -2 0 16.13 15.3
9 -11 0 21.37 9.21
-9 11 0 25.13 8.71
2 9 0 -2.04 15.23
9 -11 0 36.97 18.59
9 -11 0 14.76 12.94
9 -11 1 361.61 17.29
-11 2 1 378.24 30.4
-11 2 1 403.5 37.95
9 -11 1 383.82 36.02
11 -2 1 378.09 39.66
9 -11 1 374.43 38.39
-11 2 1 327.77 30.31
-9 11 1 362.61 35.49
-9 11 1 326.86 29.04
-2 -9 2 411.86 24.92
11 -2 2 337.17 43.4
-11 2 2 421.17 34.99
-9 11 2 380.33 37.62
9 -11 2 403.02 17.74
-9 11 2 432 36.28
9 -11 2 358.35 39.93
2 9 3 -6.92 14.5
-9 11 3 21.24 11.2
-9 11 3 -7.31 15.6
-11 2 3 3.36 12.55
-2 -9 3 23.08 9.62
2 9 4 -1.18 16.73
9 -11 4 7.48 12.4
2 9 4 6.63 12.14
-2 -9 4 3.74 10.7
-9 11 4 20.36 19.06
-9 11 4 9.06 4.78
-11 2 4 -19 18.28
-9 11 5 0.96 18.73
-2 -9 5 1.38 11.98
9 -11 5 21.61 15.78
-11 2 5 38.47 21.24
-11 2 6 -27.08 25.64
-9 11 6 -22.21 27.91
-11 2 7 6.03 22.36
2 9 7 -28.85 39.09
-9 11 7 37.4 34.22
-1 -10 -7 8.82 25.74
10 -11 -7 10.41 32.72
10 -11 -6 2 24.61
-1 -10 -6 9.83 23.19
-11 1 -5 -4.02 14.01
-10 11 -5 0.05 17.04
10 -11 -5 -22.35 25
-1 -10 -5 37.13 22.59
10 -11 -4 1.74 20.36
11 -1 -4 10.68 5.81
-10 11 -4 -6.7 16.08
11 -1 -4 36.84 10.28
-11 1 -4 4.2 11.45
10 -11 -3 22.65 17.42
10 -11 -3 7.68 10.2
11 -1 -3 34.51 17.11
1 10 -3 12.92 15.43
10 -11 -3 19.35 12.4
-11 1 -3 4.14 17.62
-10 11 -3 2.57 14.75
1 10 -2 169.57 27.16
10 -11 -2 135.37 21.53
10 -11 -2 146.09 27.59
1 10 -2 160.95 16.77
11 -1 -2 188.83 29.29
-10 11 -2 158.11 29.26
-11 1 -2 129.81 30.78
1 10 -1 835.84 31.75
1 10 -1 848.87 53.91
11 -1 -1 798.71 43.32
10 -11 -1 829.27 47.28
10 -11 -1 896.99 50.83
-11 1 -1 841.48 59.26
-10 11 -1 823.31 57.37
11 -1 -1 887.55 58.62
10 -11 -1 787.51 49.94
1 10 0 960.69 58.08
11 -1 0 933.68 58.89
10 -11 0 904.09 57.99
10 -11 0 884.74 40.38
-11 1 0 939.9 58.26
11 -1 0 889.05 41.61
10 -11 0 912.81 39.45
-10 11 0 908.26 37.14
-10 11 0 904.94 56.49
-10 11 1 880.05 46.36
-11 1 1 901.16 54.11
1 10 1 853.78 54.81
10 -11 1 881.16 29.21
-11 1 1 888.01 45.58
-10 11 1 828.26 52.39
-11 1 1 853.67 50.02
11 -1 1 863.62 60.22
10 -11 1 875.52 61.08
10 -11 1 883.68 54.28
-10 11 2 175.58 24.59
-11 1 2 149.1 23.18
-10 11 2 129.72 23.69
-1 -10 2 161.46 15.55
1 10 2 139.49 24.44
-1 -10 3 10.35 5.99
1 10 3 25 13.43
-10 11 3 29.29 15.69
-10 11 3 8.44 10.17
-11 1 3 25.76 17.85
-1 -10 4 14.15 10.27
1 10 4 14.02 14.22
-10 11 4 6.52 4.77
1 10 4 5.34 15.91
-10 11 4 28.13 20.16
-11 1 4 32.83 18.39
-11 1 5 11.66 17.8
10 -11 5 -9.11 12.32
-1 -10 5 3.83 10.41
-10 11 5 -12.06 23.87
-10 11 6 3.15 25.02
-11 1 6 12.64 22.68
1 10 7 -15.28 33.15
-10 11 7 19.33 37.44
-11 1 7 -17.62 26.09
11 -11 -7 37.79 33.31
0 -11 -7 29 32.75
11 -11 -6 23.74 25.71
0 -11 -6 -4.67 21.67
-11 11 -5 26.2 25.57
-11 0 -5 17.32 14.98
11 -11 -5 54.71 25.44
0 -11 -5 28.49 20.26
11 -11 -4 -2.87 10.83
-11 11 -4 9.15 17.66
11 -11 -4 -34.4 24.52
11 0 -4 0.98 7.26
11 0 -4 7.72 9.22
0 11 -4 -16.22 14.16
11 -11 -3 18.96 11.67
11 -11 -3 47.19 20.92
11 0 -3 -21.68 19.35
-11 0 -3 12.77 17.35
-11 11 -3 42.9 18.95
0 11 -3 31.75 16.66
11 -11 -2 251.64 27.88
-11 0 -2 272.21 37.98
11 0 -2 314.34 38.59
0 11 -2 261.69 20.37
0 11 -2 277.96 34.75
11 -11 -2 271.36 36.15
-11 11 -2 287.89 39.9
0 11 -1 482.46 43.99
11 -11 -1 527.95 40.22
11 0 -1 517.05 45.27
-11 11 -1 412.96 41.7
-11 0 -1 541.62 48.23
11 -11 -1 546.01 43.97
0 11 -1 528.53 24.17
11 -11 -1 493.15 38.05
11 0 -1 460.32 33.89
-11 0 0 296.26 33.72
-11 11 0 287.57 36.89
0 11 0 286.35 33.62
11 -11 0 249.08 22.99
11 -11 0 241.6 21.97
-11 11 0 246.73 20.51
11 -11 0 290.75 35.56
11 0 0 256.19 31.6
11 0 0 243.41 23.91
11 -11 1 451.61 18.31
-11 11 1 494.5 36.05
0 11 1 454.76 40.73
-11 11 1 464.85 39.43
11 0 1 564.75 50.49
11 -11 1 432.59 44.73
11 -11 1 502.83 24.44
-11 0 1 433.22 32.46
0 11 2 259.45 32.47
11 -11 2 267.65 32.28
-11 0 2 265.55 28.39
-11 11 2 280.85 34.17
-11 11 2 278.23 31.19
11 -11 2 263.65 19.1
-11 0 3 2.68 11.37
0 -11 3 12.35 6.54
-11 11 3 5.76 17.34
-11 11 3 13.58 11.21
0 11 3 28.64 16.15
-11 11 4 8.75 4.95
-11 11 4 -11.16 19.34
0 11 4 3.79 12.71
-11 0 4 12.57 14.01
0 -11 4 1.8 8.28
11 -11 5 9.86 16.6
-11 11 5 53.56 30.23
-11 0 5 33.54 22.8
0 -11 5 14 9.93
-11 11 6 16.66 23.27
-11 0 6 37.34 20.69
0 11 7 29.81 40.06
-11 11 7 40.55 35.44
-11 0 7 50.21 30.54
12 -11 -7 8.96 25.69
1 -12 -7 25.79 31.99
12 -11 -6 12.17 28.06
1 -12 -6 60.07 32.86
1 -12 -5 -8.47 19.29
12 -11 -5 71.49 31
-12 11 -5 11.36 22.35
-11 -1 -5 24.73 16.77
-1 12 -5 41.71 18.48
-12 11 -4 13.73 18.02
12 -11 -4 23.17 21.17
11 1 -4 16.08 11.19
11 1 -4 71.43 18.63
-1 12 -4 50 21.7
12 -11 -3 93.94 25.73
11 1 -3 83.83 23.95
-1 12 -3 60.48 22.61
12 -11 -3 62.11 15.24
-12 11 -3 67.32 23.44
-12 11 -2 123.68 25.36
12 -11 -2 98.06 20
-1 12 -2 113.54 13.15
-1 12 -2 126.43 26.54
-11 -1 -2 172.78 33.03
11 1 -2 114.38 27.21
12 -11 -2 127.15 28.59
11 1 -1 167.99 30.1
12 -11 -1 173.64 24.19
-1 12 -1 169.73 13.9
-1 12 -1 163.7 28.15
12 -11 -1 189.5 26.43
12 -11 -1 197.22 28.5
-11 -1 -1 162.85 30.41
-12 11 -1 158.18 30.41
12 -11 0 315.87 24.51
12 -11 0 329.53 26.16
12 -11 0 323.19 36.51
-1 12 0 360.46 39.96
-12 11 0 309.86 37.1
-12 11 0 348.12 25.14
11 1 0 306.8 26.72
-11 -1 0 405.8 41.38
11 1 0 347.85 39.06
1 -12 1 187.59 30.42
-1 12 1 203.32 30.51
-12 11 1 170.15 29.44
-12 11 1 204.23 24.03
12 -11 1 196.51 17.31
-11 -1 1 192.6 23.7
12 -11 1 176.49 11.76
-12 11 2 96.02 21.77
-1 12 2 116.74 22.98
12 -11 2 102.18 13.32
-12 11 2 93.52 20.54
12 -11 2 129 23.68
-11 -1 2 106.19 18.46
-1 12 3 58.5 18.53
-1 12 3 71.29 16.63
-12 11 3 58.3 15.63
-12 11 3 39.72 18.22
-11 -1 3 81.05 19.9
1 -12 3 54.38 9.9
-12 11 4 22.15 21.04
-12 11 4 13.47 8.12
-1 12 4 28.23 13.52
-11 -1 4 44.56 18.7
1 -12 4 53.16 13.16
-11 -1 5 13.46 16.27
1 -12 5 36.37 13.42
-12 11 5 56.31 28.02
-1 12 6 13.77 28.59
-11 -1 6 -21.81 20.42
-12 11 7 35.73 29.06
-11 -1 7 -10.95 23.03
12 -10 -7 2.78 24.64
2 -12 -7 21.91 34.43
2 -12 -6 -8.92 21.2
12 -10 -6 19.8 26.66
-10 -2 -6 10.06 17.26
2 -12 -5 28.23 22.04
-2 12 -5 23.75 15.07
-10 -2 -5 17.89 17.49
-2 12 -5 41.22 20.68
-12 10 -5 57.65 27.37
12 -10 -5 38.02 23.07
-2 12 -4 4.43 16.55
-12 10 -4 15.66 19.17
2 -12 -4 14.81 16.75
10 2 -4 13.24 10.48
10 2 -4 -0.65 10.43
12 -10 -4 0.34 19.31
12 -10 -3 107.83 17.71
12 -10 -3 145.33 29.28
-2 12 -3 127.23 28.01
10 2 -3 98.98 25.17
-12 10 -3 103.4 26.8
12 -10 -2 2.79 13.51
12 -10 -2 27.76 18.31
-2 12 -2 6.63 15.14
10 2 -2 10.29 16.64
-12 10 -2 30.08 17.75
-2 12 -2 4.98 4.87
10 2 -1 173.47 27.19
-12 10 -1 141.2 28.59
12 -10 -1 153.96 21.85
12 -10 -1 158.47 25.42
12 -10 -1 161.53 24.72
-2 12 -1 166.39 28.7
10 2 -1 146.27 19.63
-2 12 -1 158.15 11.76
-2 12 0 65.47 20.7
10 2 0 50.61 13.12
12 -10 0 58.23 22.69
-12 10 0 -0.52 17.55
2 -12 0 54.86 16.91
-12 10 0 29.52 9.49
10 2 0 39.53 18.43
12 -10 0 38.13 12.06
12 -10 0 45.53 11.55
2 -12 1 269.06 34.76
12 -10 1 161.76 28.15
-12 10 1 185.05 29.11
12 -10 1 164.01 15.74
-12 10 1 172.93 22.29
-2 12 1 184.35 30.08
-10 -2 1 176.9 22.39
10 2 1 180.76 30.34
2 -12 2 2.4 14.66
-12 10 2 -7.76 12.75
-12 10 2 14.69 13.68
-2 12 2 11.34 14.61
-10 -2 2 1.21 10.02
-12 10 3 175.6 31.76
-2 12 3 166.12 27.06
-12 10 3 105.54 20.26
-10 -2 3 105.55 21.15
2 -12 3 126.09 13.49
-2 12 4 -17.14 12.32
-10 -2 4 18.06 16.31
2 -12 4 4.88 7.76
-10 -2 5 39.17 20.41
2 -12 5 16.51 12.28
-2 12 6 -9.15 25.17
-12 10 6 36.88 33.71
-10 -2 6 30.77 22.09
-10 -2 7 7.01 20.78
-12 10 7 20.6 26.91
-2 12 7 -53.31 40.44
3 -12 -7 -72.67 43.54
12 -9 -7 -19.31 31.35
-9 -3 -6 22.97 19.08
12 -9 -6 6.19 21.7
3 -12 -6 -10.89 26.02
-9 -3 -5 14.97 17.7
-12 9 -5 22.94 22.94
12 -9 -5 59.69 27.61
3 -12 -5 58.98 25.61
-3 12 -5 28.67 17.65
-3 12 -4 9.96 18.86
9 3 -4 35.97 13.34
9 3 -4 1.27 11.51
3 -12 -4 19.99 14.81
-12 9 -4 1.69 17.6
12 -9 -4 42.81 28.41
-12 9 -3 43.44 22.39
9 3 -3 72.04 16.15
-3 12 -3 15.11 14.76
9 3 -3 37.4 18.09
12 -9 -3 47.19 23.14
12 -9 -3 44.86 13.44
9 3 -2 392.23 38.23
12 -9 -2 380.71 40.88
-12 9 -2 383.61 45.26
12 -9 -2 384.13 34.26
-3 12 -2 336.61 38.27
12 -9 -1 82.51 20.93
9 3 -1 70.06 21.23
9 3 -1 61.66 13.14
-3 12 -1 90.34 23.39
-3 12 -1 66.34 7.28
12 -9 -1 67.75 15.65
-12 9 -1 100.14 24.97
12 -9 -1 87.74 19.51
9 3 0 480.39 41.82
9 3 0 435.39 30.37
3 -12 0 472.21 43.09
12 -9 0 449.17 42.98
-12 9 0 456.36 28.74
-3 12 0 540.5 44.69
12 -9 0 435.9 29.49
-12 9 0 507.96 30.67
-12 9 0 430.73 43.56
12 -9 0 498.02 30.08
-12 9 1 93.05 19.13
3 -12 1 59.04 17.73
12 -9 1 63.65 21.15
-9 -3 1 100.89 16.61
-3 12 1 100.47 23.46
12 -9 1 70.84 11.81
-12 9 1 58.21 16.6
-12 9 1 84.12 17.76
9 3 1 102.67 25.94
3 -12 2 342.65 39.55
-12 9 2 421.47 36.81
-3 12 2 392.02 37.31
-3 12 2 346.42 33.63
-12 9 2 322.47 35.04
-9 -3 2 369.84 31.21
-3 12 3 32.82 14.25
12 -9 3 41.58 16.99
-12 9 3 36.52 12.84
3 -12 3 35.35 7.94
3 -12 3 18.83 9.06
-12 9 3 33.26 19.56
-9 -3 3 25.65 14.95
-3 12 4 0.88 15.83
-3 12 4 41.56 14.71
-12 9 4 10.46 17.45
-9 -3 4 37.13 15.96
3 -12 4 21.03 10.2
-12 9 5 55.59 25.3
3 -12 5 28.87 12.92
-9 -3 5 9.76 14.63
-9 -3 6 19.15 19.75
-12 9 6 -16.93 22.75
-3 12 6 25 33.49
-3 12 7 13.2 28.36
-12 9 7 1.66 27.49
4 -12 -7 58.69 33.35
12 -8 -7 -5.89 29.13
-8 -4 -6 39.49 24
4 -12 -6 12.62 24.44
12 -8 -6 9.56 22.49
12 -8 -5 50.94 28.12
4 -12 -5 -6.83 21.65
-12 8 -5 12.23 23.49
-8 -4 -5 8.49 17.69
-4 12 -5 13.75 18.42
-4 12 -4 120.02 28.87
-12 8 -4 116.31 31.88
12 -8 -4 171.79 35.7
8 4 -4 107.52 21.65
8 4 -4 174.75 23.93
-4 12 -4 135.05 24.59
4 -12 -4 147.98 27.5
8 4 -3 211.16 32.29
12 -8 -3 185.72 33.42
12 -8 -3 201.91 21.17
-4 12 -3 183.18 31.53
-12 8 -3 180.99 34.49
8 4 -3 198.08 26.15
12 -8 -2 9.58 12.91
12 -8 -2 14.43 17.45
-12 8 -2 24.12 21.08
8 4 -2 -0.71 12.19
8 4 -2 2.35 11.3
-4 12 -2 23.35 18.32
8 4 -1 163 27.34
-12 8 -1 119.55 9.69
12 -8 -1 145.28 22.34
4 -12 -1 164.62 25.47
12 -8 -1 166.68 22.41
8 4 -1 133.62 17.15
-4 12 -1 112.47 25.36
12 -8 -1 147.55 24.16
-12 8 -1 124.96 25.35
-4 12 -1 110.09 7.41
-12 8 0 250.84 21.73
4 -12 0 265.75 31.53
-12 8 0 260.07 22.62
12 -8 0 270.34 31.89
-4 12 0 257.84 32
12 -8 0 282.36 22.3
8 4 0 194.34 27.82
-12 8 0 293.27 36.78
12 -8 0 244.49 22.79
8 4 1 133.67 29.09
4 -12 1 144.08 25.49
-12 8 1 135.87 20.9
12 -8 1 145.6 27.82
-4 12 1 167.84 27.08
12 -8 1 155.02 16.23
-12 8 1 113.64 23.39
-12 8 1 144.13 22.42
8 4 2 25.05 16.13
4 -12 2 7.79 14.56
-4 12 2 11.13 14.47
-12 8 2 10.76 12.94
-8 -4 2 29.48 11.61
-4 12 2 9.31 11.28
-12 8 2 16.02 14.15
4 -12 3 215.79 16.03
-12 8 3 223.38 32.47
4 -12 3 143.69 21.06
-12 8 3 210.79 24.99
-4 12 3 225.57 28.06
-8 -4 3 193.87 27.06
12 -8 3 211.11 28.88
4 -12 4 159.73 19.81
-8 -4 4 179.53 28.95
-12 8 4 184.52 33.83
-4 12 4 130.87 26.16
-4 12 4 121.52 20.27
4 -12 5 5.54 10.78
-4 12 5 -0.32 24.9
-12 8 5 46.65 26.33
-8 -4 5 20.75 16.57
-8 -4 6 -0.61 14.93
-4 12 6 63.73 36.12
-12 8 6 55.71 29.35
-12 8 7 36.9 30.03
-4 12 7 11.67 28.7
5 -12 -7 -31.5 32.33
12 -7 -7 -8.01 24.24
12 -7 -6 13.01 27
-7 -5 -6 1.81 22.12
5 -12 -6 66.62 32.26
5 -12 -5 14.46 21.98
-12 7 -5 34.56 13.59
-7 -5 -5 53.26 22.08
12 -7 -5 30.43 23.68
-5 12 -5 -18.83 17.67
-12 7 -5 45.28 24.21
-12 7 -4 71.66 24.82
12 -7 -4 120.1 31.74
7 5 -4 138.37 23.29
-12 7 -4 75.2 14.1
-5 12 -4 102.7 24.82
7 5 -4 43.75 17.22
5 -12 -4 93.57 29.39
-5 12 -3 76.16 22.97
7 5 -3 109.85 20.59
-12 7 -3 102.77 11.88
12 -7 -3 84.94 24.13
-5 12 -3 92.56 21.04
-12 7 -3 74.13 26.3
12 -7 -3 93.86 16.39
7 5 -2 82.88 17.01
12 -7 -2 123.78 24.85
-5 12 -2 94.33 21.38
-12 7 -2 62.58 26.48
12 -7 -2 117.8 20.98
-5 12 -1 588.27 47.91
5 -12 -1 634.86 44.86
-12 7 -1 622.59 24
7 5 -1 603.04 34.46
12 -7 -1 594.2 39.89
12 -7 -1 582.73 40.89
12 -7 -1 549.95 43.92
-12 7 -1 500.93 49.13
-12 7 0 1197.82 47.3
-12 7 0 1179.93 46.65
-12 7 0 1242.07 67.76
-5 12 0 1237.14 64.62
12 -7 0 1211.23 64.48
12 -7 0 1202.01 46.81
5 -12 0 1172.44 63.01
-12 7 1 603.81 45.26
-12 7 1 609.73 38.1
-5 12 1 652.05 45.24
-12 7 1 562.01 39.13
12 -7 1 603.76 48.53
7 5 1 517.59 46.53
5 -12 1 561.98 46.86
12 -7 1 610.63 32.31
-5 12 1 618.82 43.6
5 -12 2 79.34 22.12
-12 7 2 98.1 21.2
-7 -5 2 98.41 17.31
-5 12 2 97.78 20.7
7 5 2 79.29 22.46
-12 7 2 74.74 18.27
-5 12 3 76.29 17.51
5 -12 3 63.9 14.22
-12 7 3 70.62 22.1
-7 -5 3 71.95 17.45
-12 7 3 82.58 16.54
5 -12 3 87.19 10.37
-7 -5 4 83.57 20.74
5 -12 4 120.17 17.76
-12 7 4 88.05 28.71
-5 12 4 80.4 16.04
-12 7 5 5.39 22.86
5 -12 5 33.98 13.2
-7 -5 5 36.49 16.98
-5 12 5 25.04 24.74
-7 -5 6 56.99 23.97
-12 7 6 0.17 21.36
-5 12 6 61.2 35.31
-5 12 7 -11.24 30.07
-12 7 7 -45.13 30.07
6 -12 -7 56.02 37.77
6 -12 -6 -5.6 25.84
-6 -6 -6 43.32 23.12
12 -6 -6 56.15 30.07
-12 6 -5 -17.88 20.67
6 -12 -5 -9.4 17.7
-12 6 -5 -5.46 12.79
-6 12 -5 5.13 16.09
12 -6 -5 31.11 28.18
-6 -6 -5 -3.41 16.43
-12 6 -4 -15.41 22.99
6 6 -4 28.54 19.39
-6 12 -4 33.06 19.04
6 -12 -4 5.42 14.64
6 6 -4 39.26 15.97
12 -6 -4 -16.92 22.81
-12 6 -4 32.92 12.35
6 6 -3 53.04 17.83
12 -6 -3 59.04 20.6
12 -6 -3 60.38 13.65
-6 12 -3 71.81 21.34
6 -12 -3 26.73 13.88
-12 6 -3 54.93 9.7
-12 6 -3 57.79 23.99
-6 12 -3 65.61 18.81
12 -6 -2 55.19 17.42
6 -12 -2 84.05 19.3
-12 6 -2 88.59 27.03
-6 12 -2 59.24 18.21
-6 12 -2 59.69 21.55
12 -6 -2 77.21 19.91
6 6 -2 71.36 16.01
6 6 -2 38.62 13.36
-6 12 -1 15.54 13.88
-12 6 -1 38.37 8.83
6 -12 -1 9.3 12.1
12 -6 -1 19.14 13.62
-12 6 -1 32.18 22.85
12 -6 -1 21.8 13.84
-6 12 -1 23.4 15.36
12 -6 -1 40.38 15.19
6 6 -1 20.06 9.61
-6 12 0 773.01 49.53
12 -6 0 777.95 52.96
-6 12 0 769.67 52.81
12 -6 0 761.46 38.59
-12 6 0 756.89 37.59
6 -12 0 721.9 50.08
-12 6 0 842.12 55.68
-12 6 0 823.09 39.76
-12 6 1 41.9 14.33
12 -6 1 9.45 7.14
6 -12 1 25.7 14
12 -6 1 43.62 18.1
-6 12 1 42.88 18.72
-12 6 1 49.26 19.92
-6 12 1 27.2 14.86
-12 6 1 4.84 10.16
-12 6 2 61.51 17.18
-6 -6 2 66.83 13.97
-12 6 2 55.42 19.47
6 6 2 80.63 24.43
-6 12 2 69.22 18.59
6 -12 2 67.92 19.61
6 -12 3 43 11.99
-12 6 3 64.99 15.09
6 -12 3 60.88 9.11
6 6 3 44.19 23.78
-12 6 3 50.45 21.22
-6 12 3 80.43 17.04
-6 -6 3 53.7 14.21
-6 -6 4 15.49 12.79
6 -12 4 19.25 10.1
-12 6 4 -2.54 15.02
-6 12 4 13.28 23.07
-6 12 4 0.52 9.57
-6 12 5 7.66 26.97
6 -12 5 12.15 12.59
-12 6 5 9.13 17.14
-6 -6 5 19.49 15.19
-6 12 6 58.26 35.72
-6 -6 6 40.53 19.2
-12 6 6 7.35 19.97
-6 12 7 56.86 42.04
-12 6 7 -13.15 23.46
7 -12 -7 51.86 37.8
-5 -7 -6 20.25 24.79
7 -12 -6 -4.94 22.21
12 -5 -6 -3.55 26.54
-5 -7 -5 36.46 19.88
-12 5 -5 23.14 11.93
12 -5 -5 59.76 26.85
-7 12 -5 29.84 20.92
7 -12 -5 44.03 23.21
-12 5 -5 2.34 18.92
-12 5 -4 73.27 27.29
-12 5 -4 64.99 14.71
12 -5 -4 40.91 24.19
-7 12 -4 75.18 23.74
7 -12 -4 44.48 19.02
5 7 -4 80.08 19.81
5 7 -3 256.3 32.12
12 -5 -3 233.45 35.35
-7 12 -3 240.72 35.01
-12 5 -3 223.8 19.57
12 -5 -3 254.66 24
-12 5 -3 231.22 38.64
7 -12 -3 196.08 32.51
5 7 -2 325.3 32.73
7 -12 -2 338.86 33.46
12 -5 -2 301.61 30.71
12 -5 -2 328.65 36.1
-12 5 -2 295.94 42.09
-7 12 -2 285.28 32.32
5 7 -2 290.24 26.23
-7 12 -2 226.15 33.21
7 -12 -1 406.76 37.41
12 -5 -1 400.91 33.41
12 -5 -1 413.11 33.89
-7 12 -1 377.45 38.15
5 7 -1 402.24 26.31
-12 5 -1 373.79 40.92
12 -5 -1 442.64 39.88
-7 12 -1 345.31 34.53
-7 12 0 127.38 23.55
-7 12 0 130.66 25.1
7 -12 0 150.37 26.42
12 -5 0 152.43 24.75
-12 5 0 142.55 28.32
12 -5 0 144.02 17.87
-7 12 0 136.29 15.23
-12 5 0 148.4 18.8
-12 5 0 130.91 17.87
-12 5 1 435.33 39.32
7 -12 1 373 37.97
12 -5 1 374.78 28.91
-12 5 1 372.56 33.25
12 -5 1 370.35 38.76
-7 12 1 379.73 37.74
-7 12 1 392.86 33.38
-12 5 1 403.84 32.24
-12 5 2 307.23 32.34
-7 12 2 292.35 34.92
7 -12 2 331.77 38.47
-12 5 2 291.63 32.16
5 7 2 282.36 35.28
-5 -7 2 286.98 24.94
-7 12 2 324.82 33.18
7 -12 3 207.67 21.6
5 7 3 238.6 37.64
-12 5 3 229.99 32.07
-7 12 3 236.36 26.17
-5 -7 3 258.18 26.1
-7 12 3 299.59 40.52
7 -12 3 233.51 17.12
-7 12 4 37.97 10.83
7 -12 4 7.8 10.16
7 -12 4 57.15 13.72
-12 5 4 25.42 21.09
-7 12 4 37.63 22.29
-5 -7 4 37.84 13.67
7 -12 5 40.01 14.92
-7 12 5 -13.46 25.81
-5 -7 5 11.13 11.3
-12 5 5 4.45 17.12
-12 5 6 4.4 20.26
-5 -7 6 2.48 12.69
-7 12 6 20.05 29.84
5 7 7 25.67 35.22
-12 5 7 0.06 22.47
-7 12 7 43.07 35.81
8 -12 -7 45.52 32.51
-4 -8 -7 28.46 29.48
8 -12 -6 52.9 31.59
-4 -8 -6 8.98 21.23
-12 4 -5 6.22 20.65
-4 -8 -5 49.37 21.29
8 -12 -5 30.31 20.55
-8 12 -5 23.93 16.74
12 -4 -5 22.24 24.53
-12 4 -5 9.57 12.25
8 -12 -4 54.55 21.22
-8 12 -4 39.84 22.2
12 -4 -4 93.02 30.45
4 8 -4 48.81 17.79
-12 4 -4 46.3 13.17
-12 4 -4 54.84 22.13
12 -4 -3 233.81 36.19
12 -4 -3 314.53 27.78
-8 12 -3 252.69 36.25
4 8 -3 262.61 30.96
8 -12 -3 242.26 35.89
4 8 -3 260.78 33.26
-12 4 -3 213.19 37.63
-8 12 -2 40.27 19.34
4 8 -2 12.62 14.22
12 -4 -2 10.78 13.98
12 -4 -2 3.71 11.97
-12 4 -2 20.08 18.17
4 8 -2 5.38 7.48
8 -12 -2 14.59 14.07
4 8 -1 86.73 13.74
12 -4 -1 101.34 22.78
8 -12 -1 90.54 21.25
-8 12 -1 65.03 22.52
12 -4 -1 111.32 18.82
-12 4 -1 95.21 28.02
-12 4 0 933.7 43.32
-8 12 0 917.01 58.36
-12 4 0 940.05 45.36
12 -4 0 967.55 60.61
-8 12 0 966.44 37.47
-12 4 0 927.94 59.15
12 -4 0 860.68 40.95
8 -12 0 941.85 57.34
-12 4 1 69.08 16.97
8 -12 1 128.63 25.35
-12 4 1 93.5 17.23
-8 12 1 91.59 17.91
-8 12 1 77.73 21.38
-12 4 1 96.7 22.68
12 -4 1 64.12 22.17
-4 -8 2 8.25 8.74
-12 4 2 2.35 12.79
-8 12 2 8.71 14.89
-8 12 2 13.96 11.31
-12 4 2 22.1 13.36
-8 12 3 294.78 28.49
-12 4 3 275.88 33.86
4 8 3 266.36 37.88
-8 12 3 265.69 40.24
-4 -8 3 279.2 26.16
8 -12 3 281.67 19.19
8 -12 3 261.03 22.4
-8 12 4 60.42 13.31
4 8 4 57.18 11.35
12 -4 4 55.72 16.04
-12 4 4 34.18 16.74
8 -12 4 50.67 13.06
-4 -8 4 79.73 17.54
-8 12 4 21.18 22.22
8 -12 5 4.01 10.97
-8 12 5 37.58 29.28
-12 4 5 15.03 21.7
-4 -8 5 23.17 11.64
-4 -8 6 30.31 18.06
-8 12 6 10.35 24.56
-12 4 6 -35.86 24.87
-8 12 7 32.74 30.33
4 8 7 70.91 41.67
-12 4 7 -18.54 26.91
9 -12 -7 -6.98 27.25
-3 -9 -7 -35.55 30.5
-3 -9 -6 31.64 24.92
9 -12 -6 29.96 25
-9 12 -5 46.03 23.56
-12 3 -5 14.19 12.19
9 -12 -5 28.39 23.11
-3 -9 -5 1.4 16.94
-9 12 -4 24.82 20.42
12 -3 -4 32.33 8.52
12 -3 -4 21.4 19.45
3 9 -4 12.19 12.65
-12 3 -4 8.01 10.51
9 -12 -4 -6.46 17.68
12 -3 -4 5.67 4.48
-12 3 -4 16.49 18.96
9 -12 -3 67.42 16.62
3 9 -3 66.79 20.56
12 -3 -3 59.16 14.53
-12 3 -3 40.07 23.66
3 9 -3 70.53 18.1
-9 12 -3 38.14 17.46
12 -3 -3 87.42 27.89
9 -12 -3 27.12 19.47
3 9 -2 152.91 25.01
-12 3 -2 134.87 33.12
12 -3 -2 150.21 27.04
9 -12 -2 164.08 25.35
-9 12 -2 138.06 29.2
9 -12 -2 157.78 23.23
3 9 -2 149.25 18.98
9 -12 -2 152.87 26.08
12 -3 -1 784.9 54.51
9 -12 -1 841.87 51.86
3 9 -1 836.34 35.02
12 -3 -1 793.45 45.17
-9 12 -1 748.14 55.43
3 9 -1 815.24 53.43
-12 3 -1 808.13 59.27
9 -12 -1 816.88 50.96
9 -12 0 49.65 17.08
-9 12 0 42.29 19.57
-9 12 0 48.34 11.81
12 -3 0 32.21 15.15
9 -12 0 31.28 16.66
12 -3 0 53.56 12.79
-12 3 0 30.98 19.69
-9 12 1 837.41 46.58
9 -12 1 779.7 56.28
9 -12 1 805.15 24.44
12 -3 1 742.09 57.54
-9 12 1 865.52 54.43
-12 3 1 740.05 47.16
-12 3 1 721.84 41.67
-12 3 1 926.48 55.93
-9 12 2 164.15 26.5
9 -12 2 142.62 11.76
-12 3 2 145.08 22.88
-9 12 2 171.49 24.9
-12 3 2 152.27 25.62
9 -12 2 114.99 8.51
-3 -9 2 155.49 17.2
-9 12 3 41.36 14.62
9 -12 3 50.48 11.15
-9 12 3 40.21 20.42
-12 3 3 61.59 20.38
3 9 3 35.54 19.15
-3 -9 3 55.3 11.45
-9 12 4 -2.57 19.54
-3 -9 4 10.33 10.26
9 -12 4 17.86 12.85
-9 12 4 16.51 8.93
3 9 4 31.75 18.49
-12 3 4 5.62 14.88
-9 12 5 47.09 28.01
-12 3 5 14.93 22.69
-3 -9 5 2.26 11.57
9 -12 5 10.41 13.29
-12 3 6 3.85 19.71
-9 12 6 -72.5 34.33
3 9 7 2.65 29.92
-12 3 7 -14.27 22.73
-9 12 7 -20.15 29.41
-2 -10 -7 -1.27 29.68
10 -12 -7 49.37 33.67
-2 -10 -6 -19.79 25.02
10 -12 -6 13.68 22.89
-10 12 -5 1.56 18.42
-12 2 -5 14.71 11.69
-2 -10 -5 33.5 25.23
10 -12 -5 0.27 18.69
12 -2 -4 13.06 6.69
12 -2 -4 10.62 9.16
-12 2 -4 21.5 12.33
-12 2 -4 6.32 18.13
10 -12 -4 17.42 16.48
2 10 -4 46.52 19.86
-10 12 -4 28.85 18.14
10 -12 -3 288.89 28.83
12 -2 -3 348.08 34.32
10 -12 -3 286.57 39.55
2 10 -3 301.57 37.14
2 10 -3 256.8 27.39
-10 12 -3 274.34 40.95
10 -12 -3 250.95 29.91
-12 2 -3 237.56 40.65
10 -12 -2 110.22 21.54
-12 2 -2 128.6 32.4
10 -12 -2 122.99 25.93
2 10 -2 111.27 22.57
-10 12 -2 84.34 27.43
2 10 -2 108.38 15.57
12 -2 -2 126.63 27.19
10 -12 -2 95.03 19.63
10 -12 -1 309.49 34.1
-12 2 -1 263.91 38.24
10 -12 -1 274.9 31.45
10 -12 -1 286.44 30.81
2 10 -1 319.88 21.31
12 -2 -1 346.84 37.65
-10 12 -1 249.82 32
2 10 -1 267.56 32.46
2 10 0 330.22 37.7
-10 12 0 348.56 39.2
-12 2 0 344.95 38.05
10 -12 0 351.08 38.62
12 -2 0 326.93 37.69
-10 12 0 372.06 24.66
10 -12 0 308.57 33.2
10 -12 0 342.85 25.07
12 -2 0 309.41 26.07
-12 2 1 300.86 34.83
-12 2 1 324.86 32.27
10 -12 1 314.27 37.33
10 -12 1 284.02 16.64
-10 12 1 316.55 30.01
-10 12 1 256.28 31.02
12 -2 1 270.67 35.95
10 -12 1 282.13 33.14
-12 2 1 279.47 26.85
10 -12 2 89.93 8.12
-12 2 2 95.26 20.38
-10 12 2 119.46 20.47
-10 12 2 86.34 22.47
10 -12 2 117.85 10.22
2 10 3 239.51 31.61
-12 2 3 240.51 32.79
-2 -10 3 242.16 22.48
2 10 3 268.43 37.47
-10 12 3 244.22 26.9
-10 12 3 284.87 39.14
-2 -10 4 9.51 8.93
2 10 4 34.33 17.23
-12 2 4 12.49 16.08
10 -12 4 8.88 10.39
-10 12 4 9.25 17.72
-10 12 4 18.95 8.81
-10 12 5 30.94 29.34
10 -12 5 18.14 16.16
-2 -10 5 5.19 10.26
-12 2 5 -24.12 22.41
-12 2 6 19.98 19.66
-10 12 6 87.69 36.38
-12 2 7 -13.87 24.32
2 10 7 -23.17 34.61
-10 12 7 -20.38 28.4
11 -12 -7 22.48 33.15
-1 -11 -7 77.02 39.81
-1 -11 -6 21.11 23.81
11 -12 -6 51.39 31.09
-11 12 -5 20.91 18.33
-1 -11 -5 63.09 28.25
11 -12 -5 50.49 29.53
-12 1 -5 44.19 16.47
1 11 -4 13.24 15.64
11 -12 -4 1.48 18.18
12 -1 -4 9.48 8.45
-12 1 -4 10.75 10.09
-11 12 -4 15.09 21.86
12 -1 -4 33.45 12.35
-12 1 -3 54.21 27.28
-11 12 -3 55.3 23.09
1 11 -3 94.32 23.05
12 -1 -3 76.78 19.93
11 -12 -3 39.29 13.69
11 -12 -3 42.78 15.65
11 -12 -3 74.91 25.49
11 -12 -2 364.08 39.09
11 -12 -2 315.82 33.27
12 -1 -2 360.88 39.97
-12 1 -2 294.16 43.71
1 11 -2 364.11 25.64
-11 12 -2 326.73 41.1
1 11 -2 337.23 40.27
-11 12 -1 120.78 27.38
11 -12 -1 65.03 16.53
11 -12 -1 128.98 23.14
12 -1 -1 101.82 25.11
1 11 -1 95.06 12.28
-12 1 -1 75.69 26.73
1 11 -1 101.8 23.96
11 -12 -1 96.81 19.24
-11 12 0 108.82 26
1 11 0 91.05 23.13
11 -12 0 95.31 23.52
11 -12 0 112.13 17.74
12 -1 0 75.49 22.78
-12 1 0 114.15 25.75
-11 12 0 100.43 14.44
11 -12 0 141.16 17.81
12 -1 0 80.48 14.41
11 -12 1 84.82 20.49
-11 12 1 96.22 23.2
1 11 1 74.42 22.18
-11 12 1 89.5 18.14
-12 1 1 78.68 17.87
11 -12 1 93.07 10.91
-12 1 1 104.84 24.57
-12 1 1 95.28 16.4
-11 12 2 329.76 36.06
-12 1 2 362.75 34
1 11 2 296.77 36.27
-11 12 2 330.11 34.42
11 -12 2 354.02 19.21
-12 1 3 59.25 18.58
1 11 3 66.94 19.42
-11 12 3 75.09 18.59
-1 -11 3 70.84 12.31
-11 12 3 84.2 24.21
-11 12 4 19.27 9.26
-11 12 4 16.55 19.57
-1 -11 4 -2.52 8.09
-12 1 4 15.52 16.95
1 11 4 12.36 17.4
-11 12 5 51.49 25.08
11 -12 5 47.8 16.55
-1 -11 5 45.14 15.63
-12 1 5 75.04 29.72
-11 12 6 58.82 35.18
-12 1 6 40.65 24.58
1 11 7 -87.35 43.96
-12 1 7 78.24 32.7
0 -12 -7 -50.29 33.82
12 -12 -7 5.26 27.34
0 -12 -6 48.78 22.67
12 -12 -6 58.48 27.95
0 -12 -5 -24.21 23.78
-12 0 -5 13.29 14.84
12 -12 -5 11.28 20.58
-12 12 -5 -24.19 22.3
12 0 -4 18.98 12.39
12 -12 -4 17.04 22.42
-12 12 -4 -37.75 22.49
0 12 -4 -2.75 16.57
12 -12 -3 91.49 24.81
-12 0 -3 97.55 27.62
12 0 -3 62.56 21.28
12 -12 -3 78.87 16.82
0 12 -3 80.81 26.41
-12 12 -3 74.7 23.5
0 12 -2 103.09 13.62
-12 12 -2 96.47 25.5
12 0 -2 109.18 24.85
12 -12 -2 117.05 23.32
-12 0 -2 63.25 21.84
0 12 -2 104.59 25.08
12 -12 -2 62.22 17.21
0 12 -1 28.23 17.06
12 0 -1 33.03 16.06
12 -12 -1 48.85 18.55
-12 12 -1 41.98 23.91
12 -12 -1 67.83 17.34
12 -12 -1 40.6 14.44
0 12 -1 43.11 9.16
-12 0 -1 44.21 21.52
12 0 0 230.08 24.25
12 -12 0 237.48 22.94
0 12 0 234.57 32.79
-12 12 0 273.43 23.15
-12 0 0 213.38 33.41
12 -12 0 265.71 24.23
12 0 0 263.34 35.1
-12 12 0 235.23 33.76
12 -12 0 272.48 36.01
-12 12 1 36.11 18.77
0 12 1 36.41 17.9
12 -12 1 57.29 16.55
-12 12 1 44.21 15.11
-12 0 1 64.92 17.16
12 -12 1 42.66 9.7
12 -12 1 47.42 7.66
0 12 2 77.89 21.17
-12 0 2 81.19 18.49
-12 12 2 93.91 23.57
-12 12 2 90.66 19.64
12 -12 2 106.67 12.11
-12 12 3 44.7 21.71
0 12 3 86.49 22.55
-12 12 3 72.85 17.69
0 -12 3 82.79 12.79
-12 0 3 79.43 19.59
0 -12 4 -4.63 8.58
-12 12 4 -1.54 18.68
-12 12 4 0.71 7.38
-12 0 4 -18.91 15.31
0 12 4 -1.12 12.81
0 -12 5 3.54 11.53
-12 12 5 27.68 24.08
12 -12 5 8.43 16.02
-12 0 5 -25.92 19.86
-12 12 6 18.57 28.48
-12 0 6 44.35 26.76
-12 0 7 4.93 20.56
1 -13 -7 -30.58 32.88
1 -13 -6 63.65 27.6
13 -12 -6 -22.58 26.41
1 -13 -5 11.98 20.59
-13 12 -5 3.92 20.88
13 -12 -5 4.64 24.17
-12 -1 -5 -8.14 13.29
13 -12 -4 35.41 21.84
12 1 -4 44.56 16.57
-13 12 -4 19.88 20.16
-1 13 -4 65.3 21.58
-13 12 -3 196.03 37.03
13 -12 -3 176.47 23.92
12 1 -3 186.22 33.87
-1 13 -3 202.92 34.93
13 -12 -3 196.8 35.89
13 -12 -2 221.83 29.52
-1 13 -2 234.31 18.68
13 -12 -2 186.48 30.68
-1 13 -2 215.68 33.73
-12 -1 -2 242.44 39.73
-13 12 -2 293.09 41.91
12 1 -2 215.49 33.61
-12 -1 -1 133.12 28.7
-1 13 -1 123.53 12.32
12 1 -1 119.37 24.51
13 -12 -1 162.08 27.13
13 -12 -1 134.54 22.74
-13 12 -1 125.44 28.93
-1 13 -1 140.4 28.73
13 -12 -1 132.03 22.98
13 -12 0 124.31 18.37
-13 12 0 126.07 26.21
-12 -1 0 154.51 27.08
-13 12 0 162.77 19.85
13 -12 0 142 19.22
-1 13 0 88.2 23.13
-1 13 1 126.15 26.19
13 -12 1 120.27 10.89
13 -12 1 124.28 14.46
-13 12 1 134.78 22.47
-13 12 1 112.08 24.39
-12 -1 1 117.01 18.87
-13 12 2 233.85 32.22
-1 13 2 205.55 29.3
-13 12 2 210.24 29.73
-12 -1 2 240.17 28.25
13 -12 2 247.39 19.97
-12 -1 3 196.86 29.23
-1 13 3 208.11 31
-1 13 3 218 28.68
-13 12 3 223.85 30.39
-13 12 3 204.86 33.15
1 -13 3 198.98 17.41
-1 13 4 26.34 15.23
-12 -1 4 42.99 19.55
-13 12 4 44.91 24.4
-13 12 4 30.99 10.52
1 -13 4 34.89 10.81
-13 12 5 -18.02 21.57
-12 -1 5 11.7 16.11
-12 -1 6 23.99 21.71
-1 13 6 21.64 29.82
-13 12 6 25.21 26.19
-12 -1 7 -16.86 22.12
2 -13 -7 -31.99 31.14
13 -11 -7 13.79 29.42
2 -13 -6 37.96 28.17
13 -11 -6 -4.63 24.85
-2 13 -5 -0.29 14.94
-11 -2 -5 -2.25 14
-2 13 -5 1.28 13.34
-13 11 -5 -3.94 20.27
2 -13 -5 12.84 18.11
13 -11 -5 9.18 19.4
11 2 -4 6.58 12.07
13 -11 -4 15.42 21.58
-2 13 -4 9.67 16.36
-13 11 -4 5.09 18.09
13 -11 -3 83.85 16.08
13 -11 -3 89.94 27.76
11 2 -3 68.82 22.71
-13 11 -3 50.34 21.66
-2 13 -3 123.8 27.43
-2 13 -2 198.74 31.16
11 2 -2 196.33 32.92
-2 13 -2 167.43 13.36
-13 11 -2 145.89 30.41
13 -11 -2 138.91 23.96
13 -11 -2 179.8 31.2
-13 11 -1 65.19 24.12
11 2 -1 95.23 23.09
13 -11 -1 58.55 18.1
-2 13 -1 103.55 23.48
13 -11 -1 59.03 17.94
13 -11 -1 67.13 19.86
-2 13 -1 59.76 8.56
13 -11 0 19.24 10.37
13 -11 0 12.41 9.53
11 2 0 26.27 14.58
-13 11 0 35.39 22.78
13 -11 0 16.58 17.56
-2 13 0 28.11 19.32
-13 11 0 13.66 10.78
-11 -2 1 53.11 14.8
-2 13 1 76.55 23.44
13 -11 1 75.93 12.93
-13 11 1 88.03 24.73
-13 11 1 59.71 15.38
-13 11 2 181.21 27.32
-2 13 2 215.51 30.27
-13 11 2 210.29 29.81
-11 -2 2 197.64 25.16
13 -11 2 222.22 20.57
-13 11 3 90.49 22.44
-2 13 3 107.46 23.61
-11 -2 3 74.45 21.04
-13 11 3 70.82 21.21
-2 13 3 111.21 21.73
2 -13 3 77.16 10.79
-13 11 4 14.97 8.48
-13 11 4 13.84 16.95
-2 13 4 -5.7 15.56
2 -13 4 18.82 8.89
-13 11 5 -15.79 19.32
-11 -2 5 10.7 17.94
-2 13 6 -19.1 27.99
-13 11 6 -9.44 22.31
-11 -2 6 0.4 17.01
-11 -2 7 -25.48 28.54
13 -10 -7 13.04 26.78
3 -13 -7 -26 27.77
13 -10 -6 71.57 32.83
-10 -3 -6 44.41 21.74
3 -13 -6 53.94 27.71
3 -13 -5 -2.89 18.92
-3 13 -5 15.93 18.37
-10 -3 -5 10.32 18.58
13 -10 -5 41.21 32.11
-13 10 -5 5.62 18.91
13 -10 -4 46.59 24.24
3 -13 -4 -7.07 15.51
13 -10 -4 12.23 6.16
-3 13 -4 6.66 16.88
-13 10 -4 13.44 25.6
10 3 -4 39.31 17.54
-13 10 -3 81.42 26.78
13 -10 -3 103.89 29.13
10 3 -3 91.83 25.08
-3 13 -3 124.06 28.43
13 -10 -3 119.67 20.17
13 -10 -2 748.36 55.89
10 3 -2 749.05 55.35
-3 13 -2 749.06 56.52
-13 10 -2 778.55 62.96
13 -10 -2 748.04 49.83
-3 13 -1 589.5 49.34
10 3 -1 717.09 51.77
-13 10 -1 677.22 57.41
13 -10 -1 710.63 45.6
13 -10 -1 675.56 50.51
10 3 -1 702.26 41.03
13 -10 -1 645.83 43.83
-13 10 0 441.19 43.76
10 3 0 454.62 32.14
10 3 0 475.32 43.63
13 -10 0 449.13 31.76
13 -10 0 470.18 31.11
3 -13 0 480.28 44.42
-3 13 0 456.43 43.78
13 -10 0 486.89 45.85
-13 10 0 463.5 29.6
-10 -3 1 614.83 39.28
-13 10 1 671.22 49.74
13 -10 1 686.08 33.57
-3 13 1 696.51 52.31
-13 10 1 655.97 44.83
-13 10 1 655.19 41.85
-13 10 2 751 50.95
-3 13 2 755.84 53.01
-10 -3 2 734.77 45.11
-13 10 2 769.73 52.16
-3 13 3 95.77 21.87
3 -13 3 88.88 10.27
-13 10 3 97.99 24.96
13 -10 3 107.73 24
-13 10 3 94.45 21.47
-10 -3 3 125.89 21.91
-3 13 4 22.61 13.8
-10 -3 4 39.92 17.24
3 -13 4 13.63 8.35
-13 10 5 -8.74 22.23
-10 -3 5 0.67 13.35
-13 10 6 13.19 31.33
-3 13 6 -32.18 27.75
-10 -3 6 38.47 22.1
-13 10 7 16.38 28.52
4 -13 -7 69.68 34.64
13 -9 -7 37.37 33.7
4 -13 -6 26.59 24.69
13 -9 -6 -3.92 26.87
-9 -4 -6 2.11 16.86
4 -13 -5 26.32 25.23
-13 9 -5 -0.87 18.8
-4 13 -5 44.11 23.26
13 -9 -5 -12.98 20.12
-9 -4 -5 27.05 24.24
4 -13 -4 92.39 22.65
13 -9 -4 72.3 9.27
13 -9 -4 108.17 31.86
9 4 -4 140.6 23.83
9 4 -4 93.71 24.16
-13 9 -4 112.36 33.2
-4 13 -4 113.52 27.91
-4 13 -4 109.12 21.93
9 4 -3 140.2 23.03
-13 9 -3 117.35 29.5
13 -9 -3 110.83 18.58
-4 13 -3 185.92 32.41
13 -9 -3 106.89 27.67
9 4 -3 97.08 23.68
-4 13 -2 616.13 52.76
-13 9 -2 594.38 54.94
9 4 -2 602.8 50.68
13 -9 -2 577.88 42.22
13 -9 -2 634.59 50.89
-13 9 -1 553.26 50.85
4 -13 -1 581 47.11
13 -9 -1 641.38 48.63
13 -9 -1 549.95 41.03
-4 13 -1 515.88 48.36
13 -9 -1 563.72 40.88
9 4 -1 529.55 45.65
9 4 -1 585.64 36.75
-13 9 0 1759.63 83
4 -13 0 1688.83 79.32
9 4 0 1754.46 78.77
-13 9 0 1696.38 56.69
13 -9 0 1762.15 57.03
-4 13 0 1716.58 79.97
13 -9 0 1690.34 59.45
-13 9 0 1656.64 56.1
13 -9 0 1697.7 79.94
4 -13 1 573.83 49.15
-13 9 1 593.83 42.01
13 -9 1 589.69 31.79
-13 9 1 576.4 48.46
-13 9 1 565.21 38.88
-4 13 1 630.86 48.71
-13 9 2 626.37 46.45
-4 13 2 618.91 47.79
-4 13 2 646.65 46.7
-9 -4 2 602.86 39.36
-13 9 2 623.03 47.92
13 -9 3 178.93 28.39
4 -13 3 116.66 10.99
4 -13 3 99.01 17.27
-13 9 3 185.74 32.79
-13 9 3 125.84 21.78
-9 -4 3 142.85 24.69
-4 13 3 110.5 22.38
4 -13 4 109.78 15.38
-4 13 4 76.53 17.97
-9 -4 4 103.16 23.65
-13 9 4 106.68 27.2
-9 -4 5 30.43 18.18
-13 9 5 32.81 22.59
-4 13 5 70.21 34.1
-13 9 6 21.7 23.17
-9 -4 6 4.87 16.64
-4 13 6 50.13 36.84
-13 9 7 25.49 34.81
13 -8 -7 -21.23 32.89
5 -13 -7 -6.45 26.87
5 -13 -6 2.6 21.61
13 -8 -6 -18.77 28.13
-8 -5 -6 14.79 22.5
-5 13 -5 21.95 17.45
13 -8 -5 7.09 22.22
-8 -5 -5 43.51 23.74
-13 8 -5 14.76 23.86
5 -13 -5 46.15 23.87
-5 13 -4 62.16 19.06
13 -8 -4 89.54 32.1
5 -13 -4 48.06 21.32
8 5 -4 25.14 14.73
-13 8 -4 75.34 12.89
-5 13 -4 57.53 22.15
-13 8 -4 46.03 27.15
8 5 -3 302.03 32.29
-13 8 -3 230.06 14.38
-13 8 -3 335.25 46.94
13 -8 -3 262.06 25.89
-5 13 -3 270.49 37.91
8 5 -3 266.38 35.52
13 -8 -3 303.45 42.79
-13 8 -2 221.99 36.65
13 -8 -2 188.1 25.86
13 -8 -2 187.21 28.48
-5 13 -2 181.11 31.68
13 -8 -1 451.72 41.92
5 -13 -1 436.02 40.09
-5 13 -1 455.25 43.38
8 5 -1 480.98 31.99
-13 8 -1 463.47 20.97
-13 8 -1 529.11 48.72
13 -8 -1 454.23 36.96
13 -8 -1 474.28 37.38
-13 8 0 -5.37 9.75
-13 8 0 -1.04 8.63
13 -8 0 -0.41 8.61
8 5 0 -17.86 14.89
13 -8 0 -4.36 13.8
-5 13 0 8.35 15.03
5 -13 0 3.79 15.77
13 -8 0 -6.43 8.89
-13 8 0 27.88 20.88
-5 13 1 466.94 40.23
-13 8 1 455.39 37.06
-5 13 1 443.81 40.15
-13 8 1 499.7 44.22
13 -8 1 486.98 29.72
5 -13 1 457.17 43.91
8 5 1 472.07 44
-13 8 1 429.48 34.54
-13 8 2 198.69 29.03
-13 8 2 182.77 26.68
-5 13 2 180.82 26.83
-8 -5 2 185.45 23.32
-8 -5 3 257.37 28.84
-13 8 3 286.47 28.54
5 -13 3 240.37 14.57
5 -13 3 194.39 22.85
-5 13 3 250.73 30.23
-13 8 3 260.69 36.26
5 -13 4 86.96 14.35
-5 13 4 89.34 18.86
-13 8 4 70.41 25.37
-8 -5 4 87.8 20.77
-8 -5 5 -9.7 14.74
-5 13 5 27.66 26.32
-13 8 5 -31.16 24.8
-5 13 6 21.34 30.16
-8 -5 6 22.35 17.47
-13 8 6 -9.08 22.49
-13 8 7 31.98 28.98
6 -13 -7 -4.4 27.1
6 -13 -6 -31.67 25.33
13 -7 -6 46.54 28.66
-7 -6 -6 13.51 27.71
-13 7 -5 36 23.19
-6 13 -5 -36.78 16.41
13 -7 -5 32.24 26.42
6 -13 -5 -0.14 17.5
-7 -6 -5 22.74 21.18
-13 7 -4 11.2 22.74
-13 7 -4 53.09 12.37
6 -13 -4 48.74 20.7
7 6 -4 27.18 20.21
13 -7 -4 85.23 30.18
-6 13 -4 -5.13 18.91
7 6 -4 57.78 18.35
-6 13 -3 8.7 14.06
7 6 -3 -1.55 12.75
13 -7 -3 13.62 19.75
-13 7 -3 -27.58 20.9
-13 7 -3 4.12 5.62
-6 13 -3 31.92 18.82
13 -7 -3 10.36 9.66
6 -13 -2 210.7 27.45
-13 7 -2 217.53 35.28
-6 13 -2 223.59 34.97
13 -7 -2 198.11 30.33
7 6 -2 216.17 25.46
13 -7 -2 183.02 25.21
13 -7 -1 69.61 16.95
6 -13 -1 107.89 23.98
-13 7 -1 68.38 10.2
-13 7 -1 88.89 28.73
-6 13 -1 68.32 20.44
13 -7 -1 75.86 17.63
7 6 -1 76.39 14.58
13 -7 -1 107.55 25.77
-6 13 0 93.84 23.96
6 -13 0 116.97 25.07
-13 7 0 103.26 25.43
-13 7 0 111.62 17.19
13 -7 0 94.01 22.56
13 -7 0 106.93 16.63
-13 7 0 96.4 16.62
-6 13 0 92.55 22.62
-6 13 1 61.18 18.25
7 6 1 81.62 22.78
-13 7 1 40.15 13.54
-6 13 1 82.18 19.74
13 -7 1 88.2 25.25
6 -13 1 75.56 22.91
-13 7 1 86.89 24.13
-13 7 1 54.02 15.66
13 -7 1 79.77 15.01
-13 7 2 202.18 28.46
-6 13 2 225.52 29.5
-7 -6 2 213.05 23.66
-13 7 2 191.9 28.5
-6 13 3 16.87 11.99
-13 7 3 -11.99 12.34
-13 7 3 12.95 13.35
6 -13 3 11.85 4.14
6 -13 3 1.23 8.18
-7 -6 3 -3.72 11.07
6 -13 4 54.09 11.59
-13 7 4 70.81 25.93
-6 13 4 54.66 27.48
-7 -6 4 36.87 14.06
-6 13 4 49.78 14.22
-13 7 5 39.03 26.78
-6 13 5 -7.55 24.51
-7 -6 5 35.18 17.4
-6 13 6 87.84 36.77
-13 7 6 45.81 26.44
-7 -6 6 -5.13 13.39
-13 7 7 54.77 32.66
7 -13 -7 -0.45 26
13 -6 -6 -14.61 25
-6 -7 -6 13.53 20.3
7 -13 -6 4.38 21.33
-7 13 -5 14.61 19.01
-6 -7 -5 35.44 22.96
-13 6 -5 -2.72 19.01
13 -6 -5 1.66 22.27
7 -13 -5 39.67 23.65
-7 13 -4 63.87 24.6
-13 6 -4 95.54 34.36
13 -6 -4 67.67 26.77
-13 6 -4 50.2 12.48
6 7 -4 84.41 21.09
7 -13 -4 30.7 22.31
13 -6 -3 45.73 12.34
7 -13 -3 54.78 22.18
6 7 -3 92.97 20.58
13 -6 -3 41.49 20.97
-7 13 -3 84.67 25.6
-13 6 -3 60.97 10.35
-13 6 -3 73.98 27.1
6 7 -2 34.69 16.34
7 -13 -2 12.38 13.48
-13 6 -2 0.32 18.31
13 -6 -2 -0.58 12.2
-7 13 -2 1.75 14.24
13 -6 -2 21.91 15.34
6 7 -2 10.31 10.8
-7 13 -2 8.17 17.45
13 -6 -1 182.41 28.89
7 -13 -1 159.11 25.19
-7 13 -1 162.86 26.91
6 7 -1 142.65 16.74
-13 6 -1 129.86 27.21
-7 13 -1 95.97 25.64
13 -6 -1 153.3 22.56
-7 13 0 102.7 23.88
-13 6 0 136.77 28.61
-7 13 0 99.7 14.06
-13 6 0 86.24 14.59
7 -13 0 138.03 26.36
-13 6 0 120.33 18.31
13 -6 0 83.77 21.23
-7 13 0 96.02 23.82
13 -6 0 118.98 17.22
-13 6 1 154.33 24.75
13 -6 1 163.94 28.67
7 -13 1 146.89 27.17
-7 13 1 179.05 27.75
-13 6 1 123.95 21.2
-13 6 1 139.76 27.22
13 -6 1 147.21 18.73
-13 6 2 22.88 17.76
-6 -7 2 9.75 9.54
-7 13 2 19.56 14.29
-13 6 2 15.07 13.32
7 -13 3 46.43 12.18
-13 6 3 65.79 16.27
-7 13 3 63.6 23.19
-7 13 3 42.66 15.13
7 -13 3 62.72 7.88
-13 6 3 67.2 20.33
-6 -7 3 47.36 14.59
-7 13 4 73.23 16.19
-7 13 4 68.97 31.1
7 -13 4 93.4 15.71
-13 6 4 74.21 26.07
-6 -7 4 55.46 16.35
-7 13 5 -31.37 23.43
-13 6 5 15.1 21.76
-6 -7 5 1.43 15.05
-7 13 6 3.74 24.31
-6 -7 6 25.3 18.83
-13 6 6 -33.58 29.95
-13 6 7 21.5 26.49
8 -13 -7 12.45 27.99
-5 -8 -6 22.86 22.11
8 -13 -6 9.37 24.86
8 -13 -5 49.38 25.16
-8 13 -5 46.97 22.37
-13 5 -5 27.57 12.86
13 -5 -5 53.95 32.58
-5 -8 -5 36.64 24.92
-13 5 -5 39.26 26.51
13 -5 -4 74.23 30.77
-13 5 -4 36.96 12.63
8 -13 -4 61.24 27.08
5 8 -4 79.87 22.93
13 -5 -4 25.76 6.01
-13 5 -4 47.25 31.23
-8 13 -4 65.28 24.54
-13 5 -3 73.09 25.08
-13 5 -3 38.2 9.63
13 -5 -3 23.12 16.77
5 8 -3 80.44 21.66
8 -13 -3 12.2 15.03
13 -5 -3 36.19 13.22
-8 13 -3 33.51 18.54
8 -13 -2 324.34 33.01
13 -5 -2 329.96 35.95
5 8 -2 304.92 27.51
5 8 -2 319.04 35.73
-8 13 -2 324.68 39.22
13 -5 -2 324.95 36.42
-13 5 -2 327.04 44.2
5 8 -1 24.7 10.33
8 -13 -1 22.33 14.86
-13 5 -1 -15.86 17.86
13 -5 -1 51.57 19.56
-8 13 -1 47.12 22.03
-8 13 -1 13.32 14.74
13 -5 0 3070.97 107.62
-8 13 0 3043.36 67.07
8 -13 0 3040.73 105.09
-13 5 0 3139.81 83.33
-13 5 0 3012.03 108.04
-13 5 0 3003.9 79.39
-8 13 0 3012.94 107.61
13 -5 0 2970.63 78.3
-8 13 1 31.95 12.65
-8 13 1 -6.97 16.14
13 -5 1 15.47 9.76
8 -13 1 9.86 15.19
-13 5 1 18.33 14.32
-13 5 1 24.3 11.91
-13 5 1 23.55 17.44
-13 5 2 317.11 34.71
-13 5 2 307.58 32.56
-8 13 2 337.17 35.76
-8 13 2 321.81 34.59
-5 -8 2 301.68 25.33
-13 5 3 50.16 17.99
-5 -8 3 52.7 13.4
-8 13 3 32.34 20.15
8 -13 3 27.41 6.07
-8 13 3 46.02 16.31
8 -13 3 42.34 11.47
-8 13 4 48.3 14.69
8 -13 4 38 10.56
-13 5 4 68.2 24.21
-5 -8 4 55.6 15.46
-8 13 4 81.98 29.77
-13 5 5 75.69 29.58
-8 13 5 86.33 32.06
-5 -8 5 49.5 18.26
-8 13 6 -44.97 29.51
-13 5 6 24.94 23.19
-5 -8 6 -13.12 15.85
-13 5 7 -50.01 33.98
5 8 7 -37.46 35.69
-4 -9 -7 -43.94 33.94
9 -13 -7 24.48 36.72
9 -13 -6 8.43 24.65
-9 13 -5 13.83 17.08
-13 4 -5 -14.76 23.64
-4 -9 -5 1.58 20.05
9 -13 -5 28.81 20.95
-13 4 -5 -1.92 10.42
-13 4 -4 -4.04 22.61
-13 4 -4 109.77 17.92
9 -13 -4 70.46 25.62
13 -4 -4 45.44 8.96
4 9 -4 95.97 23.47
-9 13 -4 72.8 25.73
13 -4 -4 148.34 35.37
4 9 -3 10.62 11.91
9 -13 -3 15.32 11.9
9 -13 -3 4.61 15.89
-13 4 -3 -20.54 22.47
13 -4 -3 18 12.49
13 -4 -3 1.79 17.67
4 9 -3 17.58 14.55
-9 13 -3 -5.35 17.4
4 9 -2 60.66 20.14
-9 13 -2 44.71 22.01
-13 4 -2 46.31 26.66
9 -13 -2 35.72 14
9 -13 -2 36.65 15.81
4 9 -2 61.43 13.46
13 -4 -2 58.91 19.74
4 9 -1 651.2 48.35
9 -13 -1 695.71 50.09
-9 13 -1 678.11 53.09
13 -4 -1 714.84 53.14
-13 4 -1 656.38 56.08
4 9 -1 660.11 33.51
9 -13 0 1236.99 67.59
13 -4 0 1167.76 68.47
-9 13 0 1164.99 42.17
-9 13 0 1227.79 68.68
13 -4 0 1208.78 50.91
-13 4 0 1189.32 68.39
-13 4 0 1189.64 51.46
-13 4 1 627.61 39.28
-9 13 1 616.22 41.34
-9 13 1 674.17 49.76
-13 4 1 617.53 44.2
-13 4 1 666.84 50.67
-4 -9 2 49.52 11.46
-13 4 2 62.98 20.78
-9 13 2 57.57 17.65
-9 13 2 65.09 18.52
-13 4 2 53.77 19.27
-4 -9 3 4.45 7.64
-9 13 3 -16.9 13.05
9 -13 3 3.44 7.64
9 -13 3 7.89 5.89
-9 13 3 -25.66 20.78
-13 4 3 23.31 17.91
4 9 4 87.19 14.4
-9 13 4 126.09 32.52
9 -13 4 128.79 17.23
-9 13 4 86.41 17.15
-4 -9 4 130.36 20.85
-13 4 4 117.13 27.72
-13 4 5 -1.1 18.55
-9 13 5 45.72 31.93
-4 -9 5 20.73 14.5
-9 13 6 50.13 32.31
-13 4 6 -18.53 23.93
4 9 7 45.32 37.46
-13 4 7 59.16 34.25
10 -13 -7 30.97 34.33
-3 -10 -7 -23.66 30.55
-3 -10 -6 6.3 25.43
10 -13 -6 36.17 28.6
-3 -10 -5 23.46 18.14
10 -13 -5 22.37 19.81
-13 3 -5 11.6 11.2
-10 13 -5 31.22 21.91
-13 3 -4 108.2 19.93
10 -13 -4 91.55 30.36
-13 3 -4 101.35 32.98
-10 13 -4 49.31 24.39
3 10 -4 130.88 28.16
-13 3 -3 -11.53 20.13
10 -13 -3 32.94 20.41
3 10 -3 25.72 18.87
10 -13 -3 11.03 13.15
3 10 -3 9 11.38
13 -3 -3 24 14.45
-10 13 -3 26.17 21.06
10 -13 -2 324.31 36.1
13 -3 -2 392.35 41.39
3 10 -2 342.29 36.88
10 -13 -2 290.22 33.3
3 10 -2 326.79 26.43
10 -13 -2 343.9 34.17
-10 13 -2 311.84 39.98
-13 3 -2 281.48 45.09
13 -3 -1 452.87 43.97
3 10 -1 349.55 37.37
10 -13 -1 452.7 41.12
10 -13 -1 377.98 37.79
3 10 -1 439.44 27.05
-13 3 -1 411.46 45.99
-10 13 -1 424.06 44.88
-13 3 0 -1.6 18.35
13 -3 0 -14.12 20.33
10 -13 0 33.17 19.82
10 -13 0 21.78 17.51
13 -3 0 4.95 10.34
-10 13 0 -2.99 8.14
-10 13 0 -10.15 16.1
-13 3 1 359.28 35.02
-13 3 1 468.32 44.44
-13 3 1 441.1 34.11
10 -13 1 483.72 21.22
-10 13 1 479.93 44.39
-10 13 1 459.5 35.9
-10 13 2 343.89 37.46
10 -13 2 247 14.41
10 -13 2 250.75 12.59
-13 3 2 298.95 32.39
-10 13 2 318.15 35.45
-13 3 2 324.52 35.99
-3 -10 3 9.73 7.5
-10 13 3 9.14 11.56
10 -13 3 2.69 5.6
-10 13 3 -6.45 14.57
-13 3 3 9.73 16.03
-10 13 4 115.88 18.69
3 10 4 128.87 27.72
10 -13 4 118.44 18.01
-13 3 4 73.93 22.88
-10 13 4 136.54 31.61
-3 -10 4 105.2 18.72
3 10 4 115.91 16.57
-10 13 5 -35.02 30.97
-3 -10 5 36.8 15.61
-13 3 5 -0.81 19.42
-10 13 6 -4.26 23.37
-13 3 6 0.82 23.14
3 10 7 32.6 33.28
-13 3 7 24.07 28.57
11 -13 -7 40.9 34.2
-2 -11 -7 74.05 39.04
11 -13 -6 41.36 25.16
-2 -11 -6 48.83 32.47
-11 13 -5 -1.87 22.31
11 -13 -5 -34.39 26.18
-13 2 -5 7.49 12.3
-2 -11 -5 -9.82 18.75
13 -2 -4 23.06 10.8
-13 2 -4 12.28 18.95
2 11 -4 -13.09 15.09
-13 2 -4 32.58 13.09
-11 13 -4 14.07 18.93
-13 2 -3 84.15 35.54
11 -13 -3 135.1 22.65
11 -13 -3 176.85 33.56
-11 13 -3 171.21 35.02
2 11 -3 141.06 21.85
13 -2 -3 111.03 22.77
2 11 -3 151.96 28.14
11 -13 -2 12.53 16.26
13 -2 -2 -15.51 16.27
11 -13 -2 -3.98 12.6
2 11 -2 4.84 7.32
-11 13 -2 25.73 22.35
-13 2 -2 20.83 24.11
2 11 -2 15.65 13.1
11 -13 -1 243.28 30.75
2 11 -1 218.18 31.87
2 11 -1 223.85 18.78
-13 2 -1 203.19 36.41
-11 13 -1 177.99 32.01
13 -2 -1 243.76 33.42
11 -13 -1 205.78 31.19
13 -2 0 20.31 19.11
11 -13 0 25.87 11.03
-11 13 0 39.82 21.05
11 -13 0 38.11 16.47
-11 13 0 48.41 12.51
2 11 0 10.88 15.93
-13 2 0 -16.5 16.9
2 11 1 238.5 31.5
-13 2 1 224.21 25.64
-13 2 1 220.52 31.88
-11 13 1 208.35 25.05
11 -13 1 236.62 16.75
-11 13 1 197.89 30.27
2 11 2 -0.74 15.03
-11 13 2 1.96 14.41
-13 2 2 18.13 13.64
11 -13 2 6.64 2.78
-11 13 2 -11.62 13.89
11 -13 2 0.48 3.63
2 11 3 105.21 26.49
-11 13 3 146.85 32.05
-13 2 3 146.3 24.68
-2 -11 3 174.69 20.27
-11 13 3 168.18 25.73
11 -13 4 24.19 11.23
2 11 4 24.57 19.73
-2 -11 4 19.11 10.56
-11 13 4 -17.75 21.87
-11 13 4 -1.4 9.91
-13 2 4 52.9 22.13
-11 13 5 13.78 22.64
-13 2 5 16.64 17.55
-2 -11 5 -14.47 12.07
-11 13 6 28.11 31.6
-13 2 6 0.02 19.51
-13 2 7 -6.75 21.07
-1 -12 -7 -17.57 35.66
-1 -12 -6 61.59 33.05
12 -13 -6 -11.13 21.65
-1 -12 -5 11.06 18.16
-12 13 -5 12.8 24.59
-13 1 -5 8.8 13.22
12 -13 -5 -20.52 24.73
-12 13 -4 16.97 22.39
13 -1 -4 33.14 12.81
12 -13 -4 -12.3 18.36
1 12 -4 49.05 21.15
-12 13 -3 122.39 32.76
13 -1 -3 105.28 24.08
1 12 -3 78.39 15.37
1 12 -3 60.89 19.76
-13 1 -3 146.7 35.6
12 -13 -3 115.95 30.26
12 -13 -3 77.97 17.43
-13 1 -2 14.54 17.84
-12 13 -2 32.99 19.68
1 12 -2 30.66 18.24
12 -13 -2 60.11 17.47
13 -1 -2 34.74 22.13
12 -13 -2 28.06 14.58
1 12 -2 43.72 10.58
1 12 -1 951.85 37.07
-13 1 -1 989.2 67.57
12 -13 -1 932.61 53.58
12 -13 -1 910.21 55.36
12 -13 -1 901.05 59.06
1 12 -1 852.72 58.54
13 -1 -1 923.27 63.51
-12 13 -1 861.06 63.96
1 12 0 205.56 33.22
-13 1 0 207.35 32.96
-12 13 0 186.08 19.58
12 -13 0 216.24 22.85
-12 13 0 202.1 32.18
12 -13 0 190.84 20.87
1 12 1 906.69 61.68
-13 1 1 995.47 62.5
-12 13 1 938.66 50.86
12 -13 1 940.01 35.21
12 -13 1 907.32 31.5
-13 1 1 894.9 49.6
-12 13 1 901.62 59.83
1 12 2 25.63 17.67
-12 13 2 45.99 18.1
-13 1 2 45.67 15.34
-12 13 2 20.99 16.52
12 -13 2 33.94 6.59
1 12 3 113.45 25.91
-13 1 3 105.47 24.58
-12 13 3 82.67 20.34
-12 13 3 86.26 25.83
-1 -12 3 91.62 13.89
-1 -12 4 9.04 6.99
-13 1 4 17.01 15.15
1 12 4 31.93 19.58
-12 13 4 55.96 25.93
-12 13 4 18.32 10.78
-12 13 5 -5.42 24.31
-13 1 5 30.7 20.1
-1 -12 5 10.46 10.43
-12 13 6 43.77 29.16
-13 1 6 -3.05 18.83
-13 1 7 -25.9 26.11
0 -13 -7 -10.66 27.45
0 -13 -6 -41.86 26.52
13 -13 -6 16.01 25.12
-13 13 -5 -0.86 21.15
-13 0 -5 74.94 21.45
13 -13 -5 -1.54 21.69
0 -13 -5 40.84 24.56
-13 13 -4 21.7 19.26
0 13 -4 10.45 18.65
13 0 -4 27.61 14.18
13 -13 -4 40.22 20.16
13 -13 -3 55.94 25.89
13 -13 -3 62.25 16.76
-13 13 -3 70.94 26.16
0 13 -3 88.99 28.12
13 0 -3 80.52 27.15
-13 0 -3 75.68 32.29
0 13 -2 207.36 19.07
13 -13 -2 144.81 29.53
0 13 -2 223.04 35.15
-13 0 -2 145.91 31.73
-13 13 -2 149.47 33.9
13 -13 -2 139.41 27.23
13 0 -2 204.1 34.09
0 13 -1 248.75 36.34
13 -13 -1 259.11 30.98
-13 0 -1 258.44 39.49
-13 13 -1 334.07 44.2
13 -13 -1 276.34 35.16
0 13 -1 299.38 21.14
0 13 0 379.26 40.18
13 -13 0 403.22 30.53
13 -13 0 401.48 29.71
-13 0 0 442.85 44.6
-13 13 0 393.66 45.32
-13 13 0 406.34 28.7
0 13 1 291.79 37.97
-13 13 1 305.63 30.89
13 -13 1 266.46 20.58
13 -13 1 286.62 17.54
-13 13 1 209.1 32.72
-13 0 1 214.21 26.46
0 13 2 167.01 28.38
-13 13 2 149.95 26.64
13 -13 2 191.69 16.21
-13 0 2 183.46 25.03
-13 13 2 170.61 27.33
0 13 3 97.34 23.32
-13 13 3 66.18 22.87
-13 13 3 108.12 22.89
-13 0 3 74.44 20.27
0 -13 3 66.99 12.22
0 13 4 -0.48 15.71
-13 13 4 -4.48 9.99
0 -13 4 17.83 8.84
-13 0 4 12.31 14.3
-13 0 5 21.59 20.56
-13 13 5 20.32 27.01
-13 13 6 39.99 27.33
-13 0 6 32.03 24.54
-13 0 7 -7.89 23.87
1 -14 -7 -26.66 35.75
1 -14 -6 31.03 30.91
14 -13 -6 25.08 30.27
1 -14 -5 26.8 20.67
-13 -1 -5 36.88 20.09
14 -13 -5 65.62 32.11
-14 13 -5 -3.44 24.37
-14 13 -4 108.66 33.85
14 -13 -4 155.08 38.48
13 1 -4 75.81 18.16
-1 14 -4 119.54 28.86
14 -13 -3 138.03 34.06
14 -13 -3 104.09 22.37
-14 13 -3 105.64 28.82
13 1 -3 92.93 29.56
-1 14 -3 103.84 27.14
14 -13 -2 200.86 34.8
14 -13 -2 133.67 24.64
-14 13 -2 154.86 31.38
-1 14 -2 189.09 16.94
-1 14 -2 190.2 33.14
-13 -1 -2 193.85 36.42
14 -13 -1 131.97 23.74
-13 -1 -1 147.18 30.48
-1 14 -1 107.3 26.51
-1 14 -1 154.39 15.44
-14 13 -1 151.6 35.16
14 -13 0 50.35 15.83
14 -13 0 53.5 13.14
-1 14 0 53.92 22.04
-14 13 0 62.21 23.76
-14 13 0 41.52 12.18
-1 14 1 149.92 27.15
-14 13 1 153.8 28.44
14 -13 1 142 12.69
-14 13 1 134.38 22.79
14 -13 1 175.29 18.5
-13 -1 1 167 23.61
-14 13 2 193.64 29.23
14 -13 2 186.65 17.31
-1 14 2 169.06 29.66
-14 13 2 174.53 28.39
-13 -1 2 207.35 27.78
-14 13 3 159.69 32.43
-1 14 3 93.08 25.61
-14 13 3 111.76 24.65
-13 -1 3 86.28 20.79
-1 14 4 87.08 25.36
-13 -1 4 113.44 26.31
1 -14 4 99.55 15.52
-14 13 4 59.3 16.76
-14 13 4 111.3 32.09
-14 13 5 51.36 29.07
-13 -1 5 22.02 17.23
-14 13 6 -25.99 26.73
-13 -1 6 22.71 20.25
-13 -1 7 2.58 21.46
2 -14 -7 29.61 36.69
2 -14 -6 -29.92 25.62
14 -12 -6 -17.39 25.99
-2 14 -5 30.36 17.02
-2 14 -5 11.18 17.88
-14 12 -5 42.33 28.11
14 -12 -5 45.98 31.4
2 -14 -5 8.14 21.3
-12 -2 -5 47.81 20.14
-14 12 -4 67.18 29.29
14 -12 -4 81.86 33.49
12 2 -4 78.23 20.74
-2 14 -4 70.33 22.53
14 -12 -3 -6.61 20.19
-2 14 -3 -17.25 19.3
14 -12 -3 7.21 11.2
-14 12 -3 14.26 21.39
12 2 -3 15.39 17.52
14 -12 -2 106.94 25.07
-14 12 -2 126.63 30.7
14 -12 -2 94.41 20.16
-2 14 -2 102.71 26.01
-2 14 -2 114.88 11.89
12 2 -2 100.53 27.08
14 -12 -1 57.57 18.04
14 -12 -1 60.04 21.15
-14 12 -1 45.43 23.9
-2 14 -1 78.34 22.97
14 -12 0 284.42 25.56
-2 14 0 276.5 37.33
14 -12 0 291.14 26.79
-14 12 0 276.27 36.92
-14 12 0 264.7 23.68
-12 -2 1 51.42 15.72
-2 14 1 60.51 20.71
14 -12 1 46.35 7.19
-14 12 1 73.83 24.66
-14 12 1 51.35 12.83
14 -12 1 62.05 11.01
-14 12 2 131.52 25.67
-2 14 2 119.12 24.34
-14 12 2 106.76 24.56
-12 -2 2 132.06 23.29
14 -12 2 110.46 15.38
-2 14 3 20.43 15.02
-14 12 3 17.02 14.22
-14 12 3 16.21 15.6
-2 14 3 14.18 17.23
-12 -2 3 7.34 10.98
-14 12 4 20.41 10.49
-2 14 4 59.58 20.51
2 -14 4 72.76 12.5
-14 12 4 40.14 21.11
-12 -2 4 65.42 22.79
-14 12 5 17.63 21.74
-12 -2 5 44.32 21.76
-2 14 6 40.43 40.38
-14 12 6 20.49 26.22
-12 -2 6 28.86 18.51
-12 -2 7 -33.4 28.47
3 -14 -7 13.14 34.11
14 -11 -6 -33.18 36.28
3 -14 -6 43.91 26.67
14 -11 -5 16.56 22.41
-3 14 -5 18.84 19.61
-11 -3 -5 -2.97 20.05
-3 14 -5 26.45 16.63
-14 11 -5 22.08 20.45
3 -14 -5 56.87 24.05
-14 11 -4 67.9 29.64
14 -11 -4 91.9 29.17
-3 14 -4 116.51 31.49
11 3 -4 93.12 21.72
11 3 -3 14.11 19.4
14 -11 -3 10.19 18.13
14 -11 -3 -15.23 12.39
-3 14 -3 39.7 24.87
-14 11 -3 -4.55 20.41
-14 11 -2 13.39 21.51
-3 14 -2 18.41 4.62
14 -11 -2 1.13 14.5
-3 14 -2 39.67 20.52
11 3 -2 27.21 20.48
14 -11 -2 27.29 12.6
-14 11 -1 166.61 33.41
-3 14 -1 190.13 31.87
14 -11 -1 157.43 28.47
14 -11 -1 210.52 27.77
-14 11 0 -1.91 7.9
-14 11 0 22.35 16.07
14 -11 0 19.88 11.26
-3 14 0 15.64 15.52
14 -11 0 8.52 9.12
-14 11 1 148.08 27.17
14 -11 1 170.66 18.22
-3 14 1 155.23 26.74
-14 11 1 179.98 24.06
14 -11 2 28.57 10.52
-14 11 2 12.31 14.59
-3 14 2 19.27 16.29
-11 -3 2 32.56 14.33
-14 11 2 35.65 16
-3 14 3 -5.35 12.62
-14 11 3 6.83 13.99
-14 11 3 7.9 16.16
-11 -3 3 7.22 12.65
-14 11 4 79.07 28.72
-14 11 4 25.25 10.67
-3 14 4 112.54 24.36
3 -14 4 98.62 14.15
-11 -3 4 110.16 23.9
-14 11 5 23.68 20.85
-11 -3 5 10.81 17.83
-11 -3 6 10.52 18.41
-3 14 6 -56.08 39.44
-14 11 6 33.45 32.61
4 -14 -7 -7.45 29.32
14 -10 -6 -1.72 24.17
-10 -4 -6 -12.95 18.67
4 -14 -5 30.35 21.75
-14 10 -5 8 23.48
-10 -4 -5 10.62 17.97
-4 14 -5 29.91 20.26
14 -10 -5 67.13 31.17
-4 14 -4 62.61 22.77
-4 14 -4 80.79 22.86
10 4 -4 87 21.07
-14 10 -4 24.8 24.7
14 -10 -4 59.62 29.05
4 -14 -4 45.44 19.22
-14 10 -3 8.47 19.16
-4 14 -3 12.32 15.85
14 -10 -3 0.68 11.06
14 -10 -3 0.57 18.72
10 4 -3 33.69 22.16
-14 10 -2 136.47 33.71
14 -10 -2 79.71 18.38
14 -10 -2 102.4 23.61
10 4 -2 108.33 24.97
-4 14 -2 101.2 24.72
14 -10 -1 92.98 22.57
14 -10 -1 75.77 18.1
-4 14 -1 71.46 21.86
-14 10 -1 115.52 30.37
10 4 -1 87.32 22.73
14 -10 0 123.17 18.26
-14 10 0 127.13 17.54
-14 10 0 119.36 17.54
-4 14 0 117.94 27.46
14 -10 0 116.91 17.55
-14 10 0 121.86 27.01
-14 10 1 61.5 16.92
14 -10 1 69.38 12.22
-4 14 1 63.15 20.1
-14 10 1 124.56 29.78
-14 10 1 76.72 17.7
-14 10 2 81.08 21.92
14 -10 2 89.56 16.63
-14 10 2 75.37 21.34
-4 14 2 76.77 20.61
-4 14 2 80.55 19.39
-10 -4 2 102.69 19.5
4 -14 3 9.58 3.76
-4 14 3 33.83 16.41
-14 10 3 8.68 13.57
-14 10 3 16 16.89
-10 -4 3 13.94 11.95
-14 10 4 44.89 26.01
-4 14 4 42.66 16.91
-14 10 4 25.52 7.95
4 -14 4 50.61 11.09
-10 -4 4 34.53 16.09
-14 10 5 60.21 26.64
-4 14 5 81.16 33.98
-10 -4 5 2.53 15.71
-14 10 6 18.83 24.88
-10 -4 6 -5.11 16.2
-4 14 6 32.11 30.2
5 -14 -7 -21.51 28.8
-9 -5 -6 -32.3 24.22
14 -9 -6 -60.69 33.84
5 -14 -6 -30.41 22.12
14 -9 -5 27.72 28.97
-9 -5 -5 52.94 21.8
-14 9 -5 37.6 26.85
-5 14 -5 23.87 22.83
5 -14 -5 41.87 23.76
-5 14 -4 27.69 17.5
-5 14 -4 52.89 21.35
14 -9 -4 75.48 32.54
9 5 -4 84.35 23.81
5 -14 -4 4.94 16.53
-14 9 -4 23.9 25.11
-14 9 -3 28.97 24.37
14 -9 -3 45.5 22.82
14 -9 -3 19.09 13.24
9 5 -3 41.38 16.85
9 5 -3 19.92 18.99
-5 14 -3 47.1 20.45
14 -9 -2 8.54 11.48
-14 9 -2 24.83 25.03
-5 14 -2 21.79 21.64
9 5 -2 12.3 13.88
14 -9 -2 15 15.32
5 -14 -1 320.98 37.67
14 -9 -1 297.46 30.83
-5 14 -1 286.78 36.72
-14 9 -1 296.55 39.5
-14 9 -1 295.58 17.13
9 5 -1 282.75 25.87
9 5 -1 389.82 39.58
14 -9 -1 330.99 37.18
-5 14 0 54.87 19.29
14 -9 0 60.6 22.84
14 -9 0 53.36 14.27
-14 9 0 53.41 13.01
14 -9 0 49.89 13.05
-14 9 0 49.87 22.15
-14 9 0 72.98 14.7
-5 14 1 270 33.74
-14 9 1 293.3 36.11
-14 9 1 260.1 29.35
-14 9 1 292.76 29.59
14 -9 1 304.28 24.67
-9 -5 2 6.15 8.96
-5 14 2 45.47 17.86
-5 14 2 49.32 20.62
-14 9 2 41.06 17.45
-14 9 2 16.3 15.27
-14 9 3 34.76 16.02
5 -14 3 20.08 4.19
-5 14 3 13.94 17.25
-14 9 3 1.01 16.12
5 -14 3 22.33 10.76
-9 -5 3 9.98 11.75
-5 14 4 27.75 14.75
-14 9 4 31.05 21.15
5 -14 4 31.9 9.82
-9 -5 4 40.12 18.84
-9 -5 5 12.25 14.19
-5 14 5 22.06 26.14
-14 9 5 4.17 18.19
-14 9 6 -13.75 25.42
-9 -5 6 -1.48 16.44
-5 14 6 -15.63 32.24
6 -14 -7 -5.82 26.3
-8 -6 -6 49.95 27.8
14 -8 -6 29.15 30.13
6 -14 -6 30.48 25.48
-6 14 -5 -8.64 16.52
-14 8 -5 7.27 21.64
14 -8 -5 -6.07 25.81
-8 -6 -5 18.83 18.7
14 -8 -4 135.29 34.25
-6 14 -4 67.12 22.5
6 -14 -4 78.43 26.26
-14 8 -4 66.14 27.39
8 6 -4 93.06 23.01
-14 8 -4 65.54 11.87
14 -8 -3 145.05 30.3
8 6 -3 130.9 23.94
14 -8 -3 112.87 20.05
-6 14 -3 108.92 25.4
-14 8 -3 79.58 8.17
-14 8 -3 115.51 34.38
8 6 -3 127.53 28.47
-6 14 -3 88.46 27.2
6 -14 -2 15.57 11.98
14 -8 -2 17.33 14.34
-14 8 -2 55.69 24.6
14 -8 -2 31.16 15.12
-6 14 -2 76.51 26.16
-14 8 -1 105.16 30.24
6 -14 -1 88.8 20.77
8 6 -1 101.3 16.6
14 -8 -1 110.52 20.85
-6 14 -1 93.19 25.3
-14 8 -1 71.83 11.08
14 -8 -1 137.84 23.48
-6 14 0 234.94 33.5
-14 8 0 231.07 33.52
-14 8 0 214.39 22.96
14 -8 0 213.47 22.57
14 -8 0 253.28 34.66
-14 8 0 221.94 24.96
-14 8 1 70.53 19.31
-14 8 1 111.86 21.16
-6 14 1 58.81 18.68
-6 14 1 89.26 23.37
-14 8 1 108.74 19.37
14 -8 1 85.1 14.46
-8 -6 2 37.02 12.24
-6 14 2 29.7 20.23
-14 8 2 15.61 14.87
-14 8 2 24.47 15.31
-14 8 3 115.14 22.68
-6 14 3 136.81 24.01
6 -14 3 94.56 15.98
-8 -6 3 117.37 21.06
6 -14 3 73.47 6.68
-14 8 3 122 27.42
6 -14 4 94.29 13.4
-14 8 4 105.56 28.21
-6 14 4 48.72 16.13
-8 -6 4 73.57 18.59
-14 8 5 40.44 24.9
-8 -6 5 -4.24 14.08
-6 14 5 -20.93 26.92
-6 14 6 14.7 26.3
-14 8 6 -4.56 23.45
-8 -6 6 9.22 19.44
-14 8 7 -2.65 26.79
7 -14 -7 -9.28 30.14
14 -7 -6 21.19 28.71
7 -14 -6 -33.66 27.06
-7 -7 -6 26.23 25.45
7 -14 -5 53.62 25.76
14 -7 -5 3.43 23.62
-7 14 -5 39.43 20.57
-7 -7 -5 -5.98 19.77
-14 7 -5 11.25 20.52
-14 7 -4 59.49 27.06
7 7 -4 119.17 26.03
7 -14 -4 60.26 22.89
-14 7 -4 86.33 14.42
14 -7 -4 69.48 26.36
-7 14 -4 85.81 24.43
-7 14 -3 -8.94 16.11
14 -7 -3 19.9 13.36
7 -14 -3 -6.88 13.6
-7 14 -3 -5.42 13.03
7 7 -3 45.89 19.77
14 -7 -3 26.97 18.04
-14 7 -3 13.96 6.22
-14 7 -3 28.96 23.03
14 -7 -2 80 22.06
7 -14 -2 73.74 20.18
-7 14 -2 68.88 20.53
14 -7 -2 64.46 19.84
-14 7 -2 70.07 27.98
7 7 -2 63.69 16.84
-7 14 -2 41.78 19.14
14 -7 -1 686.97 53.01
7 -14 -1 630.66 49.35
-7 14 -1 645.01 50.12
-7 14 -1 583.57 51.52
-14 7 -1 657.42 57.85
-14 7 -1 676.51 30.63
14 -7 -1 659.88 45.11
7 7 -1 671.26 37.17
-7 14 0 826.77 55.66
7 -14 0 785.46 56.76
-7 14 0 841.84 37.97
-14 7 0 784.57 59.1
-14 7 0 834.19 44.06
14 -7 0 823.89 43.02
-7 14 0 868.42 60.2
-14 7 0 837.22 44.36
14 -7 0 864.76 60.32
-7 14 1 675.44 52.5
-14 7 1 658.1 52.45
-14 7 1 634.62 44.2
-14 7 1 651.97 42.29
-7 14 1 591.58 44.82
14 -7 1 644.78 37.33
-14 7 2 40.43 17.36
-7 -7 2 57.03 12.15
-14 7 2 36.64 15.06
-7 14 2 60.27 19.44
-14 7 3 18.54 15.64
7 -14 3 -0.78 8.65
-7 14 3 11.15 11.69
-14 7 3 -4.95 16.49
7 -14 3 9.52 2.93
-7 -7 3 30.21 15.24
-7 14 4 68.72 18.13
7 -14 4 77.85 12.61
-7 -7 4 73.7 18.54
-14 7 4 45.74 21.07
-7 14 4 72.53 25.79
-7 14 5 13.5 22.78
-14 7 5 31.03 21.72
-7 -7 5 6.54 12.68
-7 -7 6 3.55 13.91
-7 14 6 -17.96 31.2
-14 7 6 26.03 21.96
-14 7 7 57.98 33.83
8 -14 -7 35.92 27.16
-6 -8 -6 -22.74 25.99
8 -14 -6 -27.81 27.92
14 -6 -5 -4.32 21.48
8 -14 -5 -17.59 18.19
-8 14 -5 -4.56 19.37
-14 6 -5 -1.2 20.32
-6 -8 -5 8.43 17.82
-8 14 -4 44.63 23.31
-14 6 -4 44.66 11.62
-14 6 -4 42.29 27.03
14 -6 -4 22.16 19.99
6 8 -4 51.25 21.29
8 -14 -4 36.31 20.31
6 8 -3 177.74 30.12
-14 6 -3 184.04 39.82
14 -6 -3 165.61 32.6
-14 6 -3 135.37 14
-8 14 -3 161.74 32.52
8 -14 -3 147.59 27.12
14 -6 -3 173.73 24.42
14 -6 -2 107.54 23.75
-8 14 -2 109.37 30.1
6 8 -2 109.9 17.49
8 -14 -2 121.51 22.92
14 -6 -2 134.94 26.9
6 8 -2 87.71 20.8
-14 6 -2 129.77 29.76
-8 14 -2 125.97 27.77
14 -6 -1 518.15 47.4
-8 14 -1 529.26 48.82
8 -14 -1 522.67 46.11
-14 6 -1 571.06 55.26
-8 14 -1 520.46 44.49
6 8 -1 522.72 32.76
-8 14 0 240.37 31.61
-14 6 0 254.52 38.11
14 -6 0 232.43 32.66
8 -14 0 272.39 33.55
-14 6 0 242.72 25.22
-8 14 0 262.9 35.97
-8 14 0 270.01 21.53
14 -6 0 256.3 24.66
-14 6 0 279.75 27.64
-8 14 1 515.12 45.5
-8 14 1 540.9 39.53
-14 6 1 529.67 47.39
-14 6 1 498.91 37.43
14 -6 1 488.43 34.08
-14 6 2 111.38 25.69
-8 14 2 143.06 23.03
-14 6 2 119.3 22.45
-8 14 2 102.91 24.42
-6 -8 2 131.94 18.7
-14 6 3 148.07 27.53
-8 14 3 168.33 31.92
8 -14 3 122.92 16.17
-8 14 3 188 27.77
-14 6 3 194.12 26.67
-6 -8 3 164.31 22.47
-8 14 4 4.09 10.97
-6 -8 4 34.53 13.01
-8 14 4 49.01 30.71
8 -14 4 21.74 6.39
-14 6 4 43.24 20.58
-8 14 5 -19.72 24.06
-6 -8 5 47.83 18.85
-14 6 5 46.24 26.05
-14 6 6 0.02 22.56
-8 14 6 19.89 28.63
-14 6 7 49.38 35.63
9 -14 -7 47.49 32.83
9 -14 -6 -23.84 24.6
-5 -9 -6 -7.66 21.67
-14 5 -5 33.27 23.59
9 -14 -5 53.98 25.36
14 -5 -5 21 25.82
-9 14 -5 2.76 18.27
-5 -9 -5 34.08 21.95
-14 5 -4 57.95 13.68
-14 5 -4 53.95 25.8
14 -5 -4 64.97 28.01
5 9 -4 76.41 23.7
9 -14 -4 124.34 32.84
-9 14 -4 59.76 22.73
-14 5 -3 100.9 31.51
5 9 -3 125.47 26.31
9 -14 -3 100.78 26.23
14 -5 -3 136.84 29.2
14 -5 -3 76.03 17.91
-9 14 -3 140.27 30.43
-9 14 -2 -16.5 17.98
-14 5 -2 52.38 24.43
14 -5 -2 -7.27 16.38
9 -14 -2 10.01 11.94
5 9 -2 21.93 12.81
5 9 -2 27.59 11.53
9 -14 -1 86.38 22.64
-9 14 -1 34.43 4.75
-9 14 -1 50.24 18.71
-14 5 -1 59.79 26.8
14 -5 -1 43.25 16.27
5 9 -1 55.91 11.68
-14 5 0 34.5 21.76
-14 5 0 24.64 12.93
14 -5 0 30.01 13.53
-14 5 0 27.01 11.46
-9 14 0 12.02 9.36
-9 14 0 17.64 18.83
14 -5 0 10.87 15.97
-14 5 1 68.13 17.63
14 -5 1 49.35 13.01
-14 5 1 53.42 23.84
-9 14 1 64.36 15.47
-9 14 1 63.41 18.56
-14 5 1 31.84 14.08
-5 -9 2 18.47 11.13
-9 14 2 25.03 16.47
-14 5 2 -0.1 13.21
-9 14 2 9.57 14.22
-14 5 2 22.48 15.22
-14 5 3 93.84 23.63
9 -14 3 101.5 14.91
-9 14 3 143.18 31.47
9 -14 3 87.52 8.24
-9 14 3 116.49 22.99
-5 -9 3 102.56 18.27
-5 -9 4 81.47 18.45
9 -14 4 68.56 12.73
-9 14 4 113.14 30.48
-14 5 4 25.85 19.9
-9 14 4 89.35 17.86
-14 5 5 38.39 23.35
-5 -9 5 24.56 15.23
-9 14 6 14.94 26.73
-14 5 6 1.88 21.79
-14 5 7 -18.96 26.65
10 -14 -7 36.78 33.41
-4 -10 -7 -35.36 33.17
-4 -10 -6 6.29 22.12
10 -14 -6 42.9 30.63
-4 -10 -5 27.57 24.34
-14 4 -5 -17.09 21.38
-10 14 -5 30.65 24.99
10 -14 -5 39.37 27.34
-14 4 -4 26.58 24.79
-14 4 -4 1.51 8.21
10 -14 -4 -26.93 21.75
4 10 -4 15.22 16.72
-10 14 -4 -45.48 27.09
-14 4 -3 15.47 19.1
10 -14 -3 5.97 12.93
10 -14 -3 21.87 21.06
14 -4 -3 0.07 11.35
4 10 -3 -1.03 11.36
4 10 -3 -2.55 17.57
-10 14 -3 33.53 20.35
-14 4 -2 52.29 27.76
14 -4 -2 56.74 22.52
10 -14 -2 32.5 15.27
10 -14 -2 50.5 18.66
4 10 -2 33.6 12.05
-10 14 -2 49.24 23.77
4 10 -2 43.92 19.86
4 10 -1 224.63 32.33
10 -14 -1 213.02 30.61
-10 14 -1 217.81 33.84
14 -4 -1 193.13 30.64
-14 4 -1 226.4 38.06
4 10 -1 227.83 20.53
-10 14 -1 187.18 11.72
-10 14 0 794.87 58.17
-14 4 0 810.26 61.03
-10 14 0 813.84 37.38
-14 4 0 851.21 46.47
-14 4 1 243.24 34.88
-10 14 1 176.27 22.93
-10 14 1 227 32.19
-14 4 1 164.98 22.86
-10 14 2 35.12 13.87
-14 4 2 78.1 21.53
-14 4 2 24.99 13.51
-10 14 2 30.59 14.78
-4 -10 3 0.66 8.65
-10 14 3 -14.03 18.18
-10 14 3 -10.87 14.44
10 -14 3 2.05 6.24
10 -14 3 1.01 3.67
-14 4 3 -14.35 14.39
-10 14 4 24.72 14.74
-10 14 4 5.41 18.42
10 -14 4 -2.17 7.76
4 10 4 3.1 16.58
-4 -10 4 21.84 11.8
-4 -10 5 44.66 17.16
-10 14 5 2.09 23.13
-14 4 5 -14.42 20.23
-10 14 6 28.41 29.82
-14 4 6 30.8 25.45
-14 4 7 -41.26 30.8
-3 -11 -7 -2.97 27.06
-3 -11 -6 -40.03 30.04
11 -14 -6 21.44 26.35
-11 14 -5 10.87 21.33
-14 3 -5 -7.12 10.38
-3 -11 -5 17.38 21.53
11 -14 -5 48.4 26.44
11 -14 -4 -10.73 21.16
-14 3 -4 12.64 9.11
-11 14 -4 36.75 20.97
3 11 -4 48.77 19.77
-14 3 -4 42.25 26.09
-14 3 -3 152.02 35.19
11 -14 -3 212.38 27.83
-11 14 -3 308.98 42.97
3 11 -3 190.24 33.59
11 -14 -3 230.32 36.08
3 11 -3 202.36 27.38
14 -3 -3 205.22 29.46
-11 14 -2 33.43 19.28
11 -14 -2 72.85 22.06
11 -14 -2 45.33 15.99
-14 3 -2 60.18 27.58
3 11 -2 48.82 19.3
14 -3 -2 78.59 23.15
3 11 -2 49.8 12.17
3 11 -1 427.11 43.79
-14 3 -1 475.22 50.6
14 -3 -1 512 48.78
11 -14 -1 443.99 42.93
-11 14 -1 477.28 48.57
3 11 -1 452.5 27.87
3 11 0 297.66 35.49
-14 3 0 324.76 40.88
-11 14 0 311.86 23.9
-11 14 0 350.02 40.21
-14 3 1 436.93 35.55
-14 3 1 425.4 43.58
11 -14 1 462.93 22.19
-11 14 1 451.65 35.98
-11 14 1 412.89 42.77
11 -14 2 30.76 4.86
-11 14 2 46.72 19.47
-11 14 2 66.97 22.52
-14 3 2 64.95 19.42
-14 3 2 72.9 17.81
11 -14 3 175.78 14.58
-14 3 3 234.3 33.1
-11 14 3 223.57 37.1
-11 14 3 211.68 28.77
-3 -11 3 211.24 22.65
-14 3 4 -5.42 16.03
-3 -11 4 43.3 12.57
11 -14 4 41.3 12.91
-11 14 4 34.01 28.31
-11 14 4 31.76 14.4
3 11 4 22.61 12.68
3 11 4 11.98 15.28
-14 3 5 -6.69 19.58
-11 14 5 24.46 23.64
-3 -11 5 0.7 10.29
-11 14 6 -31.69 28.16
-14 3 6 -27.53 19.91
-14 3 7 4.33 21.74
-2 -12 -7 24.23 28.17
-2 -12 -6 -3.27 24.04
12 -14 -6 7.86 24.14
-2 -12 -5 26.82 22.36
-12 14 -5 32.93 25.06
12 -14 -5 42.37 23.1
-14 2 -5 18.28 13.48
12 -14 -4 20.5 25.27
-14 2 -4 12.8 22.79
-12 14 -4 11.98 20.51
2 12 -4 32.93 22.39
12 -14 -3 51.99 17.43
2 12 -3 57.48 14.93
12 -14 -3 100 28.61
-12 14 -3 59.27 24.25
2 12 -3 80.9 24.65
-14 2 -3 39.36 26.55
14 -2 -3 73.2 22.24
2 12 -2 374.07 41.8
12 -14 -2 402.91 43.74
12 -14 -2 377.58 37.64
14 -2 -2 340.31 46.43
2 12 -2 409.92 29.02
-14 2 -2 423.45 51.87
-12 14 -2 452.85 48.46
12 -14 -1 13.77 12.71
2 12 -1 -8.85 7.87
-12 14 -1 -11.88 19.42
-14 2 -1 15.9 19.63
2 12 -1 -0.34 16.7
-14 2 0 46.89 21.23
-12 14 0 32.4 18.17
12 -14 0 46.33 12.99
2 12 0 57.5 20.72
-12 14 0 45.68 11.77
2 12 1 38.45 21.65
-12 14 1 -5.92 14.83
-14 2 1 2.17 12.03
-14 2 1 -10.58 17.72
12 -14 1 17.25 8.11
-12 14 1 -15.31 12.97
2 12 2 435.77 44.99
-12 14 2 410.25 41.14
-12 14 2 433.23 42.41
12 -14 2 415.91 19.03
-14 2 2 374.69 36.35
-2 -12 3 67.85 14.29
-12 14 3 75.23 20.28
-12 14 3 76.27 25.33
2 12 3 62.06 21.21
-14 2 3 56.77 18.47
-14 2 4 11.49 16.74
2 12 4 34.89 19.08
12 -14 4 37.02 12.86
-12 14 4 37.04 22.06
-12 14 4 30.46 13.35
-2 -12 4 22.44 12.05
2 12 4 9.42 10.86
-12 14 5 26 29.65
-2 -12 5 14.27 12.77
-14 2 5 9.83 20.28
-14 2 6 -62.53 29.2
-12 14 6 22.07 27.28
-14 2 7 38.44 29.67
-1 -13 -7 35.75 34.78
13 -14 -6 -18.96 22.63
-1 -13 -6 22.67 25.04
-1 -13 -5 59.19 25.63
-13 14 -5 20.96 21.69
-14 1 -5 12.17 14.85
13 -14 -5 10.69 22.66
13 -14 -4 110.49 31.51
1 13 -4 156.83 34.25
-13 14 -4 105.97 31.85
13 -14 -3 136.86 31.07
-13 14 -3 106.71 30.34
13 -14 -3 97.44 20.54
14 -1 -3 173.96 33.88
-14 1 -3 86.56 31.16
1 13 -3 74.95 25.06
1 13 -3 96.9 18.05
-14 1 -2 72.31 31.04
1 13 -2 102.67 26.8
13 -14 -2 71.46 21.83
-13 14 -2 105.95 32.12
13 -14 -2 99.6 20.84
14 -1 -2 106.19 28.25
1 13 -2 106.77 15.59
1 13 -1 1560.42 82.41
13 -14 -1 1651.7 75.58
-14 1 -1 1802.27 92.6
-13 14 -1 1648.75 88.65
1 13 -1 1671.15 51.47
13 -14 0 17.29 11.92
13 -14 0 34.22 12.93
-13 14 0 16.26 20.07
-14 1 0 32.94 21.86
-13 14 0 36.73 11.86
1 13 0 30.81 23.3
-14 1 1 1588.99 70.03
13 -14 1 1730.22 50.43
1 13 1 1612.93 83.31
-13 14 1 1588.46 67.22
-13 14 1 1691.79 83.7
-14 1 1 1749.08 84.39
13 -14 1 1669.67 45.31
1 13 2 102.55 26.17
-13 14 2 68.37 20.58
13 -14 2 113.08 12.03
-14 1 2 115.77 21.61
-13 14 2 95.14 24.44
-13 14 3 138.85 27.43
-1 -13 3 85.39 15.09
1 13 3 124.12 28.16
-13 14 3 96.4 27.4
-14 1 3 109.61 24.1
-13 14 4 101.4 21.52
1 13 4 155.03 30.13
-14 1 4 110.55 27.03
-13 14 4 86.79 27.61
-1 -13 4 114.88 18.22
-13 14 5 79.22 31.72
-14 1 5 59.62 22.5
-13 14 6 -1.83 24.25
-14 1 6 17.56 19.07
-14 1 7 -8.95 28.81
0 -14 -7 67.58 40.9
14 -14 -6 13.52 23.94
0 -14 -6 52.48 30.61
14 -14 -5 -2.21 23.48
-14 14 -5 -12.65 23.65
-14 0 -5 16.53 13.87
0 -14 -5 15.54 19.97
14 -14 -4 44.29 25.64
0 14 -4 79.51 27.86
14 0 -4 55.44 16.56
-14 14 -4 32.94 22.64
0 14 -3 67.76 25.76
14 -14 -3 123.24 32.73
14 -14 -3 71.61 19.16
14 0 -3 29.79 20.32
-14 0 -3 115.07 33.05
-14 14 -3 81.13 29.53
0 14 -2 297.46 40.72
14 -14 -2 228.77 34.51
-14 0 -2 242.61 39.75
0 14 -2 225.02 19.52
-14 14 -2 282.58 42.41
-14 0 -1 62.29 27.42
14 -14 -1 68.9 19.26
-14 14 -1 71.88 23.33
0 14 -1 74.17 23.43
0 14 -1 49.1 10.63
0 14 0 212.01 35.11
14 -14 0 191.73 22.93
14 -14 0 200.47 22.61
-14 14 0 239.55 37.24
-14 14 0 186.17 20.84
-14 0 0 173.21 31.82
-14 0 1 76.44 18.46
14 -14 1 57.44 11.36
14 -14 1 51.86 9.66
-14 14 1 33.69 18.58
0 14 1 45.06 20.27
-14 14 1 67.23 18.03
-14 14 2 199.59 32.51
0 14 2 197.55 33.91
-14 14 2 236.47 34.53
14 -14 2 247.74 18.77
-14 0 2 260.75 30.98
0 14 3 95.8 25.19
-14 14 3 69.56 22.69
-14 14 3 60.58 21.62
-14 0 3 80.91 21.93
14 -14 3 89.21 16.08
0 -14 4 42.98 12.77
-14 14 4 56.83 18.26
-14 14 4 55.04 27.58
0 14 4 24.54 19.4
-14 0 4 46.54 19.75
-14 0 5 2.68 16.5
-14 14 5 48.18 26.24
-14 14 6 12.95 24.98
-14 0 6 8.68 19.98
-14 0 7 -5.71 21.95
1 -15 -7 -40.19 32.36
15 -14 -6 -18.62 27.39
1 -15 -6 21.06 21.74
-14 -1 -5 24.02 17.21
1 -15 -5 35.16 26.77
-15 14 -5 10.85 22.17
15 -14 -5 12.22 22.32
14 1 -4 43.29 16.8
15 -14 -4 83.81 32.56
-1 15 -4 83.65 28.03
-15 14 -4 17.86 22.63
15 -14 -3 25 21.5
-1 15 -3 6.64 18.99
-15 14 -3 44.36 24.18
15 -14 -3 17.27 14
-15 14 -2 105.58 26.54
-1 15 -2 173.73 31.99
15 -14 -2 134.24 29.96
-1 15 -2 119.06 14.93
-14 -1 -2 147.8 34.46
15 -14 -1 113.37 22.79
-15 14 -1 93.01 30.14
-1 15 -1 99.19 28.34
-14 -1 -1 67.35 24.77
-15 14 0 59.39 22.18
-1 15 0 66.84 25.03
15 -14 0 34.23 11.91
-15 14 0 44.43 12.81
15 -14 0 63.85 14.88
15 -14 1 107.8 12.09
-1 15 1 152.53 29.27
-15 14 1 127.6 29.7
15 -14 1 113.37 15.89
-15 14 1 142.46 23.05
-15 14 2 120.86 26
-1 15 2 135.05 30.6
-15 14 2 130.23 25.35
15 -14 2 149.34 15.85
-14 -1 2 149.86 25.17
15 -14 3 6.81 9.06
-1 15 3 17.79 14.2
-14 -1 3 43.61 19.77
-15 14 3 29.87 23.58
-15 14 3 62.15 23.75
1 -15 4 40.87 11.34
-15 14 4 46.78 18.16
-1 15 4 84.83 25.64
-14 -1 4 60.99 19.67
-15 14 4 36.21 19.01
-14 -1 5 0.02 15.86
-15 14 5 -19.74 23.37
-15 14 6 41.13 28.84
-14 -1 6 46.14 27.03
-14 -1 7 2.88 27.61
2 -15 -7 -19.5 29.49
15 -13 -6 -1.98 26.22
2 -15 -6 50.32 29.69
-2 15 -5 25.12 20.63
-13 -2 -5 38.94 20.1
-2 15 -5 9.77 15.17
2 -15 -5 55.13 27.76
15 -13 -5 26.83 26.91
-15 13 -5 9.51 23.62
-15 13 -4 36.42 23.98
13 2 -4 9.07 12.83
15 -13 -4 48.05 27.87
-2 15 -4 45.94 24.39
-15 13 -3 19.35 20.98
15 -13 -3 42.83 15.59
-2 15 -3 92.59 28.91
15 -13 -3 105.44 29.78
-2 15 -2 77.48 10.54
15 -13 -2 77.13 24.79
-2 15 -2 39.06 21.31
-15 13 -2 58.62 23.84
15 -13 -2 57.4 18.78
15 -13 -1 143.21 25.8
-15 13 -1 99.5 28.54
-2 15 -1 127.36 27.18
-15 13 0 23.74 11.67
-2 15 0 27.39 20.39
15 -13 0 19.63 13.03
15 -13 0 0.47 8.49
-15 13 0 -13.28 19.91
-15 13 1 166.47 31.17
15 -13 1 140.57 11.96
-2 15 1 150.53 29.58
-15 13 1 121.25 20.8
15 -13 1 157.66 18.1
-2 15 2 43.14 22.75
-15 13 2 27.13 15.52
-15 13 2 87.63 24.37
15 -13 2 70.07 12.64
-13 -2 2 55.73 15.98
-13 -2 3 81.17 21.06
-15 13 3 104.93 25.4
-15 13 3 145.67 32.02
-2 15 3 125.87 26.57
-2 15 3 55.4 20.42
2 -15 4 19.25 8.47
-2 15 4 26.61 19.89
-15 13 4 3.04 16.9
-15 13 4 7.83 10.65
-13 -2 4 8.19 14.03
-13 -2 5 20.87 18.25
-15 13 5 37.58 28.94
-15 13 6 -11.85 24.31
-2 15 6 19.45 38.87
-13 -2 6 16.14 22.39
3 -15 -7 -23.76 30.25
3 -15 -6 -32.43 29.8
15 -12 -6 -15.28 29.45
-3 15 -5 -9.75 18.1
-15 12 -5 2.77 23.22
-3 15 -5 15.61 19.64
3 -15 -5 23.84 21.22
-12 -3 -5 18.69 16.53
15 -12 -5 48.49 26.51
12 3 -4 0.85 14.59
15 -12 -4 40.19 24.25
-15 12 -4 36.9 22.45
-3 15 -4 0.24 18.72
-15 12 -3 170.66 40.32
15 -12 -3 262.86 43.6
15 -12 -3 201.38 27.62
-3 15 -3 260.39 41.96
12 3 -3 197.15 35.31
-15 12 -2 358.71 47.48
15 -12 -2 377.7 43.43
-3 15 -2 331.97 15.61
15 -12 -2 340.82 37.39
-3 15 -2 393.62 45
-3 15 -1 594.5 53.08
-15 12 -1 551.15 53.84
15 -12 -1 526 42.63
-15 12 0 20.03 11.68
-3 15 0 25.07 19.78
15 -12 0 15.09 10.11
15 -12 0 29.55 12.54
-15 12 0 24.24 18.21
-15 12 1 591.98 52.69
-15 12 1 593.28 41.43
15 -12 1 523.23 32.39
-3 15 1 521.73 48.13
-3 15 2 346.16 39.86
15 -12 2 423.39 29.56
-12 -3 2 429.67 36.72
-15 12 2 353.89 37.98
-15 12 2 349.6 39.55
-15 12 3 184.72 29.81
-3 15 3 205.89 34.62
-15 12 3 231.25 35.08
-3 15 3 275.44 32.85
-12 -3 3 174.23 27.21
3 -15 4 18.68 7.43
-3 15 4 19.53 19.25
-15 12 4 39.33 19.8
-15 12 4 1.28 10.39
-12 -3 4 0.96 14.66
-15 12 5 8.93 25.46
-12 -3 5 -2.86 19.09
-3 15 6 37.57 34.7
-15 12 6 22.07 27.5
-12 -3 6 -32.29 26.88
4 -15 -7 26.77 36.37
4 -15 -6 -8.69 26.73
15 -11 -6 -47.69 31.18
4 -15 -5 30.95 20.2
-4 15 -5 31.38 23.93
15 -11 -5 40.32 27.34
-11 -4 -5 34.89 22.49
-15 11 -5 25.92 26.78
-4 15 -4 22.62 20.53
15 -11 -4 53.04 28.09
11 4 -4 55.87 19.79
-15 11 -4 30.76 28.11
15 -11 -3 176.94 33
11 4 -3 145.83 32.48
-15 11 -3 163.26 35.1
15 -11 -3 144.19 23.61
-4 15 -3 190.08 36.51
-4 15 -2 71.71 25.23
15 -11 -2 77.84 20.77
15 -11 -2 111.62 27.87
-15 11 -2 120.34 31.93
15 -11 -1 200.2 26.47
-4 15 -1 218.04 35.2
-15 11 -1 294.68 42.52
-15 11 0 143.55 29.75
15 -11 0 144.96 19.84
-15 11 0 154.63 20.19
-4 15 0 167.49 30.79
15 -11 0 162.13 21.8
-15 11 0 146.6 19.52
-15 11 1 187.71 31.66
-15 11 1 187.71 24.02
-4 15 1 208.9 31.87
-15 11 1 182.31 25.4
15 -11 1 189.02 20.45
-4 15 2 110.79 23.24
15 -11 2 87.25 16.47
-15 11 2 61.38 19.28
-4 15 2 88.75 24.38
-11 -4 2 82.67 17.32
-15 11 2 110.43 21.64
-4 15 3 208.22 32.3
-15 11 3 165.73 32.83
-11 -4 3 178.67 26.79
-15 11 3 206.55 30.26
-15 11 4 21.21 10.65
-4 15 4 -3.8 16.45
4 -15 4 23.11 6.91
-11 -4 4 43.59 18.82
-15 11 4 13.91 22.49
-15 11 5 35.67 27.85
-11 -4 5 69.23 23.54
-15 11 6 -46.45 29.84
-4 15 6 33.34 28.43
-11 -4 6 -25.87 16.88
5 -15 -7 17.88 27.87
-10 -5 -6 -26.21 24.61
15 -10 -6 -23.13 28.33
5 -15 -6 -24.23 30.45
-15 10 -5 17.62 21.78
-5 15 -5 21.91 21.86
15 -10 -5 0.36 24.08
5 -15 -5 23.67 22.11
-10 -5 -5 14.46 19.84
5 -15 -4 26.48 18.35
-5 15 -4 78.74 26.88
10 5 -4 72.82 21.36
-5 15 -4 57.87 20.37
15 -10 -4 68.66 29.89
-15 10 -4 67.82 29.53
15 -10 -3 69.13 16.15
-5 15 -3 104.48 25.7
-15 10 -3 172.25 38.47
10 5 -3 64.16 24.37
10 5 -3 83.55 19.3
15 -10 -3 139.45 29.75
-15 10 -2 90.75 29.87
15 -10 -2 63.01 19.14
15 -10 -2 68.71 20.85
-5 15 -2 82.71 25.53
15 -10 -1 424.03 36.64
-15 10 -1 428.27 50.29
15 -10 -1 442.64 44.38
-5 15 -1 361.37 42.66
-15 10 -1 392.55 20.21
-15 10 0 825.55 42.97
15 -10 0 758.64 43.8
15 -10 0 748.18 40.78
-5 15 0 794.63 59.55
-15 10 0 743.27 60.92
-15 10 0 779.85 42.93
-5 15 1 439.26 44.54
-15 10 1 430.3 46.29
-15 10 1 450.5 36.42
-15 10 1 390.16 36.34
15 -10 1 450.06 30.36
-10 -5 2 52.6 14.94
-5 15 2 65.46 18.58
15 -10 2 44.82 12.87
-15 10 2 68.73 21.88
-5 15 2 80.81 22.88
-15 10 2 55.67 20.44
-15 10 3 87.76 28.03
5 -15 3 60.2 14.49
-15 10 3 97.35 22.98
-10 -5 3 90.73 19.85
-5 15 3 84.27 24.31
-5 15 4 56.79 20.27
-15 10 4 90.72 31.48
-10 -5 4 71.28 19.45
5 -15 4 41.79 8.51
-10 -5 5 24.94 20.16
-15 10 5 9.09 23.34
-5 15 5 59.17 33.24
-10 -5 6 -6.85 14.75
-15 10 6 0.26 22.56
6 -15 -7 -15.69 25.3
15 -9 -6 -21.28 35.13
6 -15 -6 20.71 25.95
-9 -6 -6 7.61 18.67
-6 15 -5 39.6 20.1
15 -9 -5 -1.4 24.97
6 -15 -5 29.02 20.91
-15 9 -5 0.42 24.14
-9 -6 -5 25.33 22.72
-6 15 -4 32.4 19.84
-15 9 -4 42.46 25.69
6 -15 -4 -0.73 14.31
9 6 -4 -7.79 15.42
15 -9 -4 25.65 23.05
-6 15 -4 43.23 20.21
9 6 -3 73.18 19.83
-6 15 -3 100.21 25.22
15 -9 -3 84.09 19.45
-15 9 -3 89.46 29.25
-6 15 -3 114.04 32.44
15 -9 -3 87.41 28.81
9 6 -3 118.4 29.95
-6 15 -2 115.75 30.93
-15 9 -2 65.67 27.49
15 -9 -2 82.24 21.22
15 -9 -2 90.02 24.4
-15 9 -1 -15.2 21.17
-15 9 -1 8.84 6.61
15 -9 -1 10.08 11.63
15 -9 -1 14.52 15.61
-6 15 -1 1.32 2.96
-6 15 -1 6.11 16.72
-15 9 0 124.24 18.37
-15 9 0 134.43 30.37
15 -9 0 136.92 18.94
-6 15 0 144.2 26.75
-15 9 0 123.75 18.96
15 -9 1 7.32 8.89
-15 9 1 -0.99 15.67
-6 15 1 2.26 13.84
-6 15 1 -4.76 17.67
-15 9 1 1.06 12.55
-15 9 1 -8.48 12.16
-6 15 2 115.59 25.69
-15 9 2 121.62 24.51
-15 9 2 93.69 23.42
-9 -6 2 98.31 17.31
-15 9 3 108.87 22.39
6 -15 3 86.74 16.53
-6 15 3 112.66 23.96
-15 9 3 65.16 24.05
-9 -6 3 68.18 18.68
-6 15 4 11.63 13.73
-9 -6 4 43.86 16.13
-15 9 4 4.44 16.62
6 -15 4 21.26 6.49
-6 15 5 10.41 21.72
-15 9 5 36.07 28.01
-9 -6 5 48.6 20.75
-6 15 6 41.72 33.37
-15 9 6 46.06 29.68
-9 -6 6 10.93 19.77
7 -15 -7 9.41 30.34
15 -8 -6 48.83 30.1
7 -15 -6 32.5 28.91
-8 -7 -6 56.16 32.27
-7 15 -5 21.6 22.18
-8 -7 -5 -5.04 18.29
7 -15 -5 -3.01 19.27
15 -8 -5 -8.91 21.56
-15 8 -5 16.96 26.69
-15 8 -4 29.39 23.12
-15 8 -4 29.98 8.29
8 7 -4 59.23 23.59
15 -8 -4 55.93 28.47
7 -15 -4 7.98 14.28
-7 15 -4 24.24 21.35
-7 15 -3 62.35 18.01
15 -8 -3 63.25 17.43
-7 15 -3 43.12 22.02
8 7 -3 54.27 19.13
-15 8 -3 40.25 5.9
-15 8 -3 48.74 23.71
15 -8 -3 60.14 24.6
15 -8 -2 13.77 17.07
-7 15 -2 0.25 15.28
-7 15 -2 41.43 25.21
15 -8 -2 14.28 14.8
-15 8 -2 15.24 4.29
-15 8 -2 44.44 27.56
7 -15 -2 13.06 15.71
-7 15 -1 169.97 32.51
-7 15 -1 196.09 31.59
15 -8 -1 179.51 25.15
-15 8 -1 186 17.45
-15 8 -1 200.72 37.45
-7 15 -1 139.67 8.71
8 7 -1 173.42 21
15 -8 -1 191.82 31.4
-15 8 0 24.99 13.28
-15 8 0 21.42 11.86
-7 15 0 15.19 16.33
-7 15 0 20.63 19.54
15 -8 0 12.12 11.12
-15 8 0 16.78 18.54
-15 8 1 164.42 24.72
-7 15 1 174.06 30.19
-15 8 1 211.93 34.15
-7 15 1 174.89 28.12
-15 8 1 187.55 24.37
15 -8 1 120.54 17.01
-8 -7 2 13.6 13.27
-15 8 2 11.59 12.43
-15 8 2 17.59 16.09
-7 15 2 17.42 13.23
-8 -7 3 64.54 17.4
7 -15 3 40.04 10.37
-15 8 3 47.96 18.17
-7 15 3 62.17 21.27
-15 8 3 26.23 17.59
-7 15 4 36.66 21.6
7 -15 4 26.66 7.4
-15 8 4 1.28 18.37
-7 15 4 54.54 18.97
-8 -7 4 33.33 15.84
-7 15 5 -36.73 26.3
-15 8 5 19.16 25.42
-8 -7 5 10.34 14.78
-15 8 6 40.78 31.05
-8 -7 6 1.86 13.48
8 -15 -6 105.66 36.6
-7 -8 -6 19.8 24.84
-15 7 -5 19.06 23.16
-7 -8 -5 7.31 23.97
15 -7 -5 86.62 33.05
8 -15 -5 43.26 22.03
-8 15 -5 5.34 21.04
8 -15 -4 17.91 16.43
-15 7 -4 9.53 7.05
7 8 -4 -4.65 15.82
-15 7 -4 -9.76 20.82
15 -7 -4 3.38 17.98
-8 15 -4 23.24 23.68
-8 15 -3 -1.22 19.53
15 -7 -3 9.31 11.47
-15 7 -3 13.35 4.51
-15 7 -3 5.14 19.21
15 -7 -3 13.59 17.4
8 -15 -3 31.68 16.45
7 8 -3 16.61 16.56
7 8 -2 332.43 35.95
8 -15 -2 334.62 36.78
-8 15 -2 356.96 39.63
15 -7 -2 339.58 40.01
-8 15 -2 349.71 44.54
7 8 -2 355.53 32.09
15 -7 -2 319.6 36.76
-15 7 -2 345.87 49.87
15 -7 -1 508.47 48.81
-8 15 -1 458.63 43.72
-15 7 -1 523.52 29.01
-8 15 -1 432.86 45.42
-15 7 -1 457.47 49.41
7 8 -1 473.44 32.56
-8 15 0 152.79 17.16
-8 15 0 137.77 27.5
-8 15 0 122.15 25.52
-15 7 0 185.45 34.09
15 -7 0 124.41 18.73
-15 7 0 134.77 19.77
-15 7 0 143.36 21.65
-8 15 1 513.74 46.82
-15 7 1 436.5 45.28
-15 7 1 474.59 37.63
15 -7 1 433 33.18
-8 15 1 484.01 37.58
-7 -8 2 341.87 29.57
-8 15 2 367.21 40.99
-8 15 2 295.16 35.28
-15 7 2 379.02 38.15
-15 7 2 367.15 41.36
-7 -8 3 26.65 12.68
-15 7 3 16.09 15.9
-8 15 3 18.51 16.58
8 -15 3 7.04 7.4
-8 15 3 51.06 24.17
-15 7 3 1.86 16.26
-8 15 4 -6.03 12.77
-7 -8 4 16.45 12.2
-15 7 4 9.14 18.05
8 -15 4 2.88 5.01
-8 15 5 15.07 28.08
-15 7 5 3.43 17.77
-7 -8 5 18.17 15.29
-8 15 6 46.62 35.58
-15 7 6 17.45 22.5
-15 7 7 -8.77 24.75
9 -15 -6 -17.1 21.83
-6 -9 -6 -8.75 24.91
-6 -9 -5 81.04 28.64
9 -15 -5 29.7 22.44
15 -6 -5 -4.2 20.89
-15 6 -5 14.52 28.02
-9 15 -5 8.04 18.67
15 -6 -4 151.13 36.12
9 -15 -4 151.74 31.89
-15 6 -4 130.07 16.91
-9 15 -4 141.76 34.35
-15 6 -4 110.45 34.42
6 9 -4 222.62 35.14
-15 6 -3 99.5 35.39
6 9 -3 151.5 30.01
9 -15 -3 126.38 27.43
15 -6 -3 135.84 31.97
-9 15 -3 154.59 31.48
15 -6 -3 137.47 24.14
6 9 -2 138.94 21.17
6 9 -2 122.17 27.35
15 -6 -2 140.21 26.89
9 -15 -2 163.01 28.81
15 -6 -2 155.22 28.96
-9 15 -2 164.07 34.98
-15 6 -2 148.1 36.53
15 -6 -1 460.37 45.88
-9 15 -1 535.02 47.2
-9 15 -1 521.45 52.15
-9 15 -1 421.1 14.76
6 9 -1 474.04 31.43
-15 6 -1 492 54.12
-15 6 0 34.71 14.45
-15 6 0 43 13.7
-9 15 0 25.81 8.21
-15 6 0 29.94 20.31
-9 15 0 22.52 19.35
-9 15 1 517.03 47.77
-9 15 1 470.58 36.71
-15 6 1 506.02 47.05
-15 6 1 483.05 38.87
-15 6 2 164.1 32.78
-9 15 2 131.48 25.3
-9 15 2 200.03 32.39
-15 6 2 153.47 25.65
9 -15 3 96 14.09
-9 15 3 115.49 26.73
-15 6 3 146.82 24.96
-9 15 3 105.22 22.46
-15 6 3 89.16 25.44
-6 -9 3 128.38 20.49
-15 6 4 165.76 33.31
-9 15 4 171.8 26.08
-9 15 4 174.47 37.23
9 -15 4 127.09 13.55
-6 -9 4 147.75 24.68
-15 6 5 17.39 23.02
-9 15 5 43.97 27.23
-6 -9 5 24.94 13.01
-9 15 6 -30.31 28.09
-15 6 6 8.59 22.01
-15 6 7 87.68 37.84
-5 -10 -7 97.75 42.89
10 -15 -6 77.75 33.9
-5 -10 -6 67.42 32.59
-5 -10 -5 28.71 22.37
-15 5 -5 32.09 26.27
-10 15 -5 9.86 20.29
10 -15 -5 -24.24 22.28
-15 5 -4 100.25 16.86
-10 15 -4 78.1 24.82
10 -15 -4 91.38 27.36
5 10 -4 122.42 28.89
-15 5 -4 71.87 34.17
10 -15 -3 44.62 16.85
15 -5 -3 62.71 17.5
10 -15 -3 45.84 20.43
-15 5 -3 41.57 27.08
5 10 -3 27.78 15.67
-10 15 -3 12.93 19.54
5 10 -2 87.9 22.23
-15 5 -2 83.47 29.22
10 -15 -2 87.62 20.47
5 10 -2 89.07 16.41
-10 15 -2 134.65 32.22
15 -5 -2 94.19 24.25
5 10 -1 576.43 49.31
-10 15 -1 478.64 17.68
-10 15 -1 462.64 49.98
-15 5 -1 553.53 55.59
5 10 -1 483.48 31.76
-15 5 0 246.19 26.44
-15 5 0 251.01 36.17
-10 15 0 244.21 35.67
-10 15 0 245.92 21.45
-15 5 1 564.34 51.15
-10 15 1 586.74 50.52
-10 15 1 491.6 38.48
-15 5 1 513.02 39.11
-10 15 2 97.4 22.27
-15 5 2 118.21 27.47
-15 5 2 119.64 23.4
-10 15 2 108.14 23.8
-10 15 3 70.82 18.86
10 -15 3 39.85 9.08
-10 15 3 55.67 22.86
-5 -10 3 36.02 12.26
-15 5 3 29.24 16.96
-10 15 4 52.94 16.96
10 -15 4 70.96 11.26
-10 15 4 120.58 34.18
-15 5 4 95.05 26.42
-5 -10 4 65.71 16.61
-10 15 5 -9.3 23.15
-15 5 5 14.65 19.44
-5 -10 5 19.5 13.85
-10 15 6 1.57 25.53
-15 5 6 -12.55 20.14
-15 5 7 0.17 23.88
-4 -11 -7 -21.44 33.42
11 -15 -6 -32.1 24.97
-4 -11 -6 -23.48 27.61
-15 4 -5 7.8 22.15
11 -15 -5 -34.44 27.14
-11 15 -5 0.71 20.16
-4 -11 -5 6.06 25.91
4 11 -4 34.35 26.97
-11 15 -4 1.59 19.15
-15 4 -4 38.89 11.76
-15 4 -4 15.24 22.01
11 -15 -4 19.63 18.48
11 -15 -3 68.52 18.35
4 11 -3 73.57 20.48
11 -15 -3 77.84 20.34
15 -4 -3 84.07 21.95
4 11 -3 72.18 19.19
-11 15 -3 107.11 30
-15 4 -3 83.78 28.5
-15 4 -2 17 18.8
11 -15 -2 7.51 14.05
-11 15 -2 -38.34 23.12
11 -15 -2 4.77 12.98
4 11 -2 14.3 19.77
4 11 -2 21.92 12.28
15 -4 -2 18.75 18.36
4 11 -1 273.68 36.83
-11 15 -1 249.06 38.69
-11 15 -1 237.84 14.6
-15 4 -1 265.26 41.69
4 11 -1 260.79 22.97
-11 15 0 336.42 25.53
-15 4 0 326.11 43.04
-15 4 0 307.28 30.34
-11 15 0 266.01 38.15
-15 4 1 213.02 31.53
-11 15 1 260.57 28.49
-11 15 1 186.03 32.46
-15 4 1 189.64 23.87
-11 15 2 12.72 14.41
-15 4 2 1.37 11.75
-15 4 2 -1.42 16.57
-11 15 2 25.67 17.45
11 -15 3 60.61 7.19
-11 15 3 111.36 23.04
11 -15 3 73.9 10.56
-15 4 3 73.76 21.92
11 -15 3 50.97 6.9
-11 15 3 96.75 27.18
-4 -11 3 79.56 15.27
-4 -11 4 26.55 11.33
11 -15 4 38.46 9.92
-11 15 4 53.52 17.29
-11 15 4 39.82 23.7
-15 4 4 31.69 18.61
-11 15 5 29.65 25.56
-15 4 5 -18.46 19.45
-4 -11 5 -15.26 13.23
-11 15 6 -52.39 34.07
-15 4 6 18.43 24.7
-15 4 7 44.75 32.41
-3 -12 -7 8.07 27.51
12 -15 -6 22.5 24.59
-3 -12 -6 -20.83 26.05
12 -15 -5 61.15 29.82
-12 15 -5 -13.89 20.88
-3 -12 -5 14.18 26.65
-15 3 -4 51.89 14.72
-15 3 -4 61.14 26.17
12 -15 -4 81.92 27.96
-12 15 -4 88.63 32.24
3 12 -4 90.71 29.72
3 12 -3 23.44 10.68
-15 3 -3 15.78 21.8
3 12 -3 30.88 20.1
-12 15 -3 73.03 28.51
12 -15 -3 24.01 14.06
15 -3 -3 48.42 19.51
12 -15 -3 39.37 23.65
-12 15 -2 327.43 45.53
15 -3 -2 324.39 42.98
3 12 -2 305.47 40.23
3 12 -2 345.67 28.72
12 -15 -2 305.19 41.66
-15 3 -2 315.12 46.81
3 12 -1 428.96 44.56
-15 3 -1 450.27 53.4
12 -15 -1 423.49 40.43
-12 15 -1 438.75 21.79
-12 15 -1 453.73 48.45
3 12 -1 435.69 28.8
-12 15 0 8.52 16.38
3 12 0 33.35 20.24
-15 3 0 36.35 19.75
-12 15 0 35.62 10.44
-12 15 1 414.83 35.31
-12 15 1 413.85 42.71
12 -15 1 471.96 24.49
-15 3 1 475.02 49.07
-15 3 1 421.69 36.45
-15 3 2 301.13 33.32
-15 3 2 343.2 37.19
-12 15 2 326.48 37.45
12 -15 2 257.68 13.51
-12 15 2 334.05 39.19
12 -15 3 41.82 7.57
-3 -12 3 44.65 12.74
-12 15 3 40.93 17.91
-12 15 3 67.84 23.56
3 12 3 45.14 21.44
-15 3 3 21.3 17.54
-3 -12 4 52.73 14.24
3 12 4 87.55 20.86
3 12 4 93.53 25.7
-12 15 4 75.55 29.66
12 -15 4 57.71 11.76
-12 15 4 60.79 18.55
-15 3 4 70.9 24.71
-12 15 5 2.59 23.48
-15 3 5 -38.13 23.21
-3 -12 5 -10.35 10.69
-12 15 6 25.24 27.97
-15 3 6 4.43 19.46
-15 3 7 31.86 27.47
-2 -13 -7 9.32 27.09
-2 -13 -6 37.09 27.92
13 -15 -6 0.52 23.12
-13 15 -5 22.8 24.27
-2 -13 -5 26.05 18.72
13 -15 -5 39.72 28.48
13 -15 -4 1.64 18.06
2 13 -4 32.13 21.96
-15 2 -4 -10.94 24.96
13 -15 -3 121.72 23.85
2 13 -3 214.03 37.69
15 -2 -3 143.91 30.2
2 13 -3 154.18 23.49
-15 2 -3 141.5 37.13
13 -15 -3 193.78 37.2
-13 15 -3 201.05 38.01
13 -15 -2 126.72 25.92
2 13 -2 120.61 28.11
-15 2 -2 153.04 35.54
2 13 -2 128.59 17.54
-13 15 -2 106.39 30.46
2 13 -1 214.26 34.01
-13 15 -1 176.98 32.32
13 -15 -1 226.71 31.65
-15 2 -1 204.81 39.37
2 13 -1 185.5 19.08
-13 15 0 80.58 25.81
2 13 0 63.6 21.87
13 -15 0 70.6 17.15
13 -15 0 64.1 14.24
-13 15 0 68.76 14.69
-15 2 0 87.05 24.83
-13 15 1 140.73 28.63
2 13 1 216.3 33.46
-15 2 1 188.47 26.81
13 -15 1 223.58 18.75
-13 15 1 208.47 26.73
-15 2 1 169.78 29.22
-13 15 2 97.24 23.42
13 -15 2 127.79 11.61
-13 15 2 111.43 25.74
-15 2 2 94.72 21.03
2 13 2 93.67 25.44
13 -15 3 157.61 14.76
2 13 3 173.3 32.43
-13 15 3 175.51 34.15
-15 2 3 127.43 26.65
-13 15 3 169.83 28.99
-2 -13 4 4.89 8.49
2 13 4 -9.07 18.96
-13 15 4 26.55 22.2
2 13 4 14.78 11.55
-13 15 4 44.34 19.85
13 -15 4 0.01 7.74
-15 2 4 -30.42 18.93
-13 15 5 11.57 23.97
-15 2 5 1.89 20.44
-13 15 6 39.03 31.54
-15 2 6 23.5 21.43
-15 2 7 7.65 23.21
-1 -14 -7 13.54 32.51
14 -15 -6 -31.85 28.85
-1 -14 -6 -49.08 29.04
-1 -14 -5 5.7 19.3
-14 15 -5 -25.16 31.33
14 -15 -5 54.02 32.23
-15 1 -5 16.38 14.67
14 -15 -4 48.74 23.79
1 14 -4 86.22 31.16
-14 15 -4 63.39 26.24
15 -1 -3 51.05 26
14 -15 -3 60.44 26.55
14 -15 -3 67.32 20.06
-14 15 -3 48.64 26.49
1 14 -3 54.76 26.1
1 14 -3 57.59 14.64
-15 1 -3 36.49 29.18
1 14 -2 156.02 30.12
14 -15 -2 130.25 26.9
1 14 -2 164.04 18.56
-15 1 -2 144.31 34.92
-14 15 -2 180.6 33.28
-15 1 -1 190.88 36.68
-14 15 -1 141.56 31.81
1 14 -1 205.94 35.84
14 -15 -1 172.97 27.22
1 14 -1 173.64 18.56
-15 1 0 19.98 16.86
1 14 0 -12.73 17.45
14 -15 0 18.42 11.44
14 -15 0 2.86 10.95
-14 15 0 17.34 11.12
-14 15 0 -3.35 19.02
1 14 1 170.14 30.41
14 -15 1 192.83 17.65
14 -15 1 175.94 18.6
-14 15 1 177.84 30.74
-14 15 1 174.63 24.3
-15 1 1 211.55 32.15
-15 1 1 139.92 22.73
14 -15 2 159.54 14.24
1 14 2 171.42 31.69
-14 15 2 120.37 30.48
-15 1 2 171.67 26.27
-14 15 2 168.67 27.56
1 14 3 40.97 19.74
-14 15 3 77.92 28.27
14 -15 3 58.7 11.26
-15 1 3 50.15 14.53
-14 15 3 62.12 19.61
1 14 4 54.42 18.37
1 14 4 33.91 20.62
-14 15 4 66.05 19.8
-14 15 4 77.98 30.27
-1 -14 4 39.8 12.86
-15 1 4 71.84 20.52
-14 15 5 24.89 25.21
-15 1 5 27.77 19.38
-14 15 6 44.04 32.87
-15 1 6 -32.67 18.54
-15 1 7 6.44 24.12
0 -15 -7 39.09 35.28
15 -15 -6 16.55 26.55
0 -15 -6 1.78 28.22
-15 15 -5 -25.07 28.04
0 -15 -5 15.14 21.67
-15 0 -5 4.79 14.9
15 -15 -5 9.67 28.23
-15 15 -4 96.27 35.21
15 -15 -4 78.98 32.89
0 15 -4 132.26 32.79
-15 15 -3 115.93 32.06
15 -15 -3 123.94 33.11
15 -15 -3 72.09 18.87
0 15 -3 177.71 36.55
-15 0 -3 141.01 35.69
0 15 -2 210.43 35.12
-15 15 -2 164.93 33.77
0 15 -2 228.5 20.34
15 -15 -2 213.77 36.14
-15 0 -2 208.01 37.62
-15 15 -1 69.52 26.03
15 -15 -1 110.27 23.74
0 15 -1 107.35 29.46
-15 0 -1 135.87 32.56
0 15 -1 94.98 13.97
15 -15 0 30.36 10.89
0 15 0 36.97 23.49
15 -15 0 21.86 10.89
-15 15 0 6.46 19.71
-15 0 0 48.83 23.78
-15 15 0 42.57 13.37
-15 0 1 91 20.67
0 15 1 126.92 30.92
-15 15 1 103.95 26.84
-15 15 1 99.36 20.21
15 -15 1 127.61 17.31
15 -15 1 110.36 13.65
0 15 2 219.39 34.44
-15 15 2 199.87 32.15
15 -15 2 236.62 19.75
-15 15 2 216.78 33.69
-15 0 2 234.11 32.24
0 15 3 122.31 27.79
-15 15 3 72.5 23.59
-15 15 3 122.96 25.61
15 -15 3 110.14 15.85
-15 0 3 90.75 22.98
0 -15 4 62.03 13.39
0 15 4 95.3 26.83
-15 15 4 69.81 20.26
-15 0 4 92.44 25.49
-15 15 4 75.45 28.92
-15 0 5 16.76 17.23
-15 15 5 -3.2 21.63
-15 15 6 -14.77 25.52
-15 0 6 21.96 20.13
-15 0 7 -5.44 22.15
16 -15 -6 11.88 23.66
1 -16 -6 -17.31 24.73
16 -15 -5 34.1 24.94
-15 -1 -5 45.99 21.22
-16 15 -5 29.73 28.5
1 -16 -5 5.54 17.6
16 -15 -4 19.86 29.13
-1 16 -4 56.35 27.85
-16 15 -4 8.59 24.14
-16 15 -3 144.69 37.73
16 -15 -3 195.63 39.37
-1 16 -3 147.55 33.91
-1 16 -2 104.11 29.66
16 -15 -2 89.74 25.21
-16 15 -2 41.45 24.67
-1 16 -2 105.21 14.75
16 -15 -1 240.21 31.9
-15 -1 -1 271.36 39.81
-1 16 -1 248.68 38.64
-16 15 -1 194.17 37.18
-1 16 0 58.04 25.36
-16 15 0 7.52 17.72
16 -15 0 16.07 9.39
16 -15 0 33.35 14.49
-16 15 0 10.88 9.28
-1 16 1 240.83 38.48
-16 15 1 232.49 28
16 -15 1 199.11 16.66
16 -15 1 206.01 21.38
-16 15 1 231.39 37.35
-15 -1 2 81.16 19.44
-1 16 2 144.45 32.61
-16 15 2 94.11 24.22
16 -15 2 76.47 12.79
-16 15 2 90.48 22.95
-16 15 3 215.35 36.17
-1 16 3 139.16 31.18
-16 15 3 183.41 33.12
-15 -1 3 184.08 29.15
16 -15 3 160.63 19.37
-16 15 4 31.35 17.78
-1 16 4 35.15 19.97
-16 15 4 20.05 20.95
-15 -1 4 41.13 19.91
-16 15 5 -3.19 21.04
-15 -1 5 14.55 19.21
-16 15 6 57.44 29.26
-15 -1 6 1.73 19.35
-15 -1 7 43.27 31.75
2 -16 -6 -2.83 24.9
16 -14 -6 62.37 32.04
16 -14 -5 46.02 28.96
-2 16 -5 20.16 20.06
-2 16 -5 -0.2 19.12
2 -16 -5 47.63 27.64
-16 14 -5 13.47 30.59
-14 -2 -5 -3.91 17.88
16 -14 -4 19.42 23.02
-16 14 -4 28.07 28.17
14 2 -4 0.63 12.76
-2 16 -4 11.77 19.44
-16 14 -3 189.3 41.06
16 -14 -3 81.99 22.78
16 -14 -3 187.56 39.94
-2 16 -3 92.63 28.99
16 -14 -2 88 26.72
-2 16 -2 74.45 26.76
-16 14 -2 106.09 30.03
-2 16 -2 90.64 11.6
-2 16 -1 49.61 22.75
16 -14 -1 25.21 18.41
-16 14 -1 41.86 23.19
16 -14 0 20.78 10.16
-2 16 0 47.97 23.81
-16 14 0 24.67 19.83
-16 14 0 12.09 11.4
16 -14 0 41.81 12.21
16 -14 1 29.79 6.63
-2 16 1 18.51 16.95
16 -14 1 31.78 10.82
-16 14 1 23.37 18.39
-16 14 1 49.33 15.05
16 -14 2 88.49 13.68
-2 16 2 88.6 24.17
-16 14 2 96.94 26.61
-16 14 2 85.37 21.28
-14 -2 2 95.82 22.39
-2 16 3 109.26 24.81
-2 16 3 117.57 27.07
-16 14 3 131.28 30.09
-14 -2 3 142.21 26.66
-16 14 3 82.15 22.26
16 -14 3 150.85 20.75
-2 16 4 6.07 16.25
-16 14 4 25.48 23.85
-16 14 4 2.16 14.5
-14 -2 4 31.98 19.52
-16 14 5 40.92 27.23
-14 -2 5 15.17 19.19
-2 16 6 -27.26 28.45
-16 14 6 -11.14 26.68
-14 -2 6 28.09 24.68
3 -16 -6 8.1 26.43
16 -13 -6 10.41 25.29
16 -13 -5 28 29.91
-16 13 -5 -4.52 26.41
-13 -3 -5 70.35 24.77
-3 16 -5 57.8 25.85
-3 16 -5 67.1 23.41
3 -16 -5 1.9 17.26
-3 16 -4 83.72 25.73
16 -13 -4 78.79 30.66
-16 13 -4 37.19 33
13 3 -4 52.07 18.92
16 -13 -3 79 28.51
16 -13 -3 47.16 17.96
-3 16 -3 2.33 17.26
-16 13 -3 26.31 23.69
-16 13 -2 354.91 48.74
-3 16 -2 270.25 14.82
16 -13 -2 319.32 40.15
-3 16 -2 351.06 46.19
-16 13 -1 306.38 45.37
16 -13 -1 297.61 34.09
-3 16 -1 297.91 41.67
-16 13 0 16.13 10.66
-16 13 0 20.72 18.14
16 -13 0 14.63 11.78
-3 16 0 8.44 19.97
16 -13 0 14.82 10.12
-3 16 1 291.37 40.58
-16 13 1 328.72 32.75
-16 13 1 289.36 39.02
16 -13 1 339.58 27.34
-3 16 2 300.47 38.76
-16 13 2 401.11 43.76
-16 13 2 405.37 41.79
16 -13 2 350.16 27.67
-13 -3 2 356.71 35.61
-13 -3 3 28.11 15.98
-3 16 3 56.68 21.49
-16 13 3 45.03 21.18
-3 16 3 46.24 21.35
-16 13 3 72.97 24.87
-16 13 4 28.42 12.29
-3 16 4 62.69 23.62
-16 13 4 83.06 31.14
-13 -3 4 37.55 21.28
-13 -3 5 31.35 19.22
-16 13 5 31.67 23.7
-13 -3 6 26.31 26.93
-16 13 6 -4.94 25.26
4 -16 -6 -15.2 28
16 -12 -6 28.06 27.99
-4 16 -5 -1.42 17.97
4 -16 -5 -12.96 17.01
16 -12 -5 10.71 28.37
-16 12 -5 4.88 24.11
-4 16 -5 -6.66 17.58
-12 -4 -5 -11.33 18.81
16 -12 -4 9.03 24.49
12 4 -4 2.83 16.47
-16 12 -4 -13.06 24.66
-4 16 -4 20.05 24.26
-4 16 -3 200.4 37.15
-16 12 -3 137.71 35.72
16 -12 -3 141.8 24.13
16 -12 -3 198.85 40.63
-4 16 -2 36.36 23.43
16 -12 -2 21.91 22.51
-16 12 -2 5.26 21.48
16 -12 -1 231.45 28.75
-4 16 -1 303.36 40.51
-16 12 -1 211.23 40.66
-16 12 0 698.5 62.09
-4 16 0 778.26 61.05
16 -12 0 741.23 42.36
16 -12 0 713.97 43.85
-16 12 0 769.51 43.76
-16 12 1 273.92 36.8
-4 16 1 265.26 36.44
-16 12 1 279.93 31.38
16 -12 1 273.33 25.54
-12 -4 2 4.89 11.42
16 -12 2 19.58 10.43
-4 16 2 27.52 19.91
-16 12 2 -7.75 12.97
-16 12 2 37.86 19.28
-4 16 3 168.28 31.08
-16 12 3 171.34 31.44
-16 12 3 171.25 32.37
-12 -4 3 167.12 28.47
-4 16 4 26.51 16.94
-16 12 4 22.34 13.05
-16 12 4 -13.09 19.66
-12 -4 4 -16.24 15.71
-16 12 5 -23.9 22.82
-12 -4 5 -11.39 17.83
-4 16 6 35.54 28.51
-16 12 6 16.7 26.74
-12 -4 6 11.36 16.93
5 -16 -6 -32.34 29.16
16 -11 -6 22.18 30.7
-11 -5 -6 -13.64 23.71
5 -16 -5 3.95 19.53
-16 11 -5 10.1 26.99
-5 16 -5 -14.55 19.87
16 -11 -5 45.21 29.66
-11 -5 -5 28.91 23.35
-5 16 -4 22.82 18.14
-5 16 -4 46.61 22.47
5 -16 -4 -3.91 19.22
16 -11 -4 39.54 28.03
11 5 -4 76.22 23.89
-16 11 -4 106.69 37.35
-16 11 -3 42.25 25.39
16 -11 -3 95.5 26.94
16 -11 -3 58.28 18.65
-5 16 -3 21.95 19.21
-16 11 -2 106.68 32.11
16 -11 -2 138.98 28.44
16 -11 -2 104.18 24.23
-5 16 -2 90.89 27.12
16 -11 -1 -3.44 12.94
-5 16 -1 14.38 17.69
-16 11 -1 1.18 20.29
-5 16 0 318.37 41.75
-16 11 0 223.17 37.51
16 -11 0 250.57 24.56
-16 11 0 235.21 24.33
16 -11 0 244.8 26.9
-16 11 0 236.5 25.35
-5 16 1 20.18 15.61
-16 11 1 23.7 12.92
16 -11 1 12.1 8.13
-16 11 1 2.22 16.18
-16 11 2 81.84 24.27
-5 16 2 84.17 23.32
-16 11 2 133.39 25.54
-5 16 2 110.56 26.87
16 -11 2 120.18 18.72
-11 -5 2 107.86 21.21
-11 -5 3 57 17.51
-5 16 3 49.66 19.29
-16 11 3 70.39 24.13
-16 11 3 60.57 23.46
-16 11 4 47.63 15.01
-5 16 4 56.82 20.7
-16 11 4 29.54 21.18
-11 -5 4 60.08 21.76
-5 16 5 9.43 24.83
-16 11 5 53.59 27.47
-11 -5 5 -8.56 17.6
-5 16 6 40.23 27.72
-16 11 6 -26.82 21.74
-11 -5 6 4.5 17.01
16 -10 -6 51.99 34.48
-10 -6 -6 31.32 25.55
6 -16 -6 -5.25 22.7
-16 10 -5 11.19 22.91
6 -16 -5 -23.14 25.92
16 -10 -5 27.87 28.4
-6 16 -5 -25.2 24.97
-6 16 -4 151.38 28.84
10 6 -4 137.96 29.41
16 -10 -4 146.88 39.96
6 -16 -4 94.72 26.36
-6 16 -4 114.79 31.98
-16 10 -4 85.56 31.29
-6 16 -3 99.63 24.53
-16 10 -3 99.47 32.49
16 -10 -3 86.39 26.37
10 6 -3 60.5 19.28
-6 16 -3 66.7 26.29
16 -10 -3 45.96 14.72
16 -10 -2 237.41 34.62
-16 10 -2 278.03 43.91
-6 16 -2 230.12 38.77
16 -10 -2 194.08 30.59
-16 10 -1 100.98 30.95
16 -10 -1 173.9 28.15
-6 16 -1 161.16 33.92
-6 16 -1 133.11 10.69
-16 10 -1 136.2 13.66
-16 10 0 903.83 47.63
-6 16 0 926.84 64.7
-16 10 0 874.11 66.12
-16 10 0 861.84 48.56
-16 10 1 119.22 26.73
16 -10 1 124.79 17.82
-6 16 1 127.75 26.32
-6 16 1 123.96 25.4
-16 10 1 143.46 23.24
-6 16 2 194.16 33.82
-6 16 2 223.13 31.74
-16 10 2 195.64 33.59
-16 10 2 239.71 32.58
-10 -6 2 219.46 26.57
16 -10 2 239.98 26.32
-16 10 3 94.21 22.9
-10 -6 3 63.44 17.68
6 -16 3 35.06 11.04
-6 16 3 44.39 20.51
-16 10 3 85.88 25.89
-6 16 4 127.39 24.47
-16 10 4 148.34 33.83
-10 -6 4 112.98 24.56
-6 16 5 41.61 27.74
-16 10 5 -18.82 23.2
-10 -6 5 -6.16 13.81
-6 16 6 60.41 35.83
-16 10 6 23.44 25.39
-10 -6 6 31.35 23
16 -9 -6 13.81 26.3
-9 -7 -6 43.28 29.46
7 -16 -6 -40.44 27.55
7 -16 -5 -8.39 21.15
16 -9 -5 9.01 24.77
-16 9 -5 -29.95 28.85
-7 16 -5 -27.98 21.05
-16 9 -4 221.3 47.49
-7 16 -4 119.93 32.72
16 -9 -4 125.61 33.97
9 7 -4 185.88 33.76
7 -16 -4 72.5 25.45
16 -9 -3 31.27 17.05
-7 16 -3 -3.63 13.16
9 7 -3 45.25 19.89
16 -9 -3 38.13 24.28
-16 9 -3 27.27 23.98
-7 16 -3 39.52 20.97
16 -9 -2 195.17 31.4
-16 9 -2 200.41 37.09
-7 16 -2 208.84 36.42
-7 16 -2 182.57 30.5
16 -9 -2 139.7 26.42
16 -9 -1 12.53 15.88
-16 9 -1 17.51 7.87
-7 16 -1 10.42 3.84
-7 16 -1 27.65 21.15
-16 9 0 5.46 9.19
-16 9 0 20.74 23.1
-7 16 0 9.61 19.17
-16 9 0 8.67 10.22
-7 16 0 23.79 16.67
-7 16 1 2.44 16.3
-7 16 1 31.71 19.24
-16 9 1 -13.78 19.13
16 -9 1 19.48 9.03
-16 9 1 6.2 13.09
-7 16 2 208.9 31.6
-16 9 2 125.74 28.69
-16 9 2 189.3 29.55
-9 -7 2 164.96 24.12
-9 -7 3 7.29 11.05
7 -16 3 22.77 10.81
-16 9 3 17.39 15.41
-16 9 3 17.93 16.55
-7 16 3 33.28 15.11
-7 16 4 151.79 27.1
-16 9 4 128.55 30.93
-9 -7 4 191.98 28.54
-7 16 4 141.83 37.77
-16 9 5 25.33 20.9
-7 16 5 -22.12 27.7
-9 -7 5 13.92 15.1
-9 -7 6 -6.82 15.66
-7 16 6 58.6 31.97
-16 9 6 54.6 31.58
-8 -8 -6 11.59 24.79
16 -8 -6 49.91 31.21
8 -16 -6 37.16 24.59
8 -16 -5 48.51 21.7
-8 16 -5 7.42 18.4
16 -8 -5 17.54 22.12
-16 8 -5 17.73 22.76
-16 8 -4 2.91 23.47
-16 8 -4 -6.8 5.2
-8 16 -4 -21.45 21.72
8 8 -4 25 19.93
16 -8 -4 -7.77 22.88
8 -16 -4 -28.03 20.15
-8 16 -3 40.56 24.28
16 -8 -3 30.81 14.22
-16 8 -3 70.14 32.04
16 -8 -3 14.02 22.11
-8 16 -3 53.88 19.69
8 8 -3 25.02 14.24
16 -8 -2 91.35 22.73
-8 16 -2 78.04 24.24
16 -8 -2 65.39 20.44
-16 8 -2 57.55 8.6
-16 8 -2 86.45 30.48
-8 16 -2 67.5 19.09
-16 8 -1 298.38 43.45
-16 8 -1 346.25 24.91
-8 16 -1 361.71 45.32
-8 16 -1 315.25 13.31
-8 16 -1 350.94 40.78
-8 16 0 30.25 19.92
-16 8 0 24.85 13.94
-16 8 0 9.1 19.14
-8 16 0 16.95 14.62
-8 16 0 30.68 11.55
-16 8 0 -3.56 10.01
-8 16 1 360.75 39
-8 16 1 337.14 40.07
-16 8 1 328.15 41.58
-16 8 1 302.95 29.87
-16 8 2 92.82 22.69
-8 16 2 103.11 25.54
-16 8 2 90.92 24.49
-8 -8 3 30.26 12.8
8 -16 3 22.18 9.14
-8 16 3 5.06 16.62
-8 16 3 39.53 17.79
-16 8 3 67.34 23.41
-16 8 3 24.84 15.62
-8 16 4 -39.51 27.56
-16 8 4 -26.35 20.59
-8 16 4 33.62 18.48
-8 -8 4 3.13 11.43
-16 8 5 44.28 27.53
-8 16 5 56.44 30.74
-8 -8 5 10.6 14.34
-8 16 6 96.47 36.87
-16 8 6 39.72 23.42
9 -16 -6 43.06 29.82
-7 -9 -6 -7.93 26.31
9 -16 -5 15.29 18.17
16 -7 -5 25.85 22.32
-16 7 -5 19.18 21.65
-9 16 -5 6.19 19.7
9 -16 -4 14.8 19.26
-16 7 -4 16.2 8.03
-9 16 -4 46.33 23.9
-16 7 -4 26.17 23.65
16 -7 -4 -14.31 18.69
7 9 -4 70.3 24.31
-16 7 -3 61.69 9.41
-9 16 -3 97.52 30.37
16 -7 -3 60.83 20.48
9 -16 -3 52.55 21.81
16 -7 -3 93.27 29.2
7 9 -3 80.57 22.99
-16 7 -3 81.21 32.5
-9 16 -2 33.29 18.53
7 9 -2 31.09 20.72
16 -7 -2 71.78 21.6
16 -7 -2 26.54 17.7
-16 7 -2 32.03 25.52
-9 16 -2 36.93 22.46
7 9 -1 21.63 10.19
-16 7 -1 -8.49 23.89
-16 7 -1 11.24 7.35
-9 16 -1 -17.67 18.14
-9 16 -1 20.84 20.68
-9 16 -1 8.97 3.18
-9 16 0 40.6 21.89
-9 16 0 12.68 16.52
-16 7 0 8.61 10.66
-16 7 0 11.81 10.18
-9 16 0 7.45 8.66
-16 7 0 -0.58 18.98
-16 7 1 10.06 11.02
-9 16 1 -0.73 11.9
-9 16 1 10.02 18.04
-16 7 1 42.48 18.75
-16 7 2 50.57 19.63
-9 16 2 17.67 16.58
-9 16 2 43.31 16.37
-16 7 2 30.27 16.27
-7 -9 3 75.23 15.83
-9 16 3 85.01 24.08
9 -16 3 49.87 11.32
-16 7 3 105.29 22.43
-16 7 3 73.76 24.14
-9 16 3 66.13 19.59
-7 -9 4 13.53 10.54
-9 16 4 49.95 18.12
-9 16 4 9.74 21.58
-16 7 4 13.05 20.14
-16 7 5 20.15 19.94
-7 -9 5 -2.93 12.25
-9 16 6 -2.49 26.44
-16 7 6 30.63 27.92
-6 -10 -6 -43.49 30.92
10 -16 -6 5.58 25.55
10 -16 -5 14.18 20.96
-10 16 -5 35.81 25.67
-16 6 -5 -22.4 25.7
-16 6 -4 9.62 7.98
-10 16 -4 54.15 25.94
16 -6 -4 -0.42 23.42
6 10 -4 0.76 17.08
10 -16 -4 36.38 21.61
-16 6 -4 44.92 30.58
10 -16 -3 156.56 27.63
6 10 -3 146.3 30.47
-10 16 -3 143.89 33.99
-16 6 -3 164.6 40.32
16 -6 -3 199.93 34.37
16 -6 -3 125.65 24.64
10 -16 -3 175.66 31.71
6 10 -2 27.74 18.86
6 10 -2 35.14 13.75
-10 16 -2 49.77 23.49
16 -6 -2 21.29 19.04
-16 6 -2 21.75 22.82
-10 16 -1 99.01 8.4
6 10 -1 89.47 15.9
-10 16 -1 97.54 23.6
-16 6 0 465.86 36.38
-10 16 0 465.5 29.86
-10 16 0 499.59 48.56
-16 6 0 474.53 49.87
-10 16 1 97.7 19.8
-10 16 1 129.96 28.7
-16 6 1 101.69 19.59
-16 6 1 175.99 32.81
-10 16 2 14.51 14.82
-16 6 2 23.49 16.66
-10 16 2 45.76 19.33
-16 6 2 9.74 11.71
-16 6 3 181.96 27.75
10 -16 3 115.97 14.19
-10 16 3 188.12 31.73
-16 6 3 133.19 26.6
-6 -10 3 159.48 22.8
-10 16 3 222.48 38.71
-6 -10 4 18.85 11.63
-10 16 4 40.16 19.34
-10 16 4 3.83 20.97
-16 6 4 11.1 16.68
-10 16 5 -39.08 28.86
-16 6 5 -4.78 18.99
-6 -10 5 -15.54 14.71
-10 16 6 41.9 29.87
-16 6 6 -35.13 28.03
-5 -11 -7 85.47 40.07
-5 -11 -6 25.8 24.51
11 -16 -6 39.17 32.41
11 -16 -5 33.42 26.15
-16 5 -5 25.72 28.18
-11 16 -5 6.86 20.86
-16 5 -4 16.45 9.91
-16 5 -4 -3.83 26.64
11 -16 -4 46.06 23.04
5 11 -4 62.19 27.46
-11 16 -4 16.58 20.04
16 -5 -3 112.89 24.94
11 -16 -3 113.86 24.68
11 -16 -3 140.52 29.89
-16 5 -3 157.43 38.65
5 11 -3 167.3 30.88
-11 16 -3 168.97 37.06
-11 16 -2 79.15 26.72
-16 5 -2 25.26 23.47
11 -16 -2 25.42 15.57
5 11 -2 40.81 19.27
5 11 -2 40.86 13.16
5 11 -1 406.72 45.54
-11 16 -1 385.7 45.72
-16 5 -1 431.39 49.51
5 11 -1 372.04 29.12
-11 16 -1 414.94 18.29
-16 5 0 156.21 20.9
-11 16 0 186.95 20.07
-11 16 0 164.26 30.77
-16 5 0 189.4 34.03
-16 5 1 437.11 46.32
-11 16 1 351.43 33.69
-11 16 1 429.44 45.02
-16 5 1 412.11 37.37
-16 5 2 1.56 16.24
-11 16 2 59.26 22.84
-16 5 2 11.13 12.48
-11 16 2 43.78 21.82
11 -16 3 101.51 12.71
-11 16 3 131.94 30.42
-11 16 3 107.78 25.72
-16 5 3 142.78 28.98
-5 -11 3 102.5 17.79
-5 -11 4 16.69 13.01
-11 16 4 32.12 15.84
-16 5 4 24.76 19.51
-11 16 4 16.51 23.82
-11 16 5 28.17 26.25
-16 5 5 18.88 20.81
-5 -11 5 23.3 14.7
-11 16 6 1.88 24.77
-16 5 6 -12.16 24.65
-4 -12 -7 32.13 32.3
12 -16 -6 59.87 31.92
-4 -12 -6 72.85 34.65
12 -16 -5 58.11 31.14
-12 16 -5 8.02 23.87
-16 4 -4 100.01 17.76
4 12 -4 188.25 37.38
-16 4 -4 81.95 31.76
12 -16 -4 117.72 32.73
-12 16 -4 130.07 34.82
16 -4 -3 184.85 32.47
12 -16 -3 197.86 30.14
12 -16 -3 231.09 37.71
-16 4 -3 176.36 41.27
4 12 -3 182.75 26.58
-12 16 -3 213.43 41.49
4 12 -3 276.82 40.93
-12 16 -2 124.09 31.33
12 -16 -2 129.14 27.53
4 12 -2 103.96 23.35
-16 4 -2 113.36 32.03
4 12 -2 121.86 18.46
4 12 -1 31.53 10.61
-12 16 -1 33.44 22.69
4 12 -1 41.09 20.06
-16 4 -1 30.45 25.12
-12 16 -1 53.41 8.19
-12 16 0 23.62 18.77
4 12 0 32.24 20.99
-12 16 0 31.69 12.05
-16 4 0 45.31 15.77
-16 4 0 71.45 27.01
-12 16 1 65.13 23.96
-16 4 1 11.88 13.43
-16 4 1 42.73 20.24
-12 16 1 48.59 18.07
-12 16 2 106.48 25
-16 4 2 130.47 24.56
-12 16 2 128.68 25.14
-16 4 2 138.4 29.57
12 -16 3 143.85 12.87
-12 16 3 216.29 37.28
-16 4 3 265.81 36.77
-12 16 3 217.04 31.35
-4 -12 3 206.53 23.92
-16 4 4 118.73 27.95
-12 16 4 104.99 23.02
-12 16 4 60.47 23.3
4 12 4 140.5 30.19
-4 -12 4 95.47 18.47
-4 -12 5 18.81 10.94
-16 4 5 32.25 23.04
-12 16 5 25.91 25.41
-12 16 6 -53.15 35.23
-16 4 6 -12.1 19.82
-16 4 7 4.34 21.86
-3 -13 -7 49.31 37.66
-3 -13 -6 -6.87 26.62
13 -16 -6 -11.32 26.26
13 -16 -5 24.72 29.03
-13 16 -5 49.67 24.68
13 -16 -4 25.12 22.57
-13 16 -4 7.21 20.44
3 13 -4 38.9 23.01
-16 3 -4 -21.7 26.62
-16 3 -3 146.77 38.67
13 -16 -3 147.26 30.99
13 -16 -3 76.58 20.48
3 13 -3 125.4 22.6
16 -3 -3 128.01 28.66
-13 16 -3 162.89 38.44
3 13 -3 126.58 30.36
13 -16 -2 67.73 21.3
-13 16 -2 97.68 29.37
3 13 -2 83.19 25.9
3 13 -2 61.2 14.65
-16 3 -2 54.47 24.47
13 -16 -1 223.02 31.96
3 13 -1 235.29 36.2
-16 3 -1 282.57 43.75
-13 16 -1 195.67 36.87
3 13 -1 232.93 22.32
-13 16 -1 217.88 17.03
-13 16 0 35.79 22.02
-13 16 0 53.89 12.88
3 13 0 34.4 18.63
-16 3 0 33.07 22.23
3 13 1 190.26 37.75
-16 3 1 259.04 36.42
13 -16 1 217.51 18.5
-13 16 1 239.26 36.79
-13 16 1 205.07 26.82
-16 3 1 215.99 27.66
-16 3 2 15.94 14.13
-13 16 2 56.62 20.85
3 13 2 33.17 20.08
13 -16 2 56.58 7.25
-13 16 2 39.45 18.97
3 13 3 95 26.65
-13 16 3 117.92 24.84
-13 16 3 116.02 31.11
-16 3 3 112.1 25.39
13 -16 3 89.86 9.22
-3 -13 4 14.71 11.34
3 13 4 4.39 17.25
-13 16 4 -7.13 14.66
-13 16 4 25.17 21.93
-16 3 4 6.41 15.11
-13 16 5 4.54 22.3
-16 3 5 -18.61 19.58
-13 16 6 -12.33 24
-16 3 6 88.66 34.34
-16 3 7 17.05 25.9
-2 -14 -7 -17.35 32.19
14 -16 -6 -57.36 29.2
-2 -14 -6 -27.61 28.58
-14 16 -5 39.59 29.4
14 -16 -5 16.01 22.12
2 14 -4 6.91 21.22
-16 2 -4 -31.57 25.69
14 -16 -4 -23.02 22.38
-14 16 -4 -63.38 30.07
14 -16 -3 225.57 40.74
-14 16 -3 123.94 36.15
-16 2 -3 174.72 45.83
2 14 -3 219.21 40.24
2 14 -3 150.9 23.14
14 -16 -2 165.88 31.45
-14 16 -2 143.84 33.85
-16 2 -2 158.29 40.31
2 14 -2 139.46 17.86
2 14 -2 94.66 26.81
14 -16 -1 219.47 31.45
-16 2 -1 148.44 33.95
2 14 -1 255.7 36.95
-14 16 -1 198.14 39.96
2 14 -1 208.73 20.95
2 14 0 581.67 54.02
14 -16 0 651.6 43.1
-16 2 0 620.54 56.54
14 -16 0 533.69 37.09
-14 16 0 623.11 37.3
-14 16 0 602.26 56.73
2 14 1 260.92 39.15
-14 16 1 217.53 27.35
14 -16 1 182.17 17.93
14 -16 1 216.35 19.48
-16 2 1 258.66 35.53
-14 16 1 193.43 33.53
-16 2 1 192.95 27.79
2 14 2 129.99 30.17
-14 16 2 119.65 24.3
-16 2 2 123.29 23.71
14 -16 2 122.11 11.89
-14 16 2 89.47 21.14
-14 16 3 154.06 27.78
-16 2 3 181.34 30.16
-14 16 3 156.31 32.31
14 -16 3 158.04 14.27
2 14 3 187.99 35.29
-2 -14 4 8.27 8.69
2 14 4 -6.09 13.77
2 14 4 -24.1 17.29
-14 16 4 3.39 21.14
-14 16 4 12.89 14.99
-16 2 4 14.55 14.58
-14 16 5 51.43 28.91
-16 2 5 23.65 20.3
-14 16 6 -24.02 28.91
-16 2 6 8.88 19.71
-16 2 7 19.93 29.02
-1 -15 -6 -12.1 24.56
15 -16 -6 19.93 24.47
-1 -15 -5 4.68 18.23
15 -16 -5 13.26 21.24
-15 16 -5 41.71 31.15
15 -16 -4 5.23 21.6
1 15 -4 -15.92 23.53
-15 16 -4 28.86 24.86
-16 1 -3 57.26 26.93
15 -16 -3 -24.7 23.42
1 15 -3 49.83 25.19
-15 16 -3 17 21.65
1 15 -3 37.22 11.8
1 15 -2 -28.27 21.91
1 15 -2 4.05 8.27
-15 16 -2 15.43 20.49
15 -16 -2 38.15 20.65
-16 1 -2 29.93 26.33
15 -16 -1 151.01 25.8
1 15 -1 122.39 30.6
-16 1 -1 185.9 34.54
-15 16 -1 184.48 35.67
1 15 -1 192.66 19.74
1 15 0 114.29 30.06
15 -16 0 110.34 19.04
-15 16 0 136.31 29.72
-16 1 0 131.03 29.55
15 -16 0 108.95 18.8
-15 16 0 103.94 17.55
-16 1 1 171.86 26.42
1 15 1 235.44 38.68
15 -16 1 189.56 18.4
-16 1 1 172.95 34.92
15 -16 1 195.31 20.26
-15 16 1 190.9 25.94
-15 16 1 167.65 34.02
1 15 2 25.94 24.38
-16 1 2 -12.79 14.67
-15 16 2 23.91 18.73
-15 16 2 13.19 14.51
15 -16 2 5.21 6.15
1 15 3 51.47 21.09
-15 16 3 63.17 20.92
-15 16 3 20.17 17.67
-16 1 3 1.6 13.36
15 -16 3 28.95 9
1 15 4 -15.04 19.14
-1 -15 4 13.06 10.91
-15 16 4 -6.04 21
1 15 4 -3.91 13.59
-16 1 4 7.42 17.9
-15 16 4 -3.71 15.39
-15 16 5 -24.03 23.51
-16 1 5 58.91 28.55
-15 16 6 10.83 27.04
-16 1 6 34.13 23.79
-16 1 7 25.82 29.53
0 -16 -6 32.83 30.12
16 -16 -6 -18.16 27.77
0 -16 -5 18.77 22.94
-16 16 -5 23.11 26.24
16 -16 -5 4.52 22.16
0 16 -4 -6.38 22.18
-16 16 -4 -3.03 21.01
16 -16 -4 25.45 22.59
0 16 -3 145.71 34.39
16 -16 -3 111.8 33.87
0 16 -3 97.77 16.98
-16 16 -3 47.78 22.1
0 16 -2 131.29 30.35
-16 16 -2 133.23 34.8
-16 0 -2 113.76 31.72
0 16 -2 157.23 18.41
16 -16 -2 170.58 33.66
0 16 -1 341.02 25.94
0 16 -1 334.17 44.81
16 -16 -1 362.33 37.99
-16 0 -1 314.18 43.03
-16 16 -1 348.53 48.05
0 16 0 245.6 38.6
-16 16 0 177.13 35.94
16 -16 0 183.86 24.62
-16 16 0 194.04 22.28
-16 0 0 248.96 37.41
16 -16 0 194.77 24.93
0 16 1 336.76 44.14
16 -16 1 366.88 24.53
16 -16 1 337.53 26.77
-16 16 1 364.93 36.01
-16 16 1 315.38 43.35
-16 0 2 111.02 22.3
-16 16 2 122.12 26.8
-16 16 2 134.43 26.51
16 -16 2 112.21 14.3
0 16 2 117.7 26.73
-16 0 3 74.31 23.19
0 16 3 67.85 23.97
-16 16 3 45.08 19.85
-16 16 3 45.29 18.17
16 -16 3 80.58 13.41
-16 16 4 4.86 16.85
0 16 4 33.61 21.05
-16 16 4 -5.05 22.22
-16 0 4 58.91 23.19
-16 16 5 76.95 34.96
-16 0 5 36.07 23.51
-16 16 6 21.35 30.27
-16 0 6 17.34 20.72
-16 0 7 10.24 20.6
1 -17 -6 40.81 26.26
17 -16 -6 20.04 34.46
1 -17 -5 22.84 25.18
-17 16 -5 44.49 32.58
17 -16 -5 -24.68 23.8
17 -16 -4 50.43 26.37
-1 17 -4 7.57 25.01
-17 16 -4 -26.4 28.8
17 -16 -3 151.93 36.84
-17 16 -3 163.41 39.14
-1 17 -3 201.72 38.81
17 -16 -2 40.46 19.59
-1 17 -2 102.41 28.55
-17 16 -2 120.02 36.58
-1 17 -2 73.03 12.16
-1 17 -1 14.58 19.91
17 -16 -1 27.7 12.62
-17 16 -1 28.79 22.8
-1 17 0 161.67 33.01
17 -16 0 196.91 24.39
17 -16 0 202.81 25.77
-17 16 0 209.12 23.88
-17 16 0 226.37 40.54
-17 16 1 26.32 19.88
-1 17 1 26.63 19.41
17 -16 1 19.93 7.09
-17 16 1 9.41 12.54
17 -16 1 32.53 12.9
-16 -1 2 79.49 18.05
-17 16 2 87.88 25.63
-1 17 2 99.4 28.13
17 -16 2 60.03 12.57
-17 16 2 48.22 20.64
-1 17 3 113.57 30.33
-17 16 3 174.71 35.27
-17 16 3 128.86 30.8
17 -16 3 147.59 17.72
-16 -1 3 192.29 31.45
-17 16 4 2.69 16.62
-16 -1 4 20.54 17.52
-1 17 4 31.65 22.35
-17 16 4 32.41 24.43
-17 16 5 15.46 25.49
-16 -1 5 15.83 16.24
-16 -1 6 4.22 19.96
-17 16 6 39.34 35.12
17 -15 -6 32.48 27.81
2 -17 -6 22.28 27.14
2 -17 -5 14.96 19.12
-2 17 -5 2.52 24.32
-15 -2 -5 -30.78 20.12
17 -15 -5 50.82 32.08
-17 15 -5 -19.46 26.36
-17 15 -4 15.19 24.76
17 -15 -4 -4.08 20.38
15 2 -4 37.8 16.84
-2 17 -4 19.52 22.51
-2 17 -3 227.22 43.29
-17 15 -3 173.54 41.07
17 -15 -3 221.27 43.04
-17 15 -2 10.63 24.79
17 -15 -2 24.93 19.23
-2 17 -2 -0.14 5.62
-2 17 -2 7.39 18.69
-17 15 -1 324.05 47.85
-2 17 -1 312.33 43.05
17 -15 -1 344.53 39.87
-17 15 0 255.67 41.04
-2 17 0 219.33 37.17
17 -15 0 269.06 27.56
17 -15 0 214.16 26.5
-17 15 0 250.29 26.44
-2 17 1 339.12 43.41
17 -15 1 319.7 20.1
17 -15 1 346.65 28.75
-17 15 1 327.94 32.46
-17 15 1 343.45 48.1
-15 -2 2 -10.73 13.03
-2 17 2 22.92 18.72
-17 15 2 10.63 17.12
-17 15 2 28.17 17.8
17 -15 2 9.07 8.93
-2 17 3 234.02 37.16
-2 17 3 199.64 35.43
-17 15 3 205.94 36.52
-17 15 3 200.23 36.21
-15 -2 3 217.22 31.95
17 -15 3 210.36 23.76
-2 17 4 35.39 19.67
-17 15 4 57.2 23.6
-17 15 4 -9.44 20.32
-15 -2 4 20.12 18.39
-17 15 5 26.89 22.78
-15 -2 5 -21.67 18.97
-17 15 6 24.44 27.81
-2 17 6 9.76 30.53
-15 -2 6 -29.15 17.94
3 -17 -6 40.76 32.13
17 -14 -6 -49.89 31.34
-3 17 -5 -5.14 19.95
-3 17 -5 26.31 21.67
3 -17 -5 -1.34 18.2
17 -14 -5 33.16 27.04
-17 14 -5 -0.22 22.24
-17 14 -4 62.37 31.21
14 3 -4 48.53 20.64
17 -14 -4 94.73 33.94
-3 17 -4 103.02 31.29
17 -14 -3 170.1 37.89
-3 17 -3 179 37.87
-17 14 -3 141.81 38.02
-17 14 -2 165.78 37.84
17 -14 -2 174.78 29.4
-3 17 -2 157.47 12.58
-3 17 -2 151.56 33.25
-3 17 -1 76.58 26.81
17 -14 -1 37.6 12.97
-17 14 -1 44.45 24.57
-3 17 0 148.78 30.44
17 -14 0 139.26 21.25
-17 14 0 88.57 23.38
-17 14 0 104.02 18.83
-3 17 1 73.53 26.64
-17 14 1 56.46 23.46
17 -14 1 51.49 12.92
-17 14 1 69.64 18.48
-3 17 2 178.31 32.18
17 -14 2 175.81 20.64
-17 14 2 195.91 32.6
-14 -3 2 164.09 27.81
-17 14 2 152.57 28.99
-17 14 3 196.4 35.23
-3 17 3 169.86 30.59
-3 17 3 164.2 31.28
-14 -3 3 201.89 31.66
-17 14 3 161.67 31.37
17 -14 3 133.01 21.48
-3 17 4 20.52 16.92
-17 14 4 47.37 25.94
-17 14 4 86.52 22.12
-14 -3 4 59.02 21.44
-17 14 5 10.08 23.6
-14 -3 5 14.12 16.42
-3 17 6 8.31 32.99
-14 -3 6 29.07 24.46
-17 14 6 -11.96 27.5
4 -17 -6 32.47 22.87
17 -13 -6 -11.01 27.72
4 -17 -5 39.86 24.49
-4 17 -5 2.71 23.05
-17 13 -5 -11.81 28.71
-4 17 -5 -33.69 19.23
17 -13 -5 67.43 31.53
-17 13 -4 47.14 28.03
17 -13 -4 35.54 30.85
13 4 -4 92.83 24.9
-4 17 -4 53.67 25
-17 13 -3 28.13 23.98
17 -13 -3 12.61 20.29
-4 17 -3 3.89 18.34
17 -13 -3 8.58 16.19
17 -13 -2 101.29 27.98
-4 17 -2 127.86 31.21
-17 13 -2 87 29.51
-17 13 -1 725.33 66.15
-4 17 -1 659.11 59.54
17 -13 -1 680.03 49.71
17 -13 0 56.03 15.37
-4 17 0 79.72 28.44
-17 13 0 79.9 29.88
-17 13 0 65.08 14.97
-17 13 1 692.44 60.47
-4 17 1 741.92 62.06
17 -13 1 711.16 40.81
-17 13 1 694.84 47.44
-4 17 2 107.39 26.33
-17 13 2 178.93 31.83
-17 13 2 119.04 29
17 -13 2 112.04 16.62
-13 -4 2 125.92 22.83
-13 -4 3 7.86 12.56
17 -13 3 10.62 11.62
-17 13 3 8.12 16.86
-4 17 3 46 20.55
-17 13 3 -7.55 15.94
-4 17 4 38.44 18.08
-17 13 4 19.77 13.63
-17 13 4 58.33 27.53
-13 -4 4 67.13 22.74
-17 13 5 -10.25 23.02
-13 -4 5 7.21 16.51
-4 17 6 37.23 37.64
-17 13 6 -21.24 28.11
-13 -4 6 30.03 22
17 -12 -6 25.52 23.93
5 -17 -6 11.5 22.75
5 -17 -5 -24.77 17.05
-5 17 -5 -14.96 21.22
-17 12 -5 29.42 23.33
17 -12 -5 38.7 30.23
-5 17 -4 27 23.18
-5 17 -4 5.75 15.77
12 5 -4 -5.72 14.55
-17 12 -4 -13.48 25.84
17 -12 -4 -1.85 25.48
-5 17 -3 32.76 20.12
17 -12 -3 28.33 19.71
17 -12 -3 28.76 15.45
17 -12 -2 121.91 26.4
-5 17 -2 135.56 32.27
-17 12 -2 141.97 34.91
17 -12 -1 18.62 12.62
-17 12 -1 23.08 23.83
-5 17 -1 16.85 19.66
17 -12 0 115.49 18.66
-17 12 0 97.29 17.98
-5 17 0 145.77 31.28
-17 12 0 100.37 30.82
-17 12 0 115.95 19.2
-5 17 1 9.92 17.86
17 -12 1 25.57 10.3
-17 12 1 47.11 16.61
-17 12 1 26.24 19.38
-5 17 2 150.46 30.97
-5 17 2 113.25 26.24
-17 12 2 161.11 31.62
-17 12 2 128.19 27.04
17 -12 2 122.62 19.46
-12 -5 2 110.65 21.6
-12 -5 3 4.03 12.61
-17 12 3 1.25 15.73
-5 17 3 44.01 18.1
-17 12 3 32.48 17.6
-5 17 4 -26.26 18.99
-17 12 4 9.24 17.59
-17 12 4 -11.83 12.56
-5 17 5 4.07 25.7
-17 12 5 19.33 20.5
-12 -5 5 -11.28 15.8
-5 17 6 -7.68 35.8
-17 12 6 49.72 32.46
-12 -5 6 25.22 19.78
-11 -6 -6 46.26 29.31
6 -17 -6 16.84 23.95
17 -11 -6 39.55 31.53
-17 11 -5 51.63 29.2
-6 17 -5 34.73 24.78
17 -11 -5 47.24 28.84
6 -17 -5 39.35 23.73
-6 17 -4 45.86 23.34
6 -17 -4 50.08 20.53
-17 11 -4 -17.64 24.12
17 -11 -4 21.86 25.61
11 6 -4 48.68 19.98
-6 17 -4 30.97 18.13
11 6 -3 2.44 12.59
17 -11 -3 26.16 15.45
-17 11 -3 40.33 24.52
17 -11 -3 13.48 19.51
-17 11 -2 1.75 19.47
17 -11 -2 26.7 19.25
-6 17 -2 58.88 24.53
-17 11 -1 145.73 14.35
-6 17 -1 141.72 32.95
-17 11 -1 143.6 35.41
17 -11 -1 134.52 23.18
-17 11 0 214.91 38.97
-6 17 0 192.6 36.71
-17 11 0 189.6 23
-17 11 0 220.42 26.03
-17 11 1 120.59 24.79
-6 17 1 155.19 32.39
-6 17 1 147.08 28.97
-17 11 1 161.95 24.81
17 -11 1 146.95 20.52
17 -11 2 12.08 9.78
-11 -6 2 14.72 12.35
-6 17 2 34.8 18.51
-6 17 2 23.72 21.21
-17 11 2 7.99 18.04
-17 11 2 12.23 17.18
-11 -6 3 42.99 17.22
-6 17 3 0.31 17.21
-17 11 3 11.94 15.86
-17 11 3 38.66 19.91
-11 -6 4 34.93 18.61
-6 17 4 13.42 16.18
-17 11 4 49.17 25.34
-17 11 4 17.82 12.29
-6 17 5 20.84 33.27
-17 11 5 89.45 32.92
-11 -6 5 43.32 17.86
-17 11 6 1.17 21.36
-11 -6 6 36.24 21.2
-10 -7 -6 -1.72 20.12
17 -10 -6 6.19 26.62
7 -17 -6 -40.03 27.12
7 -17 -5 -38.19 20.94
17 -10 -5 36.37 25.65
-7 17 -5 41.67 25.15
-17 10 -5 12.3 25.5
-7 17 -4 24.1 22.57
-7 17 -4 -2.29 14.44
17 -10 -4 23.18 19.57
7 -17 -4 11.44 16.98
-17 10 -4 11.35 24.47
10 7 -4 29.89 19.71
10 7 -3 378.78 40.89
-7 17 -3 359.09 43.79
17 -10 -3 422.75 52.02
-17 10 -3 344.32 55.63
-7 17 -3 386.85 50.62
17 -10 -3 293.05 35.46
-17 10 -2 8.95 21.51
17 -10 -2 38.6 18.89
-7 17 -2 60.61 29.29
17 -10 -1 211.09 30.39
-17 10 -1 178.41 17.11
-17 10 -1 170.06 35.19
-7 17 -1 156.57 34.57
-7 17 -1 145.57 11.2
-7 17 0 261.34 38.46
-17 10 0 263.17 27.51
-17 10 0 274.94 42.56
-17 10 0 318.96 30.25
-7 17 0 242.27 35.34
-7 17 1 177.69 32.09
-7 17 1 144.85 31.31
-17 10 1 155.08 33.59
-17 10 1 177.69 25.47
-10 -7 2 20.32 10.91
-17 10 2 47.7 23.57
-17 10 2 49.05 20.62
-7 17 2 1.21 15.86
7 -17 3 254.05 26.11
-7 17 3 370.27 42.52
-17 10 3 361.54 45.63
-10 -7 3 354.54 35.35
-17 10 3 359.05 40.8
-10 -7 4 18.42 17.23
-7 17 4 16.84 17.64
-17 10 4 -10.43 18.63
-7 17 4 -8.2 20.66
-7 17 5 50.58 36.48
-17 10 5 -39.39 25.52
-10 -7 5 11.58 14.48
-17 10 6 -10.3 22.22
-10 -7 6 13.16 17.03
17 -9 -6 26.47 26.57
-9 -8 -6 -21.3 28.26
8 -17 -6 20.39 23.36
17 -9 -5 61.3 33.76
-8 17 -5 26.56 24.53
8 -17 -5 3.01 18.8
-17 9 -5 7.88 22.75
-17 9 -4 29.17 25.64
-8 17 -4 16.25 18.13
17 -9 -4 63.85 29.82
9 8 -4 85.03 27.21
8 -17 -4 29.23 18.85
-8 17 -3 31.54 19.13
17 -9 -3 -7.81 12.79
-8 17 -3 2.95 18.72
9 8 -3 -18.73 15.56
17 -9 -3 4.76 18.8
-17 9 -3 15.67 24.71
-8 17 -2 219.74 34.48
-17 9 -2 159.99 10.93
-17 9 -2 155.63 42.35
17 -9 -2 220.48 33.73
-8 17 -2 234.78 38.8
-8 17 -1 618 53.09
17 -9 -1 595.21 46.45
-8 17 -1 589 57.46
-17 9 -1 667.93 64.78
-8 17 -1 587.55 19.92
-8 17 0 240.7 34.09
-17 9 0 265.28 28.33
-8 17 0 230.53 36.66
-17 9 0 306.31 41.84
-8 17 0 272.9 23.84
-17 9 0 228.44 27.79
-8 17 1 557.66 49.77
-8 17 1 551.81 52.59
-17 9 1 567.54 54.46
-17 9 1 572.61 43.07
-17 9 2 201.2 29.72
-17 9 2 218.14 34.69
-8 17 2 243.12 34.32
-9 -8 3 30.27 14.24
8 -17 3 6.19 8.48
-8 17 3 -13.63 19.22
-17 9 3 16.06 14.73
-17 9 3 -1.99 15.65
-8 17 3 14.11 13.92
-9 -8 4 50.61 16.55
-17 9 4 67.48 26.36
-8 17 4 45.15 26.56
-8 17 4 23.47 17.61
-9 -8 5 20.11 17.18
-8 17 5 6.45 25.69
-17 9 5 42.27 25.74
-8 17 6 26.05 32.19
-17 9 6 36.48 27.87
9 -17 -6 15.95 21.76
-8 -9 -6 2.24 22.77
-17 8 -5 34.12 31
9 -17 -5 24.17 19.9
-9 17 -5 40.92 25.88
17 -8 -5 49.15 32.18
-9 17 -4 -8.69 19.87
-17 8 -4 45.59 27.46
9 -17 -4 5.98 16.41
8 9 -4 -10.04 21.13
17 -8 -4 -0.82 19.68
8 9 -3 193.23 31.71
-17 8 -3 117.74 10.02
17 -8 -3 205.17 37.05
-9 17 -3 170.13 35.72
17 -8 -3 156.84 27.44
-17 8 -3 161.88 40.05
9 -17 -3 103.93 26.96
8 9 -2 88.41 24.61
-9 17 -2 81.88 25.25
17 -8 -2 71.23 23.51
-17 8 -2 54.1 22.28
-9 17 -2 94.42 31.36
-17 8 -2 67.99 10.29
-17 8 -1 21.57 9.43
-17 8 -1 0.16 22.7
-9 17 -1 -18.63 18.99
-9 17 -1 4.47 18.54
-9 17 -1 6.02 3.69
-17 8 0 210.93 26.56
-9 17 0 137.74 28.1
-9 17 0 148.09 32.92
-9 17 0 162.81 19.13
-17 8 0 183.9 35.86
-17 8 0 181.32 25.01
-17 8 1 -4 12.05
-17 8 1 -2.8 16.46
-9 17 1 25.89 14.33
-9 17 1 24.8 21.95
-17 8 2 86.67 25.07
-9 17 2 60.45 19.15
-17 8 2 90.14 23.77
-9 17 2 72.88 26.99
-17 8 3 205.32 31.5
9 -17 3 100.98 15.38
-9 17 3 176.42 29.88
-9 17 3 197.01 35.38
-17 8 3 144.66 31.59
-8 -9 3 187.81 26.64
-8 -9 4 13.51 13.39
-9 17 4 17.3 20.93
-17 8 4 28.61 21.37
-9 17 4 13.16 16.52
-9 17 5 37.39 27.03
-17 8 5 48.39 25.94
-8 -9 5 5.17 13.23
-9 17 6 59.43 36.24
-17 8 6 9.84 26.03
-7 -10 -6 30.09 26.31
10 -17 -6 2.51 21.34
-17 7 -5 44.54 30.1
-10 17 -5 29.64 28.22
10 -17 -5 40.2 22.83
-10 17 -4 19.23 19.53
-17 7 -4 5.74 6.36
7 10 -4 7.51 18.85
-17 7 -4 -1.38 24.49
17 -7 -4 -0.84 21.1
10 -17 -4 29.21 18.79
7 10 -3 158.55 29.7
10 -17 -3 154.41 29.31
17 -7 -3 198.74 36.81
-10 17 -3 182.17 35.82
17 -7 -3 158.13 26.94
-17 7 -3 198.13 41.54
7 10 -2 183.75 30.99
-10 17 -2 176.1 37.52
-17 7 -2 160.66 37.11
-17 7 -1 217.8 22.55
-10 17 -1 177.26 35.6
-17 7 -1 178.78 38.75
-10 17 -1 171.89 11.12
-17 7 0 57.13 16.2
-10 17 0 60.64 24.62
-17 7 0 60.62 18.13
-10 17 0 51.02 12.04
-17 7 0 51.31 26.27
-17 7 1 148.43 29.57
-10 17 1 168.33 24.96
-10 17 1 234.95 37.04
-17 7 1 152.65 24.54
-10 17 2 153.29 29.8
-17 7 2 232.79 35.82
-10 17 2 198.76 34.05
-17 7 2 159.28 27.51
-17 7 3 158.42 29.71
-10 17 3 203.96 32.46
-7 -10 3 187.8 25.08
10 -17 3 115.39 14.75
-17 7 3 181.72 30.8
-7 -10 4 5.1 10.23
-10 17 4 10.05 22.28
-17 7 4 7.16 15.82
-7 -10 5 33.97 16.9
-17 7 5 12.51 19.78
-10 17 6 19.42 32.94
-17 7 6 13.55 24.83
-6 -11 -6 52.37 32.97
11 -17 -6 19.68 25.6
11 -17 -5 13.37 23.71
-17 6 -5 13.5 28.75
-11 17 -5 52.37 29.89
-17 6 -4 13.84 8.18
-11 17 -4 1.82 21.62
6 11 -4 22.88 19.33
-17 6 -4 -1.58 25.82
11 -17 -4 -16.84 19.94
-17 6 -3 -3.47 21.69
6 11 -3 21.93 17.63
17 -6 -3 16.62 16.88
11 -17 -3 11.16 14.58
-11 17 -3 -14.63 21.36
-11 17 -2 64.3 26.58
-17 6 -2 101.44 30.22
6 11 -2 91.69 25.37
-17 6 -1 96.01 31.36
-11 17 -1 66.06 7.72
6 11 -1 63.72 14.52
-11 17 -1 50.85 22.27
-17 6 0 216.34 26.19
-11 17 0 228.3 21.97
-11 17 0 173.39 32.14
-17 6 0 219.67 38.99
-17 6 1 88.61 26.01
-11 17 1 87.24 19.91
-17 6 1 91.4 20.29
-11 17 1 34.01 17.7
-17 6 2 119.78 28.61
-11 17 2 58.42 19.11
-11 17 2 107.44 25.42
-17 6 2 70.28 19.44
-11 17 3 15.49 14.31
-6 -11 3 -2.11 10.13
-11 17 3 -6.52 17.87
11 -17 3 -1.73 5.96
-17 6 3 26.68 18.19
-6 -11 4 10.39 11.61
-11 17 4 4.66 13.6
-11 17 4 60.41 27.43
-17 6 4 14.22 20.28
-6 -11 5 24.73 15.99
-11 17 5 71.41 32.32
-17 6 5 27.93 19.73
-17 6 6 27.78 32.11
-11 17 6 46.36 38.14
-5 -12 -7 -25.88 32.79
12 -17 -6 21.21 30.65
-5 -12 -6 -14.16 26.25
-17 5 -5 4.46 22.68
12 -17 -5 15.89 27.04
-12 17 -5 8.67 21.47
12 -17 -4 23.28 19.07
-17 5 -4 35.53 11.39
-17 5 -4 40.78 30.02
-12 17 -4 17.81 20.42
-17 5 -3 -19.45 33.46
-12 17 -3 38.48 23.36
5 12 -3 41.47 22.9
12 -17 -3 13.03 18.2
5 12 -2 31.88 18
-12 17 -2 36.21 24.29
-17 5 -2 74.29 33.21
12 -17 -2 51.12 19.54
5 12 -2 30.94 12.12
-12 17 -1 49.61 25.89
5 12 -1 109.7 25.54
-17 5 -1 80.52 24.3
-12 17 -1 80.81 9.44
5 12 -1 82.98 15.41
-12 17 0 216.77 22.4
-12 17 0 237.48 38.73
-17 5 0 214.27 28.07
-17 5 0 212.7 36.51
-12 17 1 76.96 16.96
-17 5 1 73.83 25.65
-17 5 1 102.27 21.6
-12 17 1 85.56 26.58
-12 17 2 15.13 16.17
-12 17 2 39.99 19.37
-17 5 2 28.31 12.39
-12 17 3 12.72 24.09
-12 17 3 4.41 15.25
12 -17 3 11.6 6.14
-5 -12 4 55.96 17.72
-12 17 4 71.6 22.41
-12 17 4 13.61 19.7
-17 5 4 35.97 21.47
5 12 4 90.84 28.77
-5 -12 5 43.86 16.25
-12 17 5 4.5 21.27
-17 5 5 17.46 21.19
-12 17 6 14.24 25.42
-17 5 6 60.82 30.58
-4 -13 -7 -8.42 27.35
13 -17 -6 75.51 32.5
-4 -13 -6 -24.47 25.14
13 -17 -5 -8.98 24.86
-13 17 -5 -31.41 29.77
-17 4 -4 51.64 13.63
13 -17 -4 43.49 23.37
-13 17 -4 49.22 27.24
4 13 -4 59.21 30.09
-17 4 -4 24.22 22.77
-17 4 -3 73.95 32.84
-13 17 -3 45.43 23.19
13 -17 -3 49.91 24.34
4 13 -3 69.76 25.67
4 13 -3 42.49 16.36
-13 17 -2 65.08 26.15
4 13 -2 49.32 21.28
-17 4 -2 75.78 27.68
13 -17 -2 78.49 22.69
4 13 -2 48.37 13.41
-17 4 -1 504.53 58.48
4 13 -1 599.73 55.32
-13 17 -1 618.01 60.06
4 13 -1 598.61 36.3
-13 17 -1 648.92 27.32
-13 17 0 21.54 23.17
4 13 0 -7.63 18.38
-17 4 0 7.27 19.59
-13 17 0 -15.01 9.32
-17 4 1 633.6 58.3
-13 17 1 537.04 42.04
-13 17 1 594.3 54.55
-17 4 1 549.97 42.94
-13 17 2 49.58 17.43
-13 17 2 72.29 28.3
-17 4 2 25.73 18.69
-17 4 2 67.09 19.27
13 -17 3 33.62 5.8
4 13 3 19.41 18.31
-13 17 3 65.72 25.14
-13 17 3 55.78 20.53
-17 4 3 53.8 21.3
-4 -13 4 29.86 13.51
4 13 4 20.13 23.17
-13 17 4 55.65 20.54
-13 17 4 79.44 28.88
-17 4 4 62.76 23.86
-13 17 5 22.53 22.53
-17 4 5 4.92 19.8
-13 17 6 18.68 26.31
-17 4 6 -16.04 24.38
-3 -14 -7 -37.26 34.65
-3 -14 -6 -17.87 24.87
14 -17 -6 17.54 24.71
14 -17 -5 19.6 22.79
-14 17 -5 18.26 22.76
-14 17 -4 5.15 21.77
3 14 -4 -9.35 22.6
-17 3 -4 51.35 31.9
14 -17 -4 4.85 19.85
14 -17 -3 -19.35 20.23
3 14 -3 8.59 13.65
-14 17 -3 9.67 25.91
3 14 -3 57.6 25.86
-17 3 -3 19.25 25.36
3 14 -2 581 56.49
14 -17 -2 529.5 54.18
-17 3 -2 597.43 67.18
3 14 -2 619.11 38.61
-14 17 -2 585.84 60.33
-14 17 -1 77.07 29.68
3 14 -1 42.49 21.31
14 -17 -1 76.55 20.02
3 14 -1 70.1 13.64
-14 17 -1 82.68 11.83
-17 3 -1 110.34 33.61
-14 17 0 38.39 20.91
-17 3 0 86.46 27.39
3 14 0 55.27 23.33
-14 17 0 68.85 12.57
-17 3 1 63.57 19.98
3 14 1 120.17 32.27
-14 17 1 56 23.51
14 -17 1 77.81 12.72
-14 17 1 83.29 19.72
-17 3 1 60.11 26.16
3 14 2 679.89 61.55
-14 17 2 621 51.78
14 -17 2 545.3 21.15
-14 17 2 577.37 52.74
-17 3 2 595.1 48.27
-14 17 3 15.86 22.97
-14 17 3 16.88 19.1
3 14 3 -15.71 19.3
14 -17 3 1.85 2.89
-17 3 3 4.69 14.4
-3 -14 4 21.29 12.05
3 14 4 49.2 26.81
-14 17 4 -1.18 15.15
-14 17 4 6.38 18.72
-17 3 4 26.2 19.52
-14 17 5 -0.85 27.4
-17 3 5 -21.7 23.05
-14 17 6 10.07 24.36
-17 3 6 -32.16 24.1
-2 -15 -6 22.7 29.68
15 -17 -6 -17.55 25.03
-15 17 -5 2.5 24.18
15 -17 -5 5.45 24.62
15 -17 -4 54.68 27.64
-17 2 -4 51.74 32.12
2 15 -4 22.73 21.52
-15 17 -4 7.59 27.64
15 -17 -3 107.08 31.13
-15 17 -3 54.72 30.35
2 15 -3 124.27 32.91
2 15 -3 58.69 17.22
-17 2 -3 91.84 34.34
2 15 -2 221.91 40.03
15 -17 -2 221.3 36.76
-17 2 -2 219.26 43.63
2 15 -2 249.95 24.1
-15 17 -2 245.05 44.66
2 15 -1 77.1 24.64
15 -17 -1 113.7 26.13
-17 2 -1 85.07 26.8
-15 17 -1 85.91 29.13
2 15 -1 109.06 17.22
15 -17 0 230.13 28.31
2 15 0 221.57 37.23
15 -17 0 246.07 26.57
-17 2 0 277.26 43.27
-15 17 0 211.4 23.72
-15 17 0 193.87 34.63
-15 17 1 70.44 25.32
-17 2 1 138.2 28.97
2 15 1 101.77 30.08
15 -17 1 98.51 14.74
-15 17 1 105.24 20.56
15 -17 1 109.5 15.43
-17 2 1 127.25 24
2 15 2 242.28 40.04
15 -17 2 231.23 16.6
-15 17 2 212 31.23
-15 17 2 252.47 37.98
-17 2 2 221.98 31.18
-15 17 3 77.61 22.2
-15 17 3 89.64 28.48
2 15 3 100.01 29.03
15 -17 3 59.68 9.25
-17 2 3 106.32 25.62
-17 2 4 70.54 24.21
2 15 4 91.58 31
2 15 4 49.24 18.74
-15 17 4 56.92 29.49
-15 17 4 70.95 24.79
-15 17 5 67.77 32.35
-17 2 5 -9.86 18.89
-15 17 6 -33.37 32.16
-17 2 6 -23.2 19.98
-1 -16 -6 -6.53 29.12
16 -17 -6 101.71 37.09
-16 17 -5 -24.43 31.41
16 -17 -5 23.93 21.93
1 16 -4 110.29 34.95
16 -17 -4 39.5 19.78
-16 17 -4 35.82 28.86
16 -17 -3 78.57 30.93
1 16 -3 35.53 22.24
-16 17 -3 81.72 31.49
1 16 -3 52.3 14.22
-17 1 -3 35.36 26.75
16 -17 -2 29.01 15.67
-17 1 -2 -10.94 21.95
-16 17 -2 -9.64 22
1 16 -2 -11.11 19.26
1 16 -2 41.34 12.68
1 16 -1 37.78 11.8
-16 17 -1 49.86 27.32
1 16 -1 28.13 21.35
-17 1 -1 43.42 23.91
16 -17 -1 18.6 15.14
-16 17 0 6.46 19.08
16 -17 0 10.18 10.53
1 16 0 17.71 16.95
16 -17 0 -6.16 11.07
-17 1 0 7.01 17.65
-16 17 0 4.96 9.65
-17 1 1 42.16 16.2
1 16 1 55.49 24.97
-16 17 1 33.86 22
16 -17 1 32.88 9.98
16 -17 1 31.01 8.28
-16 17 1 55.35 15.66
1 16 2 -2.84 17.92
-17 1 2 14.82 15.25
-16 17 2 7.94 22.21
-16 17 2 15.06 15.82
16 -17 2 16.93 7.34
-17 1 3 17.02 18.21
-16 17 3 38.35 21.46
-16 17 3 102.23 30.28
1 16 3 59.04 23.71
-16 17 4 41.71 26.18
1 16 4 71.3 20.2
-16 17 4 55.09 23.18
1 16 4 65.6 27.45
-17 1 4 80.69 25.63
-16 17 5 30.14 27.27
-17 1 5 4.4 18.78
-16 17 6 -17.64 28.48
-17 1 6 18.12 25.42
17 -17 -6 -29.04 27.01
0 -17 -6 36.92 29.63
-17 17 -5 -9.56 26.62
17 -17 -5 38.65 32.41
17 -17 -4 27.27 20.13
0 17 -4 -4.08 22.95
-17 17 -4 -20.53 27.48
0 17 -3 30.11 11.17
0 17 -3 54.02 25.62
-17 17 -3 66.84 25.93
17 -17 -3 43.35 23.76
-17 17 -2 232.72 44.16
0 17 -2 140.21 33.44
17 -17 -2 244.58 39.76
0 17 -2 172.11 19.14
-17 0 -2 186.65 40.84
0 17 -1 479.7 55.61
17 -17 -1 472.08 43.39
-17 0 -1 496.43 56.74
0 17 -1 451.69 31.42
-17 17 -1 458.8 53.98
0 17 0 525.88 56.37
17 -17 0 472.93 37.37
-17 17 0 462.41 35.64
-17 0 0 464.26 50.69
17 -17 0 470.7 37.95
-17 17 0 463.69 53.77
0 17 1 500.67 54.97
17 -17 1 513.91 30.1
17 -17 1 476.73 33.15
-17 17 1 465.63 41.85
-17 17 1 480.18 53.81
-17 17 2 194.06 36.39
0 17 2 154.62 35.05
-17 17 2 169.02 30.32
17 -17 2 187.13 18.78
-17 0 2 132.56 25.86
0 17 3 61.99 22.6
-17 0 3 50.87 19.37
-17 17 3 68 27.27
-17 17 3 33.34 21.59
-17 17 4 -25.3 18.63
0 17 4 39.14 19.95
0 17 4 -16.96 21.23
-17 17 4 14.18 25.63
-17 0 4 16.91 17.56
-17 17 5 38.67 27.55
-17 0 5 -6.3 16.85
-17 17 6 78.29 41.11
-17 0 6 27.5 25.13
1 -18 -6 6.07 23.7
18 -17 -6 13.3 28.88
-18 17 -5 27.72 28.54
18 -17 -5 36.86 26.86
18 -17 -4 15.82 25.2
-1 18 -4 95.04 35.93
-18 17 -4 16.08 30.22
-1 18 -3 49.96 26.31
18 -17 -3 -19.97 23.37
-18 17 -3 10.6 22.57
18 -17 -2 53.98 23.74
-1 18 -2 64.36 24.98
-18 17 -2 51.54 30.77
-1 18 -2 46.69 11.18
18 -17 -1 77.38 22.27
-18 17 -1 41.9 25.13
-1 18 -1 53.78 26.49
18 -17 0 2.14 11.07
-1 18 0 31.91 24.68
-18 17 0 -12.64 21.91
-18 17 0 -0.14 10.18
-18 17 1 80.23 27.8
18 -17 1 63.13 11.6
-1 18 1 101.63 28.81
18 -17 1 54.08 13.49
-18 17 1 47.59 16.74
-17 -1 2 43.8 18.2
-1 18 2 36.79 22.85
-18 17 2 78.44 27.33
-18 17 2 53.7 21.09
18 -17 2 55.6 12.25
-17 -1 3 -11.28 15.51
-1 18 3 46.82 22.43
-18 17 3 -0.4 16
-18 17 3 30.58 20.56
-17 -1 4 30.24 22.77
-1 18 4 25.31 22.77
-18 17 4 28.12 25.92
-18 17 5 -21.33 25.33
-17 -1 5 -8.83 19.44
-18 17 6 -1.35 27.93
-17 -1 6 -50.46 26.5
18 -16 -6 24.22 28.32
2 -18 -6 -1.39 22.17
18 -16 -5 35.69 28.23
2 -18 -5 51.07 26.44
-18 16 -5 -8.51 27.84
-18 16 -4 89.8 33.17
18 -16 -4 70.4 28.19
-2 18 -4 90.68 31.14
18 -16 -3 100.67 30.4
-18 16 -3 74.57 26.07
-2 18 -3 97.06 31.97
-18 16 -2 156.04 39.7
18 -16 -2 87.29 29.45
-2 18 -2 152.87 34.96
-2 18 -2 109.08 13.61
18 -16 -1 77.43 19.43
-18 16 -1 88.26 34.47
-2 18 -1 98.25 32.88
18 -16 0 13.66 12.69
-2 18 0 32.6 19.51
-18 16 0 -10.14 20.67
-18 16 0 3.47 9.76
18 -16 1 62.15 10.44
-2 18 1 57.52 29.5
-18 16 1 108.06 29.96
18 -16 1 75 15.53
-18 16 1 40.65 16.38
-2 18 2 102.97 32.08
-18 16 2 121.3 26.56
-18 16 2 99.92 27.43
18 -16 2 109.21 17.14
-16 -2 2 112.36 24.2
-2 18 3 108.87 28.93
-2 18 3 101.32 27.97
-18 16 3 81.24 25.3
-16 -2 3 63.68 17.77
-18 16 3 87.75 29.97
-16 -2 4 16.33 16.69
-2 18 4 71.78 28.48
-18 16 4 50.25 23.09
-18 16 5 5.19 21.18
-16 -2 5 1.85 21.63
-16 -2 6 16.82 21.57
-18 16 6 0.93 26.93
-2 18 6 10.73 32.55
3 -18 -6 -4.87 21.22
18 -15 -6 -2.93 24.11
-3 18 -5 0.24 17.87
-3 18 -5 24.47 28.31
18 -15 -5 -2.66 24.27
-18 15 -5 3.72 25.18
3 -18 -5 1.55 17.74
-18 15 -4 68.13 36.79
15 3 -4 50.9 19.87
18 -15 -4 37.4 21.04
-3 18 -4 28.19 25.72
18 -15 -3 -9.87 21.54
-3 18 -3 39.54 26.34
-18 15 -3 34.42 27.53
-18 15 -2 714.72 70.05
18 -15 -2 871.14 66.73
-3 18 -2 799.02 70.53
-3 18 -2 690.97 27.56
-18 15 -1 69.15 27.1
18 -15 -1 47.58 19.74
-3 18 -1 49.06 22.56
-18 15 0 2.64 9.98
18 -15 0 16.22 11.27
-3 18 0 21.57 22.48
-18 15 0 14.04 19.72
18 -15 1 34.12 13.96
-3 18 1 83.32 26.61
-18 15 1 38.39 22
-18 15 1 60.83 18.29
-18 15 2 793.83 59.07
-3 18 2 692.6 63.97
-18 15 2 731.12 63.42
18 -15 2 777.46 42.31
-15 -3 2 803.28 55.99
-15 -3 3 31.81 16.38
-3 18 3 28.39 17.35
-18 15 3 58.11 26.54
-3 18 3 26.5 21.47
-18 15 3 33.41 19.04
-15 -3 4 31.69 16.8
-3 18 4 9.1 17.02
-18 15 4 58.2 26.55
-18 15 5 32.28 24.47
-15 -3 5 -18.76 17.97
-3 18 6 -36.97 38.04
-18 15 6 60.85 35.54
-15 -3 6 -37.41 26.27
4 -18 -6 32.77 21.79
18 -14 -6 -38.59 33.11
4 -18 -5 19.11 20.39
-4 18 -5 27.2 31.06
-4 18 -5 7.35 18.44
18 -14 -5 -27.32 32.66
-18 14 -5 19.25 27.45
14 4 -4 32.91 17.06
-18 14 -4 1.11 28.52
18 -14 -4 79.9 31.93
-4 18 -4 51.98 33.4
-18 14 -3 136.69 35.6
18 -14 -3 141.43 34.52
-4 18 -3 130.69 32.91
18 -14 -2 61.15 24.6
-4 18 -2 112.62 32.03
-18 14 -2 135.84 35.9
18 -14 -1 81.4 20.78
-4 18 -1 64.67 25.6
-18 14 -1 91.02 30.35
-18 14 0 84.7 26.03
18 -14 0 111.61 18.65
-18 14 0 95.43 18.13
-4 18 0 124.6 31.84
-18 14 1 88.05 29.1
18 -14 1 64.54 14.67
-18 14 1 80.94 19.23
-4 18 1 40.81 18.93
-4 18 2 52.34 19.45
18 -14 2 68 15.39
-18 14 2 70.78 23.38
-18 14 2 95.31 27.89
-14 -4 2 69.79 21.12
-4 18 3 140.02 30.4
-18 14 3 146.94 30.56
-18 14 3 124.56 29.07
-4 18 3 115.26 26.54
-14 -4 3 157.89 27.51
-18 14 4 70.28 23.35
-4 18 4 59.02 22.45
-18 14 4 38.55 21.25
-14 -4 4 58.25 19.79
-18 14 5 22.74 26.53
-14 -4 5 12.06 16.01
-4 18 6 -29.47 39.72
-18 14 6 -37.11 27.21
-14 -4 6 21.4 18.31
5 -18 -6 2.27 21.71
18 -13 -6 -10.1 31.1
5 -18 -5 36.4 20.68
18 -13 -5 21 27.39
-5 18 -5 11.5 24.06
-18 13 -5 -0.38 24.98
-18 13 -4 22.97 23.03
13 5 -4 26.19 15.35
18 -13 -4 56.63 32.34
-5 18 -4 37.27 23.02
-5 18 -4 23.75 26.09
-18 13 -3 17.42 26.67
18 -13 -3 30.52 22.04
-5 18 -3 -24.14 26.71
18 -13 -2 402.06 46.58
-18 13 -2 374.7 54.72
-5 18 -2 357.38 47.86
18 -13 -1 343.28 37.93
-5 18 -1 372.05 46.36
-18 13 -1 348.13 48.8
-18 13 0 -4.9 9.9
18 -13 0 6.21 9.28
-5 18 0 13.52 16.71
-18 13 0 -21.53 19.59
-5 18 1 419.3 49.63
-18 13 1 337.08 36.49
-18 13 1 338.05 43.61
18 -13 1 339.87 30.45
-13 -5 2 403.14 38.64
-5 18 2 369.79 45.15
-18 13 2 435.67 48.08
-18 13 2 400.12 41.82
18 -13 2 353.83 30.45
-5 18 2 374.84 43.42
-13 -5 3 2.05 14.01
-18 13 3 -10.21 18.71
-18 13 3 -8.94 15.62
-13 -5 4 14.62 15.22
-18 13 4 35.57 16.93
-5 18 4 -5.52 16.57
-18 13 4 10.85 20.06
-5 18 5 -16.97 31.83
-18 13 5 40.82 27.9
-13 -5 5 37.91 22.08
-5 18 6 55.11 38.15
-18 13 6 -18.87 29.89
-13 -5 6 -22.17 21.39
18 -12 -6 39.7 30.53
6 -18 -6 -0.37 21.33
-18 12 -5 -13.85 26.04
6 -18 -5 35.59 22.91
-6 18 -5 10.34 22.04
18 -12 -5 -9.46 30.6
-6 18 -4 33.07 26.51
-18 12 -4 41.13 27.59
-6 18 -4 19.37 16.59
12 6 -4 74.25 24.44
18 -12 -4 24.07 21.02
18 -12 -3 22.51 18.99
-18 12 -3 -56.02 30.94
-6 18 -3 -54.05 28.19
-18 12 -2 34.19 21.53
18 -12 -2 104.79 25.81
-6 18 -2 65.26 22.98
-18 12 -1 75.72 27.97
18 -12 -1 73.53 19.58
-6 18 -1 51.09 26.42
-18 12 0 29.25 12.01
-18 12 0 37.09 13.92
-6 18 0 47.67 31.47
-18 12 0 21 23.08
-18 12 1 40.53 22.53
-6 18 1 20.27 20.29
-18 12 1 32.65 16.19
-12 -6 2 60.97 18.08
-6 18 2 58.74 23.45
-18 12 2 94.91 26.79
-6 18 2 47.59 18.97
-18 12 2 53.73 18.3
-12 -6 3 -0.95 13.66
-6 18 3 18.65 16.31
-18 12 3 5.77 17.2
-18 12 3 24.75 19.18
-12 -6 4 18.25 14.71
-18 12 4 27.96 14.05
-6 18 4 37.55 18.82
-18 12 4 -6.19 21.62
-18 12 5 -47.46 26.91
-12 -6 5 7.8 15.39
-6 18 6 59.66 40.36
-18 12 6 24.01 25.81
-12 -6 6 21.6 21.48
7 -18 -6 44.1 28.46
-11 -7 -6 4.78 21.49
18 -11 -6 27.5 29.14
-18 11 -5 31.46 31.45
-7 18 -5 13.94 24.8
18 -11 -5 9.12 26.94
7 -18 -5 -13.55 21.84
-7 18 -4 26.65 21.95
7 -18 -4 25.65 15.72
18 -11 -4 12.46 21.92
-18 11 -4 46.33 29.21
-7 18 -4 33.8 20.99
11 7 -4 20.45 20.62
-18 11 -3 171.81 40.1
11 7 -3 207.54 31.27
18 -11 -3 195.27 38.34
-7 18 -3 217.89 41.34
-7 18 -3 214.02 36.44
-18 11 -2 220.96 44.23
-7 18 -2 206.42 37.58
18 -11 -2 181.13 28.77
-18 11 -1 62.2 23.41
-18 11 -1 73.8 12.01
18 -11 -1 77.15 21.16
-7 18 -1 73.72 8.98
-7 18 -1 70.15 26.81
-7 18 0 357.37 47.39
-18 11 0 371.34 49.26
-18 11 0 417.68 34.61
-18 11 0 401.79 34.32
-7 18 1 83.68 27.53
-18 11 1 66.93 25.29
-7 18 1 59.63 25.54
-18 11 1 90.16 21.74
-7 18 2 174.2 34.19
-18 11 2 230.64 36.46
-18 11 2 221.24 32.35
-18 11 3 250.27 36.75
-7 18 3 209.27 35.99
-18 11 3 167.65 30.79
-11 -7 3 186.09 28.98
-18 11 4 24.38 16
-11 -7 4 24.6 14.37
-7 18 4 47.98 30.73
-7 18 4 14.05 15.32
-18 11 4 -23.96 22.07
-11 -7 5 12.38 16.56
-7 18 5 -5.55 24.43
-18 11 5 -15.23 26.06
-7 18 6 -6.77 27.63
-18 11 6 4.34 27.47
-11 -7 6 11.35 17.29
8 -18 -6 -44.67 25.85
18 -10 -6 -9.57 27.16
-10 -8 -6 -16.33 25.71
8 -18 -5 43.73 26.1
-8 18 -5 35.78 26.33
18 -10 -5 6.98 22.95
-18 10 -5 -18.4 28.48
10 8 -4 108.87 29.93
8 -18 -4 104.81 27.49
18 -10 -4 100.66 33.88
-8 18 -4 184.66 39.8
-18 10 -4 132.5 42.98
-8 18 -3 58.86 23.68
10 8 -3 88.46 25.62
18 -10 -3 67.9 25.61
-18 10 -3 68.54 36.11
-8 18 -3 58.99 26.8
-18 10 -2 96.46 33.82
18 -10 -2 91 23.07
-8 18 -2 120.92 30.52
-8 18 -2 69.55 23.75
-18 10 -1 50.1 26.94
18 -10 -1 45.22 17.29
-8 18 -1 38.23 6.35
-18 10 -1 42.48 11.56
-8 18 -1 51.31 22.39
-8 18 -1 35.18 23.07
-18 10 0 61 15.39
-18 10 0 44.45 25
-8 18 0 49 21.27
-8 18 0 69.04 14.58
-18 10 0 87.28 18.55
-8 18 0 61.65 25.21
-8 18 1 33.65 20.37
-18 10 1 57.71 24.83
-8 18 1 31.02 21.14
-18 10 1 28.93 15.49
-8 18 2 134.87 29.31
-18 10 2 90.26 25.86
-18 10 2 43.85 17.61
-10 -8 3 70.43 18.33
-18 10 3 73.6 25.35
-8 18 3 97.94 24.6
-18 10 3 65.54 19.57
-8 18 4 133.38 38.94
-18 10 4 92.84 30.1
-8 18 4 117.9 26.35
-10 -8 4 106.35 24.33
-18 10 5 34.74 25.83
-10 -8 5 -5.74 14.58
-8 18 5 -3.08 24.63
-8 18 6 22.39 31.77
-18 10 6 -10.38 29.22
-9 -9 -6 77.28 35.38
9 -18 -6 -5.97 25.39
9 -18 -5 -28.94 23.68
-9 18 -5 29.45 24.19
18 -9 -5 43.97 24.47
-18 9 -5 7.13 23.32
-9 18 -4 22.09 22.62
-18 9 -4 13.68 23.89
9 -18 -4 18.47 17.6
9 9 -4 16.74 18.02
18 -9 -4 11.28 23.23
-9 18 -3 -22.4 22.83
18 -9 -3 68.23 28.83
-9 18 -3 17.94 18.58
9 9 -3 15.87 16.99
-18 9 -3 55.18 30.97
-18 9 -2 108.8 11.4
18 -9 -2 137.4 30.87
-9 18 -2 91.41 27.01
-18 9 -2 159.96 40.96
-9 18 -2 114.24 30.61
-18 9 -1 32.87 11.82
-18 9 -1 66.98 28.23
-9 18 -1 50.1 7.01
-9 18 -1 11.05 20.97
-9 18 -1 56.07 21.83
-18 9 0 -1.34 10.22
-9 18 0 -26.51 18.38
-18 9 0 -2.19 19.04
-9 18 0 -15.57 10.69
-9 18 0 -22.85 17.97
-18 9 0 7.55 10.6
-18 9 1 55.42 15.85
-9 18 1 46.78 16.96
-18 9 1 25.32 21.2
-9 18 1 71.79 25.29
-18 9 2 92.46 26.3
-9 18 2 102.29 24.43
-9 18 2 106.32 26.72
-18 9 2 141.67 26.16
-9 -9 3 30.42 13.46
-18 9 3 33.09 20.05
9 -18 3 19.62 9.99
-9 18 3 32.05 21.31
-9 18 3 24.48 16.35
-18 9 3 54.39 18.55
-9 -9 4 -9.17 12.08
-9 18 4 30.55 27.81
-18 9 4 11.74 20.84
-9 18 4 32.95 20
-9 -9 5 -11.34 16.18
-9 18 5 1.22 28.3
-18 9 5 23.03 23.43
-9 18 6 50.58 36.16
-18 9 6 14.72 25.68
-8 -10 -6 10.73 26.18
10 -18 -6 13.3 21.69
-18 8 -5 17.47 23.07
10 -18 -5 43.84 25.23
-10 18 -5 -41.52 28.18
-10 18 -4 41.73 27.46
10 -18 -4 -34.34 20.37
-18 8 -4 23.73 33.06
8 10 -4 16.3 19.77
18 -8 -4 22.56 20.52
-18 8 -3 14.3 22.69
-10 18 -3 5.95 20.89
-18 8 -3 10.03 4.68
8 10 -3 18.92 15.79
18 -8 -3 24.38 20.59
10 -18 -3 16.98 15.83
8 10 -2 47.36 19.33
-18 8 -2 62.36 24.39
-10 18 -2 55.46 24.4
-18 8 -2 30.66 8.53
-10 18 -1 146.58 29.61
-18 8 -1 191.05 22.34
-18 8 -1 156.58 38.19
-10 18 -1 141.84 10.55
-10 18 -1 151.43 31.68
-18 8 0 10.88 13.21
-18 8 0 18.4 20.38
-10 18 0 30.42 20.54
-10 18 0 16.45 11.42
-18 8 0 26.03 13.65
-10 18 1 151.18 32.07
-10 18 1 159.91 24.1
-18 8 1 99.02 20.26
-18 8 1 94.41 27.63
-10 18 2 63.41 21.97
-10 18 2 47.28 20.87
-18 8 2 85.63 28.38
-18 8 2 75.07 20.44
-8 -10 3 -8.56 11.06
-18 8 3 20.77 16.32
-10 18 3 -28.12 25.55
10 -18 3 5.25 6.57
-18 8 3 11.2 16.09
-10 18 3 27.22 18.31
-8 -10 4 3.93 12.18
-10 18 4 1.27 21.77
-10 18 4 -6.2 16.49
-18 8 4 6.66 18.83
-8 -10 5 14.39 13.1
-10 18 5 -12.58 29.77
-18 8 5 27.94 24.09
-10 18 6 -45.64 33.96
-18 8 6 15.7 33.5
-7 -11 -6 43.06 32.26
11 -18 -6 55.05 32.02
11 -18 -5 2.75 21.43
-11 18 -5 18.33 24.34
7 11 -4 -27.43 23.41
-18 7 -4 6.94 24.52
-11 18 -4 7.21 25.37
11 -18 -4 4.34 16.33
7 11 -3 8.23 18.6
-11 18 -3 45.68 29.75
11 -18 -3 14.48 16.23
-18 7 -3 -10.67 28.04
-11 18 -2 88.95 26.34
7 11 -2 91.04 23.8
-18 7 -2 96.26 28.92
-18 7 -1 427.49 33.2
-11 18 -1 448.98 53.7
-18 7 -1 468.99 56.87
-11 18 -1 443.61 18.97
-18 7 0 216.55 27.85
-11 18 0 186.77 33.99
-18 7 0 246.52 41.06
-11 18 0 238.16 23.66
-18 7 1 444.3 39.63
-11 18 1 422.76 36.94
-11 18 1 357.86 44.5
-18 7 1 408.56 49.49
-11 18 2 98.02 24.94
-18 7 2 100.96 27.42
-18 7 2 107.03 24.66
-11 18 2 115.45 28.24
-7 -11 3 -16.26 10.56
11 -18 3 6.18 6.48
-18 7 3 29.09 18.5
-11 18 3 7.91 19.3
-18 7 3 -14.85 17.94
-11 18 3 -26.16 20.79
-7 -11 4 16.3 13.06
-11 18 4 -7 14.61
-11 18 4 -3.9 19.36
-18 7 4 9.77 16.49
-7 -11 5 -2.55 11.99
-18 7 5 46.13 26.39
-11 18 5 63.26 31.83
-11 18 6 30.55 33.16
-18 7 6 27.26 27.61
-6 -12 -6 -43.67 29.44
12 -18 -6 24.44 26.95
-18 6 -5 74.38 32.53
12 -18 -5 7.62 20.74
-12 18 -5 25.63 22.84
-18 6 -4 8.39 24.07
6 12 -4 78.03 29.03
-18 6 -4 23.6 8.9
12 -18 -4 26.43 20.29
-12 18 -4 1.75 19.75
12 -18 -3 88.03 25.5
-12 18 -3 66.76 26.85
6 12 -3 48.21 23.51
-18 6 -3 99.19 40.72
-12 18 -2 -26.81 21.21
-18 6 -2 9.96 25.01
6 12 -2 12.63 15.61
-12 18 -1 132.82 30.82
6 12 -1 148.21 33.58
-18 6 -1 100.11 31.69
-12 18 -1 112.41 11.02
-18 6 0 28.92 13.92
-18 6 0 39.75 27.84
-12 18 0 21.98 10.49
-12 18 0 49.93 21.83
-18 6 1 118.44 29.21
-12 18 1 113.06 22.8
-12 18 1 163.12 32.11
-18 6 1 80.61 21.22
-18 6 2 12.1 16.09
-12 18 2 21.02 16.13
-12 18 2 18.7 16.17
-18 6 2 18.43 16.27
-12 18 3 65.71 22.51
12 -18 3 37.96 8.44
-18 6 3 42.17 20.49
-6 -12 4 0.15 11.03
-12 18 4 -11.67 16.08
-12 18 4 -11.79 22.41
-6 -12 5 31.92 18.17
-12 18 5 57.47 33.79
-18 6 5 49.72 25.6
-12 18 6 51.77 37.54
-18 6 6 40.17 28.8
13 -18 -6 9.59 27.77
-5 -13 -6 -62.77 38.7
13 -18 -5 18.72 20.75
-18 5 -5 -14.95 29.15
-13 18 -5 22.82 26.55
13 -18 -4 35.34 24.29
-18 5 -4 -10.5 29.02
-13 18 -4 -8.01 21.72
-18 5 -4 9.82 8.34
5 13 -4 29.47 29.5
13 -18 -3 93.99 28.33
-13 18 -3 81.59 28.99
5 13 -3 85.07 28.85
-18 5 -3 81.98 33.77
-18 5 -2 374.49 55.55
5 13 -2 339.13 44.14
13 -18 -2 316.21 42.07
5 13 -2 284.34 28.83
-13 18 -2 343.12 48.47
5 13 -1 141.53 29.28
-18 5 -1 171.3 33.74
-13 18 -1 155.66 37
-13 18 -1 162.82 13.96
5 13 -1 143.02 20.36
-18 5 0 806.74 69.07
5 13 0 656.27 59.4
-13 18 0 778.09 41.59
-13 18 0 716.12 62.84
-18 5 1 193.14 36.39
-13 18 1 144.54 33.56
-13 18 1 147.94 24.88
-18 5 1 153.49 26.28
-13 18 2 370.6 41.73
-18 5 2 393.55 47.02
-13 18 2 312.47 41.51
-18 5 2 349.63 39.16
-13 18 3 97.8 25.74
13 -18 3 54.68 8.35
-13 18 3 95.02 27.96
-18 5 3 57.8 21.84
-5 -13 4 0.06 11.33
-13 18 4 -1.28 20.77
-13 18 4 29.01 18.47
-18 5 4 10.92 17.46
5 13 4 -4.26 21.28
-13 18 5 9.03 25.37
-18 5 5 12.57 22.93
-13 18 6 8.81 26.9
-18 5 6 9 21.58
-4 -14 -6 82.52 41.64
14 -18 -6 4.5 21.96
14 -18 -5 2.53 18.74
-14 18 -5 -10.63 24.26
4 14 -4 -23.37 19.78
-18 4 -4 35.81 28.1
14 -18 -4 27.47 23.45
-14 18 -4 -11.93 21.21
-18 4 -3 154.9 40.99
4 14 -3 155.11 34.81
14 -18 -3 162.27 35.8
-14 18 -3 63.67 28.72
-14 18 -2 41.05 25.38
14 -18 -2 80.27 25.83
4 14 -2 27.03 22.55
-18 4 -2 35.68 26.48
4 14 -2 43.82 11.68
4 14 -1 20.76 11.17
-14 18 -1 14.11 7.22
-14 18 -1 -40.05 25.4
-18 4 -1 14.39 20.52
14 -18 -1 29.37 19.31
4 14 -1 -2.54 18.37
-14 18 0 118.96 29.17
4 14 0 159.95 36.34
-14 18 0 173.48 21.19
-18 4 0 98.11 30.57
-18 4 1 12.12 13
-14 18 1 -2.48 17.48
-18 4 1 9.27 21.3
-14 18 1 3.52 11.14
4 14 1 43.87 25.08
-14 18 2 57.65 22.35
-18 4 2 53.59 22.03
-18 4 2 51.93 18.48
-14 18 2 133.83 28.02
4 14 2 49.7 24.53
-14 18 3 185.09 36.8
4 14 3 103 30.8
-14 18 3 159.06 31.88
-18 4 3 125.36 25.94
-18 4 4 28.09 16.77
-4 -14 4 0.59 9.98
4 14 4 9.19 25.3
-14 18 4 -7.56 18.65
-14 18 4 22.89 21.06
-14 18 5 40.74 31.02
-18 4 5 -12 20.57
-14 18 6 22.58 29.23
-18 4 6 23.77 24.67
15 -18 -6 43.32 31.87
-3 -15 -6 -2.67 26.35
15 -18 -5 38.74 27.66
-15 18 -5 24.38 28.89
-18 3 -4 -10.28 24.66
15 -18 -4 21.58 23.58
-15 18 -4 8.58 23.13
3 15 -4 19.86 27.02
3 15 -3 43.41 23.89
15 -18 -3 20 23.1
-15 18 -3 10.56 19.84
-18 3 -3 34.33 25.85
3 15 -2 261.86 41.92
15 -18 -2 324.78 44.19
-18 3 -2 245.05 48.48
3 15 -2 290.25 27.26
-15 18 -2 282.35 45.36
3 15 -1 111.64 31.78
-18 3 -1 94.98 30.79
-15 18 -1 97.21 29.64
15 -18 -1 82.2 24.05
3 15 -1 113.49 18.27
-15 18 -1 111.92 14.85
-15 18 0 -0.42 18.5
15 -18 0 -0.2 10.94
3 15 0 -0.94 17.64
-18 3 0 39.53 22.37
-15 18 0 9.59 10.53
-15 18 1 124.53 31.85
-18 3 1 109.65 28.76
3 15 1 138.43 34.87
15 -18 1 105.53 14.2
-15 18 1 108 22.38
-18 3 1 135.04 25.74
3 15 2 333.91 47.47
15 -18 2 303.21 16.52
-15 18 2 369.32 42.09
-18 3 2 341.42 39.53
-15 18 2 327.88 42.94
3 15 3 39.17 23.33
-15 18 3 -2.09 15.47
-15 18 3 13.5 16.73
-18 3 3 49.27 20.64
3 15 4 -1.99 20.38
-15 18 4 0.27 17.6
-15 18 4 9.15 22.21
-18 3 4 20.29 17.72
-15 18 5 -8.56 23.99
-18 3 5 25.39 20.78
-15 18 6 34.36 35.02
-18 3 6 0.02 22.38
-2 -16 -6 73 36.57
16 -18 -6 -14.04 27.61
-16 18 -5 60.09 34.23
16 -18 -5 26.19 20.54
16 -18 -4 -25.26 28.29
2 16 -4 27.65 29.05
-16 18 -4 56.42 30.17
-16 18 -3 306.89 50.23
2 16 -3 405.6 51.95
16 -18 -3 395.69 53.14
2 16 -3 316.95 33.32
-18 2 -3 410.18 59.58
16 -18 -2 239.16 39.18
-18 2 -2 208.89 42.91
2 16 -2 151.26 20.3
2 16 -2 189.02 35.88
-16 18 -2 214.42 42.73
16 -18 -1 100.45 24.09
2 16 -1 153.96 34.72
-18 2 -1 110.79 31.93
-16 18 -1 110.73 33.44
2 16 -1 106.55 17.07
16 -18 0 251.13 27.95
2 16 0 252.25 42.13
16 -18 0 285.81 30.19
-18 2 0 280.3 43.97
-16 18 0 309.71 28.26
-16 18 0 207.7 39.61
2 16 1 104.64 30.16
-18 2 1 99.74 28.59
-18 2 1 104.97 22.77
-16 18 1 93.41 26.28
16 -18 1 103.24 17.06
16 -18 1 98.46 15.31
-16 18 1 109.27 20.71
2 16 2 216.45 38.49
16 -18 2 173.66 15.68
-16 18 2 208.16 33.45
-16 18 2 110.9 29.32
-18 2 2 183.99 29.59
2 16 3 314.34 48.05
-16 18 3 424.64 52.39
-18 2 3 351.75 43.19
-16 18 3 271.78 40.63
2 16 4 30.02 19.78
2 16 4 15.59 22.78
-16 18 4 38.27 24.45
-16 18 4 10.16 17.98
-18 2 4 33.91 20.47
-16 18 5 8.58 23.47
-18 2 5 90.5 30.2
-16 18 6 60.79 37.93
-18 2 6 24.85 24.93
-1 -17 -6 1.54 26.55
17 -18 -6 18.6 23.3
-17 18 -5 -14.03 24.64
17 -18 -5 3.28 22.12
17 -18 -4 20.98 27.81
1 17 -4 -53.42 27.39
-17 18 -4 22.83 27.64
17 -18 -3 68.74 28.09
1 17 -3 34.1 24.54
-17 18 -3 68.45 30.74
-18 1 -3 40.33 28.28
17 -18 -2 546.76 55.54
1 17 -2 469.46 32.06
1 17 -2 473.58 56.33
-18 1 -2 459.14 59.59
-17 18 -2 494.71 60.75
1 17 -1 388.98 50.06
17 -18 -1 324.44 39.25
-18 1 -1 380.31 51.08
-17 18 -1 321.27 49.53
1 17 -1 349.18 29.15
17 -18 0 44.99 15.66
-17 18 0 37.24 24.09
-18 1 0 37.02 21.1
17 -18 0 56.34 16.52
1 17 0 43.56 23.92
-17 18 0 51.47 14.76
1 17 1 316.94 47.41
17 -18 1 365.46 25.88
-17 18 1 305.99 33.77
-17 18 1 386.13 50.64
17 -18 1 345.96 27.87
1 17 2 505.15 57.03
17 -18 2 473.47 27.99
-17 18 2 528.21 49.45
-18 1 2 451.73 43.92
-17 18 2 396.47 49.63
-18 1 3 5.47 14.43
1 17 3 37.48 22.32
-17 18 3 34.94 19.28
-17 18 3 1.88 19.74
1 17 4 8.76 26.01
1 17 4 7.02 18.2
-17 18 4 7.11 22.11
-17 18 4 32.78 21.91
-18 1 4 28.24 21.13
-17 18 5 14.22 23.86
-18 1 5 20.09 20.91
-17 18 6 41.6 29.86
-18 1 6 -10.74 23.04
0 -18 -6 10.44 27.47
18 -18 -6 -38.13 30.84
-18 18 -5 237.86 50.94
18 -18 -5 10.7 24
18 -18 -4 50.94 32.81
0 18 -4 13.44 23.46
-18 18 -4 -33.52 31.32
18 -18 -3 140.59 33.88
0 18 -3 143.75 38.79
-18 18 -3 98.59 33.76
-18 18 -2 512.59 62.66
-18 0 -2 405.27 56.04
0 18 -2 518.71 61.26
18 -18 -2 528.87 56.61
0 18 -2 463.74 30.62
0 18 -1 58.2 12.91
-18 0 -1 73.24 30.21
18 -18 -1 61.88 20.18
0 18 -1 80.89 27.99
-18 18 -1 68.39 27.45
18 -18 0 1.67 11.6
0 18 0 30.72 20.47
-18 18 0 25.02 18.93
-18 18 0 1.04 10.53
0 18 1 111.62 31.81
-18 18 1 104.14 30.06
18 -18 1 71.2 13.19
-18 18 1 68.12 17.68
18 -18 1 81.98 16.07
-18 18 2 413.29 52.69
0 18 2 366.71 50.37
18 -18 2 402.77 28.39
-18 18 2 446.77 46.02
-18 0 2 395.85 43.5
0 18 3 75.4 28.26
-18 18 3 109.69 31.27
-18 18 3 94.07 27.65
-18 0 3 122.7 27.52
-18 0 4 66.46 24.24
0 18 4 31.79 21.33
-18 18 4 47.29 29.33
0 18 4 35.54 18.1
-18 18 5 49.85 31.14
-18 0 5 38.82 24.24
-18 18 6 28.78 31.05
-18 0 6 -17.16 23.86
1 -19 -6 21.41 28.65
19 -18 -6 4.84 28.83
-19 18 -5 140.33 47.01
19 -18 -5 86.06 37.72
-1 19 -4 66.72 32.62
19 -18 -4 -1.35 21.12
-19 18 -4 5.3 25.36
19 -18 -3 139.56 37.49
-19 18 -3 78.68 33.97
-1 19 -3 170.75 41.04
-19 18 -2 291.22 53.66
19 -18 -2 255.87 41.53
-1 19 -2 267.51 44.04
-1 19 -2 235.7 21.63
19 -18 -1 116.15 27.62
-1 19 -1 121.67 33.27
-19 18 -1 117.36 38.24
19 -18 0 70.05 18.9
-19 18 0 29.56 21.55
-19 18 0 53.18 16.67
19 -18 1 82.65 16.7
19 -18 1 64.85 11.95
-1 19 1 100.55 30.43
-19 18 1 70.82 23.38
-19 18 1 85.64 20.35
-19 18 2 205.6 38.87
-1 19 2 244.05 42.52
19 -18 2 229.93 24.6
-19 18 2 269.53 37.6
-18 -1 2 242.35 34.96
-1 19 3 120.12 32.43
-19 18 3 151.96 33.11
-19 18 3 181.1 36.66
-18 -1 3 94.65 26.69
-18 -1 4 22.44 18.29
-1 19 4 42.73 24.06
-19 18 4 69.76 27.74
-18 -1 5 36.46 21.81
-19 18 5 12.18 21.13
-19 18 6 17.35 29.61
-18 -1 6 -8.79 20.87
19 -17 -6 32.15 32.42
2 -19 -6 0.52 22.98
2 -19 -5 -5.97 20.05
-19 17 -5 32.18 33.01
19 -17 -5 18.01 26.24
-19 17 -4 65.65 33.33
19 -17 -4 136.84 39.78
-2 19 -4 76.86 34.18
19 -17 -3 104.29 31.84
-2 19 -3 112.89 33.41
-19 17 -3 79.63 30.85
-19 17 -2 168.22 42.91
19 -17 -2 126.58 32.39
-2 19 -2 174.93 39.5
-2 19 -2 124.68 15.45
19 -17 -1 22.65 18.4
-2 19 -1 46.32 23.53
-19 17 -1 38.76 25.95
-19 17 0 44.93 14.98
-2 19 0 73.15 28
19 -17 0 33.08 14.95
-19 17 0 42.82 31.27
-19 17 1 62.29 28.65
19 -17 1 30.22 9.02
19 -17 1 36.94 12.38
-19 17 1 14.74 13.12
-19 17 2 133.84 33.26
-2 19 2 153.38 33.78
-19 17 2 130.77 27.37
19 -17 2 131.57 18.39
-17 -2 2 135.37 25.88
-17 -2 3 71.22 21.18
-2 19 3 114.65 30.03
-2 19 3 50.57 22.53
-19 17 3 77.05 26.58
-19 17 3 93.92 30.87
-17 -2 4 46.51 19.43
-2 19 4 61.92 28.26
-19 17 4 20.78 23.32
-17 -2 5 -1.75 19.98
-19 17 5 -12.91 24.7
-19 17 6 29.24 29.41
-17 -2 6 -24.2 21.29
3 -19 -6 -6.52 22.56
19 -16 -6 2.46 29.52
-3 19 -5 -11.79 25.34
3 -19 -5 21.77 21.9
19 -16 -5 16.96 27.8
-19 16 -5 -7.59 30.99
-3 19 -5 -8.22 22.5
-19 16 -4 10.48 24.8
16 3 -4 48.47 20.66
19 -16 -4 51.69 31.18
-3 19 -4 64.08 31.08
19 -16 -3 135.96 33.92
-3 19 -3 106.46 36.15
-19 16 -3 133.11 40.89
19 -16 -2 14.11 17.58
-3 19 -2 -6 19.21
-3 19 -2 15.57 6.55
-3 19 -1 75.85 28.8
19 -16 -1 88.62 21.47
-19 16 -1 127.8 36.39
-19 16 0 47.18 15.8
19 -16 0 71.7 17
-3 19 0 34.35 24.88
-19 16 0 46.21 25.86
-19 16 1 115.97 32.89
-3 19 1 94.58 29.49
19 -16 1 101.4 18.85
-19 16 1 125.86 24.92
-16 -3 2 23.84 16.14
-3 19 2 -12.32 18.71
-19 16 2 2.52 21.1
-19 16 2 20.69 17.4
19 -16 2 18.64 9.8
-16 -3 3 86.31 24.6
-3 19 3 148.7 32.07
-19 16 3 160.28 33.44
-3 19 3 115.58 31.04
-19 16 3 97.31 27.22
-16 -3 4 38.62 17.36
-3 19 4 73.84 28.16
-19 16 4 83.46 29.55
-16 -3 5 -5.97 17.39
-19 16 5 6.85 21.23
-3 19 6 2.31 35.62
-19 16 6 46.63 30.36
-16 -3 6 -12.13 18.19
4 -19 -6 -22.48 21.86
19 -15 -6 41.56 32.68
4 -19 -5 17.29 20.43
-4 19 -5 27.27 27.36
-4 19 -5 2.5 18.36
-19 15 -5 38.85 28.9
19 -15 -5 -13.25 30.99
-19 15 -4 -16.37 25.17
19 -15 -4 11.87 24.79
15 4 -4 -2.04 16.13
-4 19 -4 -8.62 30.87
-19 15 -3 7.15 23.71
19 -15 -3 45.48 24.5
-4 19 -3 88.94 34.44
19 -15 -2 141.48 32.22
-4 19 -2 79.33 26.61
-19 15 -2 70.29 30.81
-19 15 -1 130.02 32.37
19 -15 -1 139.18 27.1
-4 19 -1 131.8 31.67
-19 15 0 414.81 53.15
19 -15 0 392.93 35.55
-19 15 0 400.71 35.82
-4 19 0 418.44 50.03
-4 19 1 125.28 33.87
-19 15 1 155.79 25.72
-19 15 1 120.97 33.37
-15 -4 2 83.86 20.49
-4 19 2 76.58 25.13
-19 15 2 72.75 25.15
-19 15 2 118.83 26.8
19 -15 2 67.2 15.89
-4 19 3 84.59 26.39
-19 15 3 36.82 23.03
-4 19 3 28.91 20.95
-19 15 3 44.33 21.63
-15 -4 3 44.36 17.86
-15 -4 4 9.5 15.46
-4 19 4 1.03 18.29
-15 -4 5 34.89 21.75
-19 15 5 43.79 26.56
-19 15 6 7.07 26.62
-15 -4 6 -2.87 18.68
5 -19 -6 97.53 36.19
19 -14 -6 -34.03 31.53
-5 19 -5 -4.77 20.19
-19 14 -5 11.11 27.54
-5 19 -5 -10.21 23.65
5 -19 -5 -2.95 21.22
19 -14 -5 -0.77 23.09
19 -14 -4 4.7 25.88
-19 14 -4 -17.88 26.52
-5 19 -4 38.82 22.21
14 5 -4 18.09 15.38
-5 19 -4 15.57 20.49
-19 14 -3 68.78 30.52
-5 19 -3 0.36 19.96
19 -14 -3 73.51 29.5
19 -14 -2 80.89 24.79
-5 19 -2 102.25 32.25
-19 14 -2 5.21 20.7
19 -14 -1 138.42 27.34
-5 19 -1 100.92 31.11
-19 14 -1 110.14 36.75
-19 14 0 23.61 11.98
19 -14 0 22.87 12.23
-5 19 0 18.61 18.74
-19 14 0 22.33 20.23
-5 19 1 128.9 31.49
-19 14 1 132.58 23.9
-19 14 1 133.47 33.15
-19 14 2 61 22.25
-5 19 2 43.66 19.22
-19 14 2 96.82 23.89
-5 19 2 69.95 27.43
-14 -5 3 70.49 22.44
-19 14 3 78.98 29.06
-5 19 3 60.42 22.13
-19 14 3 43.76 22.3
-14 -5 4 8.64 14.34
-5 19 4 -34.37 23.07
-19 14 4 -28.66 23.87
-14 -5 5 -17.06 16.5
-19 14 5 -21.55 21.78
-14 -5 6 20.07 17.81
-5 19 6 -28.88 33.23
-19 14 6 -43.81 32.42
6 -19 -6 17.75 25.7
19 -13 -6 -6.33 30.63
-6 19 -5 -32.5 26.9
6 -19 -5 33.75 23.22
19 -13 -5 41.57 30.93
-19 13 -5 -9.6 23.04
-6 19 -4 18.85 21.48
-19 13 -4 40.1 29.88
-6 19 -4 14.94 16.79
13 6 -4 31.58 16.63
19 -13 -4 2.07 25.72
19 -13 -3 23.69 21.4
-19 13 -3 18.35 27.62
-6 19 -3 34.81 23.35
19 -13 -2 270.18 38.32
-19 13 -2 221.85 46.51
-6 19 -2 232.2 38.47
19 -13 -1 115.24 24
-6 19 -1 70.49 29.26
-19 13 -1 48.58 24.52
-19 13 0 -8.69 11.25
-19 13 0 7.13 9.97
-6 19 0 32.92 24.62
-19 13 0 31.14 25.73
-19 13 1 149.65 35.02
-6 19 1 76.4 22.29
-19 13 1 94.37 20.2
-6 19 2 259.96 40.32
-6 19 2 174.12 35.17
-19 13 2 186.31 36.52
-19 13 2 261.02 34.89
-13 -6 3 16.47 14.1
-19 13 3 -4.42 18.21
-6 19 3 43.75 23.73
-19 13 3 27.62 19.77
-13 -6 4 18.07 16.06
-6 19 4 7.23 19.01
-19 13 4 -20.54 22.36
-13 -6 5 21.12 17.77
-6 19 5 -28.75 34.34
-19 13 5 -9.62 19.67
-13 -6 6 -17.64 18.3
-6 19 6 -19.47 34.44
-19 13 6 12.45 29.19
7 -19 -6 -18.69 21.89
19 -12 -6 -25.58 26.84
-19 12 -5 60.44 34.42
-7 19 -5 4.89 23.44
7 -19 -5 16.68 21.72
-7 19 -4 -11.09 22.87
-7 19 -4 1.88 16.61
19 -12 -4 17.96 19.72
7 -19 -4 32.6 20.31
12 7 -4 44.05 24.07
-19 12 -4 20.71 26.09
12 7 -3 288.39 38.02
-7 19 -3 334.82 46.3
19 -12 -3 322.8 47.03
-19 12 -3 350.56 56.58
-7 19 -3 282.93 47.89
-19 12 -2 29 27.37
-7 19 -2 89.88 30.6
19 -12 -2 27.87 19.04
-19 12 -1 337.89 23.74
19 -12 -1 449.82 42.03
-19 12 -1 414.74 52.98
-7 19 -1 424.39 21.66
-7 19 -1 488.01 54.65
-19 12 0 53.55 21.33
-19 12 0 50.85 14.8
-7 19 0 62.7 25.62
-19 12 0 68.76 18.57
-7 19 1 388.03 48.81
-19 12 1 393.2 49.99
-19 12 1 439.96 39.96
-7 19 1 424.63 48.18
-7 19 2 56.37 20.15
-19 12 2 93.43 28.53
-7 19 2 39.77 24.34
-19 12 2 57.61 21.11
-12 -7 3 342.94 38.06
-19 12 3 307.66 44.06
-19 12 3 273.87 41.78
-7 19 3 359.13 44.6
-12 -7 4 19.76 15.89
-7 19 4 5.59 16.72
-19 12 4 26.6 20.41
-12 -7 5 50.97 24.49
-7 19 5 47.84 32.63
-19 12 5 32.87 23.32
-12 -7 6 21.91 20.94
-7 19 6 0.49 28.36
-19 12 6 -3.87 25.44
-11 -8 -6 -9.54 23.64
19 -11 -6 -20.89 23.81
8 -19 -6 33.82 27.47
-8 19 -5 49.24 25.38
8 -19 -5 35.61 21.41
-19 11 -5 15.24 30.64
19 -11 -5 57.77 27.14
-8 19 -4 -9.56 24.83
8 -19 -4 21.56 20.01
11 8 -4 9.52 18.35
19 -11 -4 -19.02 24.13
-19 11 -4 23.65 27.5
-8 19 -3 80.35 27.52
19 -11 -3 40.15 24.15
-19 11 -3 61.41 36.03
-8 19 -3 33.38 27.05
11 8 -3 49.73 20.37
19 -11 -2 54.1 21.63
-8 19 -2 89.25 25.67
-19 11 -2 89.16 33.94
-8 19 -2 71.76 26.61
19 -11 -1 91.53 19.88
-19 11 -1 107.32 15.16
-19 11 -1 80.32 31.96
-8 19 -1 94.68 10.31
-8 19 -1 71.46 24.34
-8 19 -1 116.9 31.36
-19 11 0 23.77 20.85
-19 11 0 28.06 12.99
-8 19 0 32.93 20.44
-19 11 0 14.87 15.44
-8 19 0 3.61 20.5
-8 19 1 123.82 31.55
-19 11 1 94.2 28.24
-19 11 1 95.6 20.99
-8 19 1 104.27 26.29
-19 11 2 49.45 23.17
-8 19 2 42.39 22.95
-19 11 2 92.67 23.69
-11 -8 3 49.07 18.12
-19 11 3 18.79 16.84
-19 11 3 22.06 18.33
-8 19 3 67.87 25.12
-11 -8 4 30.92 16.14
-8 19 4 7.19 20.29
-19 11 4 31.3 24.79
-8 19 4 12.52 22.2
-11 -8 5 -20.13 18.6
-8 19 5 -43.25 30.14
-19 11 5 3.62 22.96
-8 19 6 83.74 41.41
-19 11 6 10.02 24.91
-10 -9 -6 46.33 31.38
9 -19 -6 -17.8 23.4
-9 19 -5 13.95 22.25
19 -10 -5 -1.85 26.5
9 -19 -5 0.53 17.16
-19 10 -5 6.19 30.72
-19 10 -4 4.46 27.23
19 -10 -4 46.01 28.07
-9 19 -4 -17.73 22.18
10 9 -4 59.52 29.93
9 -19 -4 18.47 20.41
-9 19 -3 94.96 33.11
-9 19 -3 40.52 18.25
10 9 -3 34.31 17.58
19 -10 -3 31.07 25.33
-19 10 -3 44.92 28.27
-9 19 -2 -7.05 20.73
19 -10 -2 25.98 18.73
-19 10 -2 35.3 26.52
-19 10 -2 -0.43 3.14
-9 19 -2 -31.37 26.74
-9 19 -1 165.02 12.5
-9 19 -1 153.71 32.8
-19 10 -1 164.1 37.43
-19 10 -1 157.21 19.42
-9 19 -1 157.57 32.23
-19 10 0 221.56 28.52
-9 19 0 273.07 44.22
-19 10 0 253.06 42.69
-9 19 0 248.63 24.28
-9 19 0 181.81 32.86
-19 10 0 265.44 31.5
-9 19 1 123.68 27.66
-9 19 1 173.45 33.77
-9 19 1 137.09 24.49
-19 10 1 149.12 34.12
-19 10 1 164.64 27.49
-19 10 2 13.13 13.6
-9 19 2 -0.1 15.52
-9 19 2 27.62 19.48
-19 10 2 -0.18 17.93
-10 -9 3 26.7 13.19
-19 10 3 76.17 29.4
-9 19 3 30.13 18.47
-9 19 3 13.43 19.22
-19 10 3 40.67 21.35
-9 19 4 18.33 28.36
-10 -9 4 44.23 18.86
-19 10 4 42.61 20.86
-9 19 4 64.45 26.65
-10 -9 5 -41.85 19.14
-9 19 5 17.38 25.1
-19 10 5 29.48 21.36
-9 19 6 -28.33 33.15
-19 10 6 -16.78 27.14
-9 -10 -6 12.11 27.84
10 -19 -6 52.49 24.37
10 -19 -5 -4.49 18.19
-10 19 -5 -0.43 22.97
-10 19 -4 86.42 30.07
-19 9 -4 73.34 35.32
10 -19 -4 81.61 26.97
9 10 -4 139.29 32.39
19 -9 -4 94.71 32.4
-10 19 -3 101.28 33.56
9 10 -3 156.6 31.79
19 -9 -3 178.95 37.17
-19 9 -3 169.63 46.51
-19 9 -2 35.12 8.65
9 10 -2 16.34 16.8
-10 19 -2 59.03 24.19
-10 19 -2 59.41 27.43
-19 9 -1 456.04 32.82
-10 19 -1 444.82 48.27
-10 19 -1 361.07 49.55
-19 9 -1 396.87 54.8
-10 19 -1 444.73 19.11
-19 9 0 48.79 14.81
-10 19 0 54.75 22.71
-19 9 0 35.38 11.95
-10 19 0 93.56 16.25
-19 9 0 60.77 27.81
-10 19 0 81.69 29.63
-10 19 1 403.86 48.2
-10 19 1 414.08 38.25
-19 9 1 381.31 48.73
-19 9 1 387.82 38.15
-19 9 2 41.46 25.11
-10 19 2 61.58 23.38
-10 19 2 48.55 20.73
-19 9 2 43.76 20.03
-19 9 3 121.93 28.31
-9 -10 3 175.74 28.01
10 -19 3 115.14 16.68
-10 19 3 207.26 35.98
-10 19 3 103.15 30.96
-19 9 3 176.16 32.45
-9 -10 4 80.79 21.62
-19 9 4 48.45 23.9
-10 19 4 75.83 32.91
-10 19 4 75.55 22.79
-9 -10 5 10.57 15.73
-19 9 5 12.34 23
-10 19 6 24.33 29.42
-19 9 6 58.31 31.74
-8 -11 -6 39.54 30.59
11 -19 -6 -52.5 31.45
11 -19 -5 -3.12 23.52
-19 8 -5 19 25.43
-11 19 -5 36.16 25.82
11 -19 -4 17.85 20.9
-19 8 -4 69.14 33.9
-11 19 -4 67.3 31.98
8 11 -4 27.02 22.48
-11 19 -3 66.2 31.89
-19 8 -3 48.71 26.43
11 -19 -3 33.97 18.8
8 11 -3 65.79 22.47
8 11 -2 182.48 33.21
-19 8 -2 219.63 20.27
-11 19 -2 274.92 45.29
-19 8 -2 232.82 44.2
-19 8 -1 3.85 9.41
-11 19 -1 12.78 4.69
-19 8 0 282.77 31.24
-11 19 0 291 25.81
-11 19 0 270.24 43.69
-19 8 0 296.47 45.87
-19 8 1 18.61 14.97
-19 8 1 -10.99 18.85
-11 19 1 51.2 18.48
-11 19 1 24.24 21.39
-19 8 2 229.19 41.57
-11 19 2 216.25 34.24
-11 19 2 267.34 40.28
-19 8 2 235.96 32.71
11 -19 3 40.01 11.31
-19 8 3 81.13 26.54
-19 8 3 56.57 23.85
-11 19 3 67.3 26.09
-8 -11 4 27.55 16.18
-11 19 4 41.71 20.98
-11 19 4 62.74 27.27
-19 8 4 52.47 24.75
-8 -11 5 -6.43 11.71
-11 19 5 -50.32 30.9
-19 8 5 -4.72 18.27
-11 19 6 -23.41 33.08
-19 8 6 -14.16 22.15
12 -19 -6 17.09 30.83
-7 -12 -6 -50.55 38.59
-12 19 -5 62.07 30.34
12 -19 -5 -4.51 19.39
-19 7 -5 13.6 30.16
12 -19 -4 20.45 22.56
-12 19 -4 43.02 29.72
7 12 -4 28.83 22.32
-19 7 -3 125.42 40.67
12 -19 -3 181.07 34.62
7 12 -3 141.21 31.36
-12 19 -3 180.72 39.33
7 12 -2 240.7 39.06
-12 19 -2 280.39 44.55
-19 7 -2 202.35 45.26
-19 7 -1 150.92 36.96
-19 7 -1 171.78 22.14
-12 19 -1 139.13 34.92
-12 19 -1 148.16 12.42
-12 19 0 189.54 22.01
-12 19 0 181.02 37.28
-19 7 0 192.21 37.37
-12 19 1 154.09 25.24
-12 19 1 155.07 33.37
-19 7 1 148.58 24.72
-19 7 1 166.94 34.12
-19 7 2 217.36 39.04
-12 19 2 233.05 35.79
-12 19 2 207.6 36.59
-19 7 2 266.54 34.86
-12 19 3 132.63 28.08
-12 19 3 166.53 34.86
-19 7 3 119.95 28.55
-19 7 3 176.53 30.86
-7 -12 4 14.27 13.02
-12 19 4 40.66 20.64
-12 19 4 29.27 27.75
-19 7 4 38.66 21.85
-7 -12 5 32.66 16.46
-19 7 5 -2.78 18.93
-12 19 6 76.95 37.68
-19 7 6 30.11 28.03
13 -19 -6 -9.26 26.95
-6 -13 -6 16.34 31.11
-19 6 -5 24.53 27.48
-13 19 -5 -7.12 24.33
13 -19 -5 17.2 21.66
-19 6 -4 27.89 26.29
6 13 -4 49.01 28.08
-13 19 -4 23.11 25.89
13 -19 -4 31.66 24.47
13 -19 -3 37.14 20.11
-13 19 -3 62.68 28.6
6 13 -3 65.24 23.61
-19 6 -3 69.57 29.95
-13 19 -2 104.99 33.27
6 13 -2 44.4 18.53
-19 6 -2 70.99 32.21
13 -19 -2 62.38 25.18
-13 19 -1 39.3 21.89
-19 6 -1 86.66 31.2
6 13 -1 76.46 24.96
-13 19 -1 83.59 10.24
-13 19 0 59.69 14.23
-13 19 0 86.64 28.13
-13 19 1 83.12 19.83
-19 6 1 94.14 26.35
-19 6 1 97.03 24
-13 19 1 51.03 24.67
-19 6 2 80.81 20.88
-13 19 2 80.44 30.26
-19 6 2 55.65 28.86
-13 19 2 69.4 21.74
-13 19 3 81.19 25.59
-13 19 3 62.21 25.57
-19 6 3 79.04 24.55
-6 -13 4 17.64 12.85
6 13 4 41.79 30.46
-13 19 4 22.95 21.22
-13 19 4 -8.37 21.87
-19 6 4 22.53 21.98
-13 19 5 71.42 33.21
-19 6 5 28.73 24.2
-13 19 6 49.47 36.51
-19 6 6 8.94 20.12
-5 -14 -6 65.9 36.35
14 -19 -6 16.77 20.75
-19 5 -5 55.89 31.84
14 -19 -5 35.36 20.81
-14 19 -5 63.44 32.3
14 -19 -4 142.17 36.96
-14 19 -4 41.82 26.63
5 14 -4 148.03 35.86
-19 5 -4 60.89 28.38
14 -19 -3 20.39 23.63
5 14 -3 -4.9 18.64
-14 19 -3 15.1 23.01
-19 5 -3 6.41 23.97
5 14 -2 202.12 34.43
14 -19 -2 227.21 37.01
-19 5 -2 150.93 43.22
-14 19 -2 173.54 40.76
-14 19 -1 46.95 23.96
-19 5 -1 22.71 19.65
5 14 -1 48.39 22.66
-14 19 -1 67.78 10.58
-14 19 0 -15.66 22.77
-19 5 0 -28.5 24.31
-14 19 0 8.56 9.99
5 14 0 1.62 18.31
-19 5 1 69.49 28.1
-14 19 1 75.78 25.46
-19 5 1 50.12 19.18
-14 19 1 46.56 15.73
-19 5 2 274.08 41.97
-14 19 2 244.75 39.62
-19 5 2 216.91 32.26
-14 19 2 226.01 35.33
-14 19 3 3.67 15.42
5 14 3 10.72 20.72
-14 19 3 25.92 20.09
-19 5 3 27.01 18.86
5 14 4 128.09 35.39
-14 19 4 107.85 33.19
-19 5 4 68.11 25.33
-14 19 4 133.82 30.69
-14 19 5 55.54 32.18
-19 5 5 31.02 24.63
-14 19 6 19.4 30.68
-19 5 6 21.97 25.11
-4 -15 -6 46.66 33.49
15 -19 -6 47.37 29.77
15 -19 -5 82.74 35.46
-15 19 -5 23.12 29.06
-19 4 -4 47.44 34.23
15 -19 -4 39.11 24.53
-15 19 -4 49.39 32.11
4 15 -4 8.92 22.6
-15 19 -3 22.51 21.27
-19 4 -3 39.82 36.11
4 15 -3 69.04 27.33
15 -19 -3 14.35 17.91
-19 4 -2 100.04 35.51
-15 19 -2 35.19 21.03
15 -19 -2 46.1 24.82
4 15 -2 53.24 20.53
4 15 -2 37.47 13.15
-15 19 -1 114.9 34.01
4 15 -1 52.65 25.37
15 -19 -1 74.04 19.99
-19 4 -1 84.4 32.6
-15 19 -1 85.48 13.03
-19 4 0 16.33 19.46
-15 19 0 15.1 24.41
4 15 0 34.29 22.77
-15 19 0 6.64 8.72
-19 4 1 69.72 18.61
-15 19 1 45.93 23.21
4 15 1 77.41 29.24
-19 4 1 119.5 32.99
-15 19 1 65.68 17.26
-19 4 2 -3.42 13.95
-15 19 2 72.91 25.92
4 15 2 63.05 25.5
-15 19 2 69.16 23.28
-19 4 2 21.5 18.8
-15 19 3 37.96 19.6
4 15 3 -2.39 18.86
-15 19 3 22.25 21.51
-19 4 3 77.52 24.1
4 15 4 53.65 28.3
-15 19 4 42.14 25.05
-15 19 4 6.54 20.46
-19 4 4 33.81 22.92
-15 19 5 10.44 23.68
-19 4 5 47.19 25.45
-15 19 6 41.97 31.32
-19 4 6 -48.88 31.44
-3 -16 -6 4.36 27.48
16 -19 -6 13.53 23.83
16 -19 -5 40.66 28.93
-16 19 -5 8.53 29.3
16 -19 -4 2.42 20.81
3 16 -4 41.84 30.35
-16 19 -4 9.71 25.77
-19 3 -4 0.77 25.49
-19 3 -3 55.49 30.82
16 -19 -3 69.81 24.38
-16 19 -3 66.81 32.15
3 16 -3 130.59 32.81
16 -19 -2 60.3 19.8
-16 19 -2 137.09 35.14
3 16 -2 105.6 28.11
-19 3 -2 81.17 32.69
3 16 -2 81.61 16.9
3 16 -1 207.76 37.82
-19 3 -1 278.32 47.49
-16 19 -1 319.82 49.49
16 -19 -1 267.64 36.65
3 16 -1 201.84 23.86
-16 19 -1 248.03 21.31
3 16 0 142.73 36.65
16 -19 0 142.78 24.36
-16 19 0 102.84 34.16
-19 3 0 115.91 31.78
-16 19 0 137.91 20.6
-19 3 1 260.53 33.73
3 16 1 255.12 42.12
16 -19 1 228.66 22.6
16 -19 1 236.79 23.06
-16 19 1 232.17 28.6
-19 3 1 175.35 34.94
-16 19 1 248.79 39.37
-19 3 2 88.15 22.79
-16 19 2 75.18 25.2
3 16 2 101.18 31.21
16 -19 2 49.28 6.85
16 -19 2 61.04 8.96
-16 19 2 72.43 23.53
-19 3 3 43.58 20.58
3 16 3 43.11 25.73
-16 19 3 93.3 28.89
-16 19 3 117.62 30.7
-16 19 4 18.37 20.03
-16 19 4 -3.93 24.57
3 16 4 29.96 23.03
-19 3 4 77.05 27.9
-16 19 5 32.04 31.29
-19 3 5 6.45 19.91
-19 3 6 -15.59 28.25
-16 19 6 0.44 31.45
-2 -17 -6 5.51 29.97
17 -19 -6 -43.84 32.97
-17 19 -5 15.95 25.7
17 -19 -5 37.6 25.62
17 -19 -4 16.47 20.7
2 17 -4 15 28.07
-17 19 -4 9.36 31.88
-19 2 -3 109.77 38.94
-17 19 -3 43.64 30.32
2 17 -3 54.92 27.69
17 -19 -3 16.82 18.35
17 -19 -2 57.76 24.23
-19 2 -2 99.08 32.47
-17 19 -2 80.22 34.15
2 17 -2 49.37 22.72
2 17 -2 55.51 15.21
-19 2 -1 58.1 33.27
2 17 -1 69.98 14.96
17 -19 -1 57.56 21.06
2 17 -1 37.41 17.56
-17 19 -1 75.59 31.93
-17 19 0 43.69 23.05
17 -19 0 -5.31 12.48
2 17 0 22.97 21.04
-19 2 0 2.82 21.63
17 -19 0 -1.45 11.83
-17 19 0 4.86 9.66
17 -19 1 64.66 13.34
-19 2 1 70.51 26.32
-17 19 1 63.54 22
2 17 1 34.71 23.35
17 -19 1 69.37 13.86
-17 19 1 67.95 18.92
-19 2 2 44.89 20.49
-17 19 2 63.07 24.05
2 17 2 64.31 25.73
17 -19 2 49.37 9.65
-17 19 2 67.26 23.08
-19 2 3 94.83 24.11
2 17 3 35.89 20.79
-17 19 3 36.68 22.04
-17 19 3 36.04 16.82
2 17 4 66.73 26.07
2 17 4 6.83 19.56
-17 19 4 42.75 27.78
-17 19 4 23.43 22.08
-19 2 4 48.56 25.32
-17 19 5 21.39 28.33
-19 2 5 -4.23 18.96
-17 19 6 30.64 32.03
-19 2 6 34.16 26.6
18 -19 -6 11.67 25.69
-1 -18 -6 -10.59 26.31
-18 19 -5 32.82 29.79
18 -19 -5 -2.64 24.82
18 -19 -4 2.29 25.75
1 18 -4 103.18 38.25
-18 19 -4 84.7 35.61
18 -19 -3 96.31 30.63
1 18 -3 140.74 37.04
-19 1 -3 121.38 38.64
-18 19 -3 66.5 30.88
18 -19 -2 143.27 35.48
1 18 -2 177.12 36.9
1 18 -2 158.43 19.84
-19 1 -2 180.85 42.45
-18 19 -2 229.7 45.53
1 18 -1 414.64 54.76
18 -19 -1 458.42 48.37
-18 19 -1 367.97 52.57
-19 1 -1 443.73 56.51
1 18 -1 426.79 33.58
1 18 0 165 35.94
18 -19 0 125.58 22.52
-18 19 0 141.19 21.78
-19 1 0 172.48 36.45
-18 19 0 153.63 34.7
1 18 1 426.62 52.5
18 -19 1 408.42 28.91
18 -19 1 417.88 32.25
-18 19 1 402.42 39.19
-18 19 1 374.06 51.96
1 18 2 130.73 35.15
18 -19 2 136.52 16.16
-18 19 2 173.41 31.36
-18 19 2 182.39 35.01
-19 1 2 196.89 31.72
-18 19 3 153.32 35.27
1 18 3 149.7 36.55
-18 19 3 136.51 33.5
-19 1 3 141.58 29.36
-19 1 4 3.95 15.25
1 18 4 22.82 18.03
1 18 4 -8.53 20.88
-18 19 4 20.76 21.94
-18 19 5 -23.42 22.5
-19 1 5 -12.18 19.31
-18 19 6 -69.26 36.24
-19 1 6 -27.55 20.24
19 -19 -6 18.92 28.75
0 -19 -6 -15.35 31.25
-19 19 -5 43.61 37.06
19 -19 -5 34.44 28.97
19 -19 -4 3.79 24.85
0 19 -4 46.24 30.89
-19 19 -4 55.88 33.93
19 -19 -3 150.78 34.37
0 19 -3 127.06 38.19
-19 19 -3 96.94 36.17
19 -19 -2 91.98 29.2
-19 19 -2 62.62 34.12
0 19 -2 81.3 29.02
0 19 -2 43.72 12.23
0 19 -1 41.08 13.61
0 19 -1 63.32 32.33
-19 19 -1 87.91 32.7
19 -19 -1 45.99 19.46
-19 0 -1 65.3 30.8
0 19 0 247.17 43.7
19 -19 0 254.06 30.35
-19 19 0 264.46 29.75
-19 19 0 274.04 47.44
-19 19 1 35.85 26.22
19 -19 1 49.03 12.27
0 19 1 24.6 21.31
19 -19 1 25.18 11.83
-19 19 1 56.26 19.38
-19 0 2 62.01 20.23
0 19 2 115.4 30.84
-19 19 2 82.66 28.85
19 -19 2 52.43 12.85
-19 19 2 76.93 23.4
-19 19 3 177.81 40.5
0 19 3 147.94 38.36
-19 19 3 124.45 32.92
-19 0 3 147.86 30.71
-19 0 4 32.8 22.01
0 19 4 12.23 16.66
0 19 4 14.79 21.92
-19 19 4 28.71 22.43
-19 19 5 41.7 31.64
-19 0 5 -1.81 18.48
-19 19 6 -16.18 31.47
-19 0 6 47.88 30
1 -20 -6 3.34 25.97
-20 19 -5 20.54 29.72
20 -19 -5 47.03 34.37
20 -19 -4 21.24 28.85
-1 20 -4 52.6 39.78
-20 19 -4 12 32.56
20 -19 -3 -1.35 19.89
-1 20 -3 -0.59 22.58
-20 19 -3 -34.27 33.02
-20 19 -2 353.41 53.33
20 -19 -2 460.03 55.93
-1 20 -2 357.95 53.77
-1 20 -2 359.71 26.9
20 -19 -1 40.96 18.98
-1 20 -1 43.28 28.13
-20 19 -1 55.43 30.07
-1 20 0 248.94 45.17
20 -19 0 210.17 28.78
-20 19 0 137.3 33.93
-20 19 0 173.59 26.55
-1 20 1 21.89 26.18
20 -19 1 24.15 9.77
-20 19 1 39.61 21.13
20 -19 1 31.98 13.22
-20 19 1 34.2 16.15
-20 19 2 356.01 51.35
-19 -1 2 411.08 46.28
-1 20 2 293.47 49.02
20 -19 2 327.11 28.81
-20 19 2 401.92 47.09
-19 -1 3 -5.65 16.05
-1 20 3 -1.16 19.79
-20 19 3 5.17 17.26
-20 19 3 2.79 22.15
-19 -1 4 5.55 15.15
-1 20 4 15.83 20.63
-1 20 4 12.98 23.32
-20 19 4 19.27 23.91
-19 -1 5 12.63 18.46
-20 19 5 57.1 30.52
-19 -1 6 39.96 26.91
20 -18 -6 61.78 35.73
2 -20 -6 3.27 22.65
-20 18 -5 4.82 33.7
20 -18 -5 -8.64 22.88
-20 18 -4 -7.54 26.64
20 -18 -4 25.16 25.34
-2 20 -4 49.1 34.41
20 -18 -3 53.95 26.65
-2 20 -3 19.43 24.13
-20 18 -3 26.13 29.5
-20 18 -2 217.41 47.63
20 -18 -2 258.65 41.04
-2 20 -2 300.11 48.71
-2 20 -2 275.74 22.88
-20 18 -1 291.63 52.48
-2 20 -1 294.66 45.28
20 -18 -1 327.97 40.79
-20 18 0 74.42 18.2
20 -18 0 56.55 18.75
-2 20 0 93.72 30.37
-20 18 0 52.62 29.67
-20 18 1 262.21 44.29
-2 20 1 269.59 46.72
20 -18 1 277.2 20.9
-20 18 1 302.29 37.09
20 -18 1 277.76 29.88
-18 -2 2 264.81 37.06
-20 18 2 263.67 44.87
-2 20 2 250.02 42.6
20 -18 2 228.19 24.44
-20 18 2 276.92 39.46
-18 -2 3 2.37 18.25
-2 20 3 23.98 21.46
-20 18 3 -16.25 20.02
-20 18 3 -9.95 18.78
-18 -2 4 87.76 25.48
-2 20 4 56.81 29.01
-20 18 4 2.33 22.03
-18 -2 5 -31.9 18.86
-20 18 5 26.67 26.27
-18 -2 6 -22.98 22.67
-20 18 6 19.23 27.28
3 -20 -6 33.76 27.18
20 -17 -6 -61.96 33.06
-3 20 -5 23.93 24.55
3 -20 -5 53.95 27.78
20 -17 -5 27.05 25.89
-20 17 -5 104.78 42.5
-20 17 -4 43.11 31.89
20 -17 -4 53.52 29.62
-3 20 -4 47.13 30.3
20 -17 -3 106.33 33.58
-3 20 -3 169.06 42.87
-20 17 -3 88.47 36.19
20 -17 -2 52.89 24.49
-3 20 -2 85.91 32.43
-3 20 -2 37.43 8.03
20 -17 -1 112.19 26
-3 20 -1 135.73 33.77
-20 17 -1 107.96 30.24
-20 17 0 27.94 14.78
20 -17 0 27.24 14.89
-3 20 0 18.4 22.06
-20 17 0 30.36 24.8
-3 20 1 101.82 32.99
-20 17 1 117.25 32.06
-20 17 1 67.81 21.48
-17 -3 2 45.38 18.54
-3 20 2 51.67 25.81
-20 17 2 90.53 32.32
-20 17 2 57.45 20.58
20 -17 2 35.69 12.99
-20 17 3 107.24 33.04
-3 20 3 117.5 31.45
-3 20 3 96.14 28.46
-20 17 3 85.72 27.14
-17 -3 3 136.35 27.58
-17 -3 4 71.74 24.96
-3 20 4 24.35 25.86
-20 17 4 53.2 27.75
-17 -3 5 59.14 24.3
-20 17 5 -14.01 20.43
-17 -3 6 21.86 25.53
-3 20 6 42.35 38.01
-20 17 6 -8.66 27.53
4 -20 -6 -4.29 21.85
20 -16 -6 87.68 39.51
-4 20 -5 11.44 25.4
4 -20 -5 -20.8 23.63
-4 20 -5 55.42 26.59
20 -16 -5 46.28 34.86
-20 16 -5 24.18 32.03
20 -16 -4 54.05 30.84
-20 16 -4 70.62 35.64
16 4 -4 10.62 15.32
-4 20 -4 52.68 29.96
-20 16 -3 17.14 23.04
20 -16 -3 36.34 25.46
-4 20 -3 32.82 28.15
-20 16 -2 282.38 51.53
20 -16 -2 333.58 45.11
-4 20 -2 225.47 12.64
-4 20 -2 307.34 46.13
-20 16 -1 384.38 55.55
20 -16 -1 371.38 39.72
-4 20 -1 323.44 47.59
-20 16 0 243.74 44.39
-4 20 0 192.66 37.89
20 -16 0 201.56 25.93
-20 16 0 190.15 27.14
-4 20 1 406.26 52.82
-20 16 1 359.98 51.53
-20 16 1 361.92 38.29
-4 20 2 260.56 40.94
-20 16 2 320.41 40.58
-20 16 2 325.43 48.27
20 -16 2 294.45 29.84
-16 -4 3 35.28 20.12
-20 16 3 58.16 29.59
-4 20 3 44.93 23.99
-20 16 3 8.16 16.87
-4 20 3 21.61 18.57
-16 -4 4 65.6 21.96
-4 20 4 57.07 27.42
-20 16 4 24.94 23.6
-16 -4 5 42.64 22.71
-20 16 5 -8.59 23.6
-16 -4 6 -26.03 20.75
-20 16 6 -61.16 31.53
5 -20 -6 60.19 31.4
20 -15 -6 -23.76 31.02
-5 20 -5 -31.71 26.73
5 -20 -5 -6.12 19.3
-5 20 -5 -11.06 20.72
20 -15 -5 28.58 26.01
-20 15 -5 -10.03 30.62
20 -15 -4 57.61 29.25
15 5 -4 49.95 20.67
-20 15 -4 44.56 26.51
-5 20 -4 50.61 29.34
-20 15 -3 53.41 29.28
20 -15 -3 46.77 24.65
-5 20 -3 27.21 25.69
-20 15 -2 289.6 49.85
20 -15 -2 331.77 44.55
-5 20 -2 258.54 45.32
-5 20 -1 34.62 23.75
20 -15 -1 45.16 17.16
-20 15 -1 68.14 34.39
-20 15 0 4.73 10.71
20 -15 0 28.4 15.64
-5 20 0 30.72 23.26
-20 15 0 55.11 30.62
-5 20 1 33.74 19.63
-20 15 1 31.15 24.4
-20 15 1 7.57 12.3
-5 20 2 325.42 44.65
-5 20 2 281.78 41.74
-20 15 2 296.84 43.83
-20 15 2 316.58 40.34
-15 -5 3 32.65 16.8
-20 15 3 47.5 25.78
-5 20 3 45.51 26.74
-20 15 3 62.49 22.34
-15 -5 4 16.22 13.83
-5 20 4 33.85 21.65
-20 15 4 24.16 20.45
-15 -5 5 45.83 25.95
-20 15 5 45.63 27.3
-15 -5 6 -4.86 17.41
-20 15 6 -35.65 25.58
6 -20 -6 -15.89 20.93
20 -14 -6 -24.84 30.01
6 -20 -5 -21.1 23.26
-6 20 -5 65.85 33.17
20 -14 -5 69.07 34.69
-20 14 -5 67.32 36.53
-6 20 -4 2.37 19.6
20 -14 -4 -0.08 20.89
-20 14 -4 -16.77 27.7
14 6 -4 -8.84 16.31
-6 20 -4 0.67 27.44
-20 14 -3 108.47 38.14
20 -14 -3 70.22 30.6
-6 20 -3 30.89 25.1
-20 14 -2 76.38 29.73
20 -14 -2 99.61 28.04
-6 20 -1 162.24 34.97
20 -14 -1 99.15 24.25
-20 14 -1 97.79 34.68
-20 14 0 20.52 13.59
-20 14 0 6.02 24.97
-20 14 1 128.63 33.29
-6 20 1 77.45 28.24
-20 14 1 123.81 24.96
-6 20 2 156.76 32.89
-6 20 2 129.55 31.55
-20 14 2 137.99 32.93
-20 14 2 90.59 23.78
-14 -6 3 66.79 19.47
-20 14 3 93.77 31.46
-6 20 3 85.42 25.98
-20 14 3 85.62 27.55
-6 20 4 1.92 18.52
-20 14 4 17.66 25.41
-14 -6 4 13.77 15.08
-14 -6 5 65.31 23.65
-6 20 5 7.1 26.6
-20 14 5 22.08 27.85
-14 -6 6 22.91 24.55
-6 20 6 -52.72 43.1
-20 14 6 2.86 25.71
7 -20 -6 24.51 26.56
20 -13 -6 -29.53 26.42
-20 13 -5 -23.71 30.23
7 -20 -5 -33.88 23.09
-7 20 -5 22.58 23.46
20 -13 -5 25.06 27.74
-7 20 -4 8.51 22.29
20 -13 -4 5.33 23.35
-20 13 -4 23.53 28
-7 20 -4 31.33 19.39
13 7 -4 -23.16 17.39
-7 20 -3 24.94 19.59
-20 13 -3 25.45 23.96
20 -13 -3 -2.54 18.51
-7 20 -3 3.31 23.06
20 -13 -2 19.7 16.06
-7 20 -2 45.04 25.01
-20 13 -2 25.05 29.6
20 -13 -1 435.22 43.16
-20 13 -1 383.85 55.74
-7 20 -1 425.82 55.98
-7 20 -1 381.77 21.88
-20 13 0 56.67 17.5
-20 13 0 39.62 25.23
-20 13 0 54.03 15.48
-7 20 0 59.5 27.14
-20 13 1 340.76 47.91
-7 20 1 323.17 46.45
-7 20 1 373.87 49.76
-20 13 1 399.6 39.57
-20 13 2 34.53 21.33
-7 20 2 9.24 16.55
-7 20 2 46.48 19.33
-20 13 2 12.56 14.38
-13 -7 3 23.46 14.16
-7 20 3 11.61 16.73
-20 13 3 3.35 16.89
-20 13 3 23.98 24.79
-13 -7 4 -7.38 13.31
-7 20 4 -13.79 20.89
-20 13 4 16.82 22.9
-13 -7 5 -3.08 17.79
-7 20 5 -50.61 29.08
-20 13 5 -6.31 22.81
-7 20 6 -47.68 35.87
-20 13 6 4.59 23.28
8 -20 -6 -4.82 20.18
20 -12 -6 1.4 23.78
-8 20 -5 1.74 24.6
8 -20 -5 4 17.63
20 -12 -5 25.95 27.58
-20 12 -5 -29.95 26.12
-8 20 -4 15.7 24.35
8 -20 -4 1.84 15.82
-8 20 -4 1.64 20.28
20 -12 -4 73.68 35.47
12 8 -4 -16.5 21.16
-20 12 -4 34.56 30.4
12 8 -3 29.54 17.82
-8 20 -3 40 22.85
20 -12 -3 78.79 31.07
-20 12 -3 49.59 31.54
-8 20 -3 84.59 32.19
-8 20 -2 142.84 31.77
-20 12 -2 99.16 30.75
-8 20 -2 178.84 40.72
20 -12 -2 94.61 25.76
-20 12 -1 162.57 18.31
-8 20 -1 201.91 37.29
20 -12 -1 168.3 28.86
-20 12 -1 249.13 46.69
-8 20 -1 192.73 14.72
-8 20 -1 193.16 35.5
-20 12 0 25.75 15.22
-8 20 0 26.81 20.09
-20 12 0 10.11 11.7
-8 20 0 33.72 24.31
-20 12 0 24.96 22.57
-8 20 1 215.74 34.18
-8 20 1 219.88 36.7
-20 12 1 187.91 40.39
-20 12 1 202.34 29.41
-20 12 2 157.9 40.47
-8 20 2 104.16 26.44
-20 12 2 130.49 26.46
-12 -8 3 46.85 16.58
-20 12 3 84.91 29.37
-8 20 3 75.35 27.71
-20 12 3 89.61 26.63
-12 -8 4 22.24 15.61
-8 20 4 42.27 29.46
-8 20 4 36.17 22.14
-20 12 4 54.38 25.07
-12 -8 5 -13.21 14.61
-8 20 5 7.92 26.38
-20 12 5 32.51 25.13
-8 20 6 24.28 31.24
-20 12 6 92.88 36.17
-11 -9 -6 -2.73 23.27
9 -20 -6 7.67 22.13
9 -20 -5 -0.58 18.4
-9 20 -5 36.28 28.78
20 -11 -5 29.05 26.58
-20 11 -5 17.42 29.77
-9 20 -4 13.18 27.64
9 -20 -4 -18.29 18.28
11 9 -4 -4.73 18.95
20 -11 -4 25.98 22.25
-20 11 -4 14.61 28.16
11 9 -3 -11.53 18.14
20 -11 -3 -28.15 22.55
-20 11 -3 -12.76 25.79
-9 20 -3 -4.92 16.51
-9 20 -3 15.04 25.29
-9 20 -2 -17.18 20.97
20 -11 -2 37.42 22.38
-9 20 -2 25.24 26.28
-20 11 -2 -9.23 26.51
-20 11 -1 113.86 16.49
-9 20 -1 86.53 26.82
-9 20 -1 114.21 11.32
-20 11 -1 93.62 29.9
-9 20 -1 136.11 33.43
-9 20 0 10.77 9.4
-20 11 0 42.53 18.86
-9 20 0 -8.07 17.65
-20 11 0 16.71 11.26
-9 20 0 5.71 19.21
-20 11 0 11.73 22.19
-20 11 1 98.96 20.92
-9 20 1 126.68 30.86
-9 20 1 82.58 27.61
-20 11 1 115.08 33.99
-9 20 2 17.79 16.01
-20 11 2 28.45 23.01
-20 11 2 10.23 15.25
-11 -9 3 4.52 13.17
-20 11 3 2.45 17.18
-9 20 3 -9.64 19.08
-9 20 3 6.43 17.25
-20 11 3 -9.92 15.29
-11 -9 4 13.23 14.88
-20 11 4 22.47 21.47
-9 20 4 19.61 25.92
-9 20 4 31.19 21.07
-11 -9 5 0.97 18.16
-9 20 5 3.44 26.9
-20 11 5 33.03 25.69
-9 20 6 33.97 32.2
-20 11 6 67.57 35.42
10 -20 -6 23.15 25.56
-10 -10 -6 2.42 30.5
10 -20 -5 9.41 18.98
-10 20 -5 -2.15 23.85
-20 10 -5 59.28 35.46
-10 20 -4 -6.54 21.43
-20 10 -4 -35.56 26
10 -20 -4 48.02 22.37
10 10 -4 40.18 25.11
20 -10 -4 -9.3 24.43
-10 20 -3 -4.35 20.58
10 10 -3 -5.97 17.52
20 -10 -3 -1.15 21.28
-20 10 -3 -23.83 22.77
-20 10 -2 40.56 7.85
-10 20 -2 66.54 23.94
-20 10 -2 84.47 30.07
-10 20 -2 46.79 27.5
-10 20 -1 30.34 21.18
-20 10 -1 26.3 11.2
-20 10 -1 9.54 21.63
-10 20 -1 37.84 7.18
-10 20 -1 6.39 23.79
-20 10 0 220.61 29.18
-10 20 0 204.28 33.94
-20 10 0 208.44 29.53
-10 20 0 214.39 38.48
-10 20 0 222.5 23.3
-20 10 0 234.91 42.76
-20 10 1 16.81 15.51
-10 20 1 37.54 16.65
-20 10 1 13.54 19.86
-20 10 2 47.41 24.45
-10 20 2 76.65 25.11
-10 20 2 69.31 26.76
-20 10 2 38.27 18.17
-10 20 3 29.77 26.9
-20 10 3 9.25 21.85
-10 20 3 21.04 21.15
-20 10 3 8 16.37
-10 -10 4 49.2 17.97
-10 20 4 -20.5 26.9
-20 10 4 -29.73 18.41
-10 20 4 32.31 18.06
-10 -10 5 4.88 13.64
-10 20 5 -38.63 32.52
-20 10 5 -1.99 19.75
-10 20 6 66.68 39.48
-20 10 6 28.24 23.7
11 -20 -6 18.2 21.7
-9 -11 -6 3.81 29.03
-20 9 -5 -40.12 34.43
11 -20 -5 -7.88 17.74
-11 20 -5 -44.78 29.21
-11 20 -4 46.99 23.05
11 -20 -4 39.21 21.83
-20 9 -4 47.24 30.58
9 11 -4 75.75 27.37
-20 9 -3 33.94 30.57
-11 20 -3 24.23 26.85
9 11 -3 27.24 17.78
11 -20 -3 16.53 17.58
-20 9 -2 394.27 26.24
9 11 -2 423.85 48.16
-11 20 -2 423.6 56.2
-20 9 -2 417.85 61.02
-20 9 -1 113.11 19.05
-20 9 -1 169.72 41.92
-11 20 -1 117.99 11.1
-11 20 -1 116.11 34.53
-11 20 0 46.03 13.66
-20 9 0 59.29 27.23
-11 20 0 53.43 25.73
-11 20 1 121.02 22.89
-11 20 1 97.06 29.32
-20 9 1 125.55 35.59
-20 9 1 122.58 22.85
-11 20 2 518.47 49.67
-11 20 2 311.7 42.4
-20 9 2 376.22 41.94
-20 9 2 444.53 52.04
-20 9 3 63.69 27.24
-11 20 3 51.87 24.13
-11 20 3 74.32 27.55
-20 9 3 41.79 22.07
-11 20 4 35.76 19.88
-9 -11 4 43.22 19.37
-20 9 4 73.21 26.43
-9 -11 5 16.2 12.66
-20 9 5 -35.91 24.66
-11 20 6 -7.98 26.01
-20 9 6 4.55 22.72
-8 -12 -6 27.92 33.74
12 -20 -6 -6 29.9
12 -20 -5 14.06 19.64
-20 8 -5 -31.76 32.25
-12 20 -5 40.09 28.35
-12 20 -4 112.23 34.19
12 -20 -4 170.96 37.27
8 12 -4 196.63 39.73
-20 8 -4 136.88 42.07
-12 20 -3 163.76 39.8
-20 8 -3 105.87 35.81
12 -20 -3 109.74 26.9
8 12 -3 98.53 30.02
8 12 -2 248.86 38.94
-20 8 -2 204.66 20.69
-12 20 -2 201.66 43.55
-20 8 -2 202.43 47.01
-20 8 -1 15.47 10.69
-12 20 -1 23.5 22.21
-20 8 -1 43.94 25.88
-12 20 -1 22.45 5.91
-12 20 0 28.15 11.81
-12 20 0 17.81 18.55
-20 8 0 3.37 21.97
-20 8 1 26.53 12.45
-20 8 1 -2.28 20.14
-12 20 1 25.77 14.64
-12 20 1 16.73 18.38
-20 8 2 229.75 42.22
-12 20 2 223.86 35.74
-12 20 2 237.94 40.12
-20 8 2 206.93 32.85
-12 20 3 156.9 34.91
-20 8 3 131.5 28.02
-20 8 3 133.41 30.15
-12 20 3 99.8 27.54
-8 -12 4 77.34 22.22
-12 20 4 91.94 35.29
-12 20 4 104.4 29.67
-20 8 4 149.85 34.9
-20 8 5 -12.12 22.88
-12 20 5 11.39 24.39
-12 20 6 19.79 27.38
-20 8 6 8.81 21.5
13 -20 -6 36.68 30.54
-7 -13 -6 45.65 36.21
-20 7 -5 60.8 36.69
13 -20 -5 -4.96 18.9
-13 20 -5 61.86 33.28
-13 20 -4 -13.35 26.23
7 13 -4 13.39 26.4
13 -20 -4 38.08 21.71
-20 7 -4 -12.55 27.48
13 -20 -3 -38.86 20.09
7 13 -3 16.6 17.4
-20 7 -3 -1.85 28.2
-13 20 -3 -26.91 27.59
-13 20 -2 90.93 33.79
-20 7 -2 79.67 38.78
7 13 -2 61.94 25.38
-20 7 -1 97.37 35.82
-20 7 -1 118.31 21.39
-13 20 -1 131.72 36.86
7 13 -1 104.59 30.52
-13 20 -1 99.43 10.99
-20 7 0 78.67 30.32
-13 20 0 78.91 15.37
-13 20 0 36.45 23.06
-20 7 1 124.14 31.2
-13 20 1 131.12 24.33
-20 7 1 102.86 23.15
-13 20 1 135.53 29.61
-20 7 2 43.46 21.34
-13 20 2 46.74 18.81
-20 7 2 101.53 24.75
-13 20 2 62.22 27.36
-13 20 3 -9.39 18.86
-13 20 3 28.47 16.86
-20 7 3 53.68 24.64
-20 7 3 0.41 14.18
-13 20 4 -42.91 23.47
-13 20 4 -19.56 23.59
-20 7 4 27.12 21.55
-13 20 5 10.81 27.28
-20 7 5 33.91 21.37
-13 20 6 -32.36 34.68
-20 7 6 67.98 33.48
-6 -14 -6 67.89 38.81
14 -20 -6 -3.53 22.73
14 -20 -5 6.52 21.45
-14 20 -5 28.52 26.59
-20 6 -5 30.92 32.53
-20 6 -4 40.54 38.72
-14 20 -4 41.96 30.53
6 14 -4 86.12 33.8
14 -20 -4 73.67 30.4
-14 20 -3 20.18 23.79
14 -20 -3 63.82 23.51
6 14 -3 46.98 27.47
-20 6 -3 -17.53 30.39
6 14 -2 465.16 52.4
14 -20 -2 496.26 51.19
-14 20 -2 502.79 60.54
-14 20 -1 14.04 7.08
-14 20 -1 31.27 22.96
6 14 -1 39.93 27.86
-20 6 -1 7.52 25.17
-14 20 0 12.57 26.38
6 14 0 49.01 24.28
-20 6 0 17.83 18.52
-14 20 0 -4.57 10.22
-14 20 1 23.88 23.68
-20 6 1 39.95 15.54
-14 20 1 32.8 15.45
-20 6 1 39.49 27.39
-20 6 2 443.76 52.99
-14 20 2 527.1 50.66
-14 20 2 527.9 56.36
-20 6 2 497.37 46.85
-14 20 3 85.62 25.74
-14 20 3 63.58 27.12
-20 6 3 63.43 23.98
6 14 4 89.46 35.21
-14 20 4 22.13 20.97
-14 20 4 66.94 31.51
-20 6 4 12.49 16.89
-14 20 5 9.73 25.76
-20 6 5 25.78 22.09
-14 20 6 43.3 34.03
-20 6 6 2.15 31.35
15 -20 -6 29.76 27.91
-5 -15 -6 -16.49 29.19
15 -20 -5 21.76 23.5
-20 5 -5 -22.74 25.94
15 -20 -4 -1.67 21.65
5 15 -4 -0.05 22.68
-15 20 -4 69.88 31.44
-20 5 -4 -8.25 25.62
-20 5 -3 35.1 33.87
15 -20 -3 66.12 24.37
5 15 -3 99.7 32.22
-15 20 -3 52.54 30.99
5 15 -2 -7.03 21.7
15 -20 -2 28.55 21.12
-15 20 -2 30.2 23.11
-20 5 -2 48.97 30.38
5 15 -1 176.76 37.28
-20 5 -1 188.55 41.39
-15 20 -1 194.86 39.69
-15 20 -1 215.7 18.06
15 -20 -1 190.12 32.96
5 15 0 89.79 29.61
-15 20 0 118.98 33.49
-20 5 0 161.36 37.29
-15 20 0 168.17 23.29
5 15 1 270.87 42.74
-20 5 1 233.05 41.22
-15 20 1 219.1 29.27
-15 20 1 239.7 40.72
-20 5 1 194.27 30.18
-20 5 2 11.86 16.29
-15 20 2 22.53 22.55
5 15 2 30.79 24.1
-20 5 2 36.18 21.35
-15 20 2 35.34 17.43
-15 20 3 32.76 21.6
5 15 3 8.14 20.59
-15 20 3 46.76 23.96
-20 5 3 57.79 20.68
5 15 4 -20.28 23.71
-15 20 4 -0.36 23.33
-20 5 4 34.48 22.29
-15 20 4 44.63 24.55
-15 20 5 20.28 24.61
-20 5 5 -13.27 20.42
-15 20 6 44.69 34.23
-20 5 6 14.66 22.87
16 -20 -6 8.12 23.32
-4 -16 -6 -23.23 26.67
16 -20 -5 7.04 23.85
-16 20 -5 11.92 34.19
16 -20 -4 17.25 20.82
-16 20 -4 8.95 23.62
4 16 -4 50.41 33.14
-20 4 -4 11 28.1
4 16 -3 131.21 36.26
-16 20 -3 127.17 34.72
16 -20 -3 103.64 31.57
-20 4 -3 82.25 40.13
16 -20 -2 64.81 28.08
-20 4 -2 138.83 43.83
4 16 -2 59.17 23.43
-16 20 -2 45.12 24.08
16 -20 -1 32.41 19.03
-16 20 -1 10.07 6.6
-20 4 -1 1.62 23.4
4 16 -1 -7.28 24.8
-16 20 -1 18.94 20.58
4 16 0 142.53 36.76
16 -20 0 140.85 25.52
-16 20 0 119.21 20.21
-16 20 0 138.72 37.51
-20 4 0 84.73 28.82
-20 4 1 25.64 16.29
-16 20 1 34.68 24.35
4 16 1 12.36 21.42
-16 20 1 13.14 13.73
-20 4 1 -13.31 20.87
-20 4 2 58.74 20.73
-16 20 2 37.35 20.64
-20 4 2 46.33 23.9
-16 20 2 20.68 14.51
4 16 2 8.96 19.31
16 -20 2 27.04 6.71
-20 4 3 60.51 19.15
4 16 3 99.16 34
-16 20 3 100.78 28.28
-16 20 3 89.42 26.99
4 16 4 44.2 30.43
-16 20 4 17.56 21.92
-16 20 4 13.51 23.99
-20 4 4 2.95 18
-16 20 5 2.25 28.48
-20 4 5 -15.8 22.94
-16 20 6 -12.75 31.01
-20 4 6 28.12 25.57
17 -20 -6 -10.78 25.96
-3 -17 -6 20.93 25.8
17 -20 -5 -17.48 25.49
-17 20 -5 63.23 37.14
17 -20 -4 50.92 24.55
-20 3 -4 149.38 44.96
3 17 -4 168.33 42.95
-17 20 -4 133.74 41.61
-17 20 -3 86.77 33.57
3 17 -3 49.83 27.1
17 -20 -3 14.5 21.31
17 -20 -2 45 21.65
-17 20 -2 68.7 32.39
-20 3 -2 59.17 31.64
3 17 -2 56.42 27.85
3 17 -2 21.64 11.55
-17 20 -1 31.86 10.6
-17 20 -1 75.18 29.07
3 17 -1 59.2 26.6
-20 3 -1 63.06 32.47
17 -20 -1 46.01 19.31
3 17 0 289.71 47.09
17 -20 0 266.58 32.52
-20 3 0 225.93 42.25
-17 20 0 254.79 27.46
-17 20 0 247.24 44.84
-17 20 1 9.85 19.52
17 -20 1 27.66 12.26
-17 20 1 36.06 14.68
-20 3 1 -18.11 19.71
-20 3 2 25.81 14.92
17 -20 2 19.93 4.75
3 17 2 32.18 26.29
-17 20 2 -4.63 19.31
17 -20 2 24.17 6.73
-17 20 2 36.57 18.69
-20 3 3 8.16 14.15
3 17 3 32.33 22.27
-17 20 3 -2.1 18.2
-17 20 3 37.6 24.71
3 17 4 141.06 40.53
-17 20 4 160.11 39.58
-20 3 4 100.67 27.15
-17 20 5 91.5 36.84
-20 3 5 -20.53 19.72
-17 20 6 0.23 26.59
-20 3 6 -22.83 28.58
18 -20 -6 -10.14 24
-2 -18 -6 13.12 30.14
-18 20 -5 -56.58 40.59
18 -20 -5 50.98 29.77
18 -20 -4 -19.05 25.8
2 18 -4 -13.81 32.18
-18 20 -4 2.49 23.76
18 -20 -3 4.44 19.28
-20 2 -3 42.32 31.74
2 18 -3 26.65 28.1
-18 20 -3 12.05 25.05
18 -20 -2 51.66 24.4
-20 2 -2 68.79 35.54
-18 20 -2 12.01 24.12
2 18 -2 110.71 33.11
2 18 -2 55.58 14.73
18 -20 -1 67.65 26.36
-18 20 -1 80.04 34.6
-20 2 -1 17.5 22.91
2 18 -1 74.16 29.55
18 -20 0 7.52 11.28
-18 20 0 28.26 23.67
2 18 0 19.97 26.82
-20 2 0 1.9 21.74
-18 20 0 6.82 9.84
18 -20 1 50.41 12.59
-20 2 1 38.12 20.83
18 -20 1 48 12.32
2 18 1 -12.27 23.07
-18 20 1 38.03 26.42
-18 20 1 41.05 17.33
-20 2 2 89.13 25.41
-18 20 2 51.56 21.95
2 18 2 38.24 28.37
18 -20 2 38.23 10.26
-18 20 2 30.91 19.52
-20 2 3 29.3 19.66
-18 20 3 -19.75 22.52
-18 20 3 6.18 18.44
2 18 3 24.59 23.2
-20 2 4 20.02 17.22
2 18 4 -29.15 25.43
-18 20 4 5.4 20.88
-18 20 5 11.66 25.87
-20 2 5 29.47 22.2
-18 20 6 19.47 31.18
-20 2 6 31.68 24.76
-1 -19 -6 -20.45 29.62
-19 20 -5 30.38 31.66
19 -20 -5 51.68 32.67
19 -20 -4 -9.36 21.75
1 19 -4 -21.86 29.46
-19 20 -4 37.68 31.1
1 19 -3 91.62 31.21
-19 20 -3 25.1 25.45
19 -20 -3 116.72 35.8
-19 20 -2 327.76 55.16
1 19 -2 296.44 46.09
19 -20 -2 344.93 49.58
1 19 -2 295.28 26.47
-20 1 -2 298.73 50.18
1 19 -1 -0.68 8.79
19 -20 -1 23.82 19.16
1 19 -1 27.17 23.35
-19 20 -1 -24.62 26.73
-20 1 -1 -8.31 21.94
-19 20 0 50.6 24.79
19 -20 0 22.63 13.83
1 19 0 -0.9 20.47
-19 20 0 27.76 13.77
-20 1 0 27.4 22.97
-19 20 1 9.35 18.73
1 19 1 -7.48 24.09
19 -20 1 1.46 8.55
19 -20 1 4.14 8.98
-19 20 1 -17.15 13.68
1 19 2 183.69 40.58
19 -20 2 305.53 24.5
-19 20 2 294.69 39.54
-20 1 2 307.49 41.22
-19 20 2 314.41 48.08
-20 1 3 54.74 20.5
1 19 3 51.98 26.53
-19 20 3 85.01 28.34
-19 20 3 51.25 21.42
-20 1 4 16.73 19
1 19 4 16.87 22
-19 20 4 31.47 21.88
1 19 4 -15.11 17.92
-19 20 5 -32.25 25.5
-20 1 5 -14.76 20.5
-20 1 6 15.66 23.01
0 -20 -6 -40.62 29.45
-20 20 -5 -3.38 29.85
20 -20 -5 100.91 39.75
20 -20 -4 89.68 33.87
0 20 -4 183.86 48.45
-20 20 -4 85.57 39.64
20 -20 -3 79.09 30.61
0 20 -3 64.48 32.34
-20 20 -3 101.58 39.38
20 -20 -2 -11.82 17.93
0 20 -2 -0.26 20.2
-20 20 -2 -5.78 22.18
0 20 -2 6.05 8.14
-20 20 -1 234.27 48.17
0 20 -1 183.57 39.81
20 -20 -1 299.61 40.06
0 20 -1 267.25 28.83
0 20 0 244.99 45.34
20 -20 0 259.7 32.54
-20 20 0 222.81 28.7
-20 20 0 233.96 45.59
0 20 1 334.32 49.26
20 -20 1 263.87 23.6
20 -20 1 232.01 27.54
-20 20 1 279.87 35.73
-20 20 1 237.02 45.81
-20 0 2 -14.46 16.79
0 20 2 4.93 21.82
-20 20 2 12.68 19.73
-20 20 2 2.16 16.44
-20 0 3 42.63 20.35
0 20 3 36.85 27.33
-20 20 3 67.62 28.89
-20 20 3 30.04 23.33
-20 0 4 74.34 26.95
0 20 4 84.4 24.61
0 20 4 84.67 30.59
-20 20 4 30.36 23.53
-20 0 5 15.44 19.79
-20 20 5 84.2 35.64
-20 0 6 51.15 28.84
1 -21 -6 -12.54 25.22
-21 20 -5 -11.62 31.03
21 -20 -5 -16.09 26.95
21 -20 -4 -4.04 24.15
-1 21 -4 -41.98 33.69
21 -20 -3 19.34 20.61
-1 21 -3 4.54 24.29
-21 20 -3 16.94 25.09
-21 20 -2 260.93 51.43
-1 21 -2 356.78 61.92
21 -20 -2 320.39 46.48
-21 20 -1 480 63.2
-1 21 -1 416.18 55.3
21 -20 -1 492.43 48.49
-1 21 0 168.24 40.78
21 -20 0 190.05 27.2
-21 20 0 146.52 38.43
-21 20 0 179.55 27.25
21 -20 1 420.82 28.84
-21 20 1 490.48 60.83
-1 21 1 457.89 61.53
-21 20 1 473.33 44.63
-21 20 2 223.31 44.67
-1 21 2 236.84 47.8
-21 20 2 268.49 38.32
-20 -1 3 30.65 19.21
-1 21 3 76.01 31.07
-21 20 3 60.21 29.11
-21 20 3 89.7 31.17
-20 -1 4 33.91 18.18
-1 21 4 55.43 31.96
-1 21 4 27.91 20.85
-21 20 4 4.85 20.46
-20 -1 5 69.24 28.61
-21 20 5 19.63 29.66
-20 -1 6 37.44 27.48
2 -21 -6 4.96 29.5
-21 19 -5 -42.07 31.83
21 -19 -5 -15.74 28.75
-21 19 -4 50.51 33.96
21 -19 -4 52.94 31.24
-2 21 -4 1.17 30.7
21 -19 -3 114.48 36.21
-2 21 -3 139.05 35.74
-21 19 -3 161.38 44.05
-21 19 -2 215.56 50.7
21 -19 -2 277.22 43.57
-2 21 -2 239.03 44.6
-21 19 -1 305.59 50.96
-2 21 -1 253.7 42.5
21 -19 -1 358.89 43.51
-21 19 0 -8.84 12.14
21 -19 0 19.63 15.45
-2 21 0 7.98 22
-21 19 0 0.91 23.57
-21 19 1 296.82 51.05
-2 21 1 263.77 43.56
21 -19 1 257.34 20.29
-21 19 1 316.3 36.42
-21 19 2 195.99 39.86
-2 21 2 232.88 45.38
-21 19 2 258.82 37.79
-21 19 3 176.76 40.09
-2 21 3 92.64 35.59
-21 19 3 74.45 28.94
-19 -2 3 123.91 29.13
-19 -2 4 39 23.06
-2 21 4 75.75 32.41
-21 19 4 22.47 27.57
-19 -2 5 40.74 25.73
-21 19 5 12.44 22.78
-19 -2 6 43.48 27.25
3 -21 -6 31.05 29.34
3 -21 -5 -2.69 17.23
21 -18 -5 53.63 29.59
-21 18 -5 5.98 37.37
-3 21 -5 5.36 23.74
-21 18 -4 42.48 36.89
21 -18 -4 -13.92 22.89
-3 21 -4 -46.04 36.94
21 -18 -3 58.86 30.2
-3 21 -3 27.56 25.81
-21 18 -3 51.82 31.37
21 -18 -2 64.97 26.14
-3 21 -2 29.32 24.57
-3 21 -2 47.68 9.84
-21 18 -2 63.18 32.58
21 -18 -1 1.09 13.93
-3 21 -1 22.13 25.13
-21 18 -1 -1.4 22.3
-21 18 0 3.36 11.27
21 -18 0 3.39 11.47
-3 21 0 -37.71 24.66
-21 18 0 -3.15 20.5
-3 21 1 35.43 21.91
-21 18 1 23.35 21.89
-21 18 1 14.22 15.21
-3 21 2 48.78 22.1
-21 18 2 52.46 28.08
-21 18 2 42.18 20.43
-21 18 3 56.91 27.02
-18 -3 3 13.83 14.56
-3 21 3 42.47 22.88
-21 18 3 79.31 26.56
-3 21 3 46.47 23.17
-18 -3 4 2.26 17.49
-3 21 4 53.23 29.98
-21 18 4 10 24.28
-18 -3 5 15.65 20.24
-21 18 5 -4.35 27.01
4 -21 -6 -19.75 26.59
21 -17 -6 19.29 26.11
-4 21 -5 -10.2 28.12
4 -21 -5 21.97 23.81
-4 21 -5 48.56 25.71
21 -17 -5 78.09 38.27
-21 17 -5 37.28 32.24
-21 17 -4 171.37 47.56
17 4 -4 129.46 28.75
21 -17 -4 192.59 46.48
-4 21 -4 99.58 37.05
-21 17 -3 112.06 38.83
21 -17 -3 113.36 36.28
-4 21 -3 59.25 33.65
-4 21 -2 232.21 45.69
-4 21 -2 153.13 12.11
21 -17 -2 229.66 37.42
-21 17 -2 165.97 42.12
21 -17 -1 -0.64 15.58
-4 21 -1 46.51 24.61
-21 17 -1 49.82 29.93
-21 17 0 23.66 12.49
21 -17 0 51.15 18.15
-4 21 0 59.74 29.15
-21 17 0 45.51 28.53
-4 21 1 31.7 27.31
-21 17 1 29.47 27.35
-21 17 1 22.25 15.23
-4 21 2 187.13 39.88
-21 17 2 215.28 40.93
-21 17 2 168.11 29.87
-21 17 3 109.66 33.17
-17 -4 3 109.69 25.13
-4 21 3 180.17 40.12
-21 17 3 90.37 29.76
-4 21 3 69.54 28.63
-17 -4 4 95.71 26.5
-4 21 4 105.1 34.22
-21 17 4 168.97 39.79
-17 -4 5 -14.97 20.15
-21 17 5 -37.09 28.06
-17 -4 6 12.71 21.02
-21 17 6 55.14 31
5 -21 -6 11.9 25.03
21 -16 -6 52.97 31.82
-5 21 -5 -29.2 25.64
5 -21 -5 7.8 20.55
-5 21 -5 -13.93 26.71
21 -16 -5 8 26.2
-21 16 -5 16.92 32.48
-21 16 -4 -2.13 25.9
21 -16 -4 45.29 29.87
16 5 -4 42.34 21.67
-5 21 -4 98.64 37.51
21 -16 -3 194.58 40.75
-21 16 -3 169.88 44.94
-5 21 -3 173.04 39.8
21 -16 -2 29.41 20.35
-5 21 -2 5.2 27.53
-21 16 -2 79.78 34.25
21 -16 -1 111.31 24.29
-5 21 -1 79.04 28.04
-21 16 -1 111.5 33.71
-21 16 0 33.11 15.61
21 -16 0 10.87 12.46
-5 21 0 54.25 29.68
-21 16 0 36.69 31.2
-5 21 1 118.15 34.4
-21 16 1 112.05 22.77
-21 16 1 81.07 28.84
-21 16 2 20.41 21.96
-5 21 2 70.35 28.5
-5 21 2 14.86 20.78
-21 16 2 22.89 16.33
-5 21 3 68.72 29.39
-21 16 3 132.68 33.37
-5 21 3 193.86 39.42
-21 16 3 128.96 33.44
-16 -5 3 145.22 29.87
-16 -5 4 5.83 16.68
-21 16 4 1.68 20.41
-16 -5 5 3.04 16.38
-21 16 5 42.99 25.86
-16 -5 6 39.71 26.63
-5 21 6 -30.55 33.88
-21 16 6 1.56 28.82
6 -21 -6 -18.68 22.19
21 -15 -6 53.08 30.12
6 -21 -5 11.01 20.59
-6 21 -5 -13.22 24.31
21 -15 -5 23.56 30.15
-21 15 -5 14.25 26.71
15 6 -4 20.78 18.17
21 -15 -4 3.63 23.68
-21 15 -4 17.61 26.39
-6 21 -4 5.15 23.14
-6 21 -4 60.47 33.17
-21 15 -3 57.84 32.98
21 -15 -3 88.71 31.9
-6 21 -3 105.09 38.39
21 -15 -2 659.34 62.1
-21 15 -2 531.93 67.15
-6 21 -2 532.82 64.51
21 -15 -1 13.03 13.84
-6 21 -1 16.71 25.05
-21 15 0 31.48 14.36
-6 21 0 51.71 27.82
-21 15 1 -10.07 22.75
-6 21 1 -11.82 20.67
-21 15 1 3.35 13.24
-6 21 2 604.16 63.39
-21 15 2 584.46 61.51
-6 21 2 579.53 60.76
-21 15 2 562.44 52.12
-15 -6 3 76.06 23.22
-21 15 3 57.04 24.86
-6 21 3 64.03 28.76
-21 15 3 21.31 19.83
-15 -6 4 29.09 17.2
-6 21 4 28.38 19.46
-21 15 4 60.48 30.62
-15 -6 5 6.88 16.36
-6 21 5 22.94 31.86
-21 15 5 -23.97 23.9
-15 -6 6 1.8 20.57
-6 21 6 43.68 40.31
-21 15 6 19.27 27.81
7 -21 -6 39.84 25.13
21 -14 -6 12.88 29.07
-21 14 -5 -17.54 26.52
7 -21 -5 -32.71 21.32
21 -14 -5 -32.53 31.15
-7 21 -5 -26.26 25.14
-7 21 -4 33.52 29.7
-7 21 -4 17.81 19.72
21 -14 -4 7.2 24.69
-21 14 -4 50.35 32.53
14 7 -4 -43.41 22.29
21 -14 -3 71.5 29.76
-21 14 -3 90.62 38.57
-7 21 -3 76.8 31.88
-7 21 -3 103.09 37.53
-21 14 -2 8.6 23.68
21 -14 -2 16.55 15.84
-7 21 -2 7.6 21.2
-21 14 -1 -0.23 25
21 -14 -1 16.63 16.94
-7 21 -1 4.58 22.67
-21 14 0 -12.27 27.7
-21 14 0 8.27 12.06
-7 21 0 17.49 19.55
-21 14 0 -6.52 10.6
-21 14 1 -25.85 26.79
-7 21 1 -17.99 19.01
-7 21 1 -4.18 18.05
-21 14 1 -10.47 14.87
-7 21 2 29.28 25.62
-21 14 2 47.84 26.16
-7 21 2 65.94 26.62
-21 14 2 55.23 20.35
-14 -7 3 71.74 21
-7 21 3 66.5 22.86
-21 14 3 99.95 30.73
-21 14 3 41.16 18.94
-14 -7 4 -4.15 13.47
-7 21 4 -17.84 21.25
-21 14 4 -15.74 24.01
-14 -7 5 8.52 15.54
-7 21 5 43.42 31.19
-21 14 5 50.16 31.8
-21 14 6 -4.82 24.67
-7 21 6 24.65 39.11
8 -21 -6 -21.92 25.66
21 -13 -6 -31.94 30.32
-21 13 -5 -1.6 27.68
-8 21 -5 31.19 30.86
21 -13 -5 62.26 29.93
8 -21 -5 18.37 21.08
-8 21 -4 -18.34 29.7
8 -21 -4 -7.26 17.13
13 8 -4 25.07 18.52
-8 21 -4 23.95 20.13
21 -13 -4 26.04 23.88
-21 13 -4 70.87 31.4
13 8 -3 32.42 18.06
-8 21 -3 13.52 20.83
-21 13 -3 -17.97 29.64
21 -13 -3 27.9 23.28
-8 21 -3 31.06 28.89
-21 13 -2 46.5 27.55
-8 21 -2 47.57 25.69
21 -13 -2 46.23 22.52
-8 21 -2 93.54 32.01
-21 13 -1 69.2 30.21
-21 13 -1 39.03 10.5
-8 21 -1 46.9 8.8
-8 21 -1 68.91 27.37
21 -13 -1 33.36 17.39
-21 13 0 1.96 13.45
-8 21 0 33.86 23.37
-21 13 0 -13.46 12.87
-21 13 0 18.78 25.44
-8 21 0 19.41 20.5
-21 13 1 34.53 22.28
-8 21 1 63.25 28.44
-8 21 1 70.07 21.79
-21 13 1 59.13 19.5
-21 13 2 39.21 23.38
-8 21 2 13.28 18.31
-21 13 2 63.25 20.89
-21 13 3 30 21.68
-13 -8 3 -15.38 19.19
-8 21 3 -22.47 18.63
-21 13 3 -2.78 16.67
-13 -8 4 42.93 19.93
-8 21 4 57.51 24.44
-21 13 4 31.92 24.06
-13 -8 5 33.36 20.74
-8 21 5 7.06 26.29
-21 13 5 19.8 21.34
-8 21 6 37.86 40.66
-21 13 6 -21.9 25.38
9 -21 -6 7.03 20.58
9 -21 -5 16.27 21.02
-9 21 -5 31.94 28.66
-21 12 -5 9.4 29.69
21 -12 -5 -3.04 30.08
-9 21 -4 52.36 28.67
21 -12 -4 64.73 31.74
9 -21 -4 41.08 21.43
12 9 -4 60.11 24.76
-21 12 -4 5.59 28.21
12 9 -3 146.7 31.98
-9 21 -3 216.39 39.37
21 -12 -3 120.73 31.1
-21 12 -3 130.07 41.17
-9 21 -3 162.4 39.26
-9 21 -2 44.83 22.77
-21 12 -2 31.87 29.45
21 -12 -2 47.55 20.89
-9 21 -2 54.19 24.63
-21 12 -1 76.65 15.18
-21 12 -1 125.61 37.37
-9 21 -1 47.52 22.75
-9 21 -1 80.17 10.02
-9 21 -1 69.67 29.93
-21 12 0 33.81 15.27
-9 21 0 31.81 21.76
-21 12 0 30.68 26.45
-9 21 0 26.81 11.06
-21 12 0 23.12 12.41
-9 21 0 25.99 19.42
-21 12 1 91.58 21.19
-9 21 1 111.49 30.99
-21 12 1 59.04 25.76
-9 21 1 66.18 23.24
-9 21 2 19.07 20.11
-21 12 2 38.96 24.94
-21 12 2 64.63 21.9
-21 12 3 105.38 30.71
-21 12 3 157.86 32.42
-9 21 3 119.05 29.67
-9 21 3 175.37 38.54
-12 -9 4 17.69 14.32
-9 21 4 111.64 39.09
-9 21 4 81.54 27.54
-21 12 4 71.56 29.64
-12 -9 5 32.98 17.94
-9 21 5 48.46 35.49
-21 12 5 4.55 20.02
-9 21 6 46.08 32.95
-21 12 6 68.73 34.94
-11 -10 -6 74.37 40.34
10 -21 -6 -15.41 21.57
21 -11 -5 -19.78 26.69
-10 21 -5 8.18 25.09
-21 11 -5 4.17 32.81
10 -21 -5 19.32 22.26
-21 11 -4 38.6 32.11
-10 21 -4 51.33 30.28
21 -11 -4 29.51 24.72
10 -21 -4 25.13 17.69
11 10 -4 91.74 29.57
-10 21 -3 52.08 30.77
11 10 -3 64.22 25.31
21 -11 -3 97.21 29.22
-21 11 -3 73.17 37.56
-10 21 -2 44.66 22.86
-21 11 -2 26.51 5.51
-21 11 -2 47.23 31.19
-10 21 -2 71.35 28.56
-10 21 -1 148.34 32.09
-21 11 -1 183.55 21.74
-21 11 -1 153.1 39.43
-10 21 -1 187.38 14.23
-10 21 -1 152.09 35.85
-21 11 0 24.31 13.86
-10 21 0 40.15 20.72
-21 11 0 16.37 21.45
-10 21 0 34.07 12.58
-10 21 0 37.92 23.6
-10 21 1 240.11 41.92
-10 21 1 198.92 29.18
-21 11 1 150.73 36.52
-21 11 1 181.85 27.48
-10 21 2 58.36 21.79
-10 21 2 54.56 24.13
-21 11 2 91.32 25.43
-21 11 2 9.62 19.29
-10 21 3 51.68 21.93
-21 11 3 51.43 25.24
-10 21 3 19.65 19.87
-21 11 3 40.23 20.48
-11 -10 4 53.2 19.47
-10 21 4 52.56 29.88
-21 11 4 6.63 22.04
-10 21 4 -29.77 19.02
-11 -10 5 15.64 19.3
-10 21 5 14.86 25.45
-21 11 5 37.11 25.86
-10 21 6 -74.67 42.03
-21 11 6 -4.31 24.26
-10 -11 -6 12.35 28.78
11 -21 -6 -12.44 23.38
11 -21 -5 -21.3 25.12
-11 21 -5 14.15 27.97
-21 10 -5 16.54 30.6
11 -21 -4 -14.32 19.37
-11 21 -4 39.3 26.64
10 11 -4 37.57 25.52
-21 10 -4 36.02 32.24
-11 21 -3 131.73 36.81
10 11 -3 63.39 23.04
-21 10 -3 122.2 42.81
10 11 -2 39.29 22.49
-21 10 -2 6.29 6.38
-21 10 -2 38.52 33.59
-11 21 -2 -15.85 22.51
-11 21 -1 139.15 32.89
-11 21 -1 155.5 38.71
-21 10 -1 217.41 47.04
-11 21 -1 170.68 13.72
-11 21 0 223.69 43.01
-11 21 0 245.78 24.99
-11 21 1 170.19 26.81
-11 21 1 125.68 33.55
-21 10 1 149.42 34.89
-21 10 1 147.04 26.53
-21 10 2 -8.3 18.65
-11 21 2 19.82 17.1
-11 21 2 51.21 25.52
-21 10 2 12.37 14.07
-21 10 3 93.53 30.28
-11 21 3 88.4 30.72
-11 21 3 133.45 30.84
-21 10 3 87.96 27.32
-11 21 4 1.36 16.75
-10 -11 4 47.01 21.62
-11 21 4 12.17 28.24
-21 10 4 3.69 19.56
-10 -11 5 -8.71 14.65
-11 21 5 13.99 25.13
-21 10 5 -40.05 25.19
-11 21 6 31.84 32.04
-21 10 6 1.82 26.05
12 -21 -6 4.39 23.46
-9 -12 -6 34.53 30.17
-21 9 -5 -0.76 28.13
12 -21 -5 21.96 27.45
-12 21 -5 27.53 33.27
12 -21 -4 49.87 24.1
-12 21 -4 35.68 26.33
9 12 -4 73.64 28.5
-21 9 -4 -0.14 29.57
-12 21 -3 44.36 28.19
12 -21 -3 76.8 24.82
9 12 -3 52.68 22.01
-12 21 -2 105.6 34.06
9 12 -2 76.26 24.6
-21 9 -2 56.36 12.36
-21 9 -2 44.34 27.22
-21 9 -1 79.3 17.89
-12 21 -1 73.06 9.36
-21 9 -1 47.75 27.1
-12 21 -1 76.5 29.13
-12 21 0 29.7 12.99
-12 21 0 36.28 24.12
-21 9 0 12.47 23.57
-21 9 1 62.99 18.95
-21 9 1 121.93 36.03
-12 21 1 61.65 18.52
-12 21 1 46.34 23.03
-21 9 2 76.44 28.63
-12 21 2 78.3 24.48
-21 9 2 47.47 19.01
-21 9 3 126.6 33.97
-12 21 3 116.17 33.5
-21 9 3 96.49 26.73
-12 21 3 128.35 30.94
-12 21 4 28.48 21.4
-9 -12 4 27.62 19.52
-21 9 4 60.31 22.43
-12 21 5 6.95 26.86
-21 9 5 -24.1 23.32
-12 21 6 12.66 32.88
-21 9 6 64.33 31.48
-8 -13 -6 26.06 30.66
13 -21 -6 19.1 24.12
13 -21 -5 54.41 28.7
-13 21 -5 -2.06 26.02
-21 8 -5 -45.73 31.05
13 -21 -4 -8.05 18.47
-13 21 -4 -49.15 30.23
8 13 -4 24.92 25.06
-13 21 -3 52.47 29.66
13 -21 -3 53.24 23.75
-21 8 -3 50.48 40.57
8 13 -3 86.8 27.21
-13 21 -2 1.73 21.71
-21 8 -2 -6.1 27.12
8 13 -2 8.49 18.83
-21 8 -2 10.31 10.49
-21 8 -1 36.01 29.32
-21 8 -1 25.13 14.18
-13 21 -1 -8.29 20.13
-13 21 -1 15.69 5.89
-21 8 0 130.98 35.46
-13 21 0 89.83 36.11
-13 21 0 73.88 15.35
-21 8 1 26.53 18.21
-21 8 1 -17.18 21.58
-13 21 1 0.01 12.32
-13 21 1 21.87 21.87
-21 8 2 29.14 15.59
-13 21 2 1.89 18.52
-21 8 2 -5.32 20.69
-13 21 2 -35.59 22.35
-13 21 3 106.49 28.73
-21 8 3 65.14 27.06
-21 8 3 74.2 27.01
-13 21 3 75.02 27.61
-13 21 4 33.21 18.42
-13 21 4 -38.11 28.95
-21 8 4 -33.45 25.1
-13 21 5 -11.22 24.09
-21 8 5 31.95 18.88
-13 21 6 0.89 29.18
-21 8 6 -24.61 26.44
14 -21 -6 -22.79 28.14
-7 -14 -6 44.18 35.83
-21 7 -5 73.05 38.64
14 -21 -5 7.09 23.34
-14 21 -5 35.46 30.84
-21 7 -4 -47.17 37.06
14 -21 -4 28.64 17.83
-14 21 -4 0.46 25.54
7 14 -4 7.56 25.28
14 -21 -3 17.48 21.64
7 14 -3 12.14 19.85
-21 7 -3 16.97 27.89
-14 21 -3 41.92 26.89
-14 21 -2 -32.7 26.34
14 -21 -2 -0.44 18.46
-21 7 -2 -24.1 31.06
7 14 -2 17.19 19.34
-14 21 -1 10.57 6.71
-14 21 -1 10.54 22.73
7 14 -1 0.2 18.61
-21 7 -1 0.32 26.28
-21 7 -1 6.51 12.06
-21 7 0 12.83 25.19
-14 21 0 14.98 10.61
-14 21 0 16.04 20.89
-21 7 1 25.54 16.37
-21 7 1 -9.61 20.02
-14 21 1 -8.59 11.72
-14 21 1 24.16 24.26
-14 21 2 10.65 18.67
-21 7 2 10.28 14.02
-14 21 2 36.72 18.57
-21 7 2 37.93 23.7
-14 21 3 12.59 21.62
-14 21 3 -1.29 17.99
-21 7 3 22.33 16.65
-14 21 4 30.73 21.79
7 14 4 1.05 26.85
-14 21 4 -2.32 20.65
-21 7 4 -42.02 24.49
-14 21 5 30.61 27.2
-21 7 5 19.38 24.8
-14 21 6 -51.12 32.49
-21 7 6 39.99 29.22
15 -21 -6 21.32 25.51
-6 -15 -6 -51.45 35.91
15 -21 -5 -15.99 23.17
-21 6 -5 5.13 25.93
-15 21 -5 26.95 28.69
15 -21 -4 32.38 26.04
-15 21 -4 61.85 29.86
6 15 -4 71.68 33.65
-21 6 -4 70.48 41.67
6 15 -3 124.1 32.08
-15 21 -3 176.27 43.92
15 -21 -3 203.72 38.09
-21 6 -3 107.71 40.52
6 15 -2 253.42 42.36
15 -21 -2 244.46 39.34
-21 6 -2 191.65 48.38
-15 21 -2 255.55 45.84
6 15 -1 59.15 24.13
-21 6 -1 64.25 29.99
-15 21 -1 142.98 39.75
-15 21 -1 134.74 14.46
6 15 0 122.08 32.33
-21 6 0 188.95 41.42
-15 21 0 152.45 20.82
-15 21 0 181.51 39.62
-21 6 1 92.95 35.27
-15 21 1 48.7 23.79
-21 6 1 105.48 23.08
-15 21 1 106.92 22.19
-15 21 2 192.71 32.29
-21 6 2 231.29 42.77
-15 21 2 216.29 41.12
-21 6 2 202.4 33.76
6 15 3 188.86 40.39
-15 21 3 237.94 41.29
-15 21 3 194.78 37.43
-21 6 3 165.95 33.09
-15 21 4 52.31 24.63
6 15 4 7.16 26.33
-15 21 4 84.64 31.47
-21 6 4 49.7 27.33
-15 21 5 -39.63 34.09
-21 6 5 41.76 26.8
-15 21 6 -37.63 32.76
-21 6 6 -5.55 20.83
-5 -16 -6 22.98 32.57
16 -21 -6 41.25 32.05
16 -21 -5 48.44 30.13
-16 21 -5 76.93 36.07
-21 5 -4 37.84 31.92
16 -21 -4 34.36 23.6
-16 21 -4 28.35 24.66
5 16 -4 68.87 30.71
16 -21 -3 31.93 23.06
-21 5 -3 28.95 31.13
-16 21 -3 -15.59 23.13
5 16 -3 -2.35 21.46
5 16 -2 214.32 39.77
16 -21 -2 215.31 41.44
-16 21 -2 178.65 40.48
-21 5 -2 116.66 36.33
-16 21 -1 40.82 10.4
-16 21 -1 30.36 23.81
16 -21 -1 45.42 24.07
5 16 -1 59.29 26.42
-21 5 -1 6.13 22.49
-21 5 0 17.83 19.72
-16 21 0 16.83 23.19
5 16 0 -6.46 19.62
-16 21 0 2.8 11.26
-21 5 1 12.28 14.04
-16 21 1 61.12 25.8
5 16 1 23.5 27.2
-16 21 1 46.21 17.31
-21 5 1 42.21 26.24
5 16 2 234.44 46.54
-16 21 2 189.89 32.76
-16 21 2 189.34 38.26
-21 5 2 197.25 40.07
-21 5 2 211.5 33.54
-21 5 3 -7.45 17.49
5 16 3 46.42 34.27
-16 21 3 8.77 18.04
-16 21 3 60.21 28.91
5 16 4 75.88 37.28
-16 21 4 44.71 25.62
-16 21 4 19.47 28.56
-21 5 4 73.61 27.12
-16 21 5 9.93 24.82
-21 5 5 0.56 20.54
-16 21 6 -20.16 31.74
-21 5 6 -6.52 21.56
-4 -17 -6 0.99 32.13
17 -21 -6 -3.16 25.35
17 -21 -5 18.12 26.47
-17 21 -5 -5.76 32.43
-21 4 -4 6.71 31.31
17 -21 -4 54.62 25.87
-17 21 -4 39.37 28.09
4 17 -4 63.11 33.91
-17 21 -3 95.08 35.8
17 -21 -3 173.55 39.76
4 17 -3 124.73 32.37
-21 4 -3 113.98 32.86
4 17 -2 270.65 43.98
17 -21 -2 331.18 48.14
-21 4 -2 243.01 57.68
-17 21 -2 378.59 57.28
4 17 -1 13.62 22.24
-17 21 -1 0.81 8.16
-17 21 -1 5.2 22.24
17 -21 -1 1.51 17.7
-21 4 -1 9.13 23.34
4 17 0 48.57 25.23
-17 21 0 43.13 22.61
17 -21 0 12.68 13.24
-21 4 0 13.9 26.45
-17 21 0 25.98 13.49
-17 21 1 -20.33 21.6
4 17 1 39.93 27.41
-17 21 1 7.84 13.51
-21 4 1 -50.75 25.66
17 -21 1 -3.2 8.82
4 17 2 389.93 55.86
17 -21 2 231.26 17.14
-17 21 2 293.72 39.96
-17 21 2 299.95 44.59
-21 4 2 275.08 37.29
4 17 3 184.47 44.4
-17 21 3 78.37 29.39
-17 21 3 118.18 31.67
-21 4 3 122.79 29.12
4 17 4 -12.38 27.08
-17 21 4 20.77 25.7
-21 4 4 42.31 22.95
-17 21 5 12.56 28.21
-21 4 5 19.8 19.42
-21 4 6 43.01 26.44
-3 -18 -6 -10.06 27.36
18 -21 -5 76.88 37.07
-18 21 -5 -18.96 29.11
18 -21 -4 44.76 30.11
3 18 -4 24.08 29.69
-18 21 -4 38.64 31.74
3 18 -3 -7.18 23.22
18 -21 -3 -26.91 23.93
-18 21 -3 -22 28.59
-18 21 -2 103.59 32.46
18 -21 -2 138.42 33.18
3 18 -2 93.64 31.86
-21 3 -2 100.98 34.48
-18 21 -1 16.36 11.77
-18 21 -1 54.95 28.23
18 -21 -1 9.79 15.22
3 18 -1 -3.33 19.47
-21 3 -1 10.36 22.76
-21 3 0 57.76 32.97
3 18 0 56.95 27.62
-18 21 0 20.3 20.03
18 -21 0 27.1 16.52
-18 21 0 14.15 11.63
18 -21 1 -0.87 8.92
-18 21 1 10.48 22.16
3 18 1 -5.96 22.43
-21 3 1 -14.84 20.74
-18 21 1 9.93 14.55
-21 3 2 95.07 24.78
18 -21 2 54.49 6.95
-18 21 2 107.92 33.37
3 18 2 118.51 36.15
-18 21 2 77.96 23.98
-21 3 3 4.66 17.29
3 18 3 9.14 23.63
-18 21 3 7.1 20.86
-18 21 3 5 20.78
-21 3 4 28.44 19.38
3 18 4 -29.74 29.25
-18 21 4 -13.12 20.28
-18 21 5 -39.64 32
-21 3 5 -35.31 25.44
-21 3 6 0.23 21.41
-2 -19 -6 17.76 29.75
-19 21 -5 37.76 34.97
19 -21 -5 -19.5 29.13
2 19 -4 43.51 30.08
-19 21 -4 -20.33 28.03
19 -21 -4 -23.44 26.32
-21 2 -3 28.35 28.8
19 -21 -3 9.13 21.51
2 19 -3 12.36 21.31
-19 21 -3 72.24 35.16
19 -21 -2 156.23 35.12
2 19 -2 125.55 33
-19 21 -2 130.89 38.2
-21 2 -2 122.96 39.34
19 -21 -1 383.71 44.2
2 19 -1 294.27 47.5
-21 2 -1 378.5 54.13
-19 21 -1 322.55 51.59
19 -21 0 111.98 22.74
2 19 0 110.6 33.93
-19 21 0 61.58 27.38
-21 2 0 125.29 33.65
-19 21 0 129.11 22.7
2 19 1 384.46 54.28
19 -21 1 320.15 28.4
19 -21 1 313.96 29.71
-19 21 1 362.7 38.9
-19 21 1 293.97 48.01
-21 2 2 104.75 25.2
2 19 2 155.27 41.81
-19 21 2 106.81 30.77
-19 21 2 75.49 24.46
-21 2 3 28.87 19.26
2 19 3 49.86 25.33
-19 21 3 34.61 27.65
-19 21 3 34.99 19.9
-21 2 4 40.48 24.11
2 19 4 23.17 26.53
-19 21 4 -12.31 23.41
-21 2 5 20.09 21.65
-19 21 5 13.35 29.49
-21 2 6 2.66 24.62
-1 -20 -6 147.57 59.52
-20 21 -5 -62.98 43.25
20 -21 -5 -20.13 28.26
20 -21 -4 58.4 28.7
1 20 -4 14.76 28.64
-20 21 -4 105.11 47.13
20 -21 -3 15.14 25.2
1 20 -3 1.1 25.42
-20 21 -3 2.28 25.96
20 -21 -2 220.82 39.66
1 20 -2 164.27 37.4
-20 21 -2 106.28 36.97
-21 1 -2 115.64 35.84
20 -21 -1 51.68 22.86
-20 21 -1 91.74 35.78
-21 1 -1 70.23 29.66
1 20 -1 65.22 29.42
20 -21 0 152.86 26.92
1 20 0 166.37 37.31
-20 21 0 119.65 30.34
-20 21 0 165.51 26.39
1 20 1 74.9 28.11
20 -21 1 60.53 14.76
-20 21 1 27.87 21.75
20 -21 1 51.12 15.11
-20 21 1 68.8 21.41
-20 21 2 161.34 41.14
1 20 2 200.58 40.51
-20 21 2 138.51 29.39
-21 1 2 151.62 29.69
-21 1 3 3.55 18.88
-20 21 3 49.44 25.65
1 20 3 31.24 22.81
-20 21 3 11.71 18.53
-21 1 4 63.48 23.79
1 20 4 31.48 29.18
-20 21 4 77.38 29.51
-21 1 5 9.53 21.8
-20 21 5 0.11 23.73
-21 1 6 36.14 27.64
0 -21 -6 24.06 24.91
-21 21 -5 34.25 33.13
21 -21 -5 2.53 24.97
21 -21 -4 68.75 34.5
0 21 -4 65.98 37.71
-21 21 -4 38.57 33.99
21 -21 -3 21.72 22.21
0 21 -3 7.65 25.13
-21 21 -3 -6.4 28.15
-21 21 -2 143.77 46.67
0 21 -2 186.54 40.91
21 -21 -2 240.08 40.64
0 21 -1 7.09 21.58
21 -21 -1 20.22 18.74
-21 21 -1 7.81 23.76
21 -21 0 -5.86 13.59
-21 21 0 -19.58 26.89
0 21 0 5.34 23.06
-21 21 0 -5.52 12.5
21 -21 1 -0.01 10.31
0 21 1 2.04 21.46
-21 21 1 -24.35 25.54
-21 21 1 -0.14 14.76
-21 21 2 171.42 40.38
-21 0 2 148.15 31.45
0 21 2 126.1 37.04
-21 21 2 183 32.43
-21 0 3 4.06 18.29
0 21 3 -7.83 21.16
-21 21 3 44.77 29.82
-21 21 3 -4.44 20.08
-21 0 4 3.96 19.28
0 21 4 3.38 25.99
0 21 4 18.33 24.88
-21 21 4 31.76 27.05
-21 0 5 -8.5 18.84
-21 21 5 18.61 24.36
-21 0 6 48.76 30.01
-22 21 -5 63.47 39.6
22 -21 -5 48.65 34.01
22 -21 -4 64.84 33.55
-1 22 -4 -31.58 34.33
-22 21 -4 5.63 30.59
22 -21 -3 51 29.43
-1 22 -3 5.37 29.79
-22 21 -3 -6.17 29.78
22 -21 -2 46.7 25.72
-1 22 -2 53.14 28.67
-22 21 -2 5.51 26.47
22 -21 -1 100.06 28.93
-1 22 -1 67.35 33.59
-22 21 -1 42.64 32.57
-22 21 0 34.71 17.23
-22 21 0 14.89 21.81
22 -21 0 -11.19 11.7
-1 22 0 1.54 22.74
-1 22 1 105.42 37.68
-22 21 1 101.06 35.48
22 -21 1 78.67 13.85
-22 21 1 92.43 23.64
-1 22 2 19.8 19.67
-22 21 2 7.03 20.79
-22 21 2 37.07 19.3
-21 -1 3 -6.27 18.08
-1 22 3 40.22 26.82
-22 21 3 72.35 26.25
-22 21 3 46.18 29.06
-21 -1 4 8.18 16.42
-1 22 4 -2.19 21.87
-1 22 4 -27.54 25.37
-22 21 4 -2.27 21.4
-21 -1 5 10.9 20.06
-22 21 5 -9.22 24.81
-21 -1 6 13.34 23.26
-22 20 -5 -16.01 33.25
22 -20 -5 22.41 30.68
-22 20 -4 20.19 29.72
22 -20 -4 35.56 31.28
-2 22 -4 -20.52 31.35
22 -20 -3 45.12 29.29
-2 22 -3 26.67 27.71
-22 20 -3 52.33 37.38
-22 20 -2 242.99 53.83
22 -20 -2 242.94 41.48
-2 22 -2 286.22 50.77
-2 22 -1 161 37.15
-22 20 -1 118.33 39.08
22 -20 -1 122.42 30.27
-22 20 0 12.52 13.64
22 -20 0 28.97 15.23
-2 22 0 6.05 21.44
-22 20 0 46.27 26.22
22 -20 1 85.36 12.84
-2 22 1 119.66 35.51
-22 20 1 80.42 32.96
-22 20 1 129.79 25.08
-22 20 2 178.5 40.95
-2 22 2 205.16 41.6
-22 20 2 253.57 38.29
-20 -2 3 8.68 18.82
-2 22 3 11.14 23.89
-22 20 3 13.55 19.93
-22 20 3 37.6 25.64
-20 -2 4 35.61 19.63
-2 22 4 42.75 31.98
-22 20 4 47.14 28.77
-20 -2 5 48.28 26.52
-22 20 5 3.65 24.89
-20 -2 6 18.31 21.04
-22 19 -5 50.55 42.27
-3 22 -5 44.45 29.77
22 -19 -5 8.9 29.75
-22 19 -4 28.51 33.61
22 -19 -4 26.24 28.95
-3 22 -4 80.39 35.89
22 -19 -3 50.65 27.03
-3 22 -3 32.11 26.52
-22 19 -3 -14.28 31.82
22 -19 -2 14.24 17.08
-3 22 -2 42.18 27.99
-22 19 -2 40.34 35.69
22 -19 -1 47.92 20.22
-3 22 -1 -17.62 25.26
-22 19 -1 16.92 23.51
-22 19 0 -10.01 12.13
22 -19 0 -0.43 11.19
-3 22 0 2.39 21.69
-22 19 0 34.38 26.05
-3 22 1 17.13 20.65
-22 19 1 -3 22.28
-22 19 1 7.9 13.5
-22 19 2 57.44 27.26
-22 19 2 15.82 14.75
-3 22 2 55.68 27.72
-3 22 3 47.14 27.77
-22 19 3 65.22 31.85
-19 -3 3 -16.3 16.68
-3 22 3 48.74 31.71
-22 19 3 1.38 18.26
-19 -3 4 8.9 16.14
-3 22 4 40.83 26.69
-22 19 4 9.4 24.99
-19 -3 5 24.34 21.27
-22 19 5 17.76 24.84
-19 -3 6 36.5 31.29
4 -22 -6 11.46 25.01
4 -22 -5 21.09 20.16
22 -18 -5 56.34 34.14
-4 22 -5 17.77 24.32
-22 18 -5 64.18 39.89
-22 18 -4 45.39 35.94
22 -18 -4 47.98 26.69
-4 22 -4 61.74 32.94
-22 18 -3 77.05 40.93
22 -18 -3 119.11 36.13
-4 22 -3 55.45 30.33
22 -18 -2 90.77 30.22
-4 22 -2 40.59 22.33
-22 18 -2 49.57 26.7
22 -18 -1 179.39 31.23
-4 22 -1 108 32.79
-22 18 -1 130.04 38.2
-22 18 0 -32.96 14.7
22 -18 0 7.36 12.33
-4 22 0 15.97 19.93
-22 18 0 -14.46 26.48
-4 22 1 150.29 38.55
-22 18 1 113.49 26.85
-22 18 1 93.98 33.07
-4 22 2 58.2 27.92
-22 18 2 96.11 22.96
-22 18 2 114.74 32.88
-18 -4 3 40.38 21.87
-22 18 3 26.18 23.66
-4 22 3 88.64 29.17
-4 22 3 78.84 30.34
-22 18 3 74.77 28.79
-18 -4 4 19.05 16.81
-4 22 4 26.75 22.89
-22 18 4 -34.36 23.72
-18 -4 5 21.65 20.56
-22 18 5 -22.24 25.12
-18 -4 6 -6.3 23.38
5 -22 -6 6.5 21.53
-5 22 -5 67.92 38.07
22 -17 -5 89.6 39.65
-22 17 -5 27.41 38.44
-5 22 -5 -6.58 19.84
5 -22 -5 2.04 17.23
17 5 -4 24.85 21.42
22 -17 -4 12.05 24.97
-22 17 -4 29.87 27.17
-5 22 -4 4.64 31.01
-22 17 -3 136.01 43.64
22 -17 -3 174.06 39.98
-5 22 -3 59.72 37.11
22 -17 -2 23.18 22.03
-5 22 -2 52.46 27.39
22 -17 -1 63.49 20.53
-5 22 -1 45.53 28.92
-22 17 -1 95 32.44
-22 17 0 -4.89 15.02
-5 22 0 0.3 23.94
22 -17 0 23.47 14.12
-22 17 0 35.64 27.17
-5 22 1 100.47 35.22
-22 17 1 88.45 34.37
-22 17 1 66.92 20.68
-22 17 2 24.58 30.9
-5 22 2 18.59 23.28
-5 22 2 2.25 19.7
-22 17 2 0.61 14.55
-5 22 3 166.61 37.36
-22 17 3 70.14 29.09
-5 22 3 163.17 35.99
-22 17 3 132.23 33.95
-17 -5 3 130.52 28.94
-17 -5 4 39.45 21.38
-5 22 4 39.6 28.22
-22 17 4 23 27.61
-17 -5 5 4.68 19.51
-22 17 5 23.53 29.67
-17 -5 6 6.12 18.03
6 -22 -6 29.91 32.04
-6 22 -5 -10.13 32.53
-6 22 -5 10.13 21.27
6 -22 -5 -21.9 19.73
22 -16 -5 9.94 29.71
-22 16 -5 24.73 35.14
-6 22 -4 2.58 19.89
16 6 -4 54.43 24.87
-22 16 -4 44.01 33.27
22 -16 -4 16.99 23.95
-6 22 -4 46.37 30.35
-22 16 -3 32.37 27.96
22 -16 -3 24.01 21.51
-22 16 -2 0.61 25.17
-6 22 -2 76.52 32.18
22 -16 -2 76.57 24.41
22 -16 -1 685.32 56.68
-6 22 -1 682.5 70.96
-22 16 -1 589.05 68.93
-22 16 0 13.84 13.72
-6 22 0 7.54 22.04
-22 16 0 19.86 22.28
-6 22 1 634.86 66.23
-22 16 1 601.56 65.43
-22 16 1 592.01 50.27
-6 22 2 46.21 25.36
-22 16 2 41.04 27.04
-6 22 2 -7.52 22.47
-22 16 2 39.42 20.98
-16 -6 3 48.71 18.57
-22 16 3 10.63 21.05
-6 22 3 20.06 19.01
-22 16 3 67.32 25.94
-16 -6 4 0.92 17.23
-6 22 4 0.34 19.64
-16 -6 5 63.38 25.22
-6 22 5 -11.08 32.77
-22 16 5 -37.94 30.6
-16 -6 6 61.3 28.45
7 -22 -6 19.91 24.86
-7 22 -5 70.58 37.31
7 -22 -5 42.12 17.79
22 -15 -5 57.79 35.72
-22 15 -5 32.34 36.2
-7 22 -4 20.1 23.22
15 7 -4 71.27 26.84
22 -15 -4 71.61 35.03
-22 15 -4 29.26 28.12
-7 22 -4 -9.22 25.68
-7 22 -3 44.52 24.4
-22 15 -3 52.68 32.87
22 -15 -3 37.53 22.38
-7 22 -3 30 27.33
-22 15 -2 267.27 51.76
22 -15 -2 258.31 38.92
-7 22 -2 261.12 47.63
-22 15 -1 -6.22 26.32
22 -15 -1 32.94 16.69
-7 22 -1 30.6 20.75
-22 15 0 151.5 36.14
-7 22 0 148.66 32.33
-22 15 0 134.69 24.11
-22 15 1 -16.74 22.87
-7 22 1 47.49 27.8
-7 22 1 28.48 23.25
-22 15 1 24.37 16.55
-7 22 2 254.35 41.54
-7 22 2 307.13 45.54
-22 15 2 239.42 40.39
-22 15 2 282.43 40.04
-15 -7 3 13.3 14.26
-22 15 3 -4.16 21.4
-7 22 3 12.49 21.09
-22 15 3 51.26 22.38
-15 -7 4 16.11 15.61
-7 22 4 34.28 21.84
-22 15 4 1.67 25.02
-15 -7 5 0.85 17.82
-7 22 5 -9.68 33.91
-22 15 6 25.67 30.51
8 -22 -6 18.41 27.14
22 -14 -6 6.54 27.14
-22 14 -5 -27.76 30.88
22 -14 -5 -25.02 30.67
-8 22 -5 44.21 30.03
8 -22 -5 45.18 23.79
-8 22 -4 -5.56 41.45
14 8 -4 66.6 27.66
-8 22 -4 17.3 21.1
22 -14 -4 46.07 24.74
-22 14 -4 35.57 36.89
-8 22 -3 88.11 30.06
-22 14 -3 90.54 38.73
22 -14 -3 131.65 33.43
-8 22 -3 163.38 39.43
-22 14 -2 59.86 32.19
22 -14 -2 10.75 15.43
-8 22 -2 2.67 17.7
-8 22 -2 93.88 36.59
-22 14 -1 209.43 41.49
22 -14 -1 242.75 35.32
-8 22 -1 221.57 44.38
-8 22 -1 250.76 18.44
-22 14 0 -13.66 14.49
-8 22 0 12.95 18.55
-22 14 0 36.44 26.05
-8 22 0 12.08 20.88
-8 22 1 254.94 37.97
-22 14 1 212.24 42.18
-8 22 1 247.71 43.16
-22 14 1 252.9 34.53
-8 22 2 0.75 18.71
-22 14 2 30.78 23.15
-8 22 2 1.36 21.62
-22 14 2 37.4 19.37
-8 22 3 148.33 34.85
-22 14 3 112.94 30.74
-22 14 3 77.48 30.68
-14 -8 4 52.16 19.68
-8 22 4 22.38 27.16
-8 22 4 30 24.33
-22 14 4 10.52 23.11
-14 -8 5 -10.1 20.18
-8 22 5 80.01 39.38
-22 14 5 65.01 30
-22 14 6 -23.42 25.42
9 -22 -6 4.17 21.19
-9 22 -5 11.03 29.56
9 -22 -5 34.96 22.51
-22 13 -5 19.22 32.67
22 -13 -5 14.19 30.14
-9 22 -4 48.64 30.53
13 9 -4 52.17 27.5
22 -13 -4 40.78 30.94
9 -22 -4 72.33 27.67
-22 13 -4 118.46 44.18
13 9 -3 58.69 22.5
22 -13 -3 86.98 31.75
-22 13 -3 115.38 42.03
-9 22 -3 37.61 21.29
-9 22 -3 97.97 34.45
-9 22 -2 169.82 35.65
22 -13 -2 205.97 36.27
-9 22 -2 184.77 43.34
-22 13 -2 224.59 48.65
-22 13 -1 110.05 16.66
-22 13 -1 47.11 24.77
-9 22 -1 115.09 31.42
-9 22 -1 113.96 12.61
-9 22 -1 111.07 33.9
-22 13 0 18.86 13.63
-9 22 0 7.19 20.64
-22 13 0 -2.94 26.35
-9 22 0 -2.96 9.72
-9 22 0 17.43 21.76
-9 22 1 138.88 33.6
-22 13 1 91.57 32.75
-9 22 1 174.92 40.5
-22 13 1 122.41 24.21
-22 13 2 102.99 33.43
-9 22 2 114.37 31.32
-22 13 2 142.92 28.38
-22 13 3 79.46 32.25
-9 22 3 56.61 23.86
-9 22 3 53.07 23.85
-22 13 3 66.03 26.16
-13 -9 4 43.05 19.08
-9 22 4 54.44 31.87
-9 22 4 42.84 23.36
-22 13 4 66.07 25.71
-13 -9 5 16.52 19.77
-9 22 5 -25.73 30.61
-22 13 5 28.45 26.18
-9 22 6 13.99 35.19
-22 13 6 -26.69 22.18
10 -22 -6 12.42 24.91
10 -22 -5 1.67 17.97
-10 22 -5 43.75 30.82
22 -12 -5 73.4 33.27
-22 12 -5 24.37 33.66
-22 12 -4 11.48 27.1
-10 22 -4 14.74 26.85
12 10 -4 47.24 26.71
10 -22 -4 33.97 20.42
22 -12 -4 94.56 30.64
12 10 -3 146.57 30.97
22 -12 -3 164.74 34.82
-10 22 -3 157.13 36.24
-22 12 -3 167.71 47.19
-10 22 -3 150.85 40.94
-22 12 -2 4.35 23.91
-10 22 -2 28.71 22.12
-10 22 -2 57.28 27.93
-10 22 -1 137.19 33.09
-22 12 -1 137.14 20.44
-22 12 -1 148.81 40.93
-10 22 -1 148.4 13.45
-10 22 -1 135.9 35.52
-22 12 0 -15.75 16.01
-10 22 0 3.56 17.16
-10 22 0 4.09 9.16
-22 12 0 -8.72 24.12
-10 22 0 0.81 23.94
-10 22 1 165.58 37
-10 22 1 133.59 24.42
-22 12 1 134.73 37.94
-22 12 1 156.16 27.56
-10 22 2 37.77 21.12
-10 22 2 58.81 25.38
-22 12 2 15.56 25.9
-22 12 2 1.28 13.83
-22 12 3 175.79 39.42
-10 22 3 151.74 37.07
-22 12 3 154.47 34.31
-10 22 3 112.22 32.27
-12 -10 4 55.94 21.68
-10 22 4 25.97 28.31
-22 12 4 72.9 27.32
-10 22 4 16.44 21.48
-12 -10 5 -2.01 16.62
-10 22 5 39.1 31.42
-22 12 5 -32.75 26.13
-10 22 6 81.35 49.62
-22 12 6 -31.52 27.51
11 -22 -6 24.23 24.37
-11 -11 -6 38.5 35.58
11 -22 -5 -1.12 20.7
-11 22 -5 29.05 28.45
-22 11 -5 47.47 33.2
-11 22 -4 -17.53 28.17
11 -22 -4 -19.38 19.09
-22 11 -4 36.35 31.78
11 11 -4 14.82 22.76
-11 22 -3 135.19 40.8
11 11 -3 151.57 33.21
-22 11 -3 161.38 45.63
-22 11 -2 3.94 4.65
-22 11 -2 14.15 35.65
-11 22 -2 12.5 21.04
-11 22 -2 12.58 23.46
-11 22 -1 25.46 25.02
-22 11 -1 20.46 10.53
-11 22 -1 -0.2 4.41
-11 22 -1 46.8 23.97
-11 22 0 10.89 18.29
-11 22 0 18.56 11.13
-22 11 0 15.15 23.84
-11 22 0 -17.43 19.73
-22 11 1 -22.29 16.75
-11 22 1 6.9 14.99
-11 22 1 -40.82 28.44
-22 11 1 -12.19 21.95
-22 11 2 63.09 28.9
-11 22 2 -3.78 18.39
-11 22 2 31.57 24.84
-22 11 2 49.38 22.26
-11 22 3 166.49 37.96
-11 22 3 123.87 35.1
-22 11 3 91.74 28.56
-22 11 3 98.73 29.19
-11 -11 4 20.4 17.3
-11 22 4 22.56 25.87
-22 11 4 -4.06 17.32
-11 22 4 46.66 26.27
-11 -11 5 39.86 22.35
-11 22 5 -0.03 29.89
-22 11 5 48.81 29.48
-11 22 6 -7.8 32.02
-22 11 6 -61.17 29.49
-10 -12 -6 13.14 30.71
12 -22 -6 -3.5 22.13
-22 10 -5 20.07 30.84
12 -22 -5 8.84 19.81
-12 22 -5 4.6 25.71
-12 22 -4 -29.7 27.63
12 -22 -4 -4.94 18.25
10 12 -4 51.24 25.22
-22 10 -4 49.56 33.69
-22 10 -3 22.47 27.22
12 -22 -3 41.42 20.57
10 12 -3 14.2 19.71
-22 10 -2 88.91 14.17
-22 10 -2 197.13 45.47
-12 22 -2 150.55 39.27
10 12 -2 139.58 30.77
-22 10 -1 30.92 13.58
-12 22 -1 44.77 8.07
-22 10 -1 46.56 31.54
-12 22 -1 41.46 28.04
-12 22 0 238.98 25.62
-12 22 0 287.09 46.55
-22 10 0 225.85 46.59
-22 10 1 18.21 24.89
-22 10 1 47.05 18.04
-12 22 1 49.21 18.93
-12 22 1 38.72 21.01
-22 10 2 203.42 43.9
-12 22 2 170.06 30.71
-12 22 2 169.89 38.64
-22 10 2 167.89 31.91
-22 10 3 22.82 19.86
-12 22 3 66.35 25.91
-12 22 3 85.54 29.36
-22 10 3 53.02 27.31
-12 22 4 8.2 18.92
-22 10 4 28.04 18.61
-12 22 5 23.08 32.85
-22 10 5 27.9 23.07
-12 22 6 -54.07 40.07
-22 10 6 -6.24 23.75
13 -22 -6 14.13 21.92
-9 -13 -6 10.06 30.23
13 -22 -5 -23.19 20.43
-22 9 -5 20.83 28.06
-13 22 -5 12.7 27.39
13 -22 -4 14.56 21.65
9 13 -4 43.7 28.5
-22 9 -4 -16 25.72
-13 22 -4 -32 33.07
-13 22 -3 -9.25 25.12
13 -22 -3 -10.74 16.25
-22 9 -3 -34.52 30.07
9 13 -3 5.84 16.36
-13 22 -2 6.83 24.69
-22 9 -2 10.61 28.56
-22 9 -2 17.51 9.94
9 13 -2 25.79 23.3
-22 9 -1 125.28 37.07
-22 9 -1 115.12 20.87
-13 22 -1 181.63 41.16
-13 22 -1 152.34 13.83
-22 9 0 153.37 37.75
-13 22 0 221.54 24.91
-13 22 0 216.01 42.54
-13 22 1 177.44 28.24
-13 22 1 186.79 39.44
-22 9 1 168.58 28.25
-22 9 1 159.34 42.25
-22 9 2 3.03 14.37
-13 22 2 18.21 15.9
-22 9 2 44.93 26.88
-13 22 2 28.2 25.2
-13 22 3 17.54 22.51
-22 9 3 -0.05 18.08
-22 9 3 14.12 17.94
-13 22 3 -45.14 26.29
-13 22 4 -0.34 19.98
-13 22 4 -9.77 24.93
-22 9 4 -5.24 18.48
-13 22 5 22.08 32.75
-22 9 5 -14.5 23.91
-13 22 6 25.9 31.5
-22 9 6 0.03 25.57
-8 -14 -6 -42.57 36.73
14 -22 -6 31.54 24.75
14 -22 -5 6.57 23.36
-14 22 -5 14.8 32.15
-22 8 -5 80.82 37.79
14 -22 -4 -18.45 22.86
-14 22 -4 2.1 22.84
8 14 -4 7.38 26.87
-22 8 -4 72.66 41.87
-22 8 -3 43.74 34.56
14 -22 -3 -24 20.63
-14 22 -3 -8.88 25.52
8 14 -3 -21.54 18.06
-14 22 -2 36.28 28.61
8 14 -2 0.84 18.67
-22 8 -2 67.08 35.23
-22 8 -2 6.41 8.72
8 14 -1 283.22 45.1
-22 8 -1 259.66 30.61
-14 22 -1 264.53 46.78
-14 22 -1 272.44 18.68
-22 8 -1 227.55 46.44
-22 8 0 130.27 37.31
-14 22 0 119.51 19.83
-14 22 0 140.16 34.5
-22 8 1 316.79 49.71
-14 22 1 311.2 48.07
-14 22 1 288.85 34.04
-22 8 1 255.83 34.98
-22 8 2 7.59 17.3
-22 8 2 -30.12 22.14
-14 22 2 41.76 20.57
-14 22 2 17.65 20.62
-14 22 3 -5.17 21.24
-22 8 3 30.44 23.46
-14 22 3 2.55 17.35
-22 8 3 30.2 21
8 14 4 36.59 31.76
-14 22 4 47.92 24.95
-22 8 4 19.49 21.99
-14 22 4 22.34 21.58
-14 22 5 54.56 32.21
-22 8 5 13.78 24.77
-22 8 6 9.9 24.55
-7 -15 -6 1.05 28.98
15 -22 -6 28.2 26.9
15 -22 -5 46.86 29.55
-15 22 -5 26.76 33.77
-22 7 -5 9.39 30.3
-22 7 -4 17.97 25.93
-15 22 -4 81.2 35.95
7 15 -4 57.22 30
15 -22 -4 41.6 27.23
15 -22 -3 130.77 30.93
7 15 -3 116.09 33.8
-15 22 -3 170.94 41.69
-22 7 -3 162.34 42.24
-15 22 -2 59.58 27.78
15 -22 -2 75.94 25
7 15 -2 38.26 27.38
-22 7 -2 32.1 30.65
-15 22 -1 17.97 7.8
-15 22 -1 48.83 29.74
7 15 -1 60.52 28.28
-22 7 -1 33.08 28.85
-15 22 0 88.72 32.09
7 15 0 123.11 36.02
-22 7 0 142.45 37.71
-15 22 0 71.57 15.79
-15 22 1 35.03 23.08
-22 7 1 13.69 13.51
-15 22 1 2.42 12.1
-22 7 1 57.74 27.3
-22 7 2 76.92 24
-15 22 2 134.17 34.43
-22 7 2 54.56 26.32
-15 22 2 69.67 22.56
-15 22 3 123.56 34.04
-15 22 3 225.62 40.57
-22 7 3 190.51 35.37
7 15 4 10.3 27.33
-15 22 4 33.53 23.45
-15 22 4 93.09 33.51
-22 7 4 41.38 23.37
-15 22 5 27.41 29.77
-22 7 5 -17.31 22.68
-22 7 6 80.38 33.5
-6 -16 -6 35.25 33.49
-22 6 -5 8.72 27.7
16 -22 -5 29.79 26.28
-16 22 -5 47.94 35.81
6 16 -4 59.55 28.83
16 -22 -4 19.33 22.71
-16 22 -4 36.14 36.86
-22 6 -4 103.79 42.35
-22 6 -3 -9.65 29.37
16 -22 -3 32.09 24.98
-16 22 -3 8.36 24.98
6 16 -3 75.44 29.59
-16 22 -2 136.24 39.92
16 -22 -2 78.8 25.82
6 16 -2 114.9 31.99
-22 6 -2 100.7 38.89
-16 22 -1 12.41 8.17
-16 22 -1 39.7 23.02
6 16 -1 25.42 24.37
-22 6 -1 54.45 29.22
6 16 0 204.76 44.37
-22 6 0 228.48 43.76
-16 22 0 158.59 22.16
-16 22 0 177.63 40.13
-16 22 1 30.12 22.93
-22 6 1 25.18 17.91
6 16 1 38.3 26.53
-22 6 1 42.19 25.71
-16 22 1 33.81 15.4
-16 22 2 99.52 32.19
6 16 2 130.78 34.86
-22 6 2 124.38 32.7
-16 22 2 96.03 26.97
-22 6 2 133.49 26.38
-22 6 3 35.72 20.7
-16 22 3 11.37 19.42
6 16 3 45.98 29.22
-16 22 3 16.09 17.92
6 16 4 27.03 30.19
-16 22 4 41.62 26.83
-22 6 4 42.36 24.42
-16 22 5 64.36 33.14
-22 6 5 17.95 21.16
-22 6 6 -9.93 24.55
-5 -17 -6 23.93 26.03
17 -22 -5 2.58 21.92
-17 22 -5 -14.52 27.51
17 -22 -4 -10.92 21.23
-22 5 -4 -2.75 26.15
-17 22 -4 -14.24 24.66
5 17 -4 20.71 22.94
17 -22 -3 45.07 21.25
-22 5 -3 37.25 31.98
-17 22 -3 90.71 35.22
5 17 -3 63.43 27.45
-22 5 -2 89.38 34.71
-17 22 -2 57.44 31.27
17 -22 -2 94.24 30.09
5 17 -2 127.54 32.54
-17 22 -1 10.59 8.77
-22 5 -1 54.39 31.84
-17 22 -1 57.06 28.64
17 -22 -1 27.48 15.66
5 17 -1 10.56 23.61
-17 22 0 -0.3 23.69
-22 5 0 -14.1 22.79
17 -22 0 1.94 11.75
5 17 0 -13.7 22.09
-17 22 0 -4.87 10.03
-22 5 1 23.36 18.2
-17 22 1 -9.84 19.81
5 17 1 -1.49 22.43
-17 22 1 18.06 12.21
-22 5 1 42.88 27.26
-22 5 2 47.22 26.4
-22 5 2 74.57 20.64
-17 22 2 44.23 22.37
-17 22 2 105.36 25.46
5 17 2 107.94 35.04
-22 5 3 77.11 22.65
5 17 3 74.53 33.91
-17 22 3 91.2 30.83
-17 22 3 77.49 27.78
5 17 4 -3.46 25.14
-17 22 4 -0.19 22.22
-22 5 4 -1.74 17.31
-17 22 5 16.95 29.73
-22 5 5 7.45 22.42
-22 5 6 30.38 24.25
-4 -18 -6 -21.1 29.5
18 -22 -5 0.81 21.83
-18 22 -5 -27.09 35.47
18 -22 -4 85.42 32.49
4 18 -4 118.82 39.24
-18 22 -4 83.28 39.04
-22 4 -4 45.07 33.76
-22 4 -3 93.71 37.03
18 -22 -3 37.26 27.16
4 18 -3 16.84 25.15
-18 22 -3 90.73 34.05
18 -22 -2 175.68 35.58
4 18 -2 100.38 31.67
-22 4 -2 181.15 47.61
-18 22 -2 152.07 32.48
-18 22 -1 86.63 35.35
18 -22 -1 80.71 26.01
4 18 -1 32.81 23.51
-22 4 -1 74.59 32.24
-18 22 -1 67.29 13.63
4 18 0 36.77 24.83
18 -22 0 36.95 16.87
-22 4 0 15.92 23.84
-18 22 0 43.4 15.81
-18 22 0 69.79 30.47
18 -22 1 48.65 13.96
-18 22 1 86.96 25.85
4 18 1 51.49 30.89
-22 4 1 110.37 32.73
-18 22 1 72.09 20.97
4 18 2 188.84 45.65
18 -22 2 110.67 12.29
-18 22 2 184.98 33.3
-18 22 2 175.06 38.07
-22 4 2 184.09 34.57
-22 4 3 4.91 15.26
4 18 3 62.4 24.13
-18 22 3 30.17 20.76
-18 22 3 42.44 26.95
-22 4 4 89.63 28.83
4 18 4 120.53 38.27
-18 22 4 28.55 26.39
-18 22 5 35.1 29.23
-22 4 5 10.26 23.07
-22 4 6 45.01 27.88
-3 -19 -6 -18.39 27.22
19 -22 -5 0.87 23.79
-19 22 -5 -29.35 30.82
19 -22 -4 32.56 28.17
3 19 -4 58.21 30.33
-19 22 -4 11.76 30.49
-22 3 -3 11.46 30.47
-19 22 -3 -25.57 28
3 19 -3 -14.37 24.37
19 -22 -3 -3.38 21.07
19 -22 -2 154.81 35.83
-22 3 -2 136.61 41.28
-19 22 -2 79.28 32.2
3 19 -2 131.04 34.47
19 -22 -1 101.52 28.31
-22 3 -1 94.52 27.99
-19 22 -1 41.11 31.86
3 19 -1 50.96 25.01
19 -22 0 114.91 23.76
-19 22 0 85.96 34.94
3 19 0 85.96 31.23
-22 3 0 55.37 31.23
-19 22 0 72.1 18.85
19 -22 1 99.52 22.68
3 19 1 127.47 37.76
-22 3 1 130.26 34.01
-19 22 1 111.27 24.78
-19 22 1 143.17 37.07
-22 3 2 117.93 26.14
-19 22 2 90.82 31.08
3 19 2 119.17 39.62
-19 22 2 142.79 29.71
-22 3 3 -11.17 14.66
3 19 3 -31.11 25.28
-19 22 3 -21.79 23.2
-19 22 3 30.02 23.62
-22 3 4 6.32 16.48
3 19 4 29.56 27.04
-19 22 4 43.45 27.56
-22 3 5 57.44 28.64
-19 22 5 31.23 31.54
-22 3 6 54.45 33.08
-2 -20 -6 -20.65 25.77
-20 22 -5 7.68 30.06
20 -22 -5 14.7 28.82
20 -22 -4 12.98 22.92
2 20 -4 45.34 32.56
-20 22 -4 2.41 33.26
20 -22 -3 79.55 34.83
2 20 -3 127.16 35.96
-20 22 -3 112.02 40.9
-22 2 -3 213.91 52.98
2 20 -2 191.61 43.56
-20 22 -2 168.84 44.05
20 -22 -2 230.28 44.24
-22 2 -2 208.07 47.45
2 20 -1 299.16 49.33
20 -22 -1 374.01 46.26
-22 2 -1 303.29 52.83
-20 22 -1 345.87 57.57
20 -22 0 1.08 14.29
-22 2 0 1.55 21.77
2 20 0 16.25 22.5
-20 22 0 16.53 20.8
-20 22 0 -18.75 14.42
2 20 1 398.82 56.7
20 -22 1 289.66 29.37
20 -22 1 373.21 31.03
-20 22 1 295.18 36.52
-20 22 1 314.12 51.81
2 20 2 201.61 40.76
-20 22 2 170.96 33.01
-20 22 2 195.97 43.21
-22 2 2 198.55 35.93
-22 2 3 57.57 22.39
2 20 3 118.25 36.2
-20 22 3 98.74 33.22
-20 22 3 93.18 32.5
-22 2 4 -20.28 17.58
2 20 4 -24.25 25.76
-20 22 4 -3.46 20.78
-22 2 5 61.27 28.46
-20 22 5 81.3 39
-22 2 6 -37.71 32
-21 22 -5 -2.96 32.07
21 -22 -5 -35.84 32.25
21 -22 -4 64.79 29.3
1 21 -4 -4.08 29.79
-21 22 -4 45.47 32.68
1 21 -3 217.27 50.02
-21 22 -3 246.03 54.64
21 -22 -3 267.71 53.83
1 21 -2 44.14 31.98
-21 22 -2 16.17 28.93
21 -22 -2 26.89 22.62
-22 1 -1 66.49 30.23
21 -22 -1 55.29 19.78
1 21 -1 68.55 29.59
1 21 0 531.35 64.63
21 -22 0 545.99 46.52
-21 22 0 587.07 46.6
-21 22 0 580.6 68.41
21 -22 1 64.03 15.78
1 21 1 68.64 32.42
-21 22 1 15.41 24.81
-21 22 1 27.9 13.14
-22 1 2 2.51 14.3
-21 22 2 9.86 23.38
1 21 2 21.13 22.94
-21 22 2 17.8 19.94
-21 22 3 198.52 40.98
1 21 3 158.18 43.29
-21 22 3 202.5 38.6
-22 1 3 195.05 37.24
-22 1 4 6.38 17.25
1 21 4 75.01 30.86
1 21 4 15.27 25.63
-21 22 4 47.44 29.05
-22 1 5 -13.79 21.5
-21 22 5 -1.91 23.77
-22 1 6 18.19 24.54
-22 22 -5 -9.97 30.54
22 -22 -5 8.64 36.27
22 -22 -4 -32.03 29.95
0 22 -4 8.02 32.28
-22 22 -4 5.84 31.31
22 -22 -3 168.87 39.76
0 22 -3 156.39 40.32
-22 22 -3 150.49 45.45
22 -22 -2 0.85 21.45
0 22 -2 31.92 24.42
-22 22 -2 45.08 25.21
22 -22 -1 112.95 29.69
0 22 -1 98.31 33.04
-22 22 -1 111.33 38.24
-22 22 0 34.87 14.56
22 -22 0 25.32 15.86
0 22 0 -9.65 25.85
-22 22 0 -13.04 30.38
22 -22 1 118.82 17.63
0 22 1 80.05 28.61
-22 22 1 126.79 36.41
-22 22 1 148.61 27.75
0 22 2 22.07 24.06
-22 22 2 69.44 34.08
-22 22 2 46.35 21.26
-22 0 3 78.9 27.99
0 22 3 158.76 44.08
-22 22 3 181.28 39.74
-22 22 3 110.99 36.61
-22 0 4 0.87 18.75
0 22 4 -51.68 30.17
0 22 4 -9.01 24.27
-22 22 4 23.89 25.31
-22 0 5 -4.63 21.43
-22 22 5 -11.93 22.67
-22 0 6 34.75 28.05
-23 22 -5 -18.31 34.6
23 -22 -5 15.82 29.4
23 -22 -4 31.2 27.88
-1 23 -4 61.03 41.59
-23 22 -4 33.72 34.1
23 -22 -3 204.34 48.09
-1 23 -3 239.28 48.61
-23 22 -3 200.24 51.38
23 -22 -2 1.75 24.73
-1 23 -2 37.1 27.41
-23 22 -2 25.05 33.52
-1 23 -1 211.71 45.17
23 -22 -1 236.65 37.03
-23 22 -1 135.07 39.08
-1 23 0 229.63 47.82
23 -22 0 202.13 29.52
-23 22 0 191.29 44.09
-23 22 0 225.68 31.82
-23 22 1 192.88 45.28
-1 23 1 232.77 44.43
23 -22 1 164.63 19.24
-23 22 1 211.92 34.4
-1 23 2 4.59 22.91
-23 22 2 -11.5 18.57
-1 23 3 273.02 49.88
-23 22 3 268.33 49.65
-23 22 3 166.3 33.98
-22 -1 3 205.13 39.11
-22 -1 4 31.03 23.27
-1 23 4 97.56 32.98
-1 23 4 17.66 32.93
-23 22 4 41.85 25.1
-22 -1 5 4.76 20.21
-23 22 5 84.16 39.45
-22 -1 6 12.61 24.48
-23 21 -5 10.9 30.76
23 -21 -5 50.84 35.86
-23 21 -4 3.81 33.49
23 -21 -4 51.59 30.2
-2 23 -4 36.26 33.69
23 -21 -3 16.54 26.6
-2 23 -3 31.46 27.27
-23 21 -3 81.06 37.81
23 -21 -2 87.98 30.37
-2 23 -2 51.47 29.33
-23 21 -2 6.68 29.89
23 -21 -1 110.8 27.56
-2 23 -1 117.74 34.99
-23 21 -1 145.72 42.06
-23 21 0 65.7 20.16
23 -21 0 43.97 17.19
-2 23 0 71.51 33.93
-23 21 0 110.96 38.56
-2 23 1 114.1 34.89
-23 21 1 75.3 27.07
-23 21 1 103.69 25.24
-2 23 2 11.6 25.95
-23 21 2 50.57 27.7
-23 21 2 89.66 26.39
-21 -2 3 10.74 16.2
-2 23 3 5.92 21.43
-23 21 3 45.33 25.83
-23 21 3 -30.31 27.85
-21 -2 4 2.85 18.26
-23 21 4 18.66 22.31
-21 -2 5 26.79 21.36
-23 21 5 -31.23 28.81
-21 -2 6 26.87 25.76
-3 23 -5 38.81 30.72
-23 20 -5 43.14 35.93
23 -20 -5 72.24 36.15
-23 20 -4 -14.91 33.22
23 -20 -4 72.83 37.14
-3 23 -4 67.69 35.79
23 -20 -3 -30.45 27.03
-3 23 -3 21.34 25.99
-23 20 -3 28 34.6
23 -20 -2 132 33.98
-3 23 -2 167.18 43.21
-23 20 -2 170.64 45.19
-23 20 -1 201.76 50.93
23 -20 -1 190.12 32.91
-3 23 -1 241.34 46.91
-23 20 0 10.98 14.69
23 -20 0 19.68 12.95
-3 23 0 -6.31 23.37
-23 20 0 4.59 23.49
-23 20 1 168.47 43.76
-3 23 1 200.55 44.75
-23 20 1 167.02 30.7
-23 20 2 112.53 33.9
-23 20 2 83.09 23.55
-23 20 3 6.47 21.44
-3 23 3 -2.89 23.2
-20 -3 3 13.49 20.44
-3 23 3 -4.98 20.25
-23 20 3 22.36 23.32
-20 -3 4 20.81 19.34
-3 23 4 24.66 27.04
-23 20 4 -15.34 21.02
-20 -3 5 17.17 18.46
-23 20 5 58.66 34.91
-20 -3 6 22.58 19.42
4 -23 -5 34.07 24.87
-4 23 -5 -11.42 26.14
-23 19 -5 45.89 40.56
23 -19 -5 16.43 34.42
-23 19 -4 -63.15 28.98
-4 23 -4 17.69 32.55
-23 19 -3 23.35 34.7
23 -19 -3 -0.81 20
-4 23 -3 8.51 26.75
23 -19 -2 211.85 41.56
-23 19 -2 162.84 48.65
-4 23 -2 152.63 40.36
23 -19 -1 29.17 20.68
-4 23 -1 32.07 25.78
-23 19 -1 44.88 27.47
-4 23 0 195.97 44.28
23 -19 0 137.53 25.02
-23 19 0 119.08 38.38
-23 19 0 148.33 26.52
-4 23 1 26.79 24.14
-23 19 1 -10.5 25.83
-23 19 1 36.73 17.76
-4 23 2 139.58 35.56
-23 19 2 142.41 30.99
-23 19 2 167.27 38.79
-19 -4 3 4.19 18.01
-23 19 3 -0.05 22.16
-4 23 3 -2.56 23.42
-4 23 3 -6.76 20.75
-23 19 3 -21.08 19.82
-19 -4 4 3.94 16.05
-4 23 4 6.9 22.38
-23 19 4 30.07 27.38
-19 -4 5 11.84 20.35
-23 19 5 -40.54 31.81
-19 -4 6 21.72 24.54
-5 23 -5 27.03 30.82
5 -23 -5 57.27 26.98
23 -18 -5 61.45 36.57
-23 18 -5 11.43 34.67
-5 23 -5 65.07 34.49
-23 18 -4 39.5 39.96
18 5 -4 -3.55 18.02
23 -18 -4 41.53 30.46
-5 23 -4 5.51 27.11
-23 18 -3 -15.6 26.58
23 -18 -3 -0.91 19.54
-5 23 -3 6.5 25.64
23 -18 -2 131.12 33.81
-5 23 -2 28.05 31.6
-23 18 -2 80.68 36.69
23 -18 -1 52.53 25.17
-5 23 -1 7.43 23.2
-23 18 -1 31.62 30.69
-5 23 0 260.4 47.65
-23 18 0 196.19 44.4
23 -18 0 259.65 31.07
-23 18 0 249.04 33.14
-5 23 1 49.85 27.98
-23 18 1 62.48 32.76
-23 18 1 38.88 18.41
-23 18 2 86.06 34.3
-5 23 2 75.57 31.24
-5 23 2 41.1 22.67
-23 18 2 89.11 24.83
-18 -5 3 -18.64 17.95
-23 18 3 18.44 26.02
-5 23 3 9.9 20.4
-5 23 3 -3.98 17.87
-23 18 3 -32.84 24.31
-18 -5 4 -15.14 19.24
-5 23 4 -20.05 25.59
-23 18 4 34.98 24.65
-18 -5 5 13.7 18.34
-23 18 5 34.23 25.82
-18 -5 6 53.89 28.82
-6 23 -5 18.48 29.24
6 -23 -5 -21.03 22.59
-6 23 -5 -20.53 22.62
23 -17 -5 2.36 29.07
-23 17 -5 -3.98 30
-6 23 -4 73.25 29.69
17 6 -4 6.37 16.36
-23 17 -4 19.93 29.64
23 -17 -4 20.11 27.8
-6 23 -4 104.41 41.5
23 -17 -3 41.88 30.13
-6 23 -3 -50.98 32.47
-23 17 -3 1.53 33.2
-23 17 -2 38.37 31.56
23 -17 -2 30.43 19.83
-6 23 -2 -1.1 23.61
23 -17 -1 56.88 19.84
-6 23 -1 42.01 23.3
-23 17 -1 37.68 32.2
-23 17 0 28.7 18.36
-6 23 0 42.89 23.29
-23 17 0 100.83 37.53
-23 17 1 46.59 29.86
-6 23 1 32.19 27.03
-23 17 1 57.26 18.75
-23 17 2 41.03 27.47
-6 23 2 26.17 23.33
-6 23 2 65.01 28.96
-23 17 2 -17.12 14.62
-23 17 3 51.04 28.1
-6 23 3 -3.55 21.61
-23 17 3 -6.86 17.24
-17 -6 4 29.2 20.39
-6 23 4 26.79 27.25
-23 17 4 26.32 25.39
-17 -6 5 -1.82 17.98
-6 23 5 18.31 32.82
-23 17 5 -28.84 30.19
-7 23 -5 49.09 32.51
7 -23 -5 -15.72 24.06
23 -16 -5 26.97 28.5
-23 16 -5 73.57 38.55
-7 23 -4 72.85 30.24
16 7 -4 4.36 19.38
23 -16 -4 -1.84 28.05
-23 16 -4 33.65 33.38
-7 23 -4 51.31 36.02
-7 23 -3 207.16 41.24
23 -16 -3 198.1 40.75
-23 16 -3 256.21 54.57
-7 23 -3 241.22 50.48
23 -16 -2 177.76 35.67
-23 16 -2 131.32 47.46
-7 23 -2 239.31 46.5
-23 16 -1 148.17 42.19
23 -16 -1 113.21 26.66
-7 23 -1 82.95 28.84
-7 23 0 396.24 53.81
-23 16 0 409.47 58.7
-23 16 0 343.06 39.82
-23 16 1 65.94 27.72
-7 23 1 69.9 28
-7 23 1 77.5 28.26
-23 16 1 105.16 22.99
-7 23 2 216.47 40.44
-23 16 2 151.03 34.95
-7 23 2 192.08 38.12
-23 16 2 135.82 26.08
-7 23 3 185.1 41.68
-23 16 3 220.08 46.06
-23 16 3 171.25 35.17
-16 -7 4 21.55 19.48
-7 23 4 -9.94 23.37
-23 16 4 9.55 21.02
-16 -7 5 38.81 24.5
-7 23 5 19.75 33.35
-23 16 5 -3.7 24.22
-23 15 -5 52.1 35.75
-8 23 -5 6.96 27.06
8 -23 -5 -12.06 22.57
23 -15 -5 33.24 28.12
-8 23 -4 63.49 32
-8 23 -4 29.54 21.66
15 8 -4 37.68 20.37
23 -15 -4 17.42 22.86
-23 15 -4 -2.17 27.41
-23 15 -3 13.64 28.3
23 -15 -3 26.98 24.48
-8 23 -3 24.37 23.19
-8 23 -3 -9.67 24.15
-8 23 -2 508.84 60.55
23 -15 -2 570.64 58.47
-23 15 -2 548.88 72.21
-8 23 -2 534.49 65.42
-23 15 -1 137.41 40.2
-8 23 -1 205.63 44.18
23 -15 -1 200.34 32.45
-8 23 -1 160.53 15.89
-23 15 0 22.72 16.03
-23 15 0 67.83 32.03
-8 23 0 58.94 24.12
-8 23 0 90.97 33.17
-8 23 1 202.28 37.93
-8 23 1 219.78 43.37
-23 15 1 164.88 40.42
-23 15 1 198.88 31.29
-8 23 2 511.88 59.47
-23 15 2 488.28 60.97
-8 23 2 466.37 54.79
-23 15 2 573.76 54.62
-8 23 3 -10.84 19.66
-23 15 3 -22.65 25.69
-23 15 3 -14.81 22.09
-8 23 4 31.55 27.06
-15 -8 4 1.87 16.9
-8 23 4 38.22 23.72
-23 15 4 87.48 30.76
-15 -8 5 1.59 16.96
-8 23 5 34.82 28.86
-23 15 5 -4.2 22.47
-23 14 -5 22.99 31.75
-9 23 -5 -18.36 26.71
9 -23 -5 -36.95 26.58
23 -14 -5 2.7 27.28
-9 23 -4 10.78 28.42
9 -23 -4 23.32 20.44
14 9 -4 -9.07 18.46
23 -14 -4 -26.4 29.43
-23 14 -4 40.95 35.55
14 9 -3 54.38 22.67
23 -14 -3 3.69 19.35
-23 14 -3 72.94 41.7
-9 23 -3 31.62 25.48
-9 23 -3 50.66 26.1
-9 23 -2 85.73 31.7
-23 14 -2 147.92 45.74
23 -14 -2 95.87 28.46
-9 23 -2 75.67 28.2
-9 23 -1 2.62 17.95
-23 14 -1 -21.71 33.26
-9 23 -1 19.9 7.59
-9 23 -1 18.63 23.39
-23 14 0 156.21 39.61
-9 23 0 139.39 21.81
-9 23 0 109.97 31.28
-9 23 0 207.04 40.59
-23 14 0 175.99 29.39
-23 14 1 52.3 18.16
-9 23 1 -8.07 21.56
-23 14 1 16.4 26.03
-9 23 1 35.24 25.92
-23 14 2 67.38 29.07
-9 23 2 55.35 26.33
-23 14 2 116 27.8
-23 14 3 12.76 25.48
-9 23 3 -19.4 26.07
-23 14 3 28.42 20.95
-14 -9 4 31.92 21.55
-9 23 4 36.38 32.21
-9 23 4 6.9 19.76
-23 14 4 21.94 19.25
-14 -9 5 9.53 19.97
-9 23 5 -4.57 34.05
-23 14 5 52.69 28.61
-10 23 -5 16.39 27.99
-23 13 -5 -42.63 37.95
23 -13 -5 8.44 26.15
10 -23 -5 -4.81 18.45
-10 23 -4 85.93 34.21
10 -23 -4 20.68 21.04
13 10 -4 53.38 24.5
23 -13 -4 11.88 21.01
-23 13 -4 -30.67 29.2
13 10 -3 67.64 25.37
-10 23 -3 119.09 35.68
23 -13 -3 78.69 26.82
-23 13 -3 172.34 51.08
-10 23 -3 110.14 35.52
-10 23 -2 343.3 50.34
-10 23 -2 227.8 48.73
-23 13 -2 268.76 51.84
-23 13 -1 141.27 42.62
-10 23 -1 189.38 15.96
-10 23 -1 129.43 31.72
-23 13 -1 139.13 19.3
-23 13 0 26.8 17.83
-10 23 0 16.58 19.33
-23 13 0 -15.23 24.03
-10 23 0 -9.85 10.17
-10 23 0 -7.55 24.25
-10 23 1 185.44 36.39
-10 23 1 171.62 30.02
-23 13 1 199.39 46.32
-10 23 1 156.2 33.77
-23 13 1 174.01 30.49
-10 23 2 275.67 49.26
-10 23 2 294.36 40.19
-23 13 2 372.3 55.39
-23 13 2 343.9 43.39
-10 23 3 34.42 24.96
-23 13 3 31.23 25.83
-10 23 3 78.59 29.44
-23 13 3 98.39 28.24
-13 -10 4 3.67 17.19
-10 23 4 19.93 31.64
-10 23 4 -6.37 20.73
-23 13 4 1.46 18.92
-13 -10 5 27.65 18.29
-10 23 5 81.6 35.13
-23 13 5 12.89 24.74
-12 -11 -6 -26.7 31.81
11 -23 -5 21.71 22.44
-11 23 -5 -10.1 33.82
-23 12 -5 21.61 33.11
-23 12 -4 -6.8 31.08
-11 23 -4 -51.28 30.81
11 -23 -4 -11.08 18.78
12 11 -4 -6.85 18.88
-11 23 -3 148.72 42.81
12 11 -3 99.43 30.23
-23 12 -3 93.8 40.43
-11 23 -2 -2.66 21.08
-23 12 -2 19.8 30.02
-23 12 -1 67.52 17.25
-23 12 -1 45.88 24.25
-11 23 -1 76.55 10.69
-11 23 -1 81.17 27.18
-11 23 -1 45.56 25.37
-11 23 0 588 60.58
-11 23 0 579.65 65.81
-11 23 0 594.35 39.52
-23 12 0 672.59 73.08
-23 12 1 66.36 20.58
-11 23 1 89.84 21.08
-23 12 1 31.87 21.26
-11 23 1 66.94 29.16
-23 12 2 10.72 23.82
-11 23 2 13.43 16.46
-11 23 2 0.91 20.25
-23 12 2 6 14.55
-11 23 3 106.82 30.24
-23 12 3 118.65 34.22
-11 23 3 87.13 31.62
-23 12 3 111.21 30.11
-11 23 4 25.05 24.54
-23 12 4 -2.68 19
-11 23 4 24.49 22.6
-12 -11 5 -9.95 20.43
-11 23 5 29.25 32.21
-23 12 5 8.36 24.12
-23 12 6 23.77 31.74
-11 -12 -6 49.37 36.87
12 -23 -5 6.71 22.73
-12 23 -5 23.91 28.7
-23 11 -5 -39.39 37.31
-12 23 -4 50.96 34.96
12 -23 -4 -5.33 16.43
-23 11 -4 9.24 30.86
11 12 -4 38.68 26.35
-23 11 -3 205.93 49.45
-12 23 -3 123.93 39.5
11 12 -3 149.71 33.36
11 12 -2 47.06 24.37
-23 11 -2 66.1 10.9
-23 11 -2 58.65 30.01
-12 23 -2 97.22 35.47
-23 11 -1 249.27 28.77
-12 23 -1 340.19 56.49
-23 11 -1 274.74 50.34
-12 23 -1 326.05 19.79
-12 23 0 92.46 17.36
-23 11 0 99.52 35.31
-12 23 1 313.89 50.32
-12 23 1 308.66 37.32
-23 11 1 313.06 51.11
-23 11 1 222.1 37.59
-23 11 2 58.83 31.17
-12 23 2 96.53 27.02
-23 11 2 104.92 28.32
-12 23 2 133.04 32.29
-23 11 3 142.13 34.67
-12 23 3 183.04 39
-12 23 3 165.31 35.31
-23 11 3 158.94 35.54
-12 23 4 20.27 19.71
-12 23 4 19.82 26.23
-23 11 4 30.17 22.36
-12 23 5 60.93 33.77
-23 11 5 38.25 24.14
-23 11 6 -8.56 22.93
-10 -13 -6 34.04 33.73
-23 10 -5 26.27 32.72
13 -23 -5 15.11 25.76
-13 23 -5 -26.38 38.34
-13 23 -4 50.71 33.61
13 -23 -4 9.76 19.47
10 13 -4 13.48 20.93
-23 10 -4 -20.8 31.92
-13 23 -3 140.46 40.92
10 13 -3 138.45 34.46
-23 10 -3 175.77 48.65
13 -23 -3 126.9 32.49
-13 23 -2 108.83 36.71
-23 10 -2 78.73 14.6
10 13 -2 46.79 24.78
-23 10 -1 61.88 17.41
-13 23 -1 79.68 11.09
-13 23 -1 51.2 32.95
-23 10 -1 64.37 30.81
-13 23 0 1.55 9.57
-13 23 0 -7.63 25.36
-23 10 0 -36.57 26.81
-23 10 1 51.04 28.06
-13 23 1 95.16 23.56
-13 23 1 75.55 31.95
-23 10 1 104.38 26.22
-23 10 2 62.9 26.42
-13 23 2 149.95 31.09
-23 10 2 125.48 27.38
-13 23 2 120.21 33.83
-23 10 3 146.4 34.59
-13 23 3 119.8 31.27
-23 10 3 124.89 30.04
-13 23 3 108.24 30.57
-13 23 4 4.89 18.56
-13 23 4 -7.26 23.02
-23 10 4 13.4 18.61
-13 23 5 -1.12 24.66
-23 10 5 6.05 19.89
-23 10 6 17.76 27.3
-9 -14 -6 -21.55 28.21
14 -23 -5 -4.77 20.99
-14 23 -5 -18.77 27.43
-23 9 -5 -42.39 36.34
14 -23 -4 22.87 22.29
-14 23 -4 3.61 27.92
9 14 -4 -17.03 25.08
-23 9 -4 -32.72 32.75
-14 23 -3 -38.94 32.82
14 -23 -3 21.14 22.1
9 14 -3 29.23 21.19
-23 9 -3 16.03 28.47
9 14 -2 112.82 31.41
-23 9 -2 165.59 21.91
-14 23 -2 190.1 46.6
-23 9 -2 155.1 45.5
9 14 -1 157.49 38.41
-23 9 -1 77.19 35.33
-23 9 -1 93.6 20.49
-14 23 -1 72.28 10.34
-14 23 -1 98.54 33.39
-23 9 0 56.53 30.29
-14 23 0 58.7 16.15
-14 23 0 73.93 30.92
-23 9 1 117.09 41.62
-23 9 1 77.82 22.82
-14 23 1 130.46 25.56
-14 23 1 83.54 34.35
-14 23 2 216.66 37.21
-14 23 2 199.03 41.64
-23 9 2 197.01 38.1
-23 9 2 208.47 35.58
-14 23 3 3.15 21.16
-14 23 3 -25.94 23.62
-23 9 3 -0.68 21.12
-23 9 3 0.77 17.53
-14 23 4 21.89 23.49
-14 23 4 39.46 28.73
-23 9 4 39.44 22.82
-14 23 5 -0.82 26.41
-23 9 5 81.15 34.68
-23 9 6 58.02 32.56
-8 -15 -6 -37.29 34.45
-23 8 -5 -2.06 29.02
15 -23 -5 0.15 21.26
-15 23 -5 -29.35 29.6
-23 8 -4 -17.63 29.74
8 15 -4 4.75 24.17
15 -23 -4 77.11 29.48
-15 23 -4 45.92 32.26
8 15 -3 162.88 37.62
-15 23 -3 114.8 37.9
15 -23 -3 223.34 42.38
-23 8 -3 98.98 41.06
-15 23 -2 36.25 26.6
15 -23 -2 89.2 27.38
8 15 -2 110.69 30.13
-15 23 -1 111.9 33.95
8 15 -1 95.14 30.89
-23 8 -1 89.68 33.3
-15 23 -1 109.02 13.63
-15 23 0 117.4 35.79
-23 8 0 184.81 36.48
-15 23 0 115.6 19.87
-23 8 1 129.34 25.82
-15 23 1 132.56 24.95
-23 8 1 68.49 25.87
-15 23 1 121.25 34.49
-15 23 2 90.51 30.17
-23 8 2 74.93 32.47
-15 23 2 62.58 22.12
-15 23 3 118.3 27.41
-15 23 3 186.44 42.54
-23 8 3 202.6 37.47
-23 8 3 162.39 35.83
8 15 4 78.3 47.25
-15 23 4 39.13 19.83
-15 23 4 20.31 24.34
-23 8 4 36.64 21.38
-15 23 5 38.57 31.32
-23 8 5 -6.32 21.32
-23 8 6 1.11 26.52
-7 -16 -6 13.46 29.51
-23 7 -5 26.35 29.94
16 -23 -5 72.59 32.88
-16 23 -5 81.7 37.01
16 -23 -4 17.6 25.11
-16 23 -4 -10.87 25.59
7 16 -4 5.15 24.91
-23 7 -4 50.75 35.35
-16 23 -3 39.89 34.37
16 -23 -3 37 24.72
7 16 -3 34.65 25.83
-23 7 -3 49.86 37.64
-16 23 -2 102.72 37.47
7 16 -2 87.06 30.75
-23 7 -2 113.17 39.78
16 -23 -2 126.62 33.13
7 16 -1 222.63 40.28
-23 7 -1 231.39 46.31
-16 23 -1 211.58 44.7
-16 23 -1 249 20.16
7 16 0 258.82 50.17
-16 23 0 234.65 26.8
-16 23 0 279.88 48.21
-23 7 0 311.23 50.47
7 16 1 256.17 49.65
-23 7 1 216.83 42.17
-16 23 1 216.76 29.77
-16 23 1 243.5 43.74
-23 7 1 242.49 36.71
-23 7 2 121.95 27.74
-16 23 2 86.46 24.46
-16 23 2 140.51 37.05
-23 7 2 104.67 31.8
-23 7 3 31.33 21.12
7 16 3 55.02 34.59
-16 23 3 14.94 21.2
-16 23 3 50.58 27.37
7 16 4 46.31 36.24
-16 23 4 23.24 29.18
-23 7 4 1.51 19.62
-16 23 5 40.87 30.72
-23 7 5 5.17 19.86
-23 7 6 20.32 27.51
-6 -17 -6 115.76 42.43
17 -23 -5 43.3 31.2
-17 23 -5 19.39 34.28
-23 6 -5 -12.2 33.12
-23 6 -4 33.74 35.68
-17 23 -4 13.47 29.28
6 17 -4 66.76 33.7
17 -23 -4 82.57 32.46
17 -23 -3 68.51 30.46
-23 6 -3 45.05 32.81
-17 23 -3 40.19 27.58
6 17 -3 45.33 27.35
-23 6 -2 96.93 40.35
-17 23 -2 26.23 27.58
17 -23 -2 71.41 29.19
6 17 -2 49.53 25.59
-17 23 -1 9.54 8.84
-17 23 -1 -16.86 25.86
17 -23 -1 34.38 19.07
6 17 -1 16.05 22.53
6 17 0 376.93 56.23
-23 6 0 400.46 57.15
-17 23 0 378.15 33.68
-17 23 0 361.32 56.34
-17 23 1 -1.99 20.45
-23 6 1 34.33 18.66
6 17 1 -13.81 27.88
-23 6 1 30.79 27.31
-17 23 1 19.26 15.11
-23 6 2 43.58 20.12
-17 23 2 46.23 25.18
-17 23 2 85.39 24.75
6 17 2 118.35 40.75
-23 6 2 17.97 24.23
-23 6 3 7.86 16.98
-17 23 3 42.97 27.89
6 17 3 -8.64 24.65
-17 23 3 36.59 24.68
6 17 4 24.1 35.31
-17 23 4 81.47 34.16
-23 6 4 101.65 30.7
-17 23 5 -20.81 33.06
-23 6 5 15.6 23.98
-23 6 6 97.73 34.76
-5 -18 -6 -13.67 35.73
18 -23 -5 5.37 24.43
-18 23 -5 13.81 33.55
18 -23 -4 57.62 26.09
-18 23 -4 -5.81 28.91
5 18 -4 106.32 40
-23 5 -4 -24.77 33.09
18 -23 -3 47.21 22.45
-18 23 -3 99.16 39.88
5 18 -3 107.82 37.76
-23 5 -3 82.09 44.44
-18 23 -2 40.59 31.89
18 -23 -2 65.07 25.96
5 18 -2 53.73 25.29
-23 5 -2 37.54 34.11
-18 23 -1 63.77 35.79
-23 5 -1 113.78 35.88
18 -23 -1 100.09 28.33
5 18 -1 67.7 27.96
-18 23 -1 85.36 14.18
-18 23 0 18.35 23.38
5 18 0 15.71 21
18 -23 0 18.1 16.92
-23 5 0 29.16 27.53
-18 23 0 2.46 10.99
-23 5 1 88.27 34.94
-18 23 1 81.35 30.65
5 18 1 70.34 30.37
18 -23 1 68.87 16.59
-18 23 1 74.26 21.21
-23 5 2 6.12 15.36
-23 5 2 42.86 24.97
-18 23 2 17.73 21.31
5 18 2 12.66 22.55
18 -23 2 30.26 8.74
-18 23 2 19.48 17.15
-23 5 3 42.27 20.73
5 18 3 100.77 35.76
-18 23 3 92.22 31.13
-18 23 3 139.39 32.29
-23 5 4 43.89 18.65
5 18 4 47.66 38.7
-18 23 4 47.31 28.32
-18 23 5 41.85 28.24
-23 5 5 36.93 23.17
-23 5 6 26.78 28.51
-4 -19 -6 -7.65 28.44
19 -23 -5 -23.74 27.31
-19 23 -5 19.12 32.95
19 -23 -4 8.56 22.42
4 19 -4 -40.29 32.13
-19 23 -4 13.31 31.63
-23 4 -4 35.8 31.15
-19 23 -3 105.82 35.37
4 19 -3 46.43 26.73
19 -23 -3 -38.37 22.84
-23 4 -3 18.99 34.4
19 -23 -2 62.49 26.29
-19 23 -2 33 30.94
4 19 -2 69.17 28.96
-23 4 -2 124.66 43.2
-19 23 -1 20.74 10.76
-19 23 -1 26.97 27.87
19 -23 -1 52.08 24.93
4 19 -1 38.66 28.59
-23 4 -1 53.5 29.32
-23 4 0 43.25 28.35
-19 23 0 86.41 31.92
19 -23 0 31.71 16.92
4 19 0 -28.09 25.17
-19 23 0 4.14 12.79
-23 4 1 34.15 29.11
-19 23 1 55.42 29.36
4 19 1 71.12 31.86
19 -23 1 29.27 12.9
-19 23 1 48.13 20.76
-23 4 2 91.02 26.9
-19 23 2 81.53 26.61
-19 23 2 79.31 24.92
4 19 2 63.11 31.31
-23 4 3 3.47 15.98
-19 23 3 -4.05 18.26
4 19 3 23.79 33.44
-19 23 3 -15.79 17.62
-23 4 4 -11.15 16.71
4 19 4 35.76 32.74
-19 23 4 56.69 28.57
-23 4 5 2.75 20.92
-19 23 5 29.52 25.58
-23 4 6 37.67 25.14
20 -23 -5 1.48 23.19
-20 23 -5 -1.42 27.21
20 -23 -4 -34.9 29.35
3 20 -4 63.75 37.46
-20 23 -4 22.27 29.21
20 -23 -3 -11.83 25.12
3 20 -3 66.21 32.25
-20 23 -3 44.59 34.57
-23 3 -3 34.5 32.82
20 -23 -2 31.78 23.42
3 20 -2 53.85 29.82
-23 3 -2 3.73 25.93
3 20 -1 179.22 42.14
-20 23 -1 150.86 41.46
20 -23 -1 165.54 33.73
-23 3 -1 217.43 47.04
3 20 0 246.46 47.52
20 -23 0 239.67 32.22
-23 3 0 240.55 46.02
-20 23 0 268.12 31.05
-20 23 0 202.08 45.15
3 20 1 167.27 43.97
20 -23 1 171.96 24.36
-20 23 1 128.59 35.15
-20 23 1 156.09 27.16
-23 3 2 17.64 16.1
3 20 2 -25.03 29.55
-20 23 2 23.47 25.49
-20 23 2 15.07 19.25
-23 3 3 36.13 23.71
3 20 3 12.46 22.66
-20 23 3 37.31 26.77
-20 23 3 26.87 23.01
-23 3 4 -44.57 23.41
3 20 4 -19.6 32.02
-20 23 4 -22.3 23.18
-23 3 5 33.7 27.59
-20 23 5 64.69 33.15
-21 23 -5 -34.85 38.5
21 -23 -5 -17.92 30.8
21 -23 -4 -6.93 23.97
2 21 -4 -39.15 33.75
-21 23 -4 9.59 33.28
21 -23 -3 173.37 43.29
2 21 -3 192.85 47.57
-21 23 -3 117.98 47.67
-23 2 -2 -48.72 35.14
21 -23 -2 48.26 22.9
2 21 -2 -5.8 24.82
-21 23 -2 -48.25 34.14
-23 2 -1 -30.8 29.4
21 -23 -1 58.39 22.61
2 21 -1 -67.37 30.38
-21 23 -1 36.88 27.63
21 -23 0 33.12 17.68
2 21 0 68.89 30.06
-21 23 0 40.21 30.38
-23 2 0 10.5 21.87
-21 23 0 55.17 19.12
21 -23 1 12.97 9.44
-21 23 1 31.87 15.35
-23 2 2 28.25 16.21
2 21 2 63.65 37.27
-21 23 2 -2.19 23.75
-21 23 2 21.17 16.78
-23 2 3 124.03 30.44
2 21 3 157.18 42.22
-21 23 3 180.65 41.06
-21 23 3 176.13 38.57
-23 2 4 31.66 22.18
2 21 4 11.2 26.28
-21 23 4 -24.26 26.47
-23 2 5 27.09 21.78
-21 23 5 -56.28 33.36
-22 23 -5 -32.05 39.49
22 -23 -5 32.54 29.55
22 -23 -4 -4.15 25.73
1 22 -4 -66.31 36.42
-22 23 -4 0.1 29.69
22 -23 -3 45.38 28.33
1 22 -3 -11.67 24.61
-22 23 -3 24.3 25.92
22 -23 -2 56.86 22.47
1 22 -2 81.85 32.62
-22 23 -2 95.87 38.75
22 -23 -1 41.83 21.16
1 22 -1 16.47 26.53
-22 23 -1 54.5 33.5
22 -23 0 252.89 33.09
1 22 0 237.53 50.1
-22 23 0 204.32 41.19
-22 23 0 262.8 33.53
1 22 1 18.72 22.28
22 -23 1 50.8 13.55
-22 23 1 42.8 30.39
-22 23 1 5.51 14.78
-22 23 2 76.74 33.55
-22 23 2 101.7 30.27
1 22 2 57.02 27.43
-23 1 3 7.44 16.74
1 22 3 41.66 31.85
-22 23 3 37.48 30.36
-22 23 3 36.74 24.04
-23 1 4 20.79 27.68
1 22 4 -19.48 28.42
-22 23 4 -8.42 21.63
-23 1 5 36.92 22
-22 23 5 31.78 23.17
-23 23 -5 -21.99 37.54
23 -23 -5 -42.76 29.79
23 -23 -4 51.3 36.02
0 23 -4 -8.53 30.53
-23 23 -4 51.5 40.47
23 -23 -3 48.86 35.81
0 23 -3 98.69 37.99
-23 23 -3 38.59 33.82
23 -23 -2 142.33 33.05
0 23 -2 99.93 34.34
-23 23 -2 88.03 41.07
23 -23 -1 193.18 34.99
0 23 -1 106.75 34.67
-23 23 -1 133.8 39.56
-23 23 0 285.85 53.8
0 23 0 308.67 53.66
23 -23 0 412.64 42.61
-23 23 1 252.04 50.89
0 23 1 268.25 52.48
23 -23 1 166.08 20.77
-23 23 1 227.05 36.13
0 23 2 116.11 39.28
-23 23 2 133.13 36.55
-23 23 2 124.1 31.61
-23 0 3 13.56 20.48
0 23 3 60.45 33.13
-23 23 3 60.65 32.8
-23 23 3 64.33 26.05
-23 0 4 13.85 19.4
0 23 4 18.56 31.69
-23 23 4 8.36 24.63
-23 0 5 16.15 23.65
-23 23 5 29.96 32.26
-24 23 -5 36.23 39.36
24 -23 -5 -0.55 28.86
24 -23 -4 -7.57 25.81
-1 24 -4 45.75 45.53
-24 23 -4 72.1 44.65
24 -23 -3 139.47 39.91
-1 24 -3 125.48 40.24
-24 23 -3 125.42 47.09
24 -23 -2 47.04 33.27
-1 24 -2 19.5 27.48
-24 23 -2 124.11 40.11
-1 24 -1 44.77 27.89
24 -23 -1 110.13 29.34
-24 23 -1 36.35 29.21
-1 24 0 56.44 29.99
-24 23 0 81.32 21.94
-24 23 0 67.26 28.21
24 -23 0 102.69 23.46
-1 24 1 83.6 32.33
-24 23 1 34.96 26.7
24 -23 1 58.29 12.92
-24 23 1 65.52 22.09
-1 24 2 57.27 34.3
-24 23 2 89.29 29.2
-24 23 2 -7.46 20.01
-23 -1 3 94.93 26.78
-1 24 3 121.37 44.25
-24 23 3 94.44 32.34
-24 23 3 106.23 38.95
-1 24 4 12.17 26.25
-24 23 4 54.29 29.49
-23 -1 5 21.85 22.92
-24 23 5 82.44 38.36
-24 22 -5 57.34 41.5
24 -22 -5 7.53 28.18
-24 22 -4 -13.87 35.79
24 -22 -4 1.04 26.49
-2 24 -4 50.38 44.89
24 -22 -3 9.71 27.33
-2 24 -3 41.59 32.24
-24 22 -3 -6.51 32.87
24 -22 -2 44.49 22.72
-2 24 -2 0.77 29.1
-24 22 -2 -3.79 27.52
24 -22 -1 158.79 33.66
-2 24 -1 89.98 33.57
-24 22 -1 107.87 36.34
-24 22 0 7.89 16.45
24 -22 0 14.95 16.49
-2 24 0 46.29 32.54
-24 22 0 16.1 31.09
-2 24 1 145.05 41.61
-24 22 1 160.71 42.25
-24 22 1 107.36 24.77
-2 24 2 6.4 23.09
-24 22 2 1.44 24.72
-24 22 2 26.29 20.33
-22 -2 3 56.98 25.81
-2 24 3 -29.44 26.45
-2 24 3 -15.31 28.17
-24 22 3 20.72 20.83
-24 22 3 5.52 26.01
-22 -2 4 5.63 17.81
-2 24 4 27.28 31.12
-24 22 4 8.11 24.06
-22 -2 5 0.02 19.64
-24 22 5 8.4 25.17
-3 24 -5 39.52 29.39
-24 21 -5 21.47 36.55
24 -21 -5 76.35 47.07
-24 21 -4 25.32 33.45
24 -21 -4 -5.71 25.7
-3 24 -4 -7.65 35.56
24 -21 -3 34.64 26.17
-3 24 -3 -31.96 26.66
-24 21 -3 -41.03 30.99
24 -21 -2 19.84 21.03
-3 24 -2 -17.02 24.66
-24 21 -2 21.29 26.41
-3 24 -1 110.15 37.81
24 -21 -1 159.99 31.67
-24 21 -1 154.35 44.18
-3 24 0 173.52 40.82
24 -21 0 141.74 25.31
-24 21 0 188.88 45.45
-24 21 0 152.42 26.96
-3 24 1 160.27 45
-24 21 1 106.45 37.44
-24 21 1 164.88 29.99
-3 24 2 32.99 23.91
-24 21 2 -8.4 24.64
-24 21 2 11.36 19.48
-24 21 3 -1.54 23.46
-3 24 3 -4.98 31.61
-3 24 3 28.88 29.59
-24 21 3 6.03 19.11
-21 -3 4 20.46 21.13
-3 24 4 65.58 36.6
-21 -3 5 30.1 23.24
-24 21 5 3.92 25.09
-21 -3 6 30.39 25.68
24 -20 -5 38.95 30.21
-4 24 -5 21.06 24.48
24 -20 -4 108.66 39.09
-24 20 -4 121.4 52.07
-4 24 -4 19.34 29.03
-24 20 -3 78.38 33.7
24 -20 -3 106.22 35.02
-4 24 -3 102.62 40.67
24 -20 -2 93.59 31.18
-4 24 -2 58.64 28.35
-24 20 -2 110.87 41.64
24 -20 -1 19.58 16.72
-4 24 -1 -22.57 24.81
-24 20 -1 -53.83 30.84
24 -20 0 477.11 42.38
-4 24 0 412.99 60.58
-24 20 0 427.11 62.79
-24 20 0 391.01 42.54
-4 24 1 -7.96 23.76
-24 20 1 3.49 22.97
-24 20 1 17.66 17.6
-4 24 2 137.03 35.21
-24 20 2 101.17 26.2
-24 20 2 45.52 23.47
-24 20 3 84.51 35.56
-4 24 3 140.77 41.3
-4 24 3 78.84 29.27
-24 20 3 18.71 18.51
-20 -4 4 -24.93 19.65
-4 24 4 67.7 32.64
-24 20 4 38.75 26.65
-20 -4 5 16.33 19.19
-24 20 5 22.36 24.41
-20 -4 6 8.01 25.61
24 -19 -5 43.07 27.19
-24 19 -5 18.88 39.63
5 -24 -5 23.23 22.92
-5 24 -5 -32.06 27.76
19 5 -4 20.75 20.23
-24 19 -4 44.08 37.64
24 -19 -4 99.49 41.16
-5 24 -4 99.88 45.74
-24 19 -3 47.64 34.05
24 -19 -3 79.3 34.36
-5 24 -3 91.23 36.59
24 -19 -2 53.51 25.86
-5 24 -2 64.98 36.51
-24 19 -2 79.09 39.03
24 -19 -1 47.14 22.33
-5 24 -1 11.5 23.66
-24 19 -1 20.65 32.03
-24 19 0 525.25 69.04
-5 24 0 584.8 68.99
24 -19 0 660.13 48.51
-24 19 0 602.74 51.1
-5 24 1 19.76 26.39
-24 19 1 81.29 36.97
-24 19 1 51.34 20.53
-24 19 2 64.79 35.12
-5 24 2 39.07 25.76
-5 24 2 59.13 25.93
-24 19 2 81.96 25.78
-5 24 3 107.59 33.62
-24 19 3 91.55 33.29
-5 24 3 108.73 37.09
-24 19 3 116.92 32.24
-19 -5 4 55.31 21.71
-5 24 4 42.06 36.62
-24 19 4 19.4 19.44
-19 -5 5 50.61 24.34
-24 19 5 52.9 31.41
-19 -5 6 17.85 28.92
6 -24 -5 -17.93 18.36
-6 24 -5 -43.77 38.08
-6 24 -5 -9.47 24.31
24 -18 -5 -25.55 27.48
-24 18 -5 28.19 37.11
-6 24 -4 30.9 26.07
18 6 -4 -2.21 16.29
-24 18 -4 23.94 37.14
24 -18 -4 -17.16 26.77
-6 24 -4 33.52 32.82
-24 18 -3 52.25 37.87
24 -18 -3 72.99 31
-6 24 -3 74.82 35.81
-24 18 -2 12.65 35.69
24 -18 -2 45.8 21.15
-6 24 -2 50.58 32.34
-6 24 -1 312.34 53.12
24 -18 -1 276.5 37.62
-24 18 -1 349.31 60.11
-24 18 0 50.1 19.81
-6 24 0 11.91 24.18
-24 18 0 84.64 35.89
-6 24 1 380.79 56.18
-24 18 1 247.74 48.09
-24 18 1 289.55 39.34
-24 18 2 45.09 24.21
-6 24 2 13.99 28.09
-6 24 2 0.7 21.48
-24 18 2 17.63 15.76
-24 18 3 67.48 33.02
-6 24 3 75.85 32.24
-24 18 3 64.31 25.74
-18 -6 4 20.75 17.48
-6 24 4 -8.22 25.2
-24 18 4 60.53 28.4
-18 -6 5 -13.34 19.49
-6 24 5 7.68 31.47
-24 18 5 25.6 23.62
-7 24 -5 5.99 34.59
7 -24 -5 22.63 21.08
24 -17 -5 -9.32 24.82
-24 17 -5 13.88 35.11
-7 24 -4 33.58 24.41
17 7 -4 64.09 27.17
24 -17 -4 46.37 29.48
-24 17 -4 35.45 39.84
-7 24 -4 13.88 27.36
-24 17 -3 20.61 26.31
24 -17 -3 23.18 22.48
-7 24 -3 12.08 27.16
-24 17 -2 -8.51 30.1
24 -17 -2 25.92 25.67
-7 24 -2 24.24 24.38
-24 17 -1 140.4 42.95
24 -17 -1 155.07 32.71
-7 24 -1 180.44 41.59
-24 17 0 87.83 37.69
-24 17 0 41.12 19.97
-7 24 0 97.68 30.31
-24 17 1 133.55 40.16
-7 24 1 111.78 33.31
-7 24 1 167.39 39.28
-24 17 1 157.75 29.02
-7 24 2 34.99 23.85
-24 17 2 -27.25 23.18
-7 24 2 64.84 30.54
-24 17 2 16.91 17.93
-7 24 3 55.95 30.72
-24 17 3 51.32 23.61
-17 -7 4 3.07 16.23
-7 24 4 89.51 30.54
-24 17 4 65.26 31.84
-17 -7 5 17.73 19.39
-7 24 5 67 41.95
-24 17 5 -38.61 30.21
-24 16 -5 13.33 31.37
-8 24 -5 7.64 32.31
8 -24 -5 -15.41 23.45
24 -16 -5 44.65 35.74
-8 24 -4 97.52 45.32
-8 24 -4 -14.83 23.26
16 8 -4 28.01 20.68
24 -16 -4 -1.48 25.31
-24 16 -4 77.24 34.36
-24 16 -3 49.55 33.77
-8 24 -3 36.88 26.77
24 -16 -3 -21.03 20.1
-8 24 -3 14.07 26.22
-8 24 -2 49.25 28.09
-24 16 -2 88.18 39.05
24 -16 -2 83.33 27.4
-8 24 -2 86.01 34.55
-24 16 -1 -17.29 23.54
24 -16 -1 60.49 22.95
-8 24 -1 61.71 11.35
-8 24 -1 36.96 30.88
-8 24 0 -2.41 19.42
-24 16 0 -3.76 23.85
-8 24 0 6.11 23.54
-24 16 1 45.64 17.87
-24 16 1 77.62 31.74
-8 24 1 97.83 32.01
-8 24 1 29.81 25.3
-8 24 2 65.35 29.78
-24 16 2 98.24 34.19
-8 24 2 38.77 22.48
-24 16 2 79.33 23.68
-8 24 3 18.93 19.83
-24 16 3 -2.12 22.62
-24 16 3 -12.76 19.64
-16 -8 4 3.89 15.8
-8 24 4 -3.58 24.77
-24 16 4 26.61 26.41
-16 -8 5 21.81 18.63
-8 24 5 37.85 27.35
-24 16 5 -19.53 25.76
-9 24 -5 -15.7 32.64
9 -24 -5 19.72 22.7
-24 15 -5 -44.6 37.93
24 -15 -5 11.3 27.78
-9 24 -4 43.13 32.54
-9 24 -4 15.88 18.38
15 9 -4 25.86 23.68
24 -15 -4 16.76 24.82
-24 15 -4 -0.6 28.93
-9 24 -3 -4.12 20.34
24 -15 -3 22.56 19.3
-24 15 -3 33 27.48
-9 24 -3 46.87 33.09
-9 24 -2 211.78 43.38
24 -15 -2 185.67 37.41
-9 24 -2 302.8 51.77
-24 15 -2 215.02 53.19
-9 24 -1 24.97 21.94
-24 15 -1 -6.29 23.78
-9 24 -1 26.71 7.74
-9 24 -1 30.58 25.4
-24 15 0 32.7 19.64
-9 24 0 22.61 20.26
-24 15 0 46.91 31.43
-9 24 0 48.47 13.84
-9 24 0 36.32 25.5
-24 15 1 33.09 14.6
-9 24 1 19.88 21.83
-24 15 1 38.11 27.59
-9 24 1 1.82 21.47
-24 15 2 183.89 45.22
-9 24 2 129.22 38.29
-24 15 2 173.66 31.69
-24 15 3 51.83 34.2
-9 24 3 -2.53 20.84
-24 15 3 21.77 15.98
-9 24 4 10.49 25.17
-9 24 4 -5.96 23.99
-24 15 4 -4.64 21.43
-15 -9 5 -3.05 19.06
-9 24 5 43.07 30.5
-24 15 5 36.71 24.94
-10 24 -5 -23.45 33.4
10 -24 -5 -48.23 29.14
-24 14 -5 7.67 33.18
24 -14 -5 7.36 29.93
-10 24 -4 70.06 35.4
10 -24 -4 15.14 21.22
14 10 -4 16.4 23.15
24 -14 -4 6.73 22.73
-24 14 -4 34.67 34.1
-10 24 -3 1.95 20.68
24 -14 -3 -21.9 24.47
-24 14 -3 3.63 28.79
14 10 -3 -16.14 19.84
-10 24 -3 10.11 26.28
-10 24 -2 58.18 29.17
-24 14 -2 -21.07 32.37
-10 24 -2 4.07 24.1
-10 24 -1 29.38 23.13
-24 14 -1 2.65 8.3
-24 14 -1 -48.37 30.89
-10 24 -1 6.79 7.16
-10 24 -1 68.99 32.3
-24 14 0 61.62 19.38
-10 24 0 124.05 36
-24 14 0 100.33 34.61
-10 24 0 104.01 20.73
-24 14 1 24.17 18.67
-10 24 1 2.5 18.37
-24 14 1 -1.85 23.29
-10 24 1 -22.2 19.29
-10 24 1 -37.33 25.96
-10 24 2 38.07 22.74
-10 24 2 80.35 30.99
-24 14 2 10.26 21.77
-24 14 2 32.29 18.54
-24 14 3 30.99 22.51
-10 24 3 -11 19.6
-10 24 3 17.2 25.84
-24 14 3 35.13 21.35
-10 24 4 37.42 31.62
-10 24 4 17.03 22.46
-24 14 4 -2.22 19.5
-14 -10 5 -3.42 14.86
-10 24 5 -19.54 31.25
-24 14 5 16.63 22.17
11 -24 -5 27.19 25.26
-11 24 -5 -12.76 26.38
-24 13 -5 56.69 35.6
-24 13 -4 31.6 27.71
-11 24 -4 -24.4 26.8
13 11 -4 25.07 21.56
11 -24 -4 19.69 23
-11 24 -3 16.24 24.37
13 11 -3 44.23 23.44
-24 13 -3 66.08 32.98
-11 24 -2 24.76 24.36
-24 13 -2 55.48 32.58
-11 24 -2 32.12 23.64
-24 13 -1 175.6 22.13
-11 24 -1 228.86 41.36
-11 24 -1 260.16 51.42
-24 13 -1 151.12 41.58
-11 24 -1 252.15 18.4
-11 24 0 356.98 55.18
-11 24 0 375.15 32.68
-24 13 0 412.22 60.88
-11 24 0 354.01 50.36
-11 24 1 215.45 44.34
-11 24 1 248.75 34.05
-24 13 1 264.64 48.13
-24 13 1 217.63 34.64
-11 24 2 28.67 21.23
-11 24 2 38.4 21.17
-24 13 2 -6.04 23.27
-24 13 2 0.11 15.49
-24 13 3 -3.39 25.73
-11 24 3 40.36 24.7
-11 24 3 10.39 21.81
-24 13 3 26.73 19.54
-11 24 4 -16.92 25.25
-24 13 4 38.24 25.29
-11 24 4 5.32 20.42
-13 -11 5 57.52 23.9
-11 24 5 -21.68 34.65
-24 13 5 49.69 25.55
-12 -12 -6 38.25 38.39
12 -24 -5 5.07 18.84
-12 24 -5 -24.99 30.08
-24 12 -5 1.93 27.4
-12 24 -4 30.05 29.91
-24 12 -4 14.11 30
12 -24 -4 -11.79 20.61
12 12 -4 2.96 19.21
-12 24 -3 34.43 33.22
12 12 -3 59.14 27.71
-24 12 -3 40.27 32.36
-24 12 -2 196.89 49.13
-12 24 -2 78.86 32.48
-24 12 -1 25.24 13
-24 12 -1 13.59 23.88
-12 24 -1 23.3 6.5
-12 24 -1 52.57 30.19
-12 24 0 130.19 21.46
-24 12 0 183.36 44.21
-12 24 0 100.47 32.85
-24 12 1 23.17 15.77
-12 24 1 25.29 14.95
-12 24 1 14.78 20.48
-24 12 1 38.44 24.4
-24 12 2 95.01 25.7
-24 12 2 138 38.49
-12 24 2 89.46 27.53
-12 24 2 128.37 34.16
-12 24 3 42.09 24.23
-24 12 3 85.32 31.19
-12 24 3 44.16 26.09
-24 12 3 50.85 22.45
-12 24 4 33.74 29.25
-24 12 4 4.93 17.81
-12 24 4 12.92 19
-12 24 5 -17.18 34.66
-24 12 5 -12.31 23.26
-11 -13 -6 28.89 35.55
-24 11 -5 33.79 35.5
13 -24 -5 15.53 21.82
-13 24 -5 -30.88 31.12
11 13 -4 34.41 28.97
-13 24 -4 41.02 33.39
13 -24 -4 9.08 18.92
-24 11 -4 46.34 35.25
-13 24 -3 22.78 27.72
-24 11 -3 -7.15 32.89
13 -24 -3 25.43 21.56
11 13 -3 69.47 28.01
11 13 -2 77.38 27.65
-24 11 -2 108.35 37.11
-13 24 -2 137.83 35.24
-24 11 -1 15.26 11.21
-24 11 -1 11.03 24.79
-13 24 -1 32.04 30.02
-13 24 -1 20.13 6.41
-13 24 0 254.51 27.22
-13 24 0 256.89 47.33
-24 11 0 221.38 48.52
-24 11 1 34.72 20.51
-24 11 1 50.15 26.68
-13 24 1 15.49 16.52
-13 24 1 31.93 20.13
-24 11 2 92.11 24.49
-24 11 2 119.88 36.05
-13 24 2 126.56 29.68
-13 24 2 108.79 32.26
-24 11 3 64.64 29.33
-13 24 3 16.53 21.09
-13 24 3 54.38 31.91
-24 11 3 23.76 18.63
-13 24 4 47.42 27.47
-13 24 4 39.03 28.35
-24 11 4 6.54 21.29
-13 24 5 -20.12 30
-24 11 5 0.1 21.13
-10 -14 -6 7.39 34.09
14 -24 -5 50.1 25.18
-24 10 -5 100.55 47.43
-14 24 -5 -5.69 25.48
-14 24 -4 24.69 29.04
10 14 -4 51.16 30.9
-24 10 -4 -35.94 33.56
14 -24 -4 -18.1 21.61
-14 24 -3 73.71 35.5
14 -24 -3 110.95 29.8
10 14 -3 119.51 34.28
-24 10 -3 82.71 37.72
-14 24 -2 52.57 28.84
-24 10 -2 37.38 31.68
10 14 -2 61.27 29.88
-24 10 -1 13.84 28.51
-24 10 -1 22.14 16.22
-14 24 -1 35.03 8.61
-14 24 -1 35.95 23.26
-24 10 0 111.5 35.73
-14 24 0 83.48 18.42
-14 24 0 100.35 35.58
-24 10 1 27.1 15.78
-24 10 1 34.89 27.79
-14 24 1 31.92 15.73
-14 24 1 21.42 28.41
-24 10 2 42.86 21.9
-14 24 2 43.41 20.44
-24 10 2 53.07 29.69
-14 24 2 82.79 31.69
-14 24 3 112.28 31.55
-14 24 3 74.47 24.49
-24 10 3 104.85 30.34
-24 10 3 94.3 29.24
-14 24 4 7.39 22.78
-14 24 4 -20.93 21.61
-24 10 4 2.01 18.08
-14 24 5 38.87 34.06
-24 10 5 58.82 27.86
-9 -15 -6 10.51 27.96
15 -24 -5 -29.59 23.48
-15 24 -5 3.39 27.77
-24 9 -5 -0.22 30.1
15 -24 -4 18.95 22.14
-15 24 -4 25.12 30.31
9 15 -4 4.36 22.7
-24 9 -4 -26.23 33.96
-15 24 -3 72.75 35.17
15 -24 -3 12.85 20.3
9 15 -3 49.18 24.39
-24 9 -3 80.51 42.15
-15 24 -2 -11.44 29.77
9 15 -2 3.08 19.95
-24 9 -2 54.2 32.52
-24 9 -1 143.97 41.57
9 15 -1 145.41 35.78
-15 24 -1 209.46 46.9
-15 24 -1 115.61 13.17
-24 9 0 63.32 35.84
-15 24 0 91.41 18.91
-15 24 0 50.82 28.72
-24 9 1 178.64 39.06
-15 24 1 117.03 23.72
-15 24 1 154.84 40.5
-24 9 1 113.52 26.77
-24 9 2 25.15 16.44
-24 9 2 33.32 23.53
-15 24 2 26.89 17.13
-15 24 2 61.38 26.97
-15 24 3 33.77 23.02
-15 24 3 40.72 26.9
-24 9 3 91.98 32.3
-24 9 3 87.41 27.67
9 15 4 -21.57 37.67
-15 24 4 -6.48 24.18
-24 9 4 42.51 22.12
-15 24 5 -6.07 26.41
-24 9 5 0.02 19.92
-8 -16 -6 0.04 32.66
16 -24 -5 34.49 25.52
-24 8 -5 -0.97 27.53
-16 24 -5 -2.25 30.51
16 -24 -4 -6.63 19.42
-24 8 -4 -37.15 39.02
-16 24 -4 -20.96 33.53
8 16 -4 7 22.23
-16 24 -3 38.44 29.63
16 -24 -3 6.86 19.77
8 16 -3 17.51 20.55
-24 8 -3 -11.78 27.88
8 16 -2 200.79 40.59
16 -24 -2 221.15 41.19
-24 8 -2 159.7 48.69
-16 24 -2 175.29 45.26
-16 24 -1 28.02 31.31
8 16 -1 75.43 27.04
-24 8 -1 108.4 39.05
-16 24 -1 76.88 11.68
-16 24 0 -0.94 25.16
8 16 0 2.2 22.39
-24 8 0 30.76 26.05
-16 24 0 0.97 11.55
-16 24 1 64.8 29.6
-24 8 1 69.81 23.11
-16 24 1 98.62 22.43
-24 8 1 66.74 31.27
-16 24 2 209.65 36.96
-24 8 2 143.55 37.96
-16 24 2 212.93 44.23
-24 8 2 179.12 33.71
-24 8 3 0.49 17.23
-16 24 3 -10.38 23.41
8 16 3 -21.56 28.61
-16 24 3 42.96 25.42
8 16 4 -11.8 29.13
-16 24 4 -20.31 23.8
-24 8 4 14.11 23.45
-16 24 5 11.58 26.01
-24 8 5 -8.6 21.96
-7 -17 -6 -15.81 32.93
-17 24 -5 83.26 40.58
-24 7 -5 24.23 31.96
17 -24 -5 10.65 22.66
17 -24 -4 39.47 26.3
-17 24 -4 7.9 28.89
7 17 -4 71.32 34.22
-24 7 -4 -31.35 35.17
-24 7 -3 52.46 37.75
17 -24 -3 56.87 27.84
-17 24 -3 -0.84 26.17
7 17 -3 19.94 24.79
-17 24 -2 54.88 30.53
17 -24 -2 67.12 26.34
7 17 -2 60.55 30.01
-24 7 -2 6.26 27.46
-17 24 -1 4.42 6.22
-17 24 -1 -12.78 26.32
7 17 -1 18 23.22
-24 7 -1 32.35 24.79
-17 24 0 31.41 24.35
7 17 0 115.88 37.04
-17 24 0 76.63 19.37
-24 7 0 35.18 30.49
-17 24 1 -20.52 21.81
-24 7 1 12.06 16.26
7 17 1 41.15 30.94
-24 7 1 -3.87 23.87
-17 24 1 24.35 15.68
-24 7 2 3.95 15.25
-17 24 2 51.7 26.24
7 17 2 52.44 27.75
-17 24 2 37.05 21.49
-24 7 2 31.58 23.73
-24 7 3 -2.82 16.11
7 17 3 -53.08 34.47
-17 24 3 -5.81 23.37
7 17 4 -25.37 37.72
-17 24 4 26.12 29.04
-24 7 4 21.56 17.47
-17 24 5 59.22 33.73
-24 7 5 2.22 22.84
-6 -18 -6 4.51 29.53
18 -24 -5 60.38 31.6
-18 24 -5 -60.27 40.18
18 -24 -4 4.84 22.91
-24 6 -4 -38.53 33.96
-18 24 -4 37.32 35.13
6 18 -4 -30.74 29.09
18 -24 -3 36.84 24.88
-18 24 -3 45.31 31.76
6 18 -3 33.04 28.39
-24 6 -3 44.78 34.14
-24 6 -2 101.28 37.86
-18 24 -2 121.77 40.91
18 -24 -2 149.74 36.2
6 18 -2 89.3 32.43
-18 24 -1 55.67 11.75
-24 6 -1 75.99 37.26
-18 24 -1 28.25 23.06
18 -24 -1 56.45 21.35
6 18 -1 78.79 30.25
-18 24 0 26.91 27.63
-24 6 0 66.1 33.85
6 18 0 4.1 26.84
18 -24 0 44.6 19.47
-18 24 0 37.71 14.84
-18 24 1 15.47 23.94
6 18 1 49.21 32.4
-24 6 1 54.27 29.51
-18 24 1 38.47 17.69
-18 24 2 69.26 26.79
6 18 2 85.74 35.92
-24 6 2 58.36 26.51
-18 24 2 53.27 24.94
-24 6 2 115.23 29.66
-24 6 3 51.98 22.65
6 18 3 -31.74 28.87
-18 24 3 45.11 30.9
-18 24 3 46.83 21.99
-24 6 4 -31.11 21.13
6 18 4 39.4 32.69
-18 24 4 70.72 30.22
-18 24 5 59.72 35.03
-24 6 5 18.61 24.71
-5 -19 -6 -9.36 27.17
19 -24 -5 9.96 24.65
-19 24 -5 -4.01 34.14
19 -24 -4 22.04 21.02
-24 5 -4 47.08 36.33
5 19 -4 34.31 30.33
-19 24 -4 57.65 34.56
-24 5 -3 63.09 36.68
19 -24 -3 79.34 31.45
-19 24 -3 45.89 33.32
5 19 -3 72.02 27.86
-19 24 -2 -4.48 24.25
5 19 -2 25.33 25.99
19 -24 -2 73.85 32.37
-24 5 -2 97.98 43.62
-19 24 -1 66.04 13.69
-19 24 -1 26.93 28.68
19 -24 -1 67.5 25
5 19 -1 48.33 27.73
-24 5 -1 55 34.17
-19 24 0 -16.3 21.36
19 -24 0 56.21 20.05
5 19 0 5.34 24.35
-24 5 0 82.42 34.63
-19 24 0 29.61 15.96
5 19 1 76.1 34.66
19 -24 1 55.52 15.9
-24 5 1 79.86 32.18
-19 24 1 76.67 28.29
-19 24 1 37.2 17.82
-24 5 2 43.97 22.16
-19 24 2 57.06 29.28
5 19 2 63.08 30.99
-19 24 2 14.19 19.24
-24 5 3 46.95 23.3
-19 24 3 34.38 24.95
5 19 3 71.54 37.32
-19 24 3 89.23 30.03
-24 5 4 8.42 20.12
5 19 4 42.14 38.7
-19 24 4 18.65 23.28
-24 5 5 30.58 25.5
-19 24 5 11.77 27.75
20 -24 -5 -26.12 24.44
-20 24 -5 -15.46 32.42
20 -24 -4 33.26 29.57
4 20 -4 12.9 27.54
-20 24 -4 24.29 33.17
20 -24 -3 49.14 26.06
-20 24 -3 19.95 29.78
4 20 -3 83.56 32.97
-24 4 -3 91.47 38.85
-24 4 -2 5.63 29.75
-20 24 -2 22.47 28.76
4 20 -2 10.48 20.7
20 -24 -2 35.32 23.61
-24 4 -1 175.05 44.12
4 20 -1 251.25 47.51
20 -24 -1 227.4 37.6
-20 24 -1 127.5 42.4
-20 24 0 26.65 26.67
20 -24 0 20.81 12.49
4 20 0 -5.38 29.36
-24 4 0 12.85 21.99
-20 24 0 25.55 13.65
4 20 1 231.81 48.24
20 -24 1 157.93 21.87
-20 24 1 185.12 40.19
-20 24 1 161.09 30.17
-24 4 1 175.42 42.13
-24 4 2 7.72 18.3
4 20 2 50.23 37.05
-20 24 2 62.45 27.09
-20 24 2 58.19 22.47
-24 4 3 53.02 22.74
4 20 3 119.08 39.74
-20 24 3 147.39 38.57
-20 24 3 116.49 31.46
-24 4 4 4.76 18.61
4 20 4 -22.45 27.16
-20 24 4 26.51 25.37
-24 4 5 -23.68 20.59
-20 24 5 33.6 32.01
21 -24 -5 52.18 39.69
-21 24 -5 -7.86 34.65
21 -24 -4 23.01 28.69
3 21 -4 51.27 34.84
-21 24 -4 21.16 34.05
21 -24 -3 45.05 28.99
3 21 -3 46.74 27.31
-21 24 -3 63.15 37.42
-24 3 -3 83.7 40.5
-24 3 -2 31.23 28.64
21 -24 -2 44.4 28.45
3 21 -2 15.82 30.16
-21 24 -2 -44.47 33.61
-24 3 -1 49.06 28.56
21 -24 -1 134.48 31.96
-21 24 -1 84.19 36.08
3 21 -1 35.12 26.7
21 -24 0 112.96 24.09
3 21 0 114.61 36.52
-21 24 0 88.39 35.28
-24 3 0 144.85 41.34
-21 24 0 132.18 24.35
3 21 1 180.7 45.92
21 -24 1 121.13 20.62
-21 24 1 160.37 40.41
-21 24 1 86 23.46
-24 3 2 28.16 21.24
3 21 2 12.27 23
-21 24 2 9.36 27.94
-21 24 2 -13.87 18.68
-24 3 3 45.13 22.74
3 21 3 33.72 26.29
-21 24 3 27.85 24.25
-21 24 3 26.25 19.46
-24 3 4 -12.85 19.44
3 21 4 42.67 33.45
-21 24 4 45.46 28.24
-24 3 5 22.13 24.38
-21 24 5 83.14 37.08
-22 24 -5 13.07 32.18
22 -24 -5 -39.91 35.51
22 -24 -4 -20.18 23.89
-22 24 -4 16.71 29.06
22 -24 -3 -16.6 25.17
2 22 -3 13.3 22.97
-22 24 -3 -41 29.05
-24 2 -2 25.2 31.46
22 -24 -2 19.35 18.74
2 22 -2 -24.09 28.84
-22 24 -2 4.2 29.22
22 -24 -1 242.88 39.91
2 22 -1 185.94 43.17
-24 2 -1 166.11 38.4
-22 24 -1 224.85 50.42
22 -24 0 -15.87 12.83
-22 24 0 21.69 24.85
-22 24 0 -18.16 14.8
2 22 1 237.98 48.18
22 -24 1 163.26 23.5
-22 24 1 164.25 30.6
-22 24 1 207.3 44.82
2 22 2 -6.55 27.44
-22 24 2 22.27 24.44
-22 24 2 35.98 19.4
-24 2 3 -32.22 23.41
2 22 3 -27.01 28.49
-22 24 3 32.88 23.65
-22 24 3 5.79 18.25
-24 2 4 -44.42 24.88
2 22 4 -18.91 30.7
-22 24 4 16.64 28.32
-24 2 5 28.11 23.46
-22 24 5 18.07 27.93
-23 24 -5 71.06 43.06
23 -24 -5 45.84 32.88
23 -24 -4 56.57 34.99
1 23 -4 73.4 41
-23 24 -4 2.57 40.77
23 -24 -3 63.48 35.73
1 23 -3 20.65 26.77
-23 24 -3 30.96 27.63
23 -24 -2 66.07 27.49
1 23 -2 132.23 41.7
-23 24 -2 61.93 39.3
1 23 -1 167.32 47.58
23 -24 -1 174.13 34.51
-23 24 -1 186.66 46.5
1 23 0 277.52 55.04
23 -24 0 300.73 37.15
-23 24 0 292.84 35.66
-23 24 0 345.03 59.82
1 23 1 181.18 48.53
23 -24 1 188.1 23.37
-23 24 1 170.33 42.69
-23 24 1 150.35 28.86
-23 24 2 27.13 30.32
-23 24 2 41.93 20.34
-24 1 3 10.97 16.99
1 23 3 9.48 26.23
-23 24 3 10.95 23.28
-23 24 3 -2.48 18.29
-24 1 4 83.04 31
1 23 4 19.6 31.99
-23 24 4 48.47 28.93
-24 1 5 3.46 19.3
-23 24 5 -26.74 26.84
-24 24 -5 4.37 35.82
24 -24 -5 36.04 38.72
24 -24 -4 144.33 48.26
0 24 -4 116.45 48.62
-24 24 -4 115.21 49.43
24 -24 -3 35.64 32.46
0 24 -3 -6.23 26.04
-24 24 -3 27.65 29.71
24 -24 -2 39.74 28.89
0 24 -2 113.62 38.87
-24 24 -2 92 38.25
24 -24 -1 30.84 20.14
0 24 -1 36.2 26.48
-24 24 -1 19.08 27.75
-24 24 0 268.68 52.84
24 -24 0 235.66 33.51
0 24 0 309.21 54.19
-24 24 0 260.68 35.53
0 24 1 48.5 33.75
24 -24 1 10.56 8.21
-24 24 1 -12.64 31.34
-24 24 1 10.28 15.65
0 24 2 61.51 27.61
-24 24 2 29.26 26.45
-24 24 2 104.91 32.24
-24 0 3 5.99 20.55
0 24 3 38.96 35.3
-24 24 3 38.88 33.37
-24 24 3 7.22 20.26
-24 0 4 80.8 30.95
0 24 4 125.47 45.23
-24 24 4 106.07 36.43
-24 0 5 0.02 20.85
-24 24 5 23.15 26.18
-25 24 -5 1.85 33.74
25 -24 -5 47.65 33.15
-25 24 -4 -40.1 36.36
25 -24 -4 29.06 38.01
-1 25 -4 -26.99 37.19
25 -24 -3 101.56 39.2
-1 25 -3 72.54 37.97
-25 24 -3 60 39.16
25 -24 -2 40.82 29.2
-1 25 -2 -8.02 28.23
-25 24 -2 60.53 40.56
25 -24 -1 63.58 25.14
-1 25 -1 58.98 34.29
-25 24 -1 71.07 36.17
-25 24 0 -7.93 17.69
25 -24 0 -19.08 15.23
-25 24 0 -10.6 24.11
-1 25 0 -40.75 29.72
-1 25 1 27.91 25.75
-25 24 1 70.39 34.04
-25 24 1 18.11 16.35
-1 25 2 -6.91 23.14
-25 24 2 60.1 31.34
-25 24 2 26.61 15.94
-1 25 3 76.68 38.79
-25 24 3 87.62 30.26
-25 24 3 103.14 39.71
-24 -1 4 -5.5 19.08
-1 25 4 -37.31 34.12
-25 24 4 -9.31 23.15
-24 -1 5 -50.55 28.9
-25 24 5 -56.46 30.78
-25 23 -5 -19.18 39.11
25 -23 -5 63.77 31.02
-25 23 -4 67.96 45.02
25 -23 -4 117.06 46.08
-2 25 -4 113.29 47.89
25 -23 -3 176.63 43.84
-2 25 -3 76.12 37.05
-25 23 -3 77.69 42.37
25 -23 -2 51.36 28.48
-2 25 -2 1.3 25.41
-25 23 -2 35.37 35.37
25 -23 -1 27.05 18.61
-2 25 -1 69.88 41.1
-25 23 -1 15.92 31.5
-25 23 0 30.03 17.66
25 -23 0 20.59 16.74
-2 25 0 59.88 31.61
-25 23 0 88.95 39.12
-2 25 1 63.04 30.58
-25 23 1 111.3 39.94
-25 23 1 12.35 16.91
-2 25 2 25.72 25
-25 23 2 38.85 29.65
-25 23 2 -3.28 16.38
-2 25 3 139.84 42.41
-2 25 3 2.72 27.98
-25 23 3 73.05 26.39
-25 23 3 123.77 42.88
-23 -2 4 75.55 30.73
-2 25 4 116.84 41.27
-25 23 4 -0.15 23.16
-23 -2 5 38.74 25.51
-25 23 5 -36.39 26.85
-25 22 -5 -10.01 39.78
-3 25 -5 31.4 27.96
25 -22 -5 12.56 31.62
-25 22 -4 16.64 30.69
25 -22 -4 -10.06 30.62
-3 25 -4 -6.32 34.55
25 -22 -3 36.91 25.25
-3 25 -3 -12.86 26.41
-25 22 -3 63.82 39.03
25 -22 -2 30.76 22.91
-3 25 -2 66.25 32.92
-25 22 -2 33.8 34
25 -22 -1 33.38 21.32
-3 25 -1 14.46 26.34
-25 22 -1 -3 26.84
-25 22 0 14.02 16.58
-3 25 0 -30.87 29.28
25 -22 0 10.32 14.91
-25 22 0 22.78 26.03
-3 25 1 4.24 25.54
-25 22 1 -6.97 23.61
-25 22 1 3.73 18.38
-3 25 2 77.1 34.54
-25 22 2 70.58 32.93
-25 22 2 16.63 17.01
-25 22 3 15.57 27.57
-3 25 3 51.47 30.92
-3 25 3 -5.96 27.05
-25 22 3 37 21.59
-22 -3 4 -16.6 21.86
-3 25 4 31.49 33.79
-25 22 4 -22.18 25.88
-22 -3 5 19.83 20.54
-25 22 5 3.06 24.51
-4 25 -5 -20.02 30.27
25 -21 -5 35.2 31.56
-25 21 -5 -50.4 43.08
-25 21 -4 -31.72 33.23
25 -21 -4 2.13 27.63
-4 25 -4 -20.32 33.37
-25 21 -3 73.98 40.19
25 -21 -3 38.87 35.07
-4 25 -3 65.1 34.36
25 -21 -2 41.09 29.97
-25 21 -2 37.14 30.77
-25 21 -1 244.99 56.64
25 -21 -1 201.51 36.31
-4 25 -1 187.02 41.92
-25 21 0 60.32 21.95
25 -21 0 12.87 15.23
-4 25 0 -22.31 29.07
-25 21 0 -1.96 26.32
-4 25 1 168.63 44.41
-25 21 1 171.8 31.55
-25 21 1 143.92 43.14
-4 25 2 53.37 32.47
-25 21 2 10.96 18.89
-25 21 2 44.91 38.11
-4 25 3 87.79 37.21
-25 21 3 24.02 27.67
-4 25 3 9.86 27.19
-25 21 3 52.74 24.45
-21 -4 4 -10.08 20.59
-4 25 4 19.68 30.06
-25 21 4 -35.47 26.37
-21 -4 5 -28.48 25.42
-25 21 5 101.96 37.6
-5 25 -5 -4.76 24.35
5 -25 -5 16.31 21.95
25 -20 -5 -34.62 32.25
-25 20 -4 26.3 36.16
25 -20 -4 22.28 29.4
-5 25 -4 19.28 33.56
-25 20 -3 -13.33 31.82
25 -20 -3 30.5 27.26
-5 25 -3 -14.25 27.28
25 -20 -2 1.4 20.85
-5 25 -2 48.75 26.52
-25 20 -2 -24.23 33.54
25 -20 -1 68.7 24.33
-5 25 -1 59.28 27.42
-25 20 -1 56.63 31.91
-25 20 0 35.02 17.89
25 -20 0 37.17 17.71
-5 25 0 3.38 21.96
-5 25 1 16.04 24.93
-25 20 1 87.78 38.24
-25 20 1 97.73 25.54
-25 20 2 1.92 24.26
-5 25 2 -20.58 27.12
-5 25 2 9.71 21.6
-25 20 2 -2.79 15.66
-5 25 3 28.42 29.58
-25 20 3 26.42 27.71
-5 25 3 27.12 24.5
-25 20 3 -12.78 22.26
-20 -5 4 24.95 18.23
-5 25 4 0.68 22.71
-20 -5 5 -0.97 21.35
-25 20 5 27.57 30
6 -25 -5 8.69 20.76
25 -19 -5 19.96 28.55
-25 19 -5 54.79 47.19
-6 25 -4 22.63 22.08
19 6 -4 51.08 22.57
-25 19 -4 11.43 37.68
25 -19 -4 117.24 42.62
-6 25 -4 18.18 30.21
-25 19 -3 42.92 34.12
25 -19 -3 57.22 29.34
-6 25 -3 -6.82 28.66
-25 19 -2 97 41.42
25 -19 -2 39.15 26.46
-6 25 -2 67.6 29.38
25 -19 -1 41.55 20.93
-6 25 -1 40.29 26.86
-25 19 -1 104.74 39.01
-6 25 0 134.44 37.16
-25 19 0 113.6 26.25
-25 19 0 97.83 30.08
-25 19 1 41.56 19.85
-25 19 1 48.65 28.97
-6 25 1 78.1 34.38
-25 19 2 76.14 33.28
-6 25 2 38.47 25.36
-6 25 2 32.49 28.81
-25 19 2 82.81 25
-25 19 3 40.64 29.21
-6 25 3 48.57 32.37
-25 19 3 41.94 25.93
-19 -6 4 16.23 19.19
-6 25 4 130 44.18
-25 19 4 73.41 32.24
-19 -6 5 59.13 27.39
-6 25 5 -32.6 36.73
-25 19 5 -2.87 23.33
-7 25 -5 16.36 32.82
25 -18 -5 42.22 35.98
7 -25 -5 -31.49 22.8
-7 25 -4 7.2 21.44
18 7 -4 18.33 19.87
25 -18 -4 34.24 28.65
-25 18 -4 5.18 35.51
-7 25 -4 5.13 35.54
-7 25 -3 111.49 35.17
-25 18 -3 65.09 39.42
25 -18 -3 86.15 34.84
-7 25 -3 65.46 38.76
-25 18 -2 1.71 29.39
25 -18 -2 16.81 20.04
-7 25 -2 28.16 30.94
-25 18 -1 195.92 50.68
25 -18 -1 140.36 30.12
-7 25 -1 166.88 45.17
-25 18 0 0.91 26.77
-25 18 0 13.5 15.48
-7 25 0 32.57 26.7
-25 18 1 169.2 43.01
-7 25 1 120.2 34.52
-7 25 1 109.02 35.75
-25 18 1 121.94 26.82
-25 18 2 23.94 25.09
-7 25 2 57.39 25.86
-7 25 2 60.3 30.07
-25 18 2 22.84 19.28
-25 18 3 102.49 37.6
-7 25 3 48.4 29.44
-25 18 3 96.43 31.52
-18 -7 4 15.2 18.36
-7 25 4 28.82 26.71
-25 18 4 10.02 20.32
-18 -7 5 9.83 17.84
-25 18 5 48.17 31.49
-25 17 -5 37.16 43.33
8 -25 -5 14.34 18.19
25 -17 -5 -32.59 28.85
-8 25 -4 81.99 36.27
17 8 -4 40.89 22.82
25 -17 -4 129.9 42.64
-25 17 -4 84.75 42.48
-8 25 -4 -17.23 31.04
-25 17 -3 -1.87 35.34
25 -17 -3 19.41 23.34
-8 25 -3 23.39 23.92
-8 25 -3 18.37 31.1
-25 17 -2 25.64 27.84
25 -17 -2 37.53 21.9
-8 25 -2 9.75 25.74
-25 17 -1 125.54 42.36
25 -17 -1 152.17 27.85
-8 25 -1 101.64 14.25
-8 25 -1 152.79 42.92
-25 17 0 37.73 19
-25 17 0 22.85 30.21
-8 25 0 60.98 28.1
-8 25 0 24.65 26.06
-25 17 1 91.88 25.39
-8 25 1 93.29 30.64
-25 17 1 144.59 40.15
-8 25 1 108.44 33
-8 25 2 18.89 22.36
-25 17 2 17.89 28.97
-8 25 2 66.97 28.79
-25 17 2 14.42 19.06
-8 25 3 -24.9 29.43
-25 17 3 -28.71 31
-25 17 3 10.33 20.45
-8 25 4 31.26 29.09
-8 25 4 47.06 28.81
-25 17 4 0.02 21.24
-17 -8 5 17.33 22.67
-8 25 5 87.76 44.11
-25 17 5 61.02 32.49
-25 16 -5 8.61 31.36
9 -25 -5 43.92 23.59
25 -16 -5 11.49 27.71
-9 25 -5 61.86 45.38
-9 25 -4 -35.59 32.07
-9 25 -4 37.93 30.66
16 9 -4 -17.76 22.53
25 -16 -4 60.01 30.94
-25 16 -4 -19.69 37.43
-9 25 -3 17.68 23.49
25 -16 -3 46.3 26.08
-25 16 -3 35.73 31.96
-9 25 -3 30.05 27.92
-9 25 -2 206.2 44.68
-25 16 -2 195.88 48.9
25 -16 -2 184.63 38.74
-9 25 -2 185.14 44.04
-9 25 -1 -11.22 22.46
-9 25 -1 4.47 6.23
-25 16 -1 8.12 26.68
-9 25 -1 -14.02 23.66
-25 16 0 32.95 17.3
-25 16 0 69.63 34.71
-9 25 0 31.96 20.5
-9 25 0 58.84 18.03
-9 25 0 42.44 24.74
-25 16 1 5.09 13.8
-9 25 1 31.71 24.24
-9 25 1 -10.88 22.04
-9 25 2 265.16 48.39
-25 16 2 227.75 47.13
-25 16 2 189.59 36.01
-9 25 3 -27.94 28.56
-25 16 3 41.15 23
-25 16 3 -36.35 26.05
-9 25 4 17.49 31.29
-9 25 4 -3.26 24.25
-25 16 4 -26.57 23.8
-16 -9 5 22.01 19.33
-9 25 5 -8.8 28.63
-25 16 5 55.33 27.76
-10 25 -5 11.24 38.07
10 -25 -5 6 17.82
-25 15 -5 2.85 31.66
-10 25 -4 -5.46 26.38
10 -25 -4 -34.59 23.04
15 10 -4 33.37 22.51
25 -15 -4 2.44 24.01
-25 15 -4 35.11 38.06
15 10 -3 -6.61 16.27
-10 25 -3 14 25.46
25 -15 -3 -33.19 26.49
-25 15 -3 30.8 36.72
-10 25 -3 -3.81 24.38
-10 25 -2 5.47 20.43
-25 15 -2 45.41 34.16
-10 25 -2 -21.37 25.94
-10 25 -1 128.16 34.8
-25 15 -1 166.72 44.42
-10 25 -1 137.62 15.12
-10 25 -1 195.66 42.69
-25 15 0 76.58 24.36
-25 15 0 115.76 37.2
-10 25 0 116.44 21.25
-10 25 0 114.84 33.33
-10 25 0 127.49 35.23
-10 25 1 154.07 34.85
-25 15 1 157.27 43.01
-10 25 1 153.46 27.92
-10 25 1 178.35 39.4
-25 15 1 162.79 28.29
-10 25 2 18.1 23.14
-10 25 2 -34.97 23.67
-25 15 2 3.4 27.23
-25 15 2 43.99 18.53
-25 15 3 19.47 26.14
-10 25 3 -3.06 21.78
-10 25 3 -17.96 21.68
-25 15 3 -6.56 19.78
-10 25 4 80.95 35.89
-25 15 4 38.31 22.33
-15 -10 5 -5.33 21.8
-25 15 5 -8.09 23.82
-11 25 -5 32.83 32.05
-25 14 -5 -21 37.36
11 -25 -5 0.3 19.68
-25 14 -4 -1.02 30.12
-11 25 -4 26.46 26.5
11 -25 -4 5.82 16.6
14 11 -4 11.49 21.51
-25 14 -3 -7.75 29.16
14 11 -3 55.81 23.88
-11 25 -3 75.37 35.52
-11 25 -2 39.62 27.53
-25 14 -2 64.25 40.04
-11 25 -2 48.37 29.8
-11 25 -1 -18.18 24.29
-25 14 -1 10.3 8.6
-25 14 -1 24.96 27.46
-11 25 -1 4.69 5.37
-11 25 -1 49.64 31.28
-11 25 0 38.89 27.69
-25 14 0 -25.35 26.97
-11 25 0 32.92 13.65
-25 14 1 20.31 15.34
-11 25 1 -0.07 15.19
-25 14 1 40.37 22.96
-11 25 1 60.98 31.28
-11 25 2 40.49 23.43
-11 25 2 12.46 20.82
-25 14 2 37.89 30.83
-25 14 2 19.81 18.18
-25 14 3 9.64 27.84
-11 25 3 35.69 24.93
-11 25 3 23.63 26.91
-25 14 3 39.02 22.94
-11 25 4 96.03 36.11
-11 25 4 60.28 33.74
-25 14 4 30.87 25.22
-11 25 5 33.58 28.85
-25 14 5 -31.41 27.35
12 -25 -5 2.11 19.09
-12 25 -5 24.32 30.27
-25 13 -5 53.04 39.69
-12 25 -4 108.1 41.13
-25 13 -4 27.19 31.61
12 -25 -4 49.96 22.42
13 12 -4 42.64 25.62
-12 25 -3 -10.47 32.84
13 12 -3 33.81 25.51
-25 13 -3 -41.65 34.37
-25 13 -2 15.72 26.67
-12 25 -2 58.65 28.29
-12 25 -1 37.75 21.76
-25 13 -1 25.12 12.89
-25 13 -1 -4.49 26.58
-12 25 -1 24.23 7.7
-12 25 -1 -17.78 28.21
-12 25 0 46.88 15.81
-25 13 0 49.73 28.95
-12 25 0 75.15 34.53
-25 13 1 28.98 20.11
-12 25 1 62.31 21.09
-12 25 1 0.43 23.17
-25 13 1 62.93 32.36
-25 13 2 14.23 17.57
-25 13 2 8.41 22.16
-12 25 2 25.23 18.58
-12 25 2 15.74 20.44
-12 25 3 4.1 19.25
-25 13 3 -55.28 32.41
-12 25 3 47.55 26.62
-25 13 3 -12.92 16.86
-25 13 4 28.83 23.04
-12 25 4 71.32 31.06
-12 25 5 3.48 31.75
-25 13 5 2.28 28.26
13 -25 -5 14.06 22.55
-13 25 -5 51.44 36.37
-25 12 -5 27.51 36.58
-13 25 -4 -9.19 31.23
13 -25 -4 38.34 23.9
12 13 -4 34.1 22.58
-25 12 -4 85.67 46.38
-13 25 -3 46.32 31.69
-25 12 -3 94.8 42.05
12 13 -3 46.79 21.5
12 13 -2 78.85 31.24
-25 12 -2 75.07 36.74
-13 25 -2 18.96 32.42
-25 12 -1 -12.19 31.42
-13 25 -1 28.57 27.96
-13 25 -1 27.34 7.42
-13 25 0 162.68 43.62
-13 25 0 88.36 18.35
-25 12 0 105.63 42
-25 12 1 18.9 24.56
-25 12 1 -7.62 16.03
-13 25 1 3.03 13.38
-13 25 1 3.66 22.72
-25 12 2 39.3 19.75
-25 12 2 67.03 28.86
-13 25 2 33.47 18.84
-13 25 2 9.5 23.82
-25 12 3 75.93 34.71
-13 25 3 118.43 32.75
-13 25 3 106.54 35.57
-25 12 3 83.25 28.27
-13 25 4 33.64 24.22
-13 25 4 5 22.15
-25 12 4 -8.55 18.84
-13 25 5 -31.41 30.98
-25 12 5 -4.76 21.27
-25 11 -5 2.23 35.41
14 -25 -5 9.63 18.62
-14 25 -5 -47.82 36.6
-14 25 -4 -9.43 27.36
14 -25 -4 25.66 22.21
11 14 -4 38.83 27.45
-25 11 -4 -10.22 34.21
-14 25 -3 23 28.15
14 -25 -3 15.15 17.93
-25 11 -3 31.72 29.48
11 14 -3 11.26 18.05
-14 25 -2 69.92 34.23
-25 11 -2 110.98 41.61
11 14 -2 83.8 29.27
-25 11 -1 77.72 33.79
-14 25 -1 90.03 11.87
-14 25 -1 122.99 37.8
-25 11 0 57.46 29.89
-14 25 0 12.6 10.17
-14 25 0 58.09 31.82
-25 11 1 135.58 38.95
-14 25 1 74.35 22.27
-14 25 1 103.21 35.14
-25 11 1 88.48 26.86
-25 11 2 61.66 29.86
-14 25 2 80.57 24.83
-25 11 2 154.17 32.9
-14 25 2 87.79 31.87
-25 11 3 33.37 26.41
-14 25 3 -44.87 26.56
-14 25 3 18.85 24.87
-25 11 3 15.76 17.88
-14 25 4 36.94 25.8
-14 25 4 73.17 32.07
-25 11 4 14.06 20.01
-14 25 5 -2.64 29.45
-25 11 5 -5.78 24.26
15 -25 -5 -11.46 22.7
-15 25 -5 21.86 32.98
-25 10 -5 34.25 34.82
15 -25 -4 10.75 20.47
10 15 -4 -24.7 26.08
-25 10 -4 45.5 41.87
-15 25 -3 103.45 40.19
15 -25 -3 37.58 22.14
10 15 -3 -6.22 22.16
-25 10 -3 51.95 45.44
-15 25 -2 33.56 23.44
10 15 -2 21.11 21.72
-25 10 -2 20.34 33.17
-15 25 -1 -35.08 28.13
-15 25 -1 4.39 5.75
10 15 -1 -2.74 22.44
-25 10 0 191.6 42.66
-15 25 0 226.21 26.23
-15 25 0 277.16 48.98
-25 10 1 -4.4 13.82
-25 10 1 -18.13 25.1
-15 25 1 1.84 11.33
-15 25 1 38.27 34.75
-25 10 2 28.23 19.42
-15 25 2 71.65 25.98
-25 10 2 69.57 30.2
-15 25 2 123.32 37.37
-15 25 3 20.82 22.96
-25 10 3 81.33 28.41
-15 25 3 37.42 23.38
-25 10 3 12.36 18.82
-15 25 4 -19.16 24.7
-25 10 4 18.54 18.64
-15 25 5 -12.24 28.9
-25 10 5 1.77 21.68
-25 9 -5 71.18 39.23
16 -25 -5 78.42 28.99
-16 25 -5 15.39 30.15
-25 9 -4 15.96 30.62
16 -25 -4 35.17 26.45
-16 25 -4 29.81 35.19
9 16 -4 54.06 34.46
-16 25 -3 19.76 25.44
16 -25 -3 6.29 21.66
9 16 -3 -23.54 20.66
-25 9 -3 55.88 32.72
-16 25 -2 54.44 29.89
16 -25 -2 24.99 21.84
9 16 -2 61.16 24.53
-25 9 -2 123.93 40.61
-16 25 -1 67.22 31.94
-25 9 -1 -13.77 30.79
9 16 -1 77.79 34.14
-16 25 -1 59.31 10.64
-16 25 0 30.62 28.78
-25 9 0 62.06 34.5
-16 25 0 1.99 10.54
-16 25 1 49.08 27.19
-25 9 1 43.88 21.37
-25 9 1 84.99 31.76
-16 25 1 70.01 21.97
-16 25 2 86.63 31.62
-25 9 2 66.96 22.31
-25 9 2 77.51 33.92
-16 25 2 101.26 29.19
-25 9 3 13.06 19.91
-16 25 3 28.15 20.48
-25 9 3 -0.19 24
-16 25 3 14.22 19.89
9 16 4 -28.65 34.64
-16 25 4 -20.27 31.56
-25 9 4 8.53 20.63
-16 25 5 18.2 25.49
-25 9 5 -0.75 19.75
-25 8 -5 -40.39 35.56
17 -25 -5 17.06 25.37
-17 25 -5 30.19 35.59
17 -25 -4 12.51 20.29
-17 25 -4 0.03 36.46
8 17 -4 16.34 32.73
-25 8 -4 -33.34 33.34
-17 25 -3 39.89 32.63
17 -25 -3 74.18 33.95
8 17 -3 58.3 33.44
-25 8 -3 25.18 32.72
-17 25 -2 61.93 32.7
17 -25 -2 20.72 18.67
8 17 -2 46.45 27.56
-25 8 -2 50.55 36
-17 25 -1 39.1 9.57
8 17 -1 -12.7 26.13
-25 8 -1 12.03 24.8
-17 25 0 41.99 30.45
8 17 0 72.52 32.59
-25 8 0 16.11 28.21
-17 25 0 64.28 16.94
-25 8 1 4.3 26.98
-17 25 1 12.39 23.66
-25 8 1 21.69 20.47
8 17 1 35.33 35.13
-17 25 1 45.95 17.46
-25 8 2 30.73 19.97
-17 25 2 50.09 26.38
8 17 2 50.55 33.83
-17 25 2 20.77 17.53
-25 8 2 -35.31 23.14
-25 8 3 84.81 26.62
-17 25 3 38.89 28.22
8 17 3 81.6 45.15
-17 25 3 58.23 28.23
8 17 4 80.18 46.62
-17 25 4 24 23.07
-25 8 4 24.76 22.38
-17 25 5 -3.13 27.89
-25 8 5 18.04 25.26
-7 -18 -6 32.97 35.62
18 -25 -5 48.39 29.42
-25 7 -5 33.8 31.98
-18 25 -5 -24.45 32.55
-25 7 -4 39.04 37.29
18 -25 -4 0.1 23.26
-18 25 -4 -10.73 39.48
7 18 -4 -4.23 26.07
18 -25 -3 8.07 21.82
-18 25 -3 41.98 32.46
-25 7 -3 -31.16 36.78
7 18 -3 1.2 25.66
-25 7 -2 230.19 49.05
18 -25 -2 177.79 41.51
7 18 -2 170.04 38.02
-18 25 -2 253.1 52.07
-18 25 -1 110.61 37.22
18 -25 -1 155.84 34.7
7 18 -1 139.84 36.33
-25 7 -1 168.71 43.66
-18 25 -1 155.24 17.87
-25 7 0 9.55 25.79
-18 25 0 7.1 23.08
7 18 0 11.16 26.68
-18 25 0 -0.52 10.78
-18 25 1 120.34 34.26
7 18 1 209.54 50.17
-25 7 1 153.86 36.32
-18 25 1 146.45 26.87
-18 25 2 117.3 35.82
7 18 2 183.16 46.04
-18 25 2 167.35 32.54
-25 7 2 146.87 39.59
-25 7 2 158.82 32.58
-25 7 3 30.92 20.33
7 18 3 -16.79 27.26
-18 25 3 -61.05 30.96
-18 25 3 -3.84 18.32
-25 7 4 -12.11 22.49
7 18 4 54.74 34.92
-18 25 4 42.7 33.03
-18 25 5 -25.92 31.23
-25 7 5 -35.02 28.05
19 -25 -5 60.26 30.37
-19 25 -5 22.93 33.81
19 -25 -4 61.68 33.35
-19 25 -4 57.47 32.32
6 19 -4 31.99 27.05
-25 6 -4 54.96 37.86
19 -25 -3 46.14 23.86
-19 25 -3 -12.32 26.78
6 19 -3 72.36 31.96
-25 6 -3 41.02 34.17
-19 25 -2 40.96 28.95
19 -25 -2 76.81 29.5
6 19 -2 51.08 29.19
-25 6 -2 132.76 44.99
6 19 -1 152.35 41.91
-19 25 -1 131.1 36.45
19 -25 -1 184.42 34.51
-25 6 -1 142.68 44.12
-19 25 -1 154.7 19.23
-19 25 0 95.79 33.73
19 -25 0 151.76 28.42
6 19 0 95.31 39.56
-25 6 0 92.16 32.69
-19 25 0 157.27 26.35
-25 6 1 115.17 37.38
6 19 1 258.96 55.7
19 -25 1 162.43 24.38
-19 25 1 132.78 25.03
-19 25 1 211.23 47.85
-25 6 2 16.07 16.84
6 19 2 75.74 33.07
-25 6 2 117.39 36.03
-19 25 2 70.77 24.77
-19 25 2 149.32 40.43
-25 6 3 12.75 20.83
6 19 3 12.88 30.63
-19 25 3 -13.76 19.88
-19 25 3 9.24 20.77
-25 6 4 27.1 21.06
6 19 4 -31.67 39.85
-19 25 4 32.3 27.69
-25 6 5 -3.18 21.55
-19 25 5 -8.33 24.46
20 -25 -5 2.89 29.95
-20 25 -5 -15.97 34.91
-25 5 -4 41.2 31.69
20 -25 -4 -17.67 28.17
5 20 -4 40.97 35.86
-20 25 -4 33.06 38.13
20 -25 -3 9.91 23.46
-25 5 -3 -25.87 36.04
-20 25 -3 -38.17 34.01
5 20 -3 24.48 25.96
20 -25 -2 84.48 31.9
5 20 -2 27.28 26.28
-25 5 -2 50.9 37.63
-20 25 -2 64.84 32.64
-20 25 -1 88.35 37.53
20 -25 -1 80.66 26.81
5 20 -1 102.7 31.36
-25 5 -1 -7.79 29.76
20 -25 0 -8.03 13.29
-20 25 0 8.35 29.19
5 20 0 -46.32 31.18
-20 25 0 8.32 11.45
-20 25 1 2.47 22.4
5 20 1 36.52 29.1
20 -25 1 47.26 14.21
-20 25 1 74.66 21.43
-20 25 2 59.84 31.65
-25 5 2 27.39 21.23
5 20 2 34.05 29.83
-20 25 2 107.06 29.12
-25 5 3 36.49 20.11
-20 25 3 23.07 26.85
-20 25 3 -17.75 18.94
-25 5 4 36.01 22.61
5 20 4 8.46 27.65
-20 25 4 13.63 23.32
-25 5 5 7.23 19.99
-20 25 5 4.2 30.94
21 -25 -5 61.93 39.3
-21 25 -5 25.75 31.74
21 -25 -4 31.32 29.81
4 21 -4 36.66 27.29
-21 25 -4 -30.51 34.65
21 -25 -3 -17.58 28.67
-25 4 -3 35.22 30.63
4 21 -3 -8.41 23.44
-21 25 -3 35.6 34.93
21 -25 -2 55.64 32.4
-21 25 -2 64.32 34.53
4 21 -2 58.43 27.42
-25 4 -2 70.59 37.79
21 -25 -1 16.92 17.38
-21 25 -1 -20.2 24.73
4 21 -1 18.1 23.04
-25 4 -1 -27.7 37.37
-21 25 0 -7.69 29.63
4 21 0 7.01 28.76
21 -25 0 46.22 19.42
-21 25 0 40.32 16.85
-25 4 1 -9.72 22.61
21 -25 1 9.36 11.1
4 21 1 5.84 26.74
-21 25 1 -8.66 26.85
-21 25 1 6.88 16.76
-25 4 2 67.23 26.81
4 21 2 39.4 33.48
-21 25 2 -11.89 22.85
-21 25 2 52.35 21.83
-25 4 3 26.07 23.73
4 21 3 14.28 24.83
-21 25 3 65.55 33.7
-21 25 3 17.78 21.55
-25 4 4 -12.5 22.63
4 21 4 4.9 27.72
-21 25 4 12.6 22.14
-25 4 5 -0.73 19.91
-21 25 5 16.37 27.37
22 -25 -5 -69.27 34.54
-22 25 -5 58.75 50.1
22 -25 -4 39.14 35.38
3 22 -4 58.82 40.51
-22 25 -4 36.93 40.5
22 -25 -3 24.89 29.36
3 22 -3 68.27 35.77
-22 25 -3 34.21 39.27
-25 3 -2 26.67 25.66
22 -25 -2 35.63 30.31
3 22 -2 93.57 35.17
-22 25 -2 49.31 34.47
22 -25 -1 101.53 25.88
3 22 -1 96.84 37.21
-22 25 -1 165.91 45.09
-25 3 -1 101.07 35.3
-25 3 0 8.78 23.44
22 -25 0 44.34 19.76
3 22 0 48.67 28.63
-22 25 0 38.03 31.59
-22 25 0 16.43 14.47
22 -25 1 124.38 21.67
3 22 1 133.01 41.57
-22 25 1 65.55 32
-22 25 1 121.74 26.24
3 22 2 45.11 32.57
-22 25 2 57.34 32.42
-22 25 2 49.31 22.11
-25 3 3 0.73 20.71
3 22 3 45.1 32.97
-22 25 3 39.42 31.61
-22 25 3 33.23 21.51
-25 3 4 10.1 23.75
3 22 4 65.45 46.1
-22 25 4 5.99 22.7
-25 3 5 -22.03 20.14
-22 25 5 -47.96 30.62
-23 25 -5 -9.15 40.05
23 -25 -5 -0.95 25.82
23 -25 -4 72.65 44.06
2 23 -4 35.08 34.33
-23 25 -4 -5.22 30.49
23 -25 -3 182.35 47.46
2 23 -3 135.89 43.99
-23 25 -3 199.22 54.06
23 -25 -2 25.54 26.85
2 23 -2 20.88 23.64
-23 25 -2 72.04 36.97
23 -25 -1 31.13 20.08
-23 25 -1 7.96 27.42
23 -25 0 217.48 33.54
2 23 0 173.84 43.95
-23 25 0 178.78 47.28
-23 25 0 185.5 30.29
2 23 1 17.15 29.2
-23 25 1 4.32 23.46
23 -25 1 21.51 11.78
-23 25 1 -0.43 15.77
2 23 2 55.66 32.64
-23 25 2 30.28 26.33
-23 25 2 39.03 23.42
-25 2 3 70.56 28.41
2 23 3 98.2 40.25
-23 25 3 126.2 38.97
-23 25 3 85.48 27.32
-25 2 4 13.29 23.25
2 23 4 24.89 27.27
-23 25 4 -17.98 24
-25 2 5 -12.08 20.03
-23 25 5 21.74 29
-24 25 -5 -14.34 33.84
24 -25 -5 18.69 33.04
24 -25 -4 45.45 41.78
1 24 -4 2.74 30.93
-24 25 -4 36.66 33.87
24 -25 -3 74.65 37.66
1 24 -3 98.61 34.19
-24 25 -3 4.17 29.22
24 -25 -2 29.5 22.06
1 24 -2 1.95 25.03
-24 25 -2 -5.59 29.24
24 -25 -1 83.43 28.92
1 24 -1 72.2 32.43
-24 25 -1 99.15 40.48
-24 25 0 8.09 13.38
24 -25 0 57.47 20.46
1 24 0 30.75 30.15
-24 25 0 10.79 24.51
1 24 1 57.83 31.23
-24 25 1 9.01 24.54
-24 25 1 1.04 15.73
1 24 2 -35.37 37.55
-24 25 2 21.47 27.72
-24 25 2 37.81 26.75
-25 1 3 -7.19 21.66
1 24 3 -4.2 26.96
-24 25 3 -26.32 32.66
-24 25 3 7.86 24.2
-25 1 4 -6.83 18.75
1 24 4 50.74 39.92
-24 25 4 29.76 23.31
-25 1 5 -10.44 27.05
-24 25 5 18.14 31.03
-25 25 -5 26.48 37.78
25 -25 -5 25.08 33.19
25 -25 -4 25.34 35.94
0 25 -4 -36.99 37.46
-25 25 -4 2.74 37.32
25 -25 -3 91.52 36.69
0 25 -3 78.78 36.39
-25 25 -3 1.65 31.02
0 25 -2 151.63 47.21
25 -25 -2 100.71 33.67
-25 25 -2 165.14 50.87
25 -25 -1 23.77 20.59
0 25 -1 17.09 23.4
-25 25 -1 -29.99 27.63
-25 25 0 20.87 16.46
25 -25 0 12.55 14.97
0 25 0 31.6 23.24
-25 25 0 -27.71 26.9
0 25 1 7.29 26.93
-25 25 1 81.12 38.95
-25 25 1 23.87 16.93
0 25 2 54.36 34.27
-25 25 2 41.39 29.09
-25 25 2 86.43 27.32
0 25 3 80.97 33.19
-25 25 3 61.17 34.39
-25 25 3 63.36 27.09
-25 0 4 -6.63 23.06
0 25 4 -3.69 31.66
-25 25 4 29.98 30.31
-25 0 5 47.59 31.06
-25 25 5 17.34 27.55
-26 25 -5 -11.96 41.93
-26 25 -4 -3.8 34.35
26 -25 -4 -11.77 33.51
-1 26 -4 21.43 46.43
26 -25 -3 -17.45 26.67
-26 25 -3 -34.07 38.33
26 -25 -2 -8.64 19.74
-1 26 -2 52.93 34.72
-26 25 -2 -25.44 30.1
26 -25 -1 114.89 30.82
-1 26 -1 126.48 39.25
-26 25 -1 114.93 46.45
-26 25 0 76.22 24.04
26 -25 0 36.56 17.42
-1 26 0 80.27 33.34
-26 25 0 40.17 28.86
-1 26 1 68.27 32.25
-26 25 1 141.55 43.98
-26 25 1 98.85 26.96
-1 26 2 7.44 24.42
-26 25 2 -17.24 32.64
-26 25 2 46.15 26.97
-1 26 3 37.53 35.09
-26 25 3 42.27 24.7
-26 25 3 13.25 28.72
-25 -1 4 23.79 20.06
-1 26 4 32.5 31.55
-26 25 4 52.71 31.08
-25 -1 5 13.16 26.71
-26 24 -5 -21 39.34
26 -24 -5 -40.97 29.15
-26 24 -4 21.12 38.71
26 -24 -4 13.81 28.41
-2 26 -4 34.15 41.79
26 -24 -3 102.53 36.71
-2 26 -3 65.39 34
-26 24 -3 129.28 51.99
26 -24 -2 99.34 35.21
-2 26 -2 93.28 40.99
-26 24 -2 125.34 51.76
26 -24 -1 -13.97 17.72
-2 26 -1 3.2 27.79
-26 24 -1 54.91 33.78
-26 24 0 89.71 27.03
26 -24 0 73.01 21.02
-2 26 0 104.85 38.72
-26 24 0 34.32 27.74
-2 26 1 32.36 30.5
-26 24 1 8.45 31.13
-26 24 1 32.36 21.29
-2 26 2 129.14 43
-26 24 2 135.83 31.47
-26 24 2 143.99 45.78
-26 24 3 94.18 40.39
-2 26 3 64.58 32.2
-2 26 3 47.84 31.31
-26 24 3 71.98 27.87
-24 -2 4 19.91 18.93
-2 26 4 -10.67 29.87
-26 24 4 -9.53 24.81
-24 -2 5 42.06 30.19
-26 24 5 1.48 23.92
-26 23 -5 -26.98 38.7
26 -23 -5 0.07 28.05
-26 23 -4 -4.4 33.31
26 -23 -4 54.71 35.27
-3 26 -4 83.22 41.47
26 -23 -3 77.82 33.54
-3 26 -3 27.77 31.74
-26 23 -3 130.54 52.93
26 -23 -2 207.43 43.99
-3 26 -2 149.17 41.69
-26 23 -2 122.93 47.26
26 -23 -1 -9.41 16.86
-26 23 -1 -2.32 30.87
-26 23 0 -31.56 18.59
26 -23 0 -10.47 16.01
-3 26 0 -0.11 25.55
-26 23 0 16.98 27.71
-3 26 1 1.53 23.39
-26 23 1 -10.12 24.86
-26 23 1 7.31 15.7
-3 26 2 172.78 45.55
-26 23 2 204.93 44.4
-26 23 2 110.82 30.79
-26 23 3 48.28 29.58
-3 26 3 148.62 42.93
-3 26 3 86.98 37.65
-26 23 3 90.01 30.54
-23 -3 4 26.41 19.84
-3 26 4 53.22 38.76
-26 23 4 -10.91 23.43
-23 -3 5 -32.97 27.97
-26 23 5 63.37 33.29
26 -22 -5 -41.85 27
-26 22 -5 -2.46 38.36
26 -22 -4 17.65 35.2
-26 22 -4 -22.18 36.31
-4 26 -4 49.29 38.68
-26 22 -3 -43.59 37.04
26 -22 -3 -36.45 24.65
-4 26 -3 20.94 36.79
26 -22 -2 71.24 28.59
-4 26 -2 75.75 38.57
-26 22 -2 24.82 30.41
26 -22 -1 61.18 26.01
-4 26 -1 104.94 39.27
-26 22 -1 90.18 36.89
-26 22 0 34.26 18.62
26 -22 0 23.81 11.96
-4 26 1 68.13 35.99
-26 22 1 36.63 28.76
-26 22 1 83.4 24.68
-4 26 2 65.23 30.07
-26 22 2 11.36 26.44
-26 22 3 2.07 25.89
-4 26 3 -34.9 34.56
-4 26 3 4.29 25.95
-26 22 3 -17.82 20.72
-22 -4 4 31.79 27.72
-4 26 4 35.98 31.32
-26 22 4 13.3 21.32
-22 -4 5 36.71 26.49
-26 22 5 110.65 41.22
26 -21 -5 59.07 40.84
-26 21 -5 32.01 40.07
-26 21 -4 67.98 41.92
26 -21 -4 16.19 26.81
-5 26 -4 55.88 41.34
-26 21 -3 47.32 39.47
26 -21 -3 43.58 23.1
-5 26 -3 37.28 31.49
26 -21 -2 143.95 36.97
-5 26 -2 187.08 45.25
-26 21 -2 159.31 50.31
26 -21 -1 62.14 24.92
-5 26 -1 61.41 30.4
-26 21 -1 11.92 29.78
26 -21 0 77.98 20.09
-5 26 0 104.66 34.5
-26 21 0 50.65 34.55
-26 21 0 117.18 27.65
-5 26 1 18.54 22.68
-26 21 1 73.19 34.66
-26 21 1 73.45 24.91
-26 21 2 54.66 33.42
-5 26 2 155.18 39.69
-5 26 2 208.51 47.72
-26 21 2 113.87 29.99
-5 26 3 34.52 30.46
-26 21 3 43.67 29.79
-5 26 3 35.12 29.77
-26 21 3 26.38 24.88
-21 -5 4 52.37 25.56
-5 26 4 -23.45 29.62
-26 21 4 17.9 25.64
-21 -5 5 0.02 23.24
-26 21 5 30.6 24.46
6 -26 -5 24.39 25.25
26 -20 -5 68.65 38.15
-26 20 -5 -1.74 34.17
20 6 -4 11.09 21.6
-6 26 -4 1.09 24.83
26 -20 -4 -18.87 23.6
-6 26 -4 69.8 40.38
-26 20 -3 -5.35 32.69
26 -20 -3 30.13 27.52
-6 26 -3 45.46 29.13
-26 20 -2 33.07 30.53
26 -20 -2 9.33 17.18
-6 26 -2 -16.07 25.44
26 -20 -1 23.26 19.63
-6 26 -1 1.04 27.92
-26 20 -1 27.15 30.4
-26 20 0 64.41 23.75
-6 26 0 116.48 40.25
-26 20 0 38.27 31.41
-26 20 1 -45.66 20.48
-6 26 1 -17.78 24.97
-26 20 2 -17.25 26.99
-6 26 2 28.78 30.96
-6 26 2 19.88 24.09
-26 20 2 15.83 15.69
-6 26 3 12.14 26.69
-26 20 3 8.15 31.3
-6 26 3 13.11 28.8
-26 20 3 35.54 24.22
-6 26 4 -28.25 26.27
-26 20 4 -30.19 24.92
-20 -6 5 -2.7 19.85
-6 26 5 35.56 43.3
-26 20 5 15.23 27.16
7 -26 -5 14.77 18.53
26 -19 -5 57.29 34.58
-26 19 -5 16.44 36.76
-7 26 -4 95.76 35.52
19 7 -4 39.59 22.52
26 -19 -4 73.34 37.38
-26 19 -4 110 47.37
-7 26 -4 40.37 30.85
-7 26 -3 14.15 26.35
-26 19 -3 28.64 34.82
26 -19 -3 -27.74 23.02
-7 26 -3 33.78 29.33
-26 19 -2 33.32 36.62
26 -19 -2 32.09 26.47
-7 26 -2 87.29 37.35
-26 19 -1 156.52 48.19
-7 26 -1 193.33 46.85
26 -19 -1 192.39 34.12
-26 19 0 229.86 49.55
-7 26 0 187.05 45.55
-26 19 0 226.77 35.68
-26 19 1 171.41 39.73
-7 26 1 149.3 41.7
-7 26 1 207.86 44.83
-26 19 1 154.81 29.57
-7 26 2 5.91 24.43
-26 19 2 96.76 34.34
-7 26 2 -2.55 26.9
-26 19 2 68.14 24.88
-26 19 3 24.17 25.77
-7 26 3 10.64 26.93
-26 19 3 48.84 25.84
-7 26 4 39.35 30.65
-26 19 4 77.26 29.81
-19 -7 5 16.44 25.68
-7 26 5 26.88 40.35
-26 19 5 15.94 26.16
-8 26 -5 38.19 38.61
8 -26 -5 14.33 23.36
26 -18 -5 6.09 26.99
-26 18 -5 32.69 36.55
18 8 -4 -5.93 18.78
26 -18 -4 -4.88 23.52
-26 18 -4 14.3 30.36
-8 26 -4 66.63 29.41
-8 26 -3 44.09 27.05
-26 18 -3 -0.59 27.86
26 -18 -3 -23.47 22.92
-8 26 -3 24.85 26.13
-26 18 -2 15.26 27.4
26 -18 -2 55.19 30.19
-8 26 -2 20.98 23.91
-26 18 -1 58.51 37.13
-8 26 -1 69.27 12.84
-8 26 -1 141.44 43.99
-26 18 0 75.82 24.18
-26 18 0 47 30.97
-8 26 0 55.67 31.66
-8 26 0 83.66 32.56
-26 18 1 76.44 24.97
-8 26 1 129.81 33.01
-26 18 1 129.9 42.09
-8 26 1 77.31 32.29
-8 26 2 41.31 26.35
-26 18 2 47.18 33.59
-8 26 2 24.73 29.76
-26 18 2 51.36 21.98
-8 26 3 57.06 31.37
-26 18 3 10.61 32.06
-26 18 3 45.6 26.15
-8 26 4 -4.34 25.37
-8 26 4 31.45 29.79
-26 18 4 37.15 28.53
-18 -8 5 -13.42 21.65
-8 26 5 7.56 32.54
-26 18 5 48.05 33.22
-26 17 -5 8.75 29.6
-9 26 -5 33.16 38.31
9 -26 -5 1.67 19.46
-9 26 -4 62.32 37.92
-9 26 -4 44.18 29.09
17 9 -4 71.41 27.78
26 -17 -4 52.45 27.39
-26 17 -4 39.96 39.91
-9 26 -3 68.55 35.82
-26 17 -3 87.74 44.52
26 -17 -3 41.94 26.37
-9 26 -3 80.96 34.91
-9 26 -2 -9.15 23.63
-26 17 -2 -46.53 36.2
26 -17 -2 2.88 16.52
-9 26 -2 8.67 30.37
-9 26 -1 233.79 44.3
-26 17 -1 173.88 48.04
-9 26 -1 180.74 47.63
-9 26 -1 223.74 19.4
-26 17 0 19.57 17.65
-26 17 0 60.25 32.83
-9 26 0 30.26 23.01
-9 26 0 31.72 14.55
-9 26 0 46.3 28.49
-9 26 1 243.59 45.3
-9 26 1 203.15 44.97
-26 17 1 236.15 49.65
-26 17 1 216.23 35.8
-26 17 2 6.07 22.67
-9 26 2 17.83 20.15
-26 17 2 15.51 16.1
-9 26 3 19.26 23.4
-26 17 3 86.59 30.46
-26 17 3 71.36 34.4
-9 26 4 50.14 28.01
-26 17 4 11.37 24.91
-9 26 5 -13.42 31.78
-26 17 5 -6.58 23.31
-10 26 -5 51.65 39.67
10 -26 -5 41.06 25.55
-26 16 -5 34.57 37.36
-10 26 -4 -6.66 28.92
16 10 -4 9.72 23.33
26 -16 -4 34.64 22.59
-26 16 -4 22.64 30.76
-10 26 -3 -3.77 21.37
16 10 -3 -7.59 17.79
26 -16 -3 18.78 22.72
-26 16 -3 -28.5 32.63
-10 26 -3 -14.08 31.34
-10 26 -2 33.53 21.79
-26 16 -2 86.04 39.22
-10 26 -2 38.98 32.61
-10 26 -1 74.97 30.4
-26 16 -1 114.18 40.15
-10 26 -1 91.17 12.57
-10 26 -1 122.97 38.4
-26 16 0 19.79 21.02
-10 26 0 8.09 26.04
-26 16 0 -30.7 31.24
-10 26 0 43.65 16.45
-10 26 0 31.12 26.88
-10 26 1 114.44 35.47
-26 16 1 129.96 43.24
-10 26 1 141.45 27.81
-10 26 1 120.09 35.85
-26 16 1 121.99 29.64
-10 26 2 5.94 16.95
-26 16 2 42.58 31.57
-10 26 2 27.65 27.19
-26 16 2 29.94 18.52
-26 16 3 32.06 29.17
-10 26 3 41.43 28.9
-10 26 3 -8.47 23.03
-26 16 3 54.28 23.35
-10 26 4 25.82 28.08
-10 26 4 28.7 25.09
-26 16 4 -31.19 23.26
-10 26 5 -23.9 32.25
-26 16 5 -30.32 26.82
-11 26 -5 2.35 31.37
11 -26 -5 13.47 18.27
-26 15 -5 31.7 39.64
-26 15 -4 57.45 34.28
-11 26 -4 73.12 46.32
11 -26 -4 27.12 21.42
15 11 -4 13.93 18.92
-11 26 -3 32.19 24.16
15 11 -3 46.11 24.8
-26 15 -3 -39.3 30.4
-11 26 -3 46.02 33.15
-11 26 -2 190.88 44.15
-11 26 -2 237.46 51.08
-26 15 -2 273.6 55.98
-26 15 -1 -49.56 35.37
-11 26 -1 12.38 7.06
-11 26 -1 -25.54 26.33
-11 26 -1 32.76 24.1
-11 26 0 24.5 20.38
-26 15 0 17.69 29.98
-11 26 0 -9.03 11.37
-26 15 1 3.41 14.34
-11 26 1 -13.01 16.72
-26 15 1 9.08 26.93
-11 26 1 -7.72 24.57
-11 26 2 212.67 44.61
-11 26 2 211.98 38.81
-26 15 2 221.25 37.44
-26 15 2 209.48 45.51
-26 15 3 6.28 25.86
-11 26 3 5.16 22.7
-11 26 3 -10.11 22.17
-26 15 3 26.12 21.17
-11 26 4 40.61 30.38
-11 26 4 58.99 31.6
-26 15 4 50.91 27.58
-11 26 5 42.05 35.03
-26 15 5 -42 27.66
12 -26 -5 11.82 18.28
-12 26 -5 26.82 33.49
-26 14 -5 38.7 36.66
-12 26 -4 -29.21 35.13
-26 14 -4 31.25 34.05
12 -26 -4 16.2 27.96
14 12 -4 11.77 20.16
-12 26 -3 -3.2 26.51
14 12 -3 -7.94 18.08
-26 14 -3 0.64 28.85
-12 26 -2 41.62 23.79
-26 14 -2 -20.71 28.62
-12 26 -2 8.15 24.49
-12 26 -1 12.73 22.35
-26 14 -1 82.68 36.61
-12 26 -1 52.25 30.81
-12 26 0 16.5 13.66
-26 14 0 4.55 27.84
-12 26 0 16.93 22.87
-26 14 1 -1.22 15.78
-12 26 1 13.94 16.91
-12 26 1 14.52 20.91
-26 14 1 1.69 25.34
-26 14 2 18.46 17.39
-26 14 2 26.17 24.93
-12 26 2 3.49 18.45
-12 26 2 15.74 25.47
-26 14 3 -15.97 24.1
-12 26 3 42.14 24.53
-12 26 3 48.89 26.19
-26 14 3 25.66 22.38
-12 26 4 6.49 23.77
-26 14 4 1.22 25.29
-12 26 4 41.84 29.17
-12 26 5 49.95 35.44
-26 14 5 17.16 28.35
13 -26 -5 34.7 26.64
-13 26 -5 -9.55 31.02
-26 13 -5 83.48 44.46
-13 26 -4 42.16 36.79
13 -26 -4 -12.12 19.3
-26 13 -4 21.8 32.03
13 13 -4 0.02 24.99
-26 13 -3 49.61 34.18
-13 26 -3 68.26 36.28
13 13 -3 69.43 28.28
13 13 -2 51.9 28.47
-26 13 -2 40.34 34.81
-13 26 -2 59.27 31.06
-13 26 -1 380.84 59.11
-13 26 -1 305.65 20.54
-26 13 -1 376.28 66.68
-13 26 0 12.65 10.35
-26 13 0 46.11 27.46
-13 26 1 304.48 38.23
-13 26 1 283.2 47.87
-26 13 1 357.39 56.65
-26 13 1 377.24 45.6
-26 13 2 74.81 23.56
-26 13 2 59.02 26.23
-13 26 2 22.85 19.98
-13 26 2 -11.02 27.86
-13 26 3 35.43 23.91
-13 26 3 46.86 29.41
-26 13 3 78.41 35.04
-26 13 3 63.08 26.86
-13 26 4 -23.26 24.96
-13 26 4 -33.09 30.44
-26 13 4 16.57 22.49
-13 26 5 50.98 33.06
-26 13 5 8.58 23.31
-26 12 -5 10.69 37.21
-14 26 -5 25.67 31.43
14 -26 -5 3 18.82
-14 26 -4 51.8 38.36
14 -26 -4 30.21 21.77
12 14 -4 74.56 36.01
-26 12 -4 28.73 38.22
-14 26 -3 -43.77 33.93
14 -26 -3 -8.77 19.7
-26 12 -3 -0.59 30.51
12 14 -3 7.47 21.69
-26 12 -2 59.78 41.7
12 14 -2 112.4 35.36
-14 26 -2 104.47 48.58
-14 26 -1 0.4 4.77
-26 12 -1 11.5 31.58
-26 12 0 28.18 27.56
-14 26 0 17.21 12.06
-14 26 0 20 28.47
-26 12 1 10.81 15.91
-26 12 1 -1.48 25.79
-14 26 1 8.92 13.32
-14 26 1 19.72 21.94
-26 12 2 23.33 15.91
-26 12 2 5.68 24.17
-14 26 2 47.46 22.67
-14 26 2 59.59 28.74
-26 12 3 38.22 27.09
-14 26 3 25.86 20.3
-14 26 3 -36.78 26.82
-26 12 3 43.38 24.78
-14 26 4 70.31 30.74
-26 12 4 56.98 29.51
-14 26 5 36.04 30.48
-26 12 5 54.5 29.11
15 -26 -5 29.39 22.33
-15 26 -5 -11.57 30.8
-15 26 -4 22.82 31.26
15 -26 -4 0.05 17.59
11 15 -4 51.62 29.86
-26 11 -4 -7.5 31.98
-15 26 -3 63.51 41
11 15 -3 -3.05 20.83
-26 11 -3 33.81 32.63
15 -26 -3 11.39 20.52
-15 26 -2 28.23 27.74
-26 11 -2 -21.48 34.03
11 15 -2 -8.33 21.49
-26 11 -1 108.23 44.31
11 15 -1 165.81 41.46
-15 26 -1 149.11 14.58
-15 26 -1 177.03 41.97
-26 11 0 46.8 33.65
-15 26 0 -7.5 11.05
-15 26 0 11.62 27.33
-26 11 1 194.18 46.3
-15 26 1 125.29 26.61
-15 26 1 165.04 40
-26 11 1 179.8 31.88
-26 11 2 10.91 15.99
-15 26 2 18.82 21.73
-26 11 2 -4.72 25.6
-15 26 2 38.2 25.93
-26 11 3 -21.47 20.09
-15 26 3 7.57 23.59
-15 26 3 3.66 20.77
-26 11 3 60.23 32.02
-15 26 4 63.93 27.59
-26 11 4 14.75 23.67
-15 26 5 8.1 28.51
-26 11 5 -12.13 22.84
16 -26 -5 3.71 20.77
-16 26 -5 22.95 32.48
-26 10 -5 45.46 39.89
-26 10 -4 19.81 34.62
-16 26 -4 40.74 33.74
16 -26 -4 27.39 23.2
10 16 -4 27.15 26.89
-16 26 -3 45.58 32.04
10 16 -3 17.68 24.52
-26 10 -3 90.13 43.54
16 -26 -3 15.6 20.54
-16 26 -2 16.1 26.31
10 16 -2 11.83 21.88
-26 10 -2 -32.91 30.59
-26 10 -1 84.48 36.1
10 16 -1 162.34 40.06
-16 26 -1 88.06 12.18
-26 10 0 36.74 31.31
-16 26 0 23.75 13.01
-16 26 0 52.73 32.23
-26 10 1 54.29 21.69
-16 26 1 135.12 26.53
-26 10 1 102.09 38.29
-16 26 1 116.65 35.33
-16 26 2 5.52 23.22
-26 10 2 12.27 17.41
-26 10 2 34.36 28.27
-16 26 2 -24.24 21.48
-26 10 3 0.02 17.45
-16 26 3 10.54 26.82
-16 26 3 5.24 22.83
-26 10 3 6.77 21.13
10 16 4 8.66 34.33
-16 26 4 31.32 27.6
-26 10 4 -14.04 24.18
-16 26 5 53.89 31.76
-26 10 5 -2.5 22.54
17 -26 -5 -26.89 20.79
-26 9 -5 -3.88 32.87
-17 26 -5 -10.6 37.11
17 -26 -4 13.84 23.65
-26 9 -4 105.22 46.12
-17 26 -4 129.22 44.1
9 17 -4 55.02 31.17
-17 26 -3 -7.71 28.13
17 -26 -3 68.63 30.11
-26 9 -3 21.01 37.03
17 -26 -2 148.98 40.54
9 17 -2 157.24 38.61
-26 9 -2 163.16 48.57
-17 26 -2 252.09 54.38
-17 26 -1 23.23 8.51
-17 26 -1 55.58 31.82
9 17 -1 2.67 22.64
-26 9 -1 -15.65 27.28
-17 26 0 43.37 30.16
9 17 0 20.22 29.39
-26 9 0 79.38 34.4
-17 26 0 39.75 13.61
-17 26 1 1.39 22.49
-26 9 1 -12.9 18.06
-17 26 1 13.28 14.83
-26 9 1 36.36 29.31
-26 9 2 197.83 45.97
-17 26 2 164.84 33.28
-17 26 2 193.89 42.21
-26 9 2 159.25 33.9
-26 9 3 55 24.7
-17 26 3 44.08 25.95
-26 9 3 69.5 29.58
9 17 3 60.53 37.48
-17 26 3 64.11 27.64
-26 9 4 -13.11 20.17
-17 26 4 20.81 26.89
9 17 4 -33.96 38.75
-17 26 5 -17.12 30.01
-26 9 5 -39.44 30.19
18 -26 -5 -34.37 28.95
-26 8 -5 27.19 33.94
-18 26 -5 27.17 38.23
18 -26 -4 58.49 25.62
8 18 -4 18.65 26.94
-26 8 -4 -22.31 40.09
-26 8 -3 -4.19 28.84
-18 26 -3 -8.19 27.29
18 -26 -3 -25.43 19.48
8 18 -3 -11.18 21.52
-18 26 -2 -14.21 25.31
18 -26 -2 50.08 22.7
8 18 -2 59.39 33.53
-26 8 -2 4.04 29.13
8 18 -1 129.95 40.8
18 -26 -1 187.09 39.13
-26 8 -1 187.9 50.86
-18 26 -1 214.11 48.62
-18 26 -1 122.87 16.12
-18 26 0 52.64 34.46
8 18 0 -12.92 33.34
-18 26 0 14.41 13.58
-26 8 0 -14.34 28.25
-18 26 1 149.52 41.54
8 18 1 181.96 51.88
-26 8 1 120.64 35.88
-18 26 1 140.1 26.69
-26 8 2 -16 18.9
8 18 2 -5.31 30.66
-18 26 2 -29.33 21.14
-26 8 2 18.08 24.27
-18 26 2 -17.49 15.84
-26 8 3 -2.62 18.06
8 18 3 -46.42 30.44
-18 26 3 -8.56 26.7
-18 26 3 32.42 24.82
-26 8 4 56.14 28.79
8 18 4 30.64 39.64
-18 26 4 61.44 31.81
-18 26 5 34.03 31.19
-26 8 5 18.81 22.35
19 -26 -5 29.55 28.06
-19 26 -5 71.78 44.26
19 -26 -4 61.86 33.72
-26 7 -4 11.42 38.14
-19 26 -4 16.28 30.99
7 19 -4 20.85 29.36
7 19 -3 121.64 41
19 -26 -3 88 31.89
-26 7 -3 45.03 35.41
-19 26 -3 127.48 42.04
7 19 -2 60.8 29.41
-26 7 -2 63.32 37.25
-19 26 -2 97.13 38.09
19 -26 -2 121.04 34.88
-19 26 -1 29.43 10.03
-26 7 -1 46.28 31.19
-19 26 -1 40.91 31.48
19 -26 -1 38.46 23.6
7 19 -1 30.54 27
-19 26 0 25.38 27.57
19 -26 0 56.15 19.49
7 19 0 67.04 36.65
-26 7 0 62.06 34.36
-19 26 0 62.7 17.84
-19 26 1 89.75 36.14
7 19 1 40.12 34.9
-26 7 1 58.09 32.34
-19 26 1 11.83 17.9
-26 7 2 101.31 30.05
-19 26 2 121.04 36.9
-26 7 2 56.14 27.94
7 19 2 163.78 48.73
-19 26 2 97.41 25.15
-26 7 3 31.48 20.16
7 19 3 64.04 36.68
-19 26 3 75.99 33
-19 26 3 117.22 34.31
-26 7 4 -7.95 20.64
7 19 4 -67.45 35.24
-19 26 4 -30.25 22.79
-26 7 5 5.93 20.83
-19 26 5 17.74 31.2
20 -26 -5 46.38 36.57
-20 26 -5 -11.01 32.3
-26 6 -4 -1.35 31.21
20 -26 -4 67.34 30.98
-20 26 -4 54.67 33.28
6 20 -4 84.5 37.18
-26 6 -3 13.11 30
20 -26 -3 -4.99 24.54
-20 26 -3 43.05 30.66
6 20 -3 71.46 35.17
20 -26 -2 57.53 29.12
-20 26 -2 91.08 39.41
-26 6 -2 63.47 27.4
6 20 -2 38.17 29.62
-20 26 -1 4.33 29.42
20 -26 -1 -2.89 21.57
6 20 -1 25.08 27.93
-26 6 -1 42.29 33.04
6 20 0 -9.37 26.25
20 -26 0 -1.66 14.83
-20 26 0 -10.15 30.88
-26 6 0 15.28 25.42
-20 26 0 33.19 15.85
6 20 1 67.35 42.44
-20 26 1 17.29 29.09
20 -26 1 36.66 14.87
-26 6 1 28.76 31.87
-20 26 1 26.68 16.25
-26 6 2 31.12 22.85
6 20 2 88.5 38.48
-20 26 2 45.47 34.86
-20 26 2 69.13 23.48
-26 6 3 13.6 17.36
6 20 3 5.3 32.58
-20 26 3 59.5 27.72
-20 26 3 21.96 20.1
-26 6 4 105.15 35.35
6 20 4 36.15 40.74
-20 26 4 -0.41 24.02
-26 6 5 8.44 24.95
-20 26 5 66.44 36.78
21 -26 -5 29.12 27.78
-21 26 -5 58.35 43.53
-26 5 -4 57.58 35.3
21 -26 -4 -3.06 26.49
5 21 -4 -12.14 28.7
-21 26 -4 6.38 30.61
21 -26 -3 -12.48 23.08
-21 26 -3 -31.44 33.84
5 21 -3 9.25 26.13
-26 5 -3 -18.38 35.4
-26 5 -2 14.2 29.04
21 -26 -2 58.07 31.28
-21 26 -2 70.02 37.69
5 21 -2 74.21 35.45
-26 5 -1 58.72 32.15
-21 26 -1 111.4 39.54
21 -26 -1 107.96 33.12
5 21 -1 69.61 29.33
5 21 0 395.82 62.83
21 -26 0 374.3 44.74
-26 5 0 379.15 61.14
-21 26 0 433.68 41.77
-21 26 0 371.24 61.05
-21 26 1 106.74 35.81
5 21 1 110.25 41.93
21 -26 1 44.22 17.35
-21 26 1 99.11 25.93
-26 5 1 88.07 37.07
-26 5 2 26.38 21.69
-21 26 2 81.51 34.3
-21 26 2 44.42 21.66
-26 5 3 18.61 19.82
5 21 3 19.98 26.09
-21 26 3 28.47 29.69
-21 26 3 14.02 18.46
-26 5 4 31.13 24.37
5 21 4 22.18 36.32
-21 26 4 32.63 32.3
-26 5 5 15.87 19.83
-21 26 5 7.63 31.42
22 -26 -5 12.49 27.83
-22 26 -5 2.56 32.83
22 -26 -4 61.08 36.6
4 22 -4 -29.52 33.86
-22 26 -4 56.14 42.45
22 -26 -3 113.5 41.58
-26 4 -3 105.56 44.47
4 22 -3 21.23 29.68
-22 26 -3 116.56 44.07
-26 4 -2 -3.92 26.78
22 -26 -2 11.95 22.37
4 22 -2 28.48 22.85
-22 26 -2 -12.29 32.96
4 22 -1 56.67 31.55
22 -26 -1 86.66 26.85
-22 26 -1 70.19 34.58
-26 4 -1 34.98 30.22
22 -26 0 2.07 12.23
-22 26 0 -19.14 28.79
4 22 0 31.7 27.74
-26 4 0 24.15 28.44
-22 26 0 -14.97 15.61
4 22 1 6.34 28.24
-22 26 1 54.32 35.05
22 -26 1 44.06 16.59
-22 26 1 80.25 24.62
4 22 2 -12.46 27.41
-22 26 2 -1.32 15.93
-26 4 3 -9.04 19.16
-22 26 3 3.67 27.01
-22 26 3 56.75 27.52
-26 4 4 2.49 18.64
4 22 4 54.82 39.08
-22 26 4 -6.86 26.29
-26 4 5 24.71 26.18
-22 26 5 28.86 32.35
23 -26 -5 70.14 35.63
-23 26 -5 33.74 40.32
23 -26 -4 53.59 36.18
3 23 -4 0.3 29.23
-23 26 -4 44.95 39.15
23 -26 -3 128.8 42.19
3 23 -3 72.38 32.79
-23 26 -3 109.23 43.57
23 -26 -2 136.94 39.24
3 23 -2 68.61 33
-23 26 -2 99.77 43.55
-26 3 -2 84.31 39.29
-26 3 -1 88.91 32.41
23 -26 -1 56.02 21.69
3 23 -1 53.54 34.41
-23 26 -1 34.77 32
23 -26 0 27.51 15.19
3 23 0 44.59 29.47
-23 26 0 14.91 25.8
-23 26 0 20.88 15.05
3 23 1 127.96 41.11
23 -26 1 58.82 15.91
-23 26 1 61.04 32.65
-23 26 1 46.49 20.92
3 23 2 62.21 37.15
-23 26 2 27.96 25.25
-23 26 2 91.96 28.56
-26 3 3 107.83 30.94
3 23 3 88.69 36.64
-23 26 3 76.32 36.52
-23 26 3 126.75 33.2
-26 3 4 44.77 27.02
3 23 4 58.38 40.94
-23 26 4 22.67 22.59
-26 3 5 23.32 25.07
-23 26 5 39.34 31.16
-24 26 -5 -82.49 46.61
24 -26 -5 62.48 37.04
24 -26 -4 41.55 32.48
2 24 -4 21.97 32.16
-24 26 -4 2.79 32.08
24 -26 -3 1.17 23.97
2 24 -3 -20.59 24.27
-24 26 -3 21.39 36.1
24 -26 -2 106.53 37.44
2 24 -2 113.77 36.56
-24 26 -2 34.92 34.86
24 -26 -1 178.86 37.67
2 24 -1 137.71 41.84
-24 26 -1 123.78 44.59
-24 26 0 14.49 16.03
24 -26 0 7.26 13.67
2 24 0 41.98 29.83
2 24 1 88.87 40.8
-24 26 1 123.01 36.35
-24 26 1 75.88 25.49
-24 26 2 67.29 36.42
-24 26 2 63 23.77
-26 2 3 49.84 26.21
2 24 3 66.03 30.94
-24 26 3 17.06 28.32
-24 26 3 50.7 26.47
-26 2 4 22.63 20.99
2 24 4 -18.76 33.06
-24 26 4 49.08 28.22
-26 2 5 4.28 22.05
-24 26 5 16.34 24.36
-25 26 -5 -7.12 36.94
25 -26 -4 11.9 31.78
1 25 -4 35.17 36.21
-25 26 -4 -30.94 40.43
25 -26 -3 48.55 35
1 25 -3 50.16 35.2
-25 26 -3 -39.84 29.87
25 -26 -2 70.98 31.85
1 25 -2 34.27 31.28
-25 26 -2 -32.76 31.64
25 -26 -1 36.64 22.37
1 25 -1 -15.08 27.37
-25 26 -1 38.36 31.71
-25 26 0 30.44 19.31
25 -26 0 7.25 15.43
1 25 0 67.01 33.33
-25 26 0 -0.15 32.19
1 25 1 -31.8 26.42
-25 26 1 6.34 14.93
1 25 2 54.56 31.72
-25 26 2 72.87 37.82
-25 26 2 34.43 23.25
1 25 3 45.96 29.27
-25 26 3 15.88 25.29
-25 26 3 25.48 21.62
-26 1 4 61.89 29.46
1 25 4 13.24 32.06
-25 26 4 31.32 25.28
-26 1 5 24.01 27.11
-26 26 -5 19.3 37.21
26 -26 -4 4.65 26.34
0 26 -4 -30.57 38.32
-26 26 -4 21.72 36.34
26 -26 -3 16.16 27.78
0 26 -3 30.59 28.19
-26 26 -3 3.8 38.19
26 -26 -2 42.36 25.61
0 26 -2 13.89 24.28
-26 26 -2 31.57 35.74
26 -26 -1 0.74 19.79
0 26 -1 30.69 34.25
-26 26 -1 33.39 32.9
26 -26 0 162.8 29.72
0 26 0 200.49 49.79
-26 26 0 107.73 41.82
-26 26 0 165.09 31.37
0 26 1 34.73 28.47
-26 26 1 40.61 31.33
-26 26 1 -8.23 16.74
0 26 2 45.95 33.17
-26 26 2 33.18 29
-26 26 2 31.41 20.03
0 26 3 3.3 28.27
-26 26 3 -13.88 22.02
-26 26 3 20.64 29.07
-26 0 4 -30.9 26.29
0 26 4 40.96 38.28
-26 26 4 0.3 26.5
-26 0 5 -5.8 22.61
-27 26 -5 -17.91 50.4
-27 26 -4 12.7 34.44
27 -26 -4 39.25 37.79
-1 27 -4 59.43 47.87
27 -26 -3 111.99 42.19
-1 27 -3 87.6 41.18
-27 26 -3 -9.57 34.89
27 -26 -2 29.96 28.03
-1 27 -2 24.5 27.04
-27 26 -2 -3.98 36.63
27 -26 -1 8.39 16.74
-1 27 -1 70.57 34.96
-27 26 0 40.47 23.05
27 -26 0 27.33 16.93
-1 27 0 67.5 41.9
-27 26 0 108.87 46.16
-1 27 1 -13.7 30.55
-27 26 1 67.91 37.79
-27 26 1 11.56 16.19
-1 27 2 -11.62 26.31
-27 26 2 45.12 35.59
-27 26 2 60.59 24.68
-1 27 3 49.02 35.18
-27 26 3 30.13 21.63
-27 26 3 66.79 40.35
-26 -1 4 96.89 37.11
-1 27 4 56.46 47.3
-27 26 4 -0.74 25.07
-26 -1 5 75.52 39.36
-27 25 -5 44.77 44.12
-27 25 -4 10.64 40.4
27 -25 -4 -36.36 29.17
-2 27 -4 15.53 33.83
27 -25 -3 0.89 27.3
-2 27 -3 -3.48 35.98
-27 25 -3 47.82 41.3
27 -25 -2 8.22 25.8
-2 27 -2 42.12 32.74
-27 25 -2 -37.08 37.46
27 -25 -1 40.14 22.3
-2 27 -1 95.97 41.74
-27 25 -1 19.09 30.37
-27 25 0 -19.17 17.64
27 -25 0 4.29 13.32
-2 27 0 -8.79 26.87
-27 25 0 -3.06 30.4
-2 27 1 74.65 35.5
-27 25 1 57.35 35.88
-27 25 1 13.44 15.89
-2 27 2 91.14 39.69
-27 25 2 32.93 37.06
-27 25 2 56.33 22.87
-27 25 3 7.4 27.96
-2 27 3 -13.44 39.96
-2 27 3 9.95 26.55
-27 25 3 -4.07 20.18
-2 27 4 -12.61 29.31
-27 25 4 13.87 25.27
-25 -2 5 -9.88 24.96
-27 24 -5 35.58 49.11
-27 24 -4 -23.41 33.81
27 -24 -4 29.5 34.16
27 -24 -3 63.56 31.86
-3 27 -3 109.2 44.35
-27 24 -3 13.2 37.05
27 -24 -2 40.37 27.3
-3 27 -2 34.45 34.49
-27 24 -2 22.03 38.33
27 -24 -1 60.5 25.43
-3 27 -1 50.3 36.67
-27 24 -1 27.61 31.67
-27 24 0 17.26 17.22
27 -24 0 4.34 12.78
-3 27 0 -32.03 27.77
-27 24 0 15.09 26.46
-3 27 1 49.73 30.46
-27 24 1 51.82 33.72
-27 24 1 18.89 17.07
-3 27 2 73.8 35.53
-27 24 2 17.1 27.86
-27 24 2 47.48 23.02
-27 24 3 47.3 36.42
-3 27 3 -22.06 35.31
-3 27 3 27.51 36.99
-27 24 3 18.01 23.05
-3 27 4 9.15 31.01
-27 24 4 -3.25 23.65
-24 -3 5 0.03 24.55
-27 23 -5 38.95 42.81
-27 23 -4 52.39 44.88
27 -23 -4 20.41 28.88
-4 27 -4 -7.03 33.49
-27 23 -3 20.37 38.74
27 -23 -3 -6.44 21.71
-4 27 -3 60.42 36.65
27 -23 -2 162.8 35.62
-4 27 -2 166.14 45.05
-27 23 -2 158.49 54.1
27 -23 -1 -0.72 15.15
-4 27 -1 -10 26.7
-27 23 -1 11.31 29.22
27 -23 0 80.25 21.09
-4 27 0 89.49 37.7
-27 23 0 88.14 39.4
-27 23 0 128.47 30.85
-4 27 1 14.98 29.07
-27 23 1 25.12 25.48
-27 23 1 24.02 20.21
-4 27 2 173.42 42.75
-27 23 2 185.63 36.07
-27 23 2 164.3 48.75
-4 27 3 45.83 39.02
-27 23 3 -0.09 27.19
-4 27 3 -8.89 23.93
-27 23 3 7.33 18.67
-4 27 4 47.9 37.36
-27 23 4 16.48 23.73
-23 -4 5 13.62 21.46
27 -22 -5 16.93 35.71
-27 22 -5 -15.71 35.32
-5 27 -4 6.92 23.87
-27 22 -4 -5.94 32.5
27 -22 -4 -10.03 32.37
-5 27 -4 2.86 33.31
-27 22 -3 -10.87 30.29
27 -22 -3 41.53 31.25
-5 27 -3 -29.86 31.28
-27 22 -2 41.46 31.88
27 -22 -2 29.39 21.19
-5 27 -2 49.9 32.86
27 -22 -1 35.06 27.57
-5 27 -1 50.58 30.58
-27 22 -1 -32.6 32.5
-27 22 0 9.79 16.65
-5 27 0 -8.77 26.97
-27 22 0 -6.1 29.24
-27 22 1 1.64 16.32
-5 27 1 51.36 32.85
-27 22 1 38.06 28.63
-5 27 2 6.52 30.69
-27 22 2 41.77 34.96
-5 27 2 50.52 31.83
-27 22 2 34.06 17.03
-5 27 3 59.26 38.54
-27 22 3 70.96 36.26
-5 27 3 -5.57 30.43
-27 22 3 77.65 32.22
-5 27 4 -60.83 42.88
-27 22 4 -15.25 24.87
-22 -5 5 65.07 31.05
-27 22 5 28.75 30.32
6 -27 -5 -28.13 27.52
27 -21 -5 -37.29 35.44
-27 21 -5 12.79 36.65
-6 27 -4 26.61 26.79
-27 21 -4 1.24 33.72
27 -21 -4 44.1 30.94
-6 27 -4 15.27 33.31
-27 21 -3 20.56 34.11
27 -21 -3 2.85 23.57
-6 27 -3 36.23 35.54
-27 21 -2 136.06 49.09
27 -21 -2 98.33 30.57
-6 27 -2 61.53 32.15
-27 21 -1 31.89 31.64
27 -21 -1 50.9 22.38
-27 21 0 9.57 16.98
-6 27 0 -3.25 25.02
-27 21 0 26.1 31.03
-27 21 1 26.15 18.68
-27 21 1 103.49 44.55
-6 27 1 55.05 33.2
-27 21 2 139.65 46.13
-6 27 2 81.42 34.61
-6 27 2 37.57 28.03
-27 21 2 71.58 25.52
-27 21 3 34.38 28.69
-6 27 3 -26.05 24.95
-6 27 3 15.85 28.07
-27 21 3 30.25 22.45
-6 27 4 57.35 36.08
-27 21 4 23.28 24.87
-21 -6 5 -12.94 24.1
-6 27 5 -30.77 35.96
-27 21 5 -9.46 24.56
7 -27 -5 -16.25 23.1
27 -20 -5 -28.12 34.83
-7 27 -4 100.69 39.43
27 -20 -4 -9.13 24.41
-27 20 -4 14.21 37.79
20 7 -4 -16.67 17.99
-7 27 -4 28.29 35.77
-7 27 -3 -20.58 24.87
27 -20 -3 13.88 21
-7 27 -3 8.33 28.82
-27 20 -3 36.46 35.05
-27 20 -2 -27.63 33.48
27 -20 -2 19.1 20.52
-27 20 -1 57.9 33.8
27 -20 -1 17.5 17.75
-7 27 -1 34.68 28.9
-27 20 0 133.7 43.91
-27 20 0 98.95 26.75
-7 27 0 45.51 31.85
-27 20 1 -0.56 13.86
-27 20 1 14.91 32.09
-7 27 1 69.33 32.92
-7 27 1 -6.69 27.88
-7 27 2 68.13 33.83
-27 20 2 41.02 29.84
-7 27 2 31.25 24.57
-27 20 2 -2.32 19.48
-27 20 3 40.96 32.1
-7 27 3 29.02 29.7
-27 20 3 22.7 21.33
-7 27 4 -9.52 27.51
-27 20 4 -19.34 21.59
-7 27 5 132.97 50.78
-27 20 5 3.44 25.05
8 -27 -5 5.2 21.08
27 -19 -5 32.68 30.69
-27 19 -5 95.97 51.51
19 8 -4 28.36 22.14
27 -19 -4 12.88 24.2
-27 19 -4 -62 40.82
-8 27 -4 -7.56 32.37
-8 27 -3 20.91 26.47
-27 19 -3 11.23 35.69
27 -19 -3 -0.88 20.85
-8 27 -3 47.23 35.02
-8 27 -2 112.56 39.48
-27 19 -2 77.64 42.28
27 -19 -2 26.83 21.07
-8 27 -2 82.92 38.07
-27 19 -1 20.09 27.95
-8 27 -1 15.61 10.29
-8 27 -1 1.06 24.82
-27 19 0 11.55 17.49
-27 19 0 18.9 30.23
-8 27 0 54.33 30.26
-27 19 1 8.73 17.47
-8 27 1 3.08 22.46
-27 19 1 16.93 23.48
-8 27 1 -32.76 28.56
-8 27 2 80.87 33.91
-27 19 2 27.56 30.26
-8 27 2 49.12 26.39
-27 19 2 68.06 27.19
-8 27 3 -2.8 25.76
-27 19 3 -7.01 28.88
-27 19 3 47.77 24.94
-8 27 4 23.63 29.05
-8 27 4 10.75 28.26
-27 19 4 0.51 26.44
-8 27 5 -10.98 31.68
-27 19 5 0.03 25.45
-27 18 -5 -20.63 34.8
-9 27 -5 -9.31 34.11
9 -27 -5 -10.06 18.51
27 -18 -5 -38.35 35.93
-9 27 -4 58.35 43.4
-9 27 -4 14.44 20.44
18 9 -4 -15.98 24.3
27 -18 -4 74.85 35.37
-27 18 -4 -5.4 31.75
-9 27 -3 78.78 33.04
-27 18 -3 63.89 42.69
27 -18 -3 25.41 21.81
-9 27 -3 39.36 33.32
-9 27 -2 40.82 29.91
-27 18 -2 47.44 35.53
27 -18 -2 4.82 17.13
-27 18 -1 58.01 36.02
-9 27 -1 7.78 26.21
-9 27 -1 5.23 24.3
-27 18 0 152.25 39.41
-9 27 0 221.46 45.78
-27 18 0 180.54 49.55
-9 27 0 182.2 48.34
-9 27 0 199.82 27.9
-27 18 1 34.11 20.45
-9 27 1 49.4 29.19
-27 18 1 51.2 34.53
-9 27 1 22.69 25.1
-27 18 2 23.24 29.69
-9 27 2 41.29 30.72
-27 18 2 -17.74 17.24
-9 27 3 67.1 36.07
-27 18 3 27 25
-27 18 3 98.1 32.27
-9 27 4 -25.85 28.14
-9 27 4 12.22 22.74
-27 18 4 44.32 28.62
-9 27 5 37.79 35.59
-27 18 5 -49.09 31.04
10 -27 -5 -10.28 21.4
-27 17 -5 36.73 41.79
-10 27 -4 36.49 37.84
17 10 -4 13.54 19.38
27 -17 -4 21.84 23.71
-27 17 -4 69.07 43.31
-10 27 -3 7.34 25.67
27 -17 -3 -3.17 23.94
-27 17 -3 -15.55 29.04
-10 27 -3 72.71 36.04
-10 27 -2 27.87 21.73
-27 17 -2 35.43 32.32
-10 27 -2 85.31 41.72
-10 27 -1 33.07 22.83
-27 17 -1 67.68 36.2
-27 17 0 25.21 25.08
-10 27 0 48.93 16.76
-10 27 0 37.06 28.1
-10 27 0 82.22 32.92
-27 17 1 12.26 15.43
-10 27 1 19.93 23.09
-27 17 1 26.04 29.66
-10 27 1 12.34 13.9
-10 27 1 48.05 29
-10 27 2 44.6 23.33
-27 17 2 49.36 33.88
-10 27 2 94.54 34.98
-27 17 2 73.42 23.33
-27 17 3 -21.79 27.36
-10 27 3 -21.07 25.16
-10 27 3 -16.96 25.58
-27 17 3 47.7 26.32
-10 27 4 35 32.72
-10 27 4 48.87 30.8
-27 17 4 9.5 25.87
-10 27 5 20.32 30.78
-27 17 5 51.49 34.51
-11 27 -5 -29.27 44.18
11 -27 -5 38.96 20.86
-27 16 -5 8.71 36.7
-11 27 -4 -34.95 32.65
11 -27 -4 23.43 22.4
16 11 -4 1.07 21.69
-27 16 -4 -15.75 36.41
16 11 -3 67.43 27.64
-11 27 -3 22.96 24.1
-27 16 -3 120.55 45.81
-11 27 -3 76.92 38.99
-11 27 -2 55.79 29.06
-27 16 -2 98.49 41.86
-27 16 -1 51.56 29.01
-11 27 -1 50.03 31.69
-11 27 -1 81.89 37.32
-11 27 0 83.4 29.32
-27 16 0 126.34 43.4
-11 27 0 79.63 18.25
-11 27 0 87.24 34.05
-27 16 1 22.19 14.3
-11 27 1 1.75 14.75
-27 16 1 17.59 25.31
-11 27 1 8.64 24.73
-27 16 2 43.1 20.51
-11 27 2 64.59 23.55
-11 27 2 90.43 37.77
-27 16 2 94.95 34.95
-27 16 3 94.96 33.58
-11 27 3 127.93 39.52
-11 27 3 60.83 31.4
-27 16 3 55.32 23.31
-11 27 4 36.53 30.64
-11 27 4 58.2 37
-27 16 4 0.02 23.15
-11 27 5 51.67 33.03
-27 16 5 28.44 25.17
12 -27 -5 57.88 29.52
-12 27 -5 129.74 52.49
-27 15 -5 21.77 42.93
-12 27 -4 66.34 39.73
-27 15 -4 28.75 37.97
12 -27 -4 -6.68 19.18
15 12 -4 -14.73 20.75
-12 27 -3 65.37 35.95
15 12 -3 -8.02 22.45
-27 15 -3 76.35 42.53
-12 27 -2 15.9 23.69
-27 15 -2 78.68 40
-12 27 -2 48.95 34.2
-12 27 -1 3.43 20.87
-27 15 -1 42.98 36.1
-12 27 -1 34.05 31.05
-12 27 0 53.38 27.06
-12 27 0 79.15 18.99
-27 15 0 71.2 34.11
-12 27 0 48.52 29.57
-27 15 1 49.08 24.82
-12 27 1 36.4 17.77
-27 15 1 16.3 35.48
-12 27 1 47.46 31.62
-27 15 2 71.49 27.72
-27 15 2 77.41 31.5
-12 27 2 55.73 24.78
-12 27 2 57.1 28.22
-27 15 3 19.16 25.59
-12 27 3 67.15 28.83
-12 27 3 28.77 26.79
-27 15 3 57.65 25.75
-12 27 4 -29.75 27.3
-27 15 4 5.35 20.88
-12 27 5 31.61 32.8
-27 15 5 0.03 23.85
13 -27 -5 -12.66 21.69
-13 27 -5 -46.51 42.37
-27 14 -5 22.41 37.18
-13 27 -4 -44.72 34.34
14 13 -4 8.57 22.56
13 -27 -4 13.99 21.11
-27 14 -4 28.94 41.5
-27 14 -3 -9.55 31.3
-13 27 -3 17.53 35.19
14 13 -3 67.31 28.26
-27 14 -2 23.19 34.8
-13 27 -2 22.44 31.19
-27 14 -1 45.69 37.78
-13 27 -1 41.5 26.61
-13 27 0 372.01 34.58
-13 27 0 363.15 59.38
-27 14 0 332.41 58.39
-27 14 1 30.86 20.87
-13 27 1 45.33 18.42
-13 27 1 46.32 27.37
-27 14 1 39.95 31.5
-27 14 2 -3.96 16.51
-27 14 2 -39.9 28.84
-13 27 2 -16.25 20.55
-13 27 2 18.22 23.71
-13 27 3 63.22 31.35
-27 14 3 20.95 27.43
-13 27 3 51.78 26.71
-27 14 3 -35.7 23.53
-13 27 4 -60.35 28.97
-27 14 4 -11.4 20.01
-13 27 5 106.02 40.46
-27 14 5 10 26.28
-27 13 -5 54.67 43.97
14 -27 -5 46.97 27.24
-14 27 -5 2.59 37.29
-14 27 -4 57.47 36.39
14 -27 -4 21.87 22.06
13 14 -4 1.75 20.81
-27 13 -4 17.84 42.44
-14 27 -3 4.71 31.53
-27 13 -3 -14.39 39.78
13 14 -3 34.87 21.36
-27 13 -2 -34.67 31.27
13 14 -2 32.02 28.74
-14 27 -2 3.48 25.23
-14 27 -1 -18.49 29.26
-27 13 -1 24.88 30.5
-14 27 0 -5.89 10.47
-14 27 0 12.15 27.86
-27 13 0 39.97 33.73
-27 13 1 -18.96 17.81
-27 13 1 0.98 27.72
-14 27 1 -2.3 14.08
-14 27 1 7.29 23.48
-27 13 2 18.3 16.47
-27 13 2 5.03 26.26
-14 27 2 46.27 22.45
-14 27 2 -15.92 26.66
-27 13 3 12.73 23.13
-14 27 3 -6.11 21.26
-14 27 3 41.7 25.17
-27 13 3 13.67 18.88
-14 27 4 30.1 33.22
-27 13 4 18 23.26
-14 27 5 29.35 34.33
-27 13 5 29.04 23.68
-27 12 -5 23.95 34.07
15 -27 -5 18.05 20
-15 27 -4 -14.64 32.17
15 -27 -4 -9.89 20.45
12 15 -4 18.04 22.74
-27 12 -4 72.1 46.28
-15 27 -3 117.31 41.33
15 -27 -3 76.57 28.96
12 15 -3 71.23 30.08
-27 12 -3 72.16 42.06
-15 27 -2 -24.16 27.53
-27 12 -2 -36.8 32.35
12 15 -2 -9.77 22.56
-27 12 -1 3.73 29.31
-15 27 -1 -14.58 26.4
-27 12 0 25.02 31.4
-15 27 0 9.07 10.15
-15 27 0 20.19 23.79
-27 12 1 -8.48 20.01
-27 12 1 -23.13 24.67
-15 27 1 -6.97 16.45
-15 27 1 19.51 25.23
-27 12 2 16.08 17.7
-15 27 2 14.74 17.06
-27 12 2 -3 28.35
-15 27 2 42.83 31.07
-15 27 3 93.18 33.14
-27 12 3 59.44 25.39
-27 12 3 111.94 37.04
-15 27 3 111.46 34.05
-15 27 4 48.8 35.6
-27 12 4 19.5 22.4
-15 27 5 9.52 29.15
-27 12 5 37.65 29.35
16 -27 -5 44.99 28.25
-16 27 -5 53.68 39.59
-27 11 -5 -17.9 33.62
16 -27 -4 72.35 30.49
-16 27 -4 59.8 36.11
11 16 -4 41.99 24.16
-27 11 -4 117.28 50.88
16 -27 -3 2.01 21.11
11 16 -3 46.92 28.33
-27 11 -3 -37.37 38.02
-16 27 -2 32.48 32.41
11 16 -2 22.27 25.34
-27 11 -2 34.12 38.67
-16 27 -1 17.54 30.46
-27 11 -1 8.43 29.48
11 16 -1 45.93 29.19
-27 11 0 145.62 46.87
-16 27 0 92.24 18.32
-16 27 0 125.01 42.71
-27 11 1 -6.1 18.21
-27 11 1 -47.57 33.42
-16 27 1 5.4 14.12
-16 27 1 21.61 27.22
-27 11 2 29.83 19.6
-16 27 2 14.91 20.08
-27 11 2 -4.66 28.59
-16 27 2 -7.53 22.49
-27 11 3 38.3 24.55
-16 27 3 11.44 25.71
-27 11 3 0.07 23.41
-16 27 3 -6.18 23.47
11 16 4 -7.59 36.14
-16 27 4 7.92 23.93
-27 11 4 47.83 27.61
-16 27 5 50.4 33.2
-27 11 5 32.5 26.72
-27 10 -5 12.13 33.93
17 -27 -5 15.71 25.53
-17 27 -5 -12.39 30.43
-27 10 -4 53.31 41.69
17 -27 -4 9.37 19.9
-17 27 -4 31.63 32.56
10 17 -4 -8.23 25.84
17 -27 -3 76.89 31.94
10 17 -3 39.6 24.38
-27 10 -3 52.29 43.96
-17 27 -2 108.53 36.72
17 -27 -2 151.34 37.85
10 17 -2 86.86 33.48
-27 10 -2 65.77 39.19
-17 27 -1 -28.26 31.27
10 17 -1 2.17 24.47
-27 10 -1 13.47 29.81
-17 27 0 31.49 32.01
10 17 0 1.72 25.48
-27 10 0 -36.94 30.35
-17 27 0 27.77 14.19
-17 27 1 15.07 26.26
-27 10 1 -29.6 20.15
-17 27 1 -29.28 16.47
-27 10 1 -50.26 31.47
-27 10 2 90.04 28.72
-27 10 2 122.06 39.61
-17 27 2 128.73 32.14
-17 27 2 195.04 45.02
-27 10 3 65.22 26.07
-17 27 3 31.94 27.63
-27 10 3 34.56 27.44
-17 27 3 -0.28 19.18
-27 10 4 -3.33 18.4
10 17 4 54.83 47.35
-17 27 4 20.73 27.28
-17 27 5 45.03 34.15
-27 10 5 16.38 21.26
18 -27 -5 37.38 32.53
-18 27 -5 62.34 43.6
-27 9 -5 64.5 40.56
18 -27 -4 -2 25.51
-18 27 -4 11.02 32.58
9 18 -4 -13.43 27.17
-27 9 -4 -7.05 31.92
-27 9 -3 -29.2 34.19
-18 27 -3 -5.68 26.29
18 -27 -3 8.42 23.59
9 18 -3 -13.18 19.98
-18 27 -2 60.37 40.01
18 -27 -2 24.15 23.8
-27 9 -2 41.96 32.11
9 18 -2 -7.19 23.18
-18 27 -1 87.96 36.74
9 18 -1 125.44 38.9
-27 9 -1 153.93 44.05
-18 27 0 4.21 25.43
9 18 0 6.89 27.63
-27 9 0 -16.86 28.71
-18 27 0 -1.15 10.91
-18 27 1 117.92 38.23
-27 9 1 96.79 31.11
9 18 1 172.61 53.96
-18 27 1 97.44 23.88
-27 9 2 56.4 24.91
-18 27 2 23.63 23.2
9 18 2 18.94 32.73
-18 27 2 40.33 20.34
-27 9 2 41.04 30.81
-27 9 3 5.59 21.81
-18 27 3 -58.52 30.35
-18 27 3 -4.6 21.16
9 18 3 -1.24 34.15
-27 9 4 -49.68 27.25
9 18 4 11.9 35.26
-18 27 4 11.67 26.18
-18 27 5 103.56 35.39
-27 9 5 7.3 23.22
19 -27 -5 4.68 24.08
-27 8 -5 5.95 35.05
-19 27 -5 67.78 44.5
-27 8 -4 51.38 42.04
19 -27 -4 11.35 22.16
-19 27 -4 20.19 32.84
8 19 -4 -31.11 29.6
19 -27 -3 -16.06 24.52
-19 27 -3 62.37 39.16
-27 8 -3 60.73 45.04
8 19 -3 20.02 24.62
-27 8 -2 8.35 30.12
-19 27 -2 81.75 38.51
19 -27 -2 36.77 26.4
8 19 -2 24.77 26.21
-27 8 -1 37.9 28.77
-19 27 -1 22.58 25.49
19 -27 -1 51.57 22.46
8 19 -1 28.61 26.94
-27 8 0 -45.75 31.6
-19 27 0 -28.41 25.27
8 19 0 -12.11 27.54
-19 27 0 -5.55 11.7
-19 27 1 73.75 31.64
-27 8 1 84.88 31.71
8 19 1 13.65 34.59
-19 27 1 17.08 13.63
-27 8 2 35.62 21.09
-19 27 2 16.14 25.82
-27 8 2 3.12 34.17
-19 27 2 37.26 21.44
8 19 2 57.27 37.14
-27 8 3 7.37 19.73
8 19 3 -32.97 35.9
-19 27 3 18.65 25.32
-19 27 3 19.31 21.83
-27 8 4 -22.67 25.44
8 19 4 51.8 40.08
-19 27 4 42.4 28.86
-27 8 5 -4.29 24.12
-19 27 5 -36.37 35.24
20 -27 -5 10.04 23.02
-20 27 -5 78.46 47.67
20 -27 -4 84.7 37.03
-20 27 -4 41.72 36.02
7 20 -4 76.7 39.37
-27 7 -4 49.03 37.27
20 -27 -3 20.36 25.47
-20 27 -3 8.14 32.06
7 20 -3 -21.17 26.65
-27 7 -3 3.16 32.13
20 -27 -2 -20.72 21.48
-20 27 -2 57.54 34.89
7 20 -2 -14.32 25.42
-27 7 -2 14.11 31.41
-20 27 -1 36.85 10.93
-20 27 -1 21.28 26.02
20 -27 -1 71.29 28.39
7 20 -1 29.13 28.14
-27 7 -1 45.97 33.93
7 20 0 315.87 59.01
20 -27 0 368.2 45.58
-27 7 0 338.24 61.05
-20 27 0 346.55 37.66
-20 27 0 320.55 59.76
-27 7 1 30.42 32.59
-20 27 1 61.3 32.02
7 20 1 10.5 29.42
20 -27 1 25.12 17.08
-20 27 1 68.82 20.99
-27 7 2 17.8 21.16
-20 27 2 -6.62 25.7
7 20 2 26.63 36.58
-27 7 2 9.85 26.99
-20 27 2 8.28 16.83
-27 7 3 47.78 23.86
7 20 3 -52.04 41.44
-20 27 3 -41.08 28.5
-20 27 3 12.68 21.63
-27 7 4 26.57 22.74
7 20 4 29.17 44.68
-20 27 4 -10.87 22.22
-27 7 5 20.77 25.42
-20 27 5 34.81 34.74
21 -27 -5 80.31 36.25
-21 27 -5 -17.94 39.65
-27 6 -4 -14.28 34.37
21 -27 -4 -2.77 27.05
6 21 -4 5.9 28.01
-21 27 -4 6.48 31.25
21 -27 -3 104.71 35.85
-27 6 -3 89.86 39.27
-21 27 -3 112.22 44.31
6 21 -3 97.25 36.63
21 -27 -2 23.14 25.29
-21 27 -2 23.82 34.67
6 21 -2 -24.24 30.5
-27 6 -2 -6.08 32.47
-21 27 -1 14.57 26.88
21 -27 -1 86.03 28.9
6 21 -1 45.43 29.56
-27 6 -1 87.84 40.36
-27 6 0 -11.06 28.07
-21 27 0 -18.08 28.19
21 -27 0 -6.9 18.75
6 21 0 -21.26 28.77
-21 27 0 14.42 14.6
-21 27 1 55.38 31.75
6 21 1 42.61 29.78
21 -27 1 41.05 16.6
-21 27 1 4.64 14.65
-27 6 1 31.72 25.64
-27 6 2 24.14 20.99
6 21 2 2.78 31.19
-21 27 2 14.9 25.63
-21 27 2 6.36 16.76
-27 6 3 92.56 28.68
6 21 3 93.29 41.49
-21 27 3 97.33 34.9
-21 27 3 73.46 29.01
-27 6 4 -38.37 24.09
6 21 4 10.57 32.55
-21 27 4 -27.27 25.19
-27 6 5 15.85 24.82
-21 27 5 15.16 33.49
22 -27 -5 69.79 36.56
-22 27 -5 -24.06 36.83
22 -27 -4 45.27 38.26
5 22 -4 1.62 28.29
-22 27 -4 -15.19 32.47
22 -27 -3 23.87 24.49
-27 5 -3 -44.22 37.86
5 22 -3 59.83 30
-22 27 -3 27.71 30.22
22 -27 -2 20.3 28.81
-22 27 -2 34.77 34.35
5 22 -2 -4.27 22.79
-27 5 -2 -36.68 36.02
5 22 -1 85.05 32.7
22 -27 -1 64.34 30.42
-22 27 -1 43.72 26.62
-27 5 -1 13.94 28.97
5 22 0 284.98 53.87
22 -27 0 358.88 41.94
-27 5 0 280.54 54.89
-22 27 0 305.73 35.56
-22 27 0 338.74 58.27
5 22 1 39.65 34.29
-22 27 1 47.09 33.6
22 -27 1 75.71 18.89
-27 5 1 50.56 30
-22 27 1 61.35 22.43
5 22 2 -38.59 34.52
-22 27 2 36.77 32.13
-22 27 2 20.05 19.48
-27 5 3 -22.08 20.19
5 22 3 11.67 34.14
-22 27 3 37.05 30.32
-22 27 3 41.62 22.25
-27 5 4 15.95 24.65
5 22 4 48.79 32.91
-22 27 4 37.28 28.7
-27 5 5 28.99 26.52
-22 27 5 26.38 30.91
-23 27 -5 21.54 38.11
23 -27 -4 48.18 34.43
4 23 -4 65.49 40.95
-23 27 -4 56.74 40.59
-27 4 -3 61.62 40.23
23 -27 -3 100.85 42.68
4 23 -3 36.76 26.25
-23 27 -3 101.41 46.59
23 -27 -2 4.59 20.69
4 23 -2 11.05 24.56
-23 27 -2 4.28 27.74
-27 4 -2 78.56 42.18
23 -27 -1 43.16 19.71
4 23 -1 112.86 40.1
-23 27 -1 77.52 33.98
-27 4 -1 45.76 34.93
23 -27 0 20.06 15.86
4 23 0 36.13 28.14
-23 27 0 49.38 32.37
-27 4 0 -10.51 25.5
-23 27 0 20.21 18.55
4 23 1 110.49 41.24
-23 27 1 161.07 44.99
-23 27 1 82.67 23.84
4 23 2 23.29 29.41
-23 27 2 22.16 24.56
-23 27 2 2.76 19.75
-27 4 3 57.26 26.65
4 23 3 86.66 43.28
-23 27 3 91.01 37.52
-23 27 3 115.34 35.87
-27 4 4 2.4 19.73
4 23 4 48.4 35.67
-23 27 4 45.34 28.86
-27 4 5 -12.6 22.73
-23 27 5 -48.18 35.84
-24 27 -5 69.35 51.12
24 -27 -4 -21.46 30.5
3 24 -4 61.54 37.47
-24 27 -4 30.31 39.79
24 -27 -3 -44.11 33.97
3 24 -3 24.67 25.55
-24 27 -3 19.54 34.47
24 -27 -2 5.21 20.44
3 24 -2 48.35 34.08
-24 27 -2 53.95 41.52
24 -27 -1 2.67 16.37
-24 27 -1 -17.1 29.89
-24 27 0 -26.45 17.45
24 -27 0 18.6 16.18
3 24 0 33.83 30.29
-24 27 0 22.21 32.47
3 24 1 -0.68 27.47
-24 27 1 -4.26 27.86
-24 27 1 5.56 14.65
3 24 2 62.87 35.64
-24 27 2 -13.91 24.18
-24 27 2 20.77 20.13
-27 3 3 27.43 26.94
3 24 3 35.19 32.68
-24 27 3 37.33 32.55
-24 27 3 29.32 26.16
-27 3 4 19.6 23.85
3 24 4 5.44 34.55
-24 27 4 36.86 27.93
-27 3 5 -7.89 23.57
-25 27 -5 78.02 48.32
25 -27 -4 -29.01 33.2
2 25 -4 31.23 37.51
-25 27 -4 62.46 44.7
25 -27 -3 -16.37 25.29
2 25 -3 18.72 29.66
-25 27 -3 51.02 41
25 -27 -2 50.41 25.35
2 25 -2 -20.21 25.67
-25 27 -2 17.23 30.39
25 -27 -1 22.27 22.28
2 25 -1 -3.69 25.61
-25 27 -1 -35.22 35.38
-25 27 0 5.73 14.89
25 -27 0 20.42 16.09
2 25 0 20.17 26.95
-25 27 0 -8.08 28.75
2 25 1 -47.25 35.83
-25 27 1 13.39 25.96
-25 27 1 -21.28 18.43
2 25 2 7.64 26.75
-25 27 2 57.34 33.73
-25 27 2 58.63 24.74
-27 2 3 -5.74 19.94
2 25 3 0.77 34.39
-25 27 3 33.43 28.89
-25 27 3 -30.61 26.03
-27 2 4 -19.03 21.02
2 25 4 7.57 29.32
-27 2 5 39.21 29.62
-26 27 -5 -28.57 43.19
26 -27 -4 60.79 38.23
1 26 -4 70.17 34.45
-26 27 -4 -20.18 37.36
26 -27 -3 9.95 28.08
1 26 -3 61.47 43.72
-26 27 -3 71.3 44.45
26 -27 -2 50.52 28.02
1 26 -2 67.11 33.79
-26 27 -2 -35.6 35.31
26 -27 -1 35.14 22.05
1 26 -1 126.81 46.1
-26 27 -1 71.07 36.22
-26 27 0 60.44 23.1
26 -27 0 56.36 21.88
1 26 0 49.87 35.88
-26 27 0 45.94 35.03
1 26 1 86.71 40.44
-26 27 1 14.43 26.72
-26 27 1 41.9 21.19
1 26 2 45.22 36.37
-26 27 2 26.3 26.94
-26 27 2 32.48 21.88
1 26 3 41.37 38.93
-26 27 3 56.81 33.89
-26 27 3 26.72 20.38
-27 1 4 19.51 25.08
1 26 4 92.5 48.75
-26 27 4 18.91 26.55
-27 27 -5 -3.67 36.55
27 -27 -4 -15.77 32.86
0 27 -4 -3.79 36.29
-27 27 -4 85.9 52.1
27 -27 -3 46 34.66
0 27 -3 33.84 31.79
-27 27 -3 45.35 43.5
27 -27 -2 -15.31 23.98
0 27 -2 86.26 35.63
-27 27 -2 12.28 34.06
27 -27 -1 54.89 24.07
0 27 -1 24.48 30.26
-27 27 -1 -19.28 35.7
-27 27 0 -18.3 18.46
27 -27 0 7.36 13.8
0 27 0 27.48 34.15
-27 27 0 70.35 39.83
0 27 1 31.1 32.93
-27 27 1 12.21 29.18
-27 27 1 42.35 20.96
0 27 2 15.18 34.8
-27 27 2 43.48 32.85
-27 27 2 43.77 23.81
0 27 3 -17.55 28.51
-27 27 3 88.87 32.7
-27 27 3 56.23 37.9
-27 0 4 -29.19 25.13
0 27 4 -34.62 32.93
-28 27 -5 40.23 47.08
-28 27 -4 16.78 42.59
28 -27 -4 6.37 32.19
-1 28 -4 58.37 41.79
28 -27 -3 17.31 30.85
-1 28 -3 19.99 33.07
-28 27 -3 9.07 34.76
28 -27 -2 7.62 22.31
-1 28 -2 -36.37 32.75
-28 27 -2 37.77 38.23
28 -27 -1 35.83 25.46
-1 28 -1 0.7 34.56
-28 27 -1 -22.03 31.25
-28 27 0 29.74 21.07
28 -27 0 20.08 17.14
-1 28 0 37.31 36.41
-28 27 0 59.49 37.48
-1 28 1 69.84 42.68
-28 27 1 33.43 32.35
-28 27 1 12.2 18.61
-1 28 2 58.24 35.05
-28 27 2 95.24 45.77
-28 27 2 83.04 29.67
-1 28 3 56.24 34.46
-28 27 3 27.41 20.37
-1 28 4 1.85 34.53
-28 27 4 24.33 28.69
-28 26 -5 59.26 44.43
-28 26 -4 35.08 44.67
28 -26 -4 61.34 36.76
-2 28 -4 46.49 43.19
28 -26 -3 2.2 31.53
-2 28 -3 -46.91 41.69
-28 26 -3 4.56 32.72
28 -26 -2 58.6 30.79
-2 28 -2 4.47 31.82
-28 26 -2 40.58 35.95
28 -26 -1 94.33 28.13
-2 28 -1 65.79 38.8
28 -26 0 64.43 21.09
-2 28 0 130.2 46.93
-28 26 0 17.08 30.98
-28 26 0 126.85 33.92
-2 28 1 45.36 31.9
-28 26 1 91.92 41.3
-28 26 1 56.33 26.57
-2 28 2 73.21 33.55
-28 26 2 -0.1 25.76
-28 26 2 16.38 17.38
-28 26 3 52.18 34.94
-2 28 3 145.27 61.65
-2 28 3 -29.14 28.94
-28 26 3 64.94 31.07
-2 28 4 -45.94 37.84
-28 26 4 101.82 37.38
-28 25 -5 -25.5 42.26
-28 25 -4 73.22 56.91
28 -25 -4 -18.09 33.05
-3 28 -4 21.11 34.78
-28 25 -3 19.76 37
28 -25 -3 -38.51 31.74
28 -25 -2 93.35 32.8
-3 28 -2 75.78 37.78
-28 25 -2 136.95 49.63
28 -25 -1 31.57 22.6
-3 28 -1 72.2 36.72
-28 25 -1 58.85 36.21
-28 25 0 17.84 18.43
28 -25 0 25.84 15.63
-3 28 0 -3.23 30.34
-28 25 1 7.67 17.51
-3 28 1 -38.34 31.53
-28 25 1 -25.06 31.28
-3 28 2 27.61 32.91
-28 25 2 94.88 29.57
-28 25 2 116.38 41.79
-28 25 3 8.93 35.51
-3 28 3 16.58 36.2
-3 28 3 -26.37 28.16
-28 25 3 12.24 20.77
-3 28 4 8.78 33.9
-28 25 4 14.09 22.3
-25 -3 5 -7.54 22.17
-28 24 -5 102.42 55.3
-28 24 -4 51.61 46.94
28 -24 -4 56.52 40.26
-4 28 -4 12.68 35.94
-28 24 -3 34.34 40.17
28 -24 -3 -0.83 26.78
-4 28 -3 -30.44 31.14
28 -24 -2 44.21 24.27
-4 28 -2 3.77 27.92
-28 24 -2 66.96 41.63
28 -24 -1 22.18 21.65
-4 28 -1 70.55 37.03
-28 24 -1 18.98 35.47
-28 24 0 5.84 16.24
28 -24 0 -13.01 13.84
-4 28 0 -20.24 29.53
-28 24 0 -17.02 35.32
-28 24 1 10.28 16.3
-4 28 1 83.17 39.66
-28 24 1 84.68 37.55
-28 24 2 55.65 33.92
-4 28 2 56.62 34.08
-28 24 2 86.18 28.85
-4 28 3 41.67 31.92
-28 24 3 47.9 36.66
-4 28 3 70.62 35.74
-28 24 3 -20.66 23.97
-4 28 4 -18.44 31.75
-28 24 4 12.99 23.39
-28 23 -5 -18.52 42
-5 28 -4 12.85 31.62
-28 23 -4 37.99 42.36
28 -23 -4 18.21 32.28
-5 28 -4 -73.96 41.85
-28 23 -3 3.14 38.49
28 -23 -3 -6.25 22.37
-5 28 -3 45.16 35.04
-28 23 -2 -39.19 34.29
28 -23 -2 -18.43 21.35
-5 28 -2 25.26 29.92
28 -23 -1 13.21 16.84
-5 28 -1 49.74 31.78
-28 23 -1 -28.55 30.13
-28 23 0 57.56 22.63
-5 28 0 44.8 26.82
-28 23 0 40.03 36.1
-28 23 1 -1.45 17.79
-5 28 1 -20.06 33.17
-28 23 1 19.62 31.98
-28 23 2 64.62 36.2
-5 28 2 7.19 24.98
-5 28 2 43.48 31.6
-28 23 2 2.03 16.45
-5 28 3 63.22 34.79
-28 23 3 73.76 37.7
-5 28 3 7.18 30.53
-28 23 3 -30.85 22.05
-5 28 4 -23.75 36.06
-28 23 4 21.13 20.94
-28 22 -5 -27.97 37.03
-6 28 -4 -25.45 26.35
-28 22 -4 -29.88 39.01
28 -22 -4 -3.79 33.51
-6 28 -4 16.47 36.07
-28 22 -3 -6.02 32.78
28 -22 -3 2.66 21.69
-6 28 -3 -13.58 27.47
-28 22 -2 44.6 35.9
28 -22 -2 62.13 32.31
-6 28 -2 114.05 43.68
-28 22 -1 54.28 34.8
28 -22 -1 5.07 19.81
-6 28 -1 31.6 33.72
-28 22 0 -0.44 32.57
-28 22 0 28.66 19.18
-6 28 0 1.11 23.67
-28 22 1 0.57 15.56
-28 22 1 54.25 32.21
-6 28 1 44.13 27.95
-28 22 2 20.88 28.12
-6 28 2 49.93 33.37
-6 28 2 61.04 29.66
-28 22 2 20.01 21.41
-6 28 3 10.34 25.9
-28 22 3 -37.21 36.35
-6 28 3 -3.75 24.19
-28 22 3 8.5 21.51
-6 28 4 45.21 35.38
-28 22 4 0.76 21.88
-28 21 -5 0.37 37.28
-7 28 -4 57.6 31.02
28 -21 -4 45.69 33.82
-28 21 -4 71.26 48.64
-7 28 -4 26.45 42.12
-7 28 -3 26.7 31.92
-28 21 -3 -6.91 33.98
28 -21 -3 30.12 30.76
-7 28 -3 69.89 38.01
-28 21 -2 4.46 34.11
28 -21 -2 80.51 29.23
-7 28 -2 16.17 26.84
-28 21 -1 -15.7 33.14
28 -21 -1 11.58 20.28
-7 28 -1 -10.95 27.77
-28 21 0 81.03 38.66
-28 21 0 119.73 30.06
-7 28 0 99.75 37.75
-28 21 1 -1.55 15.99
-28 21 1 -4.64 28.38
-7 28 1 74.27 39.37
-7 28 1 1.61 28.72
-7 28 2 125.77 44.66
-28 21 2 66.52 35.43
-7 28 2 112.34 39.99
-28 21 2 25.96 22.18
-28 21 3 4.54 32.57
-7 28 3 -0.4 25.99
-28 21 3 46.3 26.79
-7 28 4 68.97 38.06
-28 21 4 35.2 25.44
-7 28 5 -17.3 36.78
28 -20 -5 62.68 43.36
-28 20 -5 32.83 42.96
-8 28 -4 60.45 33.24
28 -20 -4 27.91 29.74
-28 20 -4 40.61 41.96
-8 28 -4 51.95 46.77
-8 28 -3 39.13 29.28
-28 20 -3 77.51 43.1
28 -20 -3 25.8 21.51
-8 28 -3 42.33 30.99
-8 28 -2 14.17 30.28
-28 20 -2 68.71 40.41
28 -20 -2 28.33 21.87
-8 28 -2 9.85 32.67
-28 20 -1 63.16 38.92
-8 28 -1 91.2 34.55
-28 20 0 1.87 16.18
-28 20 0 -61.04 42.83
-8 28 0 24.65 24.85
-8 28 0 32.53 34.38
-28 20 1 96.55 26.55
-8 28 1 244.62 49.32
-28 20 1 195.99 51.72
-8 28 1 219.42 47.37
-8 28 2 31.85 25.48
-28 20 2 26.4 29.15
-8 28 2 32.64 27.2
-28 20 2 46.09 22.93
-8 28 3 -30.1 31.47
-28 20 3 45.17 35.36
-28 20 3 -22.26 23.28
-8 28 4 23.18 32.06
-8 28 4 25.93 30.15
-28 20 4 69.1 33.66
-8 28 5 62.75 47.74
-28 19 -5 26.34 37.29
9 -28 -5 -7.17 18.23
28 -19 -5 33.25 30.02
-9 28 -4 -17.17 23.6
19 9 -4 -1.13 21.04
28 -19 -4 17.16 25.2
-28 19 -4 -26.72 41.2
-9 28 -4 26.5 37.77
-28 19 -3 35.55 37.29
28 -19 -3 42.73 23.61
-9 28 -3 15.2 25.65
-9 28 -3 -17.13 34.87
-9 28 -2 16.31 23.81
-28 19 -2 58.01 37.96
28 -19 -2 30.65 25.93
-9 28 -2 0.06 30.03
-9 28 -1 79.73 36.77
-28 19 -1 48.35 32.19
-9 28 -1 100.69 40.57
-28 19 0 74.92 27.54
-9 28 0 26.93 25.64
-28 19 0 86.42 35.83
-9 28 0 62.1 17.29
-9 28 0 19.78 28.38
-28 19 1 46.75 23.45
-9 28 1 24.01 21.76
-28 19 1 84.97 39.41
-9 28 1 62.2 36.78
-9 28 2 38.69 29.56
-28 19 2 -14.77 28.86
-9 28 2 50.05 33.38
-28 19 2 32.53 21.38
-9 28 3 18.14 26.35
-28 19 3 9.3 31.22
-28 19 3 -17.86 20.22
-9 28 4 49.94 37.73
-9 28 4 48.17 32.96
-28 19 4 -19.14 28.53
-9 28 5 34.26 36.33
-28 19 5 65.04 33.56
-28 18 -5 -46.32 44.47
-10 28 -5 37.95 38.71
10 -28 -5 25.11 26.85
-10 28 -4 -2.76 31.19
18 10 -4 22.92 22.72
28 -18 -4 40.86 32.32
-28 18 -4 50.78 37.47
-10 28 -3 50.66 30.42
28 -18 -3 33.4 25.99
-28 18 -3 28.46 36.7
-10 28 -3 13.95 32.67
-10 28 -2 6.87 21.96
-28 18 -2 -7.62 35.43
-10 28 -2 66.8 36.92
-28 18 -1 142.82 46.06
-10 28 -1 154.64 41.7
-10 28 -1 184.26 49.89
-10 28 0 15.1 28.84
-28 18 0 -12.01 30.75
-10 28 0 -19.85 15.57
-10 28 0 -3.53 25.35
-28 18 1 112.52 29.6
-10 28 1 195.83 43.09
-28 18 1 137.63 48.53
-10 28 1 186.45 31.89
-10 28 1 146.97 38.9
-28 18 2 1.9 17.9
-10 28 2 19.33 23.52
-28 18 2 -25.45 28.08
-10 28 2 61.94 33.94
-28 18 3 64.77 36.1
-10 28 3 51 34.16
-10 28 3 97.13 41.02
-28 18 3 74.81 29.09
-10 28 4 24.53 34.84
-10 28 4 -21.57 32.05
-28 18 4 -6.94 22.36
-10 28 5 -8.19 28.69
-28 18 5 10.46 28.21
-11 28 -5 56 40.6
11 -28 -5 17.12 23.32
-28 17 -5 38.35 39.63
-11 28 -4 -3.99 32.15
17 11 -4 16.04 24.59
-28 17 -4 22.64 38.62
17 11 -3 32.1 20.81
-11 28 -3 11.27 23.25
-28 17 -3 33.67 38.05
-11 28 -3 63.71 36.71
-11 28 -2 14.9 23.45
-28 17 -2 21.73 34.67
-11 28 -2 -17.98 34.09
-28 17 -1 61.85 32.99
-11 28 -1 93.2 34.55
-11 28 -1 82.94 39.22
-11 28 0 -1.23 21.65
-28 17 0 2.18 27.67
-11 28 0 18.58 13.25
-11 28 0 14.58 27.29
-28 17 1 95.1 28.61
-11 28 1 78.39 32.01
-11 28 1 77.51 22.95
-28 17 1 87.4 37.5
-11 28 1 74.26 32.26
-28 17 2 41.02 22.81
-11 28 2 -3.71 18.82
-11 28 2 12.69 29.75
-28 17 2 77.07 38.49
-28 17 3 -35.37 30.36
-11 28 3 2.77 22.48
-11 28 3 20.66 27.62
-28 17 3 -5.13 20.63
-11 28 4 34.22 29.23
-28 17 4 0.02 22.7
-11 28 5 49.95 38.53
-28 17 5 51.5 31.36
-12 28 -5 -9.48 38.16
12 -28 -5 5.69 28.13
-28 16 -4 11.59 34.12
-12 28 -4 19.05 31.71
12 -28 -4 12.26 19.33
16 12 -4 90.05 30.46
16 12 -3 13.72 21.97
-28 16 -3 -19.82 30.16
-12 28 -3 -17.61 33.59
-12 28 -2 65.08 31.41
-28 16 -2 119.4 49.45
-12 28 -2 132.18 44.24
-12 28 -1 35.73 31.67
-28 16 -1 16.3 29.11
-12 28 -1 -1.81 27.81
-12 28 0 14.73 20.49
-28 16 0 18.66 31.2
-12 28 0 0.58 12.67
-12 28 0 19.09 26.62
-28 16 1 28.4 17.48
-12 28 1 -4.09 15.22
-28 16 1 15.71 25.24
-12 28 1 2.09 27.92
-28 16 2 50.03 24.33
-12 28 2 62.59 25.06
-12 28 2 112.2 38.79
-28 16 2 80.51 36.15
-28 16 3 -46.41 31.33
-12 28 3 21.24 25.69
-12 28 3 34.98 25.5
-28 16 3 4.67 18.23
-12 28 4 86.37 37.99
-28 16 4 32.57 25.47
-12 28 5 -4.3 28.66
-28 16 5 3.9 24.87
13 -28 -5 -0.25 19.09
-13 28 -5 -26.79 35.34
-28 15 -4 -15.65 38.33
13 -28 -4 17 20.13
15 13 -4 63.67 28.54
-13 28 -3 97.97 46.06
15 13 -3 45.34 26.51
-28 15 -3 62.06 40.98
-28 15 -2 -24.06 35.3
-13 28 -2 109.62 46.06
-28 15 -1 -7.11 26.78
-13 28 -1 33.82 25.68
-13 28 0 23.24 12.98
-28 15 0 60.61 35.59
-13 28 0 8.88 32.52
-28 15 1 -9.45 16.89
-13 28 1 22.17 15.5
-13 28 1 16.95 31
-28 15 1 7.94 31.73
-28 15 2 -13.68 17.17
-28 15 2 -22.72 30.02
-13 28 2 17.45 20.5
-13 28 2 19.96 24.57
-13 28 3 65.54 30.36
-28 15 3 -1.56 26.09
-13 28 3 61.56 35.42
-28 15 3 53.1 27.84
-13 28 4 23.14 32.9
-28 15 4 -3.91 24.61
-13 28 5 14.69 38.09
-28 15 5 -4.7 23.94
14 -28 -5 42.13 27.4
-14 28 -5 0.45 37.25
-28 14 -5 22.57 35.62
14 -28 -4 6.18 18.09
-14 28 -4 84.83 44.01
14 14 -4 10.38 20.47
-28 14 -4 -11.47 36.45
-14 28 -3 93.63 40.15
-28 14 -3 32.84 38.85
14 14 -3 59.55 28.19
14 14 -2 82.24 32.87
-28 14 -2 119.15 42.09
-14 28 -2 63.07 37.67
-28 14 -1 95.52 36.56
-14 28 -1 98.26 38.61
-14 28 0 39.96 16.27
-14 28 0 -23.07 26.8
-28 14 0 -8.58 28.01
-28 14 1 80.65 37
-28 14 1 21.14 15.59
-14 28 1 100.38 24.81
-14 28 1 35.1 25.25
-28 14 2 32.31 22.01
-28 14 2 34.59 29.06
-14 28 2 102.26 30.62
-14 28 2 80.39 35.05
-28 14 3 59.67 24.68
-14 28 3 92.42 33.2
-14 28 3 83.75 33.96
-28 14 3 40.64 32.37
-14 28 4 50.67 33.93
-28 14 4 32.16 24.81
-14 28 5 56.04 39.29
-28 14 5 -16.16 24.92
15 -28 -5 -13.19 24.66
-15 28 -5 40.6 43.82
-28 13 -5 13.59 32.26
-15 28 -4 31.48 34.23
15 -28 -4 45.11 24.97
13 15 -4 11.77 25.1
-28 13 -4 -32.39 37.48
-15 28 -3 33.06 29.86
15 -28 -3 24.3 29.04
-28 13 -3 5.06 31.19
13 15 -3 18.27 20.4
-15 28 -2 19.5 32.12
-28 13 -2 28.1 35.02
13 15 -2 -20.23 22.5
-28 13 -1 -0.03 29.1
-15 28 -1 6.62 27.66
-28 13 0 140.6 46.28
-15 28 0 123.31 21.24
-15 28 0 49.12 35.58
-28 13 1 -5.48 21.01
-28 13 1 -26.92 30.98
-15 28 1 -16.33 18.56
-15 28 1 -47.31 32.46
-28 13 2 23.66 19.26
-28 13 2 17.95 27.06
-15 28 2 -20.74 18.58
-15 28 2 9.17 28.78
-28 13 3 13.72 21.41
-28 13 3 -33.6 33.16
-15 28 3 13.85 26.12
-15 28 3 49.97 33.27
-15 28 4 37.58 28.93
-28 13 4 -18.16 25.41
-15 28 5 9.39 27.55
-28 13 5 -33.37 27.33
16 -28 -5 0.24 22.39
-16 28 -5 9.53 33.06
-28 12 -5 -3.43 34.01
16 -28 -4 -21.57 21.77
12 16 -4 31.12 25.99
-16 28 -4 0.56 30.76
-28 12 -4 21.83 34.04
-16 28 -3 1.12 28.16
16 -28 -3 24.23 20.91
12 16 -3 20.64 29.62
-28 12 -3 25.67 36.64
-16 28 -2 87.33 42.91
12 16 -2 19.23 26.7
-28 12 -2 140.72 48.52
-16 28 -1 18.23 33.87
12 16 -1 24.6 23.53
-28 12 -1 5.53 30.44
-28 12 0 74.26 38.4
-16 28 0 87.74 19.81
-16 28 0 86.22 41
-28 12 1 26.67 19.24
-28 12 1 72.43 34.29
-16 28 1 55.2 21.09
-16 28 1 24.84 27.32
-28 12 2 22.46 21.78
-16 28 2 37.23 20.66
-28 12 2 87.06 36.75
-16 28 2 4.49 27.26
-28 12 3 -32.45 27
-16 28 3 19.41 32.45
-16 28 3 66.06 28.77
-28 12 3 12.88 31.56
-16 28 4 -30.22 27.01
-28 12 4 27.78 19.45
-16 28 5 12.43 32.97
-28 12 5 37.8 27.7
17 -28 -5 -11.9 24.79
-17 28 -5 8.3 37
-28 11 -4 41.88 42.48
17 -28 -4 14.7 21.4
-17 28 -4 95.42 43.59
11 17 -4 31.21 29.69
-17 28 -3 0.71 27.48
17 -28 -3 8.7 26.83
11 17 -3 52.38 31.53
-28 11 -3 16.71 36.06
-17 28 -2 -31.11 31.08
11 17 -2 24.06 24.74
-28 11 -2 70.47 38.73
-17 28 -1 22.95 25.73
11 17 -1 52.55 33.88
-28 11 -1 24.35 31.45
-17 28 0 23.96 32.23
11 17 0 -40.3 29.94
-28 11 0 42.93 40.14
-17 28 0 5.95 11.25
-17 28 1 75.5 32.7
-28 11 1 34.27 19.5
-28 11 1 69.7 34.74
-17 28 1 68.66 20.77
-17 28 2 34.71 30.62
-28 11 2 18.25 16.38
-28 11 2 -26.35 31.51
-17 28 2 37.53 23.48
-28 11 3 23.03 24.37
-17 28 3 45.73 28.6
-17 28 3 -16.99 21.14
-28 11 3 38.78 30.7
-28 11 4 -7.05 21.04
11 17 4 49.14 46.23
-17 28 4 -0.3 25.06
-17 28 5 24.21 33.83
-28 11 5 -14.98 24.27
18 -28 -5 68.8 33.83
-28 10 -5 19.33 34.61
-18 28 -5 -7.17 35.47
18 -28 -4 76.24 33.05
-18 28 -4 63.84 40.87
-28 10 -4 21.28 39.21
10 18 -4 36.1 27.61
-18 28 -3 24.96 35.07
18 -28 -3 -1.79 23.93
10 18 -3 -0.88 20.98
-28 10 -3 19.39 36.45
-18 28 -2 -11.83 27.89
18 -28 -2 -19.15 26.09
10 18 -2 14.42 27.79
-28 10 -2 44.02 39.61
-18 28 -1 35.59 27.07
10 18 -1 24.76 26.98
-18 28 0 64.46 36.13
10 18 0 10.84 29.77
-28 10 0 -41.64 30.92
-18 28 0 21.66 14.8
-18 28 1 111.78 41.68
-18 28 1 25.5 14.86
10 18 1 90.23 42.45
-28 10 1 66.68 37.57
-28 10 2 23.79 21.2
-18 28 2 -44.04 32.38
10 18 2 -36.07 47.2
-28 10 2 -30.28 31
-18 28 2 14.31 18.83
-28 10 3 -2.37 17.96
-18 28 3 -55.87 33.74
10 18 3 69.32 50.36
-18 28 3 43.46 27.21
-28 10 3 55.37 35.3
-28 10 4 22.61 22.02
10 18 4 56.22 47.13
-18 28 4 66.48 37.26
-28 10 5 10.4 25.6
-18 28 5 9.4 26.48
19 -28 -5 28.23 29.37
-28 9 -5 46 37.8
-19 28 -5 13.7 35.27
19 -28 -4 -22.95 29.44
-19 28 -4 -22.5 32.88
9 19 -4 10.85 23.79
-28 9 -4 0.58 36.39
-28 9 -3 59.78 38.97
-19 28 -3 -11.14 28.86
19 -28 -3 -3.78 29.52
9 19 -3 25.96 27.48
-19 28 -2 45.37 33.37
19 -28 -2 5.02 22.76
9 19 -2 39.04 22.33
-28 9 -2 0.13 35.95
-19 28 -1 7.44 28.68
19 -28 -1 1.13 27.65
9 19 -1 18.25 25.49
-28 9 -1 77.34 38.44
-19 28 0 39.52 25.25
9 19 0 61.21 35.46
-19 28 0 100.59 21.01
-19 28 1 66.16 36.43
9 19 1 25.3 32.98
-28 9 1 103.73 40.3
-19 28 1 44.21 17.09
-28 9 2 -22.19 17.64
-19 28 2 30.14 30.17
9 19 2 -5.57 30.78
-28 9 2 -52.36 35
-19 28 2 -0.95 19.93
-28 9 3 -9.7 19.05
-19 28 3 -30.32 26.23
9 19 3 -17.34 37.3
-19 28 3 2.02 19.99
-28 9 4 13.8 20.04
9 19 4 -10.3 40.54
-19 28 4 -7.42 22.96
-28 9 5 47.46 32.15
-19 28 5 40.73 37.79
-20 28 -5 -40.57 43.03
20 -28 -4 -9.97 25.78
-28 8 -4 47.92 38.04
-20 28 -4 74.64 41.99
8 20 -4 0.73 24.83
-20 28 -3 25.88 31.52
8 20 -3 14.76 25.13
-28 8 -3 -46.1 45.45
-20 28 -2 13.15 30.03
-28 8 -2 54.86 40.63
20 -28 -2 5.92 28.8
8 20 -2 23.65 26.51
-20 28 -1 116.48 41.04
-28 8 -1 172.17 49.82
20 -28 -1 189.87 35.5
8 20 -1 186.48 47.77
-20 28 0 -2.04 25.66
8 20 0 20.3 26.97
20 -28 0 40.8 21.89
-28 8 0 4.1 33.02
-20 28 0 62.01 16.96
-20 28 1 126.09 34.27
8 20 1 219.99 57.05
-20 28 1 138.64 27.31
-28 8 1 180.83 44.05
-28 8 2 48.09 27.52
-20 28 2 -3.13 25.91
8 20 2 28.91 32.47
-28 8 2 -0.87 24.69
-20 28 2 6.96 16.17
-28 8 3 78.68 28.27
8 20 3 119.99 53.9
-20 28 3 39.5 24.77
-20 28 3 55.6 29.92
-28 8 4 24.57 21.64
8 20 4 41.51 43.3
-20 28 4 7.67 22.41
-28 8 5 22.37 25.19
-20 28 5 -7.68 28.74
-21 28 -5 6.54 40.13
-28 7 -4 -10.21 32.14
21 -28 -4 -40.91 33
-21 28 -4 35.74 44.78
7 21 -4 56.44 38.08
21 -28 -3 -76.17 34.89
-21 28 -3 -12.58 29.84
7 21 -3 -26.74 28.33
21 -28 -2 55.34 24.28
-21 28 -2 47.35 33.33
7 21 -2 23.17 27.63
-28 7 -2 -15.8 30.44
-21 28 -1 -12.19 27.81
21 -28 -1 48.09 25.94
7 21 -1 -16.13 29.73
-28 7 -1 71.93 35.55
-21 28 0 -35.48 32.5
21 -28 0 44.8 25.73
-28 7 0 9.26 33.02
-21 28 0 15.08 15.6
-21 28 1 -5.47 24.96
7 21 1 43.26 31.23
21 -28 1 42.43 17.54
-28 7 1 52.14 30.05
-21 28 1 -10.54 17.98
-28 7 2 16.72 18.05
7 21 2 -25.96 33.49
-21 28 2 104.39 36.3
-21 28 2 54.37 25.4
-28 7 3 26.91 18.72
7 21 3 -39.39 42.04
-21 28 3 11.07 24.95
-21 28 3 7.47 22.01
-28 7 4 48.87 28.79
7 21 4 7.73 35.75
-21 28 4 32.52 28.1
-28 7 5 11.41 24.32
-21 28 5 -3.4 28.73
-22 28 -5 74.57 49.73
22 -28 -4 32.42 30.32
-28 6 -4 39.96 42.42
6 22 -4 -27.46 32.58
-22 28 -4 42.79 39.85
22 -28 -3 54.65 31.98
-22 28 -3 29.42 38.19
6 22 -3 27.42 26.4
-28 6 -3 37.48 32.8
-28 6 -2 -0.13 35.69
22 -28 -2 23.23 22.74
-22 28 -2 19.55 29.99
6 22 -2 -4.8 27.46
-28 6 -1 0.21 28.94
-22 28 -1 28.07 28.63
22 -28 -1 28.86 19.69
6 22 -1 14.76 27.11
-22 28 0 -23.16 31.44
22 -28 0 3.84 13.93
6 22 0 -29.95 27.34
-28 6 0 -6.99 29.76
-22 28 0 -3.18 12.95
-22 28 1 32.75 29.63
6 22 1 27.19 30.17
22 -28 1 33.6 16.38
-28 6 1 7.26 26.55
-22 28 1 12.63 14.08
6 22 2 -2.02 36.09
-22 28 2 -16.21 27.95
-22 28 2 27.92 16.65
6 22 3 37.59 33.97
-28 6 3 53.41 26.99
-22 28 3 -14.13 25.55
-22 28 3 -8.75 20.48
-28 6 4 -3.2 20.56
6 22 4 31.54 36.16
-22 28 4 53.21 30.87
-28 6 5 -18.08 24
-23 28 -5 5.76 35.89
23 -28 -4 49.46 37.5
5 23 -4 45.18 35.31
-23 28 -4 -3.69 38.53
-28 5 -3 -6.31 32.84
23 -28 -3 102.09 37.38
5 23 -3 79.55 38.69
-23 28 -3 27.79 38.38
-28 5 -2 -31.24 35.52
23 -28 -2 -22.82 23.11
5 23 -2 -23.11 26.01
-23 28 -2 63.34 37.35
23 -28 -1 11.51 17.75
-23 28 -1 64.09 31.68
5 23 -1 7.6 25.21
-28 5 -1 -2.58 31.05
23 -28 0 170.8 31.59
-23 28 0 99.24 41.61
5 23 0 111.54 40.41
-28 5 0 92.04 37.28
-23 28 0 143.65 28.53
5 23 1 1.61 32.36
-23 28 1 36.87 33.92
-23 28 1 25.39 16.72
5 23 2 12.43 32.63
-23 28 2 65.55 34.53
-23 28 2 -19.14 20.27
-28 5 3 17.09 22.08
5 23 3 40.17 36.41
-23 28 3 71.08 38.14
-23 28 3 9.01 20.17
-28 5 4 44.6 27.09
5 23 4 -21.07 34.01
-23 28 4 6.47 23.15
-24 28 -5 71.36 48.41
24 -28 -4 -10.94 26.54
4 24 -4 47.3 37.82
-24 28 -4 -15.33 36.64
24 -28 -3 16.45 27.45
4 24 -3 11.97 26.42
-24 28 -3 -3.81 30.29
24 -28 -2 76.66 37.45
4 24 -2 62.62 36.05
-24 28 -2 49.84 34.56
-28 4 -2 37.08 37.45
24 -28 -1 17.51 20.4
4 24 -1 -35.18 31.44
-24 28 -1 10.13 30.15
-28 4 -1 -15.89 34.26
24 -28 0 79.96 23.48
4 24 0 56.12 36.32
-24 28 0 66.82 38.54
-24 28 0 71.07 22.13
4 24 1 13.04 29.51
-24 28 1 46.42 33.61
-24 28 1 -4.45 17.9
4 24 2 85.86 41.52
-24 28 2 124.31 47.47
-24 28 2 49.63 21.86
-28 4 3 -2.81 18.98
4 24 3 13.19 28.24
-24 28 3 -48.41 34.31
-24 28 3 -2.4 23.54
-28 4 4 26.21 28.73
4 24 4 26.11 34.46
-24 28 4 33.92 32.27
-25 28 -5 103.65 55.25
25 -28 -4 64.4 42.57
3 25 -4 6 31.13
-25 28 -4 27.15 35.08
25 -28 -3 34.63 31.72
3 25 -3 85.59 37.39
25 -28 -2 36.74 26.66
3 25 -2 38.81 24.58
-25 28 -2 4.18 36.22
25 -28 -1 48.39 20.75
3 25 -1 50.87 35.31
-25 28 -1 64.79 38.67
25 -28 0 144.32 29.29
3 25 0 152.89 45.96
-25 28 0 79.6 36.18
-25 28 0 132.92 28.46
3 25 1 34.25 34.83
-25 28 1 57.62 36.33
-25 28 1 0.13 15.69
-25 28 2 -5.56 27.92
-25 28 2 47.29 26.32
-28 3 3 -35.61 27.36
3 25 3 58.95 37.09
-25 28 3 61.83 30.84
-25 28 3 31.29 24.89
-28 3 4 -10.95 22.77
3 25 4 -24.56 37.09
-25 28 4 11.46 29.84
-26 28 -5 -64.07 46.18
26 -28 -4 -8.81 32.59
2 26 -4 39.52 36.65
-26 28 -4 -6.39 35.24
26 -28 -3 -45.37 29.72
-26 28 -3 1.89 34.04
26 -28 -2 -6.9 25.27
2 26 -2 50.06 32.15
-26 28 -2 -8.17 36.01
26 -28 -1 55.43 22.77
2 26 -1 81.56 40.07
-26 28 -1 102.49 45.66
-26 28 0 26.1 17.29
26 -28 0 28.6 23.09
2 26 0 -12.41 28.42
-26 28 0 -29.91 33.78
2 26 1 142.95 46.6
-26 28 1 135.58 47.52
-26 28 1 73.69 26.62
2 26 2 58.39 39.18
-26 28 2 9.17 29.32
-26 28 2 -0.09 17.24
2 26 3 9.73 36.42
-26 28 3 31.88 30.62
-26 28 3 36.1 27.06
-28 2 4 25.63 24.95
-26 28 4 19.95 25.11
-27 28 -5 26.62 39.45
27 -28 -4 -8.4 33.08
1 27 -4 0.61 35.82
-27 28 -4 28.11 43.18
27 -28 -3 164.59 44.67
1 27 -3 121.3 43.32
-27 28 -3 74.08 48.47
27 -28 -2 58.73 31.78
1 27 -2 128.88 47.03
-27 28 -2 72.17 40.15
27 -28 -1 69.14 26.65
1 27 -1 29.14 32.93
-27 28 -1 0.76 31.55
-27 28 0 0.08 16.52
27 -28 0 -0.24 13.95
1 27 0 44.91 34.55
1 27 1 40.24 38.69
-27 28 1 -18.29 27.32
-27 28 1 53.82 23.19
1 27 2 3.56 28.93
-27 28 2 78.23 41.63
-27 28 2 13.61 18.94
1 27 3 78.88 42.64
-27 28 3 91.21 42.89
-27 28 3 35.59 26.25
-28 1 4 115.25 41.25
1 27 4 39.27 46.33
-27 28 4 1.12 27.8
-28 28 -5 -107.7 61
-28 28 -4 36.89 39.07
28 -28 -4 61.11 35.1
0 28 -4 31.73 39.8
28 -28 -3 142.15 46.33
0 28 -3 35.53 34.82
-28 28 -3 29.64 39.18
28 -28 -2 23.66 27.27
0 28 -2 33.11 30.37
-28 28 -2 93.66 45.55
28 -28 -1 23.62 20.16
0 28 -1 51.05 31.73
-28 28 -1 29.63 35.08
-28 28 0 -6.22 20
-28 28 0 -17.5 30.89
0 28 1 58.05 37.54
-28 28 1 15.92 36
-28 28 1 30.57 20
0 28 2 5.98 29.85
-28 28 2 19.99 28.92
-28 28 2 58.34 27.93
0 28 3 71.41 37.23
-28 28 3 6.39 20.47
-28 28 3 39.54 41.1
0 28 4 33.05 41.5
-28 28 4 -24.01 32.06
-29 28 -4 -19.89 37.67
29 -28 -4 18.95 36.24
-1 29 -4 42.96 42.13
29 -28 -3 -16.33 29.13
-1 29 -3 80.6 39.41
-29 28 -3 23.58 48.56
29 -28 -2 64.72 28.41
-1 29 -2 49.23 33.47
-29 28 -2 28.96 40.96
29 -28 -1 16.85 21.71
-1 29 -1 -21.77 29.15
-29 28 -1 -57.83 43.44
-29 28 0 44.93 23.29
-1 29 0 46.81 33.3
-29 28 0 54.36 41.84
-1 29 1 48.36 37.31
-29 28 1 -12.85 34.85
-29 28 1 49.99 25.05
-29 28 2 22.19 33.27
-29 28 2 40.63 19.22
-29 28 3 68.58 36.62
-1 29 3 111.22 56.43
-1 29 3 23.38 31.57
-29 28 3 -20.55 22.98
-1 29 4 69.85 41.75
-29 28 4 20.62 25.87
-29 27 -5 -33.51 47.86
-29 27 -4 44.21 45.85
29 -27 -4 16.77 35.85
-2 29 -4 53.98 48.66
29 -27 -3 -22.17 29.38
-2 29 -3 48.18 37.79
-29 27 -3 7.71 40.63
29 -27 -2 15.64 24.51
-2 29 -2 42.23 36.86
-29 27 -2 28.9 43.82
29 -27 -1 0.36 18.85
-2 29 -1 -19.03 31.53
-29 27 -1 -20.61 40.17
-29 27 0 18.87 17.78
-2 29 0 -35.28 34.1
-29 27 0 -46.42 38.32
-29 27 1 38.65 24.47
-2 29 1 -12.4 29.91
-29 27 1 9.78 33.83
-2 29 2 31.69 28.68
-29 27 2 -45.01 39.44
-29 27 2 -17.51 21.53
-29 27 3 10.02 30.94
-2 29 3 37.23 46.29
-2 29 3 16.25 28.44
-29 27 3 16.67 23.65
-2 29 4 24.8 36.04
-29 27 4 78.19 33.13
-29 26 -5 35.51 45.75
-29 26 -4 10.43 35.34
29 -26 -4 18.13 32.42
-3 29 -4 39.19 39.4
-29 26 -3 11.21 37.15
29 -26 -3 101.83 37.93
-3 29 -3 3.45 30.97
29 -26 -2 -6.22 24.28
-3 29 -2 2.5 28.04
-29 26 -2 -62.6 37.33
29 -26 -1 53.97 25.64
-3 29 -1 142.43 49.66
-29 26 -1 111.92 49.07
-29 26 0 7.18 22.47
-3 29 0 8.84 28.09
-29 26 0 10.17 32.63
-29 26 1 100.3 30.12
-3 29 1 95.91 39.28
-29 26 1 93.48 48.9
-3 29 2 -43.81 32.64
-29 26 2 -2.55 19.3
-29 26 2 -14.17 33.95
-29 26 3 49.62 41.28
-3 29 3 53.58 41.72
-29 26 3 0.3 19.82
-3 29 4 -55.42 47.43
-29 26 4 16.88 22.55
-29 25 -5 37.36 48.59
-29 25 -4 24.26 44.94
29 -25 -4 34.21 37.85
-4 29 -4 -12.09 37.76
-29 25 -3 -11.99 37.49
29 -25 -3 57.19 36.02
-4 29 -3 31.05 38.07
29 -25 -2 -31.69 28.46
-4 29 -2 -51.43 34.58
-29 25 -2 -54.8 38.13
29 -25 -1 30.9 25.72
-4 29 -1 47.96 39.46
-29 25 -1 104.47 53.02
-29 25 0 8.41 18.09
-4 29 0 96.3 37.8
-29 25 0 42.17 33.33
-29 25 1 20.33 21.74
-4 29 1 39.72 36.29
-29 25 1 56.01 39.6
-29 25 2 27.95 36.18
-4 29 2 0.56 27.08
-29 25 2 19.68 19.67
-4 29 3 78.93 44.94
-29 25 3 -11.48 29.24
-4 29 3 65.08 31.67
-29 25 3 66.01 31.63
-4 29 4 6.65 29.06
-29 25 4 -12.13 27.49
-29 24 -5 -6.04 43.42
-5 29 -4 26.69 33.2
-29 24 -4 5.06 36.63
29 -24 -4 20.01 30.37
-5 29 -4 96.79 48.98
-29 24 -3 26.1 41.61
29 -24 -3 118.3 39.45
-5 29 -3 31.65 30.32
-29 24 -2 -13.06 36.26
29 -24 -2 14.36 24.67
-5 29 -2 66.48 40.01
29 -24 -1 19.53 18.38
-5 29 -1 16.64 27.68
-29 24 -1 -13.43 30.8
-29 24 0 66.4 25.68
-5 29 0 125.68 44.84
-29 24 0 16.35 35.58
-29 24 1 58.92 32.96
-29 24 1 29.99 18.78
-29 24 2 -32.86 33.21
-5 29 2 -7.52 27.24
-29 24 2 5.6 18.33
-5 29 3 41.74 35.76
-5 29 3 -8.96 28.57
-29 24 3 -22.5 21.26
-5 29 4 -35.96 39.32
-29 24 4 6.66 25.2
-29 23 -5 91.57 50.51
-6 29 -4 59.44 37.03
-29 23 -4 30.76 35.88
29 -23 -4 47.52 31.3
-6 29 -4 103.61 56.64
29 -23 -3 32.39 28.63
-29 23 -3 -26.5 44.21
-6 29 -3 52.64 38.51
-29 23 -2 45.25 45.11
29 -23 -2 93.66 27.66
-6 29 -2 56.2 31.82
-29 23 -1 -1.63 31.32
29 -23 -1 47.9 28.74
-6 29 -1 27.86 29.41
-29 23 0 -41.75 27.52
-29 23 0 30.92 22.28
-6 29 0 -21.99 32.19
-29 23 1 12.42 16.08
-29 23 1 -12 32.18
-6 29 1 25.44 33.29
-29 23 2 54.77 32.49
-6 29 2 72.29 33.02
-6 29 2 95.24 40.95
-29 23 2 77.45 28.21
-6 29 3 48.25 27.3
-29 23 3 9.82 36.34
-6 29 3 47.09 33.75
-29 23 3 3.24 20.68
-6 29 4 -1 27.67
-29 23 4 24.11 25.74
-29 22 -5 -44.46 44.35
-7 29 -4 -29.34 29.22
29 -22 -4 6.47 32.78
-29 22 -4 29.69 43.17
-7 29 -4 51.5 46.49
-7 29 -3 77.41 40.12
-29 22 -3 63.48 42.93
29 -22 -3 163.27 41.93
-7 29 -3 126.19 47.09
-29 22 -2 36.87 37.79
29 -22 -2 69.85 26.65
-7 29 -2 63.56 36.44
-29 22 -1 221.16 57.13
29 -22 -1 169.81 34.95
-7 29 -1 138.1 47.26
-29 22 0 -2.95 35.57
-29 22 0 4.76 17.52
-7 29 0 -50.09 33.03
-29 22 1 206.68 52.09
-7 29 1 184.59 44.14
-7 29 1 210.13 50.64
-29 22 1 143.01 33.41
-7 29 2 -2.59 26.62
-29 22 2 34.99 34.45
-7 29 2 22.09 29
-29 22 2 20 17.64
-29 22 3 151.74 51.38
-7 29 3 157.52 48.06
-29 22 3 75.75 28.7
-7 29 4 -34.45 32.63
-29 22 4 -68.42 31.03
-29 21 -5 14.88 34.74
-8 29 -4 50.48 30.3
29 -21 -4 33.03 27.74
-29 21 -4 83.75 53.78
-8 29 -4 69.07 43.41
-8 29 -3 -1.76 26.02
-29 21 -3 47.57 49.27
29 -21 -3 27.06 26.95
-8 29 -3 16.99 30.46
-29 21 -2 16.64 32.96
-8 29 -2 10.23 27
29 -21 -2 52.06 28.2
-8 29 -2 41.25 32.91
-29 21 -1 229.39 56.53
-8 29 -1 234.65 54.72
-8 29 0 -2.79 25.5
-29 21 0 -0.96 17.05
-29 21 0 5.13 29.46
-8 29 0 0.36 34.8
-8 29 1 224.97 48.9
-29 21 1 214.15 51.3
-8 29 1 199.18 53.58
-29 21 1 205.91 36.71
-8 29 2 27.32 32.02
-29 21 2 -16.35 26.83
-8 29 2 22.71 24
-29 21 2 11.25 18.78
-8 29 3 -0.54 27.97
-29 21 3 -27.28 32.4
-29 21 3 19.55 19.84
-8 29 4 25.68 31.7
-8 29 4 51.18 40.24
-29 21 4 63.05 27.83
-29 20 -5 28.46 39.67
-9 29 -4 -11.33 27.51
29 -20 -4 1.27 24.24
-29 20 -4 -28.05 36.41
-9 29 -4 -4.41 35.12
-9 29 -3 102.42 35.37
-29 20 -3 112.15 50.29
29 -20 -3 115.85 37.38
-9 29 -3 -7.34 30.12
-9 29 -2 -24.22 28.35
-29 20 -2 10.31 32.66
-9 29 -2 23.71 29.2
-9 29 -1 0.84 22.92
-29 20 -1 3.26 31.09
-9 29 -1 32.5 29.15
-9 29 0 82.19 33.38
-29 20 0 66.05 41.21
-9 29 0 108.67 23.97
-9 29 0 130.56 41.74
-29 20 1 15.16 16.21
-9 29 1 46.54 30.34
-29 20 1 -2.25 28.54
-9 29 1 47.03 31.95
-9 29 2 41.91 30.75
-29 20 2 46.79 29.57
-9 29 2 22.48 26.52
-29 20 2 14.74 20.58
-9 29 3 41.92 33.09
-29 20 3 33.64 31.45
-29 20 3 49.62 26.36
-9 29 4 -25.65 31.42
-29 20 4 28.29 27.77
-29 19 -5 61.65 49.13
-10 29 -4 -29.72 36.23
-29 19 -4 48.01 45.53
-10 29 -3 34.73 31.95
-29 19 -3 14.43 33.94
-10 29 -3 64.95 45.67
-10 29 -2 27.35 25.06
-29 19 -2 69.1 40.21
-10 29 -2 -49.04 37.14
-29 19 -1 -3.18 32.61
-10 29 -1 28.86 29.91
-10 29 -1 21.18 29.98
-10 29 0 40.41 32.43
-29 19 0 -25.41 30.32
-10 29 0 40.7 14.51
-10 29 0 -11.93 26.38
-29 19 1 23.28 20.32
-29 19 1 73.03 39.99
-10 29 1 23.78 28.2
-10 29 1 42.01 20.95
-10 29 1 8.86 25.89
-29 19 2 51.85 25.64
-10 29 2 -8.42 18.3
-29 19 2 -43.58 37.84
-10 29 2 85.28 39.2
-29 19 3 1.51 28.05
-10 29 3 -19.5 22.44
-10 29 3 69.84 33.33
-29 19 3 32.34 26.16
-10 29 4 39.16 25.58
-29 19 4 2.87 22.41
-10 29 5 -0.86 29.61
-29 18 -5 16.22 37.76
-11 29 -5 31.41 44.2
-11 29 -4 -26.53 38.05
18 11 -4 50.92 27.49
-29 18 -4 75.31 49.22
18 11 -3 5.18 20.83
-11 29 -3 83.5 36.68
-29 18 -3 -25.27 36.32
-11 29 -3 -29.76 36.6
-11 29 -2 53.44 32.23
-29 18 -2 69.53 43.13
-11 29 -2 39.03 31.69
-11 29 -1 71.12 29.82
-29 18 -1 47.73 38.7
-11 29 -1 138.27 44.62
-11 29 0 197.55 44.52
-11 29 0 289.98 62.59
-11 29 0 216.51 27
-29 18 0 222.46 55.48
-11 29 1 105.41 36.72
-11 29 1 94.75 25.49
-29 18 1 96.95 41.88
-11 29 1 111.31 43.2
-29 18 1 109.89 31.01
-29 18 2 28.13 23.2
-11 29 2 19.47 22.3
-11 29 2 -18.68 31.36
-29 18 2 63.16 36.64
-29 18 3 -9.24 32.16
-11 29 3 -0.93 25.56
-11 29 3 -21.49 26.52
-29 18 3 26.68 18.88
-11 29 4 2.16 26.17
-29 18 4 53.47 31.52
-11 29 5 -6.22 32.32
-12 29 -5 -18.17 36.64
-29 17 -5 60.13 51.38
-29 17 -4 58.7 51.23
-12 29 -4 67.37 45.6
12 -29 -4 18.29 21.47
17 12 -4 7.76 19.69
17 12 -3 -3.1 22.72
-12 29 -3 -71.25 43.91
-12 29 -2 14.81 22.85
-29 17 -2 -13.06 31.57
-12 29 -2 64.73 39.26
-12 29 -1 -4.31 21.81
-29 17 -1 77.82 44.21
-12 29 -1 51.93 35.55
-12 29 0 61.66 29.7
-12 29 0 82.82 20.31
-29 17 0 33.34 31.52
-12 29 0 66.98 30.76
-29 17 1 9.14 15.87
-12 29 1 30.29 20.66
-29 17 1 41.34 37.74
-12 29 1 67.79 33.26
-29 17 2 48.07 21.16
-12 29 2 32.22 20.15
-12 29 2 10.53 27.47
-29 17 2 14.26 26.18
-29 17 3 39.24 31.86
-12 29 3 39.85 28.1
-12 29 3 5.66 27.03
-29 17 3 -9.41 21.97
-12 29 4 -4.57 32.01
-29 17 4 37.64 27.04
-12 29 5 56.87 35.88
-13 29 -5 26.21 43.92
-29 16 -5 38.68 45.96
-13 29 -4 80.62 43.01
-29 16 -4 -7.94 34.2
13 -29 -4 37.92 28.29
16 13 -4 25.55 21.19
-13 29 -3 -25.63 32.91
16 13 -3 20.94 23.85
-29 16 -3 -11.79 39.06
-29 16 -2 -0.28 32.9
-13 29 -2 12.09 31.3
-29 16 -1 19.9 29.82
-13 29 -1 55.86 37.44
-13 29 0 259.03 53.93
-13 29 0 214.23 28.1
-29 16 0 269.22 59.21
-29 16 1 20.82 20.49
-13 29 1 33.79 17.26
-13 29 1 7.26 25.56
-29 16 1 -24.01 34.04
-29 16 2 25.26 18.15
-29 16 2 142.98 45.96
-13 29 2 101.32 29.91
-13 29 2 -20.69 29.32
-13 29 3 48.35 25.74
-29 16 3 43.86 28.35
-13 29 3 5.44 24.63
-29 16 3 -19 21.6
-13 29 4 -40.18 23.64
-29 16 4 -13.01 26.69
-13 29 5 -13.69 28.06
-14 29 -5 -5.37 39.6
-29 15 -5 50.33 43.93
-14 29 -4 104.1 49.09
14 -29 -4 40.25 25.75
15 14 -4 3.08 20.93
-29 15 -4 16.12 35.16
-14 29 -3 -78.2 39.36
-29 15 -3 -34.58 33.41
15 14 -3 11.91 22.09
15 14 -2 43.97 25.69
-29 15 -2 8.26 32.16
-14 29 -2 46.74 34.12
-29 15 -1 -15.48 31.39
-14 29 -1 80.89 38.69
-14 29 0 14.84 13.61
-14 29 0 -16.34 35.4
-29 15 0 21.06 27.7
-29 15 1 -3.74 29.87
-29 15 1 8.61 16.99
-14 29 1 25.29 17.89
-14 29 1 71.09 39.53
-29 15 2 8.14 18.99
-29 15 2 21.91 30.09
-14 29 2 -6.72 18.49
-14 29 2 43.22 31.06
-29 15 3 -15.71 23.47
-14 29 3 21.43 21.87
-29 15 3 43.49 35.51
-14 29 3 -13.79 26.82
-14 29 4 49.56 32.3
-29 15 4 33.3 28.3
-14 29 5 105.26 41.97
-29 14 -5 -17.95 42.75
-15 29 -5 -40.33 39.49
-15 29 -4 13.56 30.73
15 -29 -4 54.52 30.35
14 15 -4 27.14 27.62
-29 14 -4 33.86 51.52
-15 29 -3 -10.72 30.09
-29 14 -3 24.4 37.19
15 -29 -3 9.33 20.16
14 15 -3 9.45 20.84
-15 29 -2 -13.73 31.45
-29 14 -2 -9.07 30.05
14 15 -2 35.3 28.46
-29 14 -1 11.99 33.77
-15 29 -1 -11.85 27.24
-15 29 0 253.43 53.38
-15 29 0 189.39 26.34
-29 14 0 281.93 58.25
-29 14 1 -6.25 16.43
-15 29 1 -6.39 13.64
-15 29 1 18.08 24.47
-29 14 1 47.09 32.89
-29 14 2 7.44 16.43
-29 14 2 -39.5 29.99
-15 29 2 23.77 22.31
-15 29 2 1.8 23.82
-29 14 3 31.87 24.67
-29 14 3 29.74 30.44
-15 29 3 34.92 25.97
-15 29 3 51.34 30.66
-15 29 4 -9.57 25.91
-29 14 4 0.02 21.13
-15 29 5 -26.91 33.19
-29 13 -5 -62.41 45.14
-16 29 -5 108.65 51.27
-16 29 -4 46.27 36.28
16 -29 -4 -2.03 23.37
13 16 -4 23.98 24.92
-29 13 -4 65.15 44.88
-16 29 -3 15.49 33.49
16 -29 -3 -0.25 25.7
13 16 -3 47.64 29.17
-29 13 -3 38.82 38.31
-16 29 -2 49.15 36.38
13 16 -2 10.6 23.31
-29 13 -2 -7.94 37.81
-29 13 -1 78.36 38.26
13 16 -1 100.62 39.36
-16 29 -1 88.45 37.74
-29 13 0 25.37 28.92
-16 29 0 31.56 15.13
-16 29 0 43.88 31.39
-29 13 1 55.97 24.13
-29 13 1 64.31 31.71
-16 29 1 64 18.32
-16 29 1 132.99 42.51
-29 13 2 -16.97 20.9
-16 29 2 -11.14 19.37
-29 13 2 13.72 32.49
-16 29 2 -24.38 30.79
-29 13 3 -5.43 19.45
-16 29 3 7.07 27.78
-16 29 3 5.45 20.56
-29 13 3 1.87 29.53
-29 13 4 10.52 24.94
-16 29 4 27.21 28.25
-16 29 5 -13.54 34.77
-17 29 -5 17.07 38.74
-29 12 -5 0.88 34.01
-29 12 -4 -3.18 32.93
17 -29 -4 -30.97 27.39
-17 29 -4 -14.64 35.58
12 17 -4 12.18 23.5
-17 29 -3 -17.53 34.17
17 -29 -3 57.63 30.88
12 17 -3 -10.33 24.09
-29 12 -3 22.01 36.14
-17 29 -2 8.79 27.86
12 17 -2 -20.02 26.19
-29 12 -2 -27.76 38.22
-17 29 -1 -15.91 29.44
12 17 -1 72.47 36.78
-29 12 -1 13.81 37.24
-29 12 0 674.13 83.33
-17 29 0 647.66 81.31
-17 29 0 632.98 46.45
-29 12 1 -1.7 17.03
-29 12 1 46.1 32.85
-17 29 1 2.27 14.07
-17 29 1 18.26 24.97
-17 29 2 31.85 28.39
-29 12 2 35.35 23.97
-29 12 2 0.64 32.07
-17 29 2 -4.97 17.08
-29 12 3 -27.4 25.87
-17 29 3 32.51 26.66
-29 12 3 -46.6 32.93
-29 12 4 27.65 24.42
12 17 4 -10.21 50.49
-17 29 4 23.2 26.99
-17 29 5 -16.05 35.77
-29 11 -5 43.72 39.34
-18 29 -5 37.33 37.42
-29 11 -4 62.03 39.99
18 -29 -4 23.29 29.8
-18 29 -4 -24.61 32.59
11 18 -4 -23.19 23.88
-18 29 -3 36.98 39.74
18 -29 -3 18.98 25.47
11 18 -3 54.67 27.67
-18 29 -2 -36.05 33.83
18 -29 -2 -14.86 22.63
11 18 -2 -30.33 23.09
-29 11 -2 -56.42 44.31
-18 29 -1 48.07 35.51
11 18 -1 24.19 31.55
-29 11 -1 -13.38 30.62
-18 29 0 -15.55 26.13
11 18 0 66.58 33.24
-29 11 0 -74.13 41.14
-18 29 0 12.78 12.29
-18 29 1 16.8 29.47
11 18 1 17.98 35.34
-18 29 1 20.21 16.8
-29 11 1 36.36 27.13
-18 29 2 25.23 28.89
-29 11 2 -8.01 16.99
-29 11 2 27.67 26.63
-18 29 2 18.12 16.72
-29 11 3 -14.26 20.52
-18 29 3 22.42 28.52
11 18 3 -30.88 34.22
-29 11 3 29.67 25.04
-18 29 3 52.55 29.16
-29 11 4 -16.15 21.32
11 18 4 29.48 47.62
-18 29 4 75 34.2
-18 29 5 21.16 26.92
-29 10 -5 -0.78 34.02
-19 29 -5 6.9 37.14
19 -29 -4 34.15 27.57
-19 29 -4 16.27 34.34
10 19 -4 -34.66 30.95
-29 10 -4 23.39 31.61
-29 10 -3 12.53 32.85
19 -29 -3 64.24 33.46
10 19 -3 84.6 33.33
-19 29 -3 30.35 32.86
-19 29 -2 10.88 32.46
19 -29 -2 25.65 23.55
10 19 -2 26.16 24.69
-29 10 -2 42.28 34.14
-19 29 -1 49.75 35.86
10 19 -1 67.56 34.43
-29 10 -1 13.46 28.61
-19 29 0 38.2 29.96
10 19 0 123.74 42.23
-19 29 0 75.73 17.99
-29 10 0 37.69 41.46
-19 29 1 -13.16 24.15
-29 10 1 -37.65 32.42
10 19 1 7.52 35.64
-19 29 1 41.14 19.8
-29 10 2 26.56 18.48
-19 29 2 -15.2 26.05
10 19 2 48.6 39.77
-19 29 2 17.61 20.78
-29 10 2 27.14 30.25
-29 10 3 50.94 26.31
-19 29 3 88.29 34.65
10 19 3 116.13 55.67
-19 29 3 49.17 27.89
-29 10 4 36.23 27.93
-19 29 4 34.41 29.8
-19 29 5 2.13 31.42
-29 9 -5 75.17 40.13
-20 29 -5 35.52 43.15
-29 9 -4 -7.11 40.27
20 -29 -4 -6.64 28.23
-20 29 -4 13.69 33.38
9 20 -4 -13.84 24.5
20 -29 -3 44.13 31.01
-20 29 -3 100.11 47.97
9 20 -3 -38.75 29.33
-29 9 -3 25.65 43.04
-29 9 -2 51.91 36.57
-20 29 -2 97.13 48.87
20 -29 -2 55.44 36.91
9 20 -2 26.57 24.82
-29 9 -1 -5.78 29.28
-20 29 -1 38.6 31.91
20 -29 -1 102.19 31.87
9 20 -1 133.43 44.22
-20 29 0 34.76 29.53
-29 9 0 71.61 36.27
9 20 0 128.64 41.49
-20 29 0 110.77 23.83
-20 29 1 61.23 33.25
9 20 1 86.95 43.78
-29 9 1 40.54 26.71
-20 29 1 39.64 18.33
-29 9 2 69.61 27.9
-20 29 2 41.06 25.71
-20 29 2 32.74 20.75
-29 9 2 49.51 32.33
-29 9 3 -20.08 19.05
9 20 3 34.64 37.36
-20 29 3 -11.19 29.64
-20 29 3 -6.18 19.98
-29 9 4 20.54 24.08
9 20 4 -11.42 39.48
-20 29 4 -44.72 28.91
-21 29 -5 -33.72 42.6
21 -29 -4 -8.32 25.81
-21 29 -4 -46.19 34.5
8 21 -4 10.98 29.43
-29 8 -4 17.95 38.5
21 -29 -3 27.81 27.76
-21 29 -3 22.63 38.82
8 21 -3 55.86 32.46
-29 8 -3 58.98 47.69
-21 29 -2 24.2 33
21 -29 -2 11.88 26.88
8 21 -2 43.5 29.29
-29 8 -2 34.31 38.09
-21 29 -1 -63.64 38.35
21 -29 -1 14.12 24.13
8 21 -1 24.22 26.08
-29 8 -1 -17.7 27.31
-21 29 0 167.47 50.22
21 -29 0 173.16 34.12
8 21 0 146.84 55.34
-29 8 0 142.96 47.19
-21 29 0 159.54 27.42
-29 8 1 9.57 25.8
-21 29 1 71.69 41.27
8 21 1 29.41 36.81
21 -29 1 3.23 14.12
-21 29 1 3.14 16.71
-29 8 2 5.19 20.33
-21 29 2 -21.02 26.91
8 21 2 2.66 33.71
-29 8 2 21.47 25.34
-29 8 3 74.68 28.69
8 21 3 62.47 47.39
-21 29 3 119.49 40.37
-21 29 3 26.6 24.41
-29 8 4 57.83 27.57
8 21 4 -16.77 45.22
-21 29 4 17.21 25.01
-22 29 -5 49.75 44.38
-29 7 -4 -12.94 32.24
22 -29 -4 -11.56 27.91
7 22 -4 -9.83 27.68
-22 29 -4 -10.33 36.4
22 -29 -3 7.57 24.85
-22 29 -3 3.64 30.42
7 22 -3 21.5 30.59
-29 7 -3 31.18 37.16
22 -29 -2 61.99 31.83
-22 29 -2 19.39 35.29
7 22 -2 3.31 24.73
-29 7 -2 112.08 48.43
-22 29 -1 89.76 33.79
22 -29 -1 37.36 23.49
7 22 -1 40.03 25.37
-29 7 -1 16.4 31.53
7 22 0 602.9 83.5
22 -29 0 468.5 51.7
-29 7 0 464.05 72.23
-22 29 0 595.97 50.16
-22 29 0 537.67 75.84
-29 7 1 15.59 33.14
-22 29 1 -3.18 30.2
-22 29 1 37.54 16.88
7 22 2 94.21 51.39
-22 29 2 13.87 28.5
-22 29 2 27.75 19.97
-29 7 3 51.66 25.6
7 22 3 15.74 38.24
-22 29 3 46.53 27.43
-22 29 3 25.59 24.74
-29 7 4 -46.04 30.2
-22 29 4 -11.08 25.71
-23 29 -5 38.49 41.3
23 -29 -4 25.59 33.16
6 23 -4 17.55 35.91
-23 29 -4 5.23 37.15
23 -29 -3 -29.78 27.32
-29 6 -3 20.31 37.36
6 23 -3 -27.4 28.19
-23 29 -3 17.73 39.75
23 -29 -2 45.73 31.5
-23 29 -2 142.51 49.98
6 23 -2 66.8 36.59
-29 6 -2 44.15 37.65
23 -29 -1 -12.29 21.72
-23 29 -1 24.02 31.74
6 23 -1 -17.7 30.03
-29 6 -1 58.14 33.89
-23 29 0 47.79 36.08
23 -29 0 21.07 17.26
6 23 0 -51.29 38.55
-29 6 0 -26.2 32.9
-23 29 0 13.24 17.87
6 23 1 -10.46 31.63
-23 29 1 11.85 27.04
-29 6 1 67.16 33.66
-23 29 1 -29.39 19.24
-23 29 2 -4.24 29.7
-23 29 2 27.88 19.45
-29 6 3 -18.9 23.82
6 23 3 35.88 43.72
-23 29 3 80.48 40.86
-23 29 3 30.05 25.29
-29 6 4 1.83 21.75
-23 29 4 8.64 24.12
-24 29 -5 28.29 39.09
24 -29 -4 18.35 28.14
5 24 -4 15.35 29.04
-24 29 -4 53.42 47.74
24 -29 -3 146.91 42.22
5 24 -3 123.17 43.2
-24 29 -3 58.48 48.91
-29 5 -3 78.43 45.89
24 -29 -2 7.08 21.89
5 24 -2 44.58 33.42
-24 29 -2 4.27 32.11
-29 5 -2 -23.26 35.59
24 -29 -1 58.4 27.19
5 24 -1 34.91 35.01
-24 29 -1 78 40.02
-29 5 -1 -27.15 34.61
24 -29 0 73.27 20.65
5 24 0 57.52 36.99
-24 29 0 100.2 41.9
-29 5 0 144.41 43.08
-24 29 0 91.9 23.58
5 24 1 42.69 34.94
-24 29 1 38.42 34.39
-24 29 1 36.17 16.06
5 24 2 8.37 29.62
-24 29 2 28.4 27.72
-24 29 2 29.77 19.4
-29 5 3 39.72 28.06
5 24 3 65.51 38.11
-24 29 3 129.33 44.88
-24 29 3 121.89 36.44
-29 5 4 40.26 29.48
5 24 4 -2.95 35.1
-24 29 4 35.2 29.13
-25 29 -5 31.22 42.95
25 -29 -4 -5.1 33.28
4 25 -4 13.34 33.21
-25 29 -4 -29.86 35.24
25 -29 -3 61.75 34.18
4 25 -3 71.47 39.44
-25 29 -3 22.56 34.28
25 -29 -2 31.17 30.4
4 25 -2 24.3 25.81
-25 29 -2 17.33 35.59
25 -29 -1 -2.45 19.77
4 25 -1 18.92 26.64
-25 29 -1 -28.82 35.62
-25 29 0 81.67 24.05
25 -29 0 49.09 20.73
4 25 0 37.18 30.4
-25 29 0 39.55 31.85
4 25 1 17.37 37.43
-25 29 1 38.79 34.41
-25 29 1 35.84 20.44
4 25 2 68.74 43.8
-25 29 2 29.89 25.94
-25 29 2 53.36 26.62
-29 4 3 56.48 29.88
4 25 3 72.59 41.3
-25 29 3 16.8 28.26
-25 29 3 65.31 28.09
-29 4 4 56.85 26.14
4 25 4 -16.94 34.58
-25 29 4 25.04 29.3
-26 29 -5 31.11 43.81
26 -29 -4 -18.51 26.96
3 26 -4 -36.48 35.31
26 -29 -3 22.34 30.13
3 26 -3 58.62 38.06
-26 29 -3 -45.34 37.81
26 -29 -2 -7.56 26.28
3 26 -2 53.64 30.37
-26 29 -2 38.32 38.26
26 -29 -1 115.36 29.56
3 26 -1 171.87 50.11
-26 29 -1 134.52 53.92
-26 29 0 35.9 19.04
26 -29 0 15.1 14.4
3 26 0 -22.85 30.56
-26 29 0 40.73 33.73
3 26 1 103.35 39.94
-26 29 1 90.5 42.36
-26 29 1 60.84 20.15
3 26 2 -12.6 32.48
-26 29 2 43.03 31.48
-26 29 2 69.2 27.66
3 26 3 16.59 37.83
-26 29 3 14.86 30.29
-26 29 3 13.57 21.42
-29 3 4 39.04 29.65
3 26 4 -30.93 38.75
-26 29 4 20.76 26.18
-27 29 -5 77.99 49.75
27 -29 -4 63.19 42.63
2 27 -4 35.5 37.31
-27 29 -4 12.93 41.56
27 -29 -3 15.96 26.33
2 27 -3 26.46 33.58
-27 29 -3 0.77 34.04
27 -29 -2 30.54 27.29
2 27 -2 22.04 32.04
-27 29 -2 21.74 35.28
27 -29 -1 -2.24 18.6
2 27 -1 76.6 41.57
-27 29 -1 18.52 36.31
-27 29 0 4.64 16.62
-27 29 0 -8.85 36.77
2 27 1 -2.14 33.58
-27 29 1 0.1 30.03
-27 29 1 -4.86 16.48
2 27 2 74.9 38.85
-27 29 2 -12.88 27.87
-27 29 2 67.52 27.25
2 27 3 -21.72 29.11
-27 29 3 -16.56 32.5
-27 29 3 39.08 24.76
-29 2 4 31.3 26.27
2 27 4 78.94 46.52
-27 29 4 81.9 36.87
28 -29 -4 22.31 31.18
1 28 -4 11.63 35
-28 29 -4 -79.68 56.83
28 -29 -3 64.13 41.47
1 28 -3 50.17 28.36
-28 29 -3 51.24 46.23
28 -29 -2 13.14 26.2
1 28 -2 5.54 26.25
-28 29 -2 19.85 37.11
28 -29 -1 11.64 19.22
1 28 -1 22.69 28.36
-28 29 -1 -4.09 32.65
-28 29 0 48.58 22.95
1 28 0 55.54 34.45
-28 29 0 110.33 48.85
1 28 1 -14.04 35.73
-28 29 1 10.1 28.79
-28 29 1 13.98 17.55
1 28 2 47.21 39.65
-28 29 2 32.87 31.92
-28 29 2 10.97 17.15
1 28 3 52.64 41.15
-28 29 3 55.6 35.32
-28 29 3 7.34 24.25
1 28 4 7.76 33.15
-28 29 4 68.82 34.2
-29 29 -4 8.8 37.56
29 -29 -4 102.36 47.61
0 29 -4 15.99 41.2
29 -29 -3 20.78 25.95
0 29 -3 46.52 42.45
-29 29 -3 62.24 45.66
29 -29 -2 33.89 29.27
0 29 -2 25.54 30.65
-29 29 -2 1.81 36.99
29 -29 -1 -1.8 17.68
0 29 -1 11.45 31.44
-29 29 -1 29.75 31.48
-29 29 0 28.12 19.93
0 29 0 7.26 29.03
-29 29 0 54.75 35.88
0 29 1 -12.7 34.65
-29 29 1 -29.33 33.77
-29 29 1 40.62 24.4
0 29 2 17.18 29.06
-29 29 2 2.51 31.81
-29 29 2 8.71 18.3
0 29 3 8.28 31.1
-29 29 3 11.45 21.39
-29 29 3 -7.35 31.64
0 29 4 -13.77 35.9
-29 29 4 -24.35 27.78
-30 29 -4 78.09 56.55
30 -29 -4 -7.03 29.74
-1 30 -4 23.64 42.63
30 -29 -3 26.92 27.36
-1 30 -3 -26.6 33.08
-30 29 -3 42.63 39.58
30 -29 -2 33.21 23.7
-1 30 -2 36.25 34.64
-30 29 -2 29.41 37.09
30 -29 -1 96.34 36.1
-1 30 -1 70.98 42.19
-30 29 -1 30.62 37.07
-30 29 0 38.35 24.64
-1 30 0 3.63 31.06
-30 29 0 52.79 35.2
-30 29 1 56.51 24.42
-1 30 1 -23.87 34.78
-30 29 1 42.66 38.49
-1 30 2 3.41 30.24
-30 29 2 -26.64 20.29
-30 29 3 -23.74 32.78
-1 30 3 12.38 49.98
-1 30 3 -21.55 36.67
-30 29 3 -9.6 23.03
-1 30 4 38.12 34.62
-30 29 4 -12.09 23.75
-30 28 -4 77.18 53.15
30 -28 -4 21.97 38.96
-2 30 -4 126.77 54.87
30 -28 -3 1.17 34.28
-2 30 -3 -17.87 32.42
-30 28 -3 14.15 34.96
30 -28 -2 78.15 36.13
-2 30 -2 92.82 37.75
-30 28 -2 154.13 58.61
30 -28 -1 25.7 21.53
-2 30 -1 14.05 32.59
-30 28 -1 50.74 42.69
-30 28 0 11.62 20.03
-2 30 0 84.18 37.52
-30 28 0 1 30.77
-30 28 1 -9.04 20.2
-2 30 1 40.64 38.48
-30 28 1 52.73 39.59
-2 30 2 83.53 40.3
-30 28 2 13.68 34.23
-30 28 2 -2.29 20.26
-30 28 3 -9.6 31.08
-2 30 3 78.85 51.37
-2 30 3 -3.67 30.55
-30 28 3 -14.15 20.18
-2 30 4 29.13 39.45
-30 28 4 83.87 32.67
-30 27 -4 -24.91 49.43
30 -27 -4 96.42 44.46
-3 30 -4 66.26 47.67
-30 27 -3 29.77 44.91
30 -27 -3 -0.34 24.95
-3 30 -3 -6.73 32.71
30 -27 -2 89.32 34.3
-3 30 -2 35.08 37.95
-30 27 -2 38.9 33.27
30 -27 -1 25.16 22.83
-3 30 -1 21.51 32.32
-30 27 -1 102.28 46.36
-30 27 0 4.2 21.24
-3 30 0 22.46 30.89
-30 27 0 -45.8 37.95
-30 27 1 -38.84 22.27
-3 30 1 -28 34.49
-30 27 1 11.51 35.33
-3 30 2 54.96 36.77
-30 27 2 25.05 22.44
-30 27 2 56.76 37.87
-30 27 3 13.86 29.96
-3 30 3 13.18 41.94
-3 30 3 10.67 31.42
-30 27 3 24.74 25.73
-3 30 4 -14.25 36.93
-30 27 4 52.08 31.04
-30 26 -4 38.8 50.3
30 -26 -4 25.76 28.01
-4 30 -4 70.49 46.89
-30 26 -3 -6.3 42.4
30 -26 -3 65.32 34.3
-4 30 -3 82.84 40.7
30 -26 -2 -6.5 20.32
-4 30 -2 68.8 45.13
-30 26 -2 71.23 42.93
30 -26 -1 76.44 27.88
-4 30 -1 87.09 35.72
-30 26 -1 102.72 46.41
-30 26 0 21.39 21.84
-4 30 0 -20.52 25.3
-30 26 1 73.53 29.08
-4 30 1 111.15 42.5
-30 26 1 49.48 43.03
-30 26 2 -35.98 34.89
-4 30 2 36.64 39.28
-4 30 2 31.57 38.82
-30 26 2 -6.72 19.37
-30 26 3 77.77 43.18
-4 30 3 61.91 49.55
-4 30 3 14.13 27.29
-30 26 3 11.77 23.31
-4 30 4 20.05 34.9
-30 26 4 30.71 26.55
-30 25 -5 29.41 40.88
-5 30 -4 54.32 35.19
-30 25 -4 -3.18 40.33
30 -25 -4 -11.06 29.89
-5 30 -4 -52.2 45.33
-30 25 -3 -25.88 41.69
30 -25 -3 87.47 34.24
-5 30 -3 88.37 44.59
-30 25 -2 -63.47 49.9
30 -25 -2 21.12 24.26
-5 30 -2 11.77 32.6
30 -25 -1 2.06 17.35
-5 30 -1 -27.02 31.33
-30 25 -1 54.4 44.96
-30 25 0 58.44 25.77
-5 30 0 96.04 42.88
-30 25 0 72.81 42.45
-30 25 1 32.34 29.63
-30 25 1 47.94 25.3
-5 30 1 -10.38 32.1
-30 25 2 22.45 32.5
-5 30 2 18.05 31.56
-5 30 2 -40.78 32.36
-30 25 2 14.09 18.44
-5 30 3 68.35 41.75
-30 25 3 52.42 39.8
-5 30 3 -12 27.91
-30 25 3 96.5 33.77
-30 25 4 11.73 27.96
-30 24 -5 -1.13 45.08
-30 24 -4 -6.54 41.96
30 -24 -4 69.88 35.52
-6 30 -4 39.64 34.51
-6 30 -4 23.29 38.8
-30 24 -3 43.57 43.5
30 -24 -3 49.81 32.25
-6 30 -3 24.77 32.45
-30 24 -2 100.23 46.03
30 -24 -2 51.99 26.85
-6 30 -2 72.21 36.62
-30 24 -1 44.81 41.33
30 -24 -1 8.34 23.61
-6 30 -1 -0.98 28.13
-30 24 0 11.7 31.96
-30 24 0 29.97 18.68
-6 30 0 9.63 36.08
-30 24 1 11.28 18.67
-30 24 1 14.78 30.13
-6 30 1 19.82 33.19
-30 24 2 83.87 40.25
-6 30 2 33.8 25.14
-6 30 2 -6.41 38.95
-30 24 2 38.54 26.23
-6 30 3 -9.73 28.5
-30 24 3 23.6 37.29
-6 30 3 6.85 29.32
-30 24 3 39.69 24.33
-30 24 4 -13.14 23.51
-30 23 -5 107.22 52.63
-7 30 -4 6.94 29.51
30 -23 -4 -7.54 27.02
-30 23 -4 -10.89 38.32
-7 30 -4 59.37 43.5
-30 23 -3 53.12 41.04
30 -23 -3 81.76 36.06
-7 30 -3 23.31 34.82
-7 30 -3 114.26 41.88
-30 23 -2 16.19 37.54
30 -23 -2 96.69 32.78
-7 30 -2 18.67 33.52
-30 23 -1 -27.84 35.2
-7 30 -1 12.75 27.75
-30 23 0 -22.6 35.69
-30 23 0 22.74 19.23
-7 30 0 61.47 32.31
-30 23 1 24.49 23.87
-30 23 1 53.21 37.62
-7 30 1 15.09 32.02
-7 30 1 81.91 36.91
-7 30 2 16.6 27.27
-30 23 2 44.8 36.57
-7 30 2 61.64 29.59
-30 23 2 43.47 25.96
-30 23 3 24.2 31.5
-7 30 3 69.57 38.67
-30 23 3 46.01 25.35
-30 23 4 -39.73 30.22
-30 22 -5 -11.73 36.71
-8 30 -4 12.37 27.83
30 -22 -4 1.57 29.02
-30 22 -4 32.63 46.59
-8 30 -4 39.07 40.68
-8 30 -3 35.48 35.68
-30 22 -3 -2.16 34.18
30 -22 -3 36.22 28.53
-8 30 -3 108.69 50.1
-8 30 -2 111.48 37.51
-30 22 -2 13.11 33.04
30 -22 -2 34.27 24.95
-8 30 -2 37.95 30.02
-8 30 -1 204.83 50.04
-30 22 -1 242.74 59.56
-8 30 -1 215.23 52.02
-8 30 0 86.4 35.43
-30 22 0 57.86 34.63
-8 30 0 76.65 36.01
-8 30 1 227.09 50.94
-30 22 1 192.11 53.21
-8 30 1 186.32 52.15
-30 22 1 198.45 39.98
-8 30 2 -43.77 30.47
-8 30 2 -8.38 26.37
-30 22 2 1.93 20.23
-8 30 3 -32.34 29.14
-30 22 3 1.99 20.22
-8 30 4 7.76 30.72
-30 22 4 35.19 27.53
-30 21 -5 10.66 45.44
-9 30 -4 -11.83 25.69
30 -21 -4 30.63 30.16
-30 21 -4 64.25 46.33
-9 30 -4 -39.45 39.14
-9 30 -3 -14.14 30.31
-30 21 -3 -22.55 32.62
30 -21 -3 21.81 21.85
-9 30 -3 13.68 30.54
-9 30 -2 -21.92 28.09
-30 21 -2 -9.55 34.62
-9 30 -2 -66.61 41.71
-9 30 -1 20.59 28.08
-30 21 -1 65.96 43.36
-9 30 -1 123.25 41.44
-9 30 0 -1 25.38
-30 21 0 -43.05 29.48
-9 30 0 34.84 17.59
-9 30 0 -9.32 31.84
-30 21 1 24.36 24.64
-9 30 1 40.37 24.17
-30 21 1 80.1 40.43
-9 30 1 97.26 40.36
-30 21 2 59.61 26.67
-9 30 2 5.42 25.07
-30 21 2 19.34 33.92
-9 30 2 30.87 29.57
-9 30 3 14.56 24.62
-9 30 3 -11.58 28.61
-30 21 3 7.09 33.78
-30 21 3 -45.13 27.06
-9 30 4 16.83 30.21
-30 21 4 6.6 23.37
-30 20 -5 -14.59 36.22
-10 30 -4 -18.41 34.11
-30 20 -4 -14.6 35.71
-10 30 -3 18.13 24.31
-10 30 -3 -23.57 30.09
-10 30 -2 6.17 25.61
-30 20 -2 -60.43 44.26
-10 30 -2 -12.81 33.93
-10 30 -1 29.93 27
-30 20 -1 -18.66 37.13
-10 30 -1 11.62 32.49
-10 30 0 -21.18 27.28
-30 20 0 26.9 34.57
-10 30 0 -0.4 13.7
-10 30 0 -48.44 31.85
-30 20 1 13.42 20.52
-10 30 1 97.43 37.2
-30 20 1 65.07 41.34
-10 30 1 20.97 19.91
-10 30 1 28.85 30.61
-30 20 2 17.84 19.93
-10 30 2 11.89 18.24
-30 20 2 31.24 27.18
-10 30 2 79.46 34.35
-30 20 3 19.74 32.11
-10 30 3 37.75 25.9
-10 30 3 7.95 32.45
-30 20 3 18.59 24.7
-10 30 4 20.49 30.73
-30 20 4 39.2 27.86
-30 19 -5 45.71 46.53
-11 30 -4 19.58 36.43
-30 19 -4 -21.34 39.25
19 11 -3 21.2 26.9
-11 30 -3 37.68 30.63
-30 19 -3 -31.44 38.2
-11 30 -3 -25.77 31.29
-11 30 -2 61.15 33.43
-30 19 -2 50.89 38.29
-11 30 -2 -17.05 37.21
-11 30 -1 54.48 30.91
-30 19 -1 46.13 39.32
-11 30 -1 41.84 36.35
-11 30 0 -4.44 27.17
-30 19 0 -4.61 32.68
-11 30 0 26.76 14.87
-11 30 0 46.79 37.43
-30 19 1 75.88 27.32
-11 30 1 15.88 26.87
-11 30 1 98.74 25.33
-30 19 1 -4.18 29.63
-11 30 1 -31.34 35.53
-30 19 2 38.86 22.79
-11 30 2 10.05 17.26
-11 30 2 -7.55 27.71
-30 19 2 1.8 30.25
-30 19 3 -4.6 29.14
-11 30 3 1.48 23.74
-30 19 3 7.97 20.97
-11 30 4 -24.33 28.54
-30 19 4 6.37 25.74
-12 30 -5 24.73 40.94
-30 18 -5 28.47 40.13
-30 18 -4 -1.77 34.2
-12 30 -4 57.99 43.84
12 -30 -4 5.55 24.36
18 12 -4 12.73 21.89
18 12 -3 31.53 32.82
-30 18 -3 79.63 48.7
-12 30 -3 25.22 32.1
-12 30 -2 36.28 34.79
-30 18 -2 75.5 52.11
-12 30 -2 0.03 29.14
-12 30 -1 63.27 34.06
-30 18 -1 60.27 44.21
-12 30 -1 49.22 39
-12 30 0 20.46 31.86
-30 18 0 -15.4 30.97
-12 30 0 23.92 12.71
-12 30 0 55.79 34.24
-30 18 1 58.31 21.26
-12 30 1 83.33 27.39
-30 18 1 120.97 48.61
-12 30 1 27.15 29.52
-30 18 2 26.8 19.18
-12 30 2 33.53 30.17
-12 30 2 -1.49 24.76
-30 18 3 -17.38 32.76
-12 30 3 66.67 32.38
-12 30 3 -8.55 27.23
-30 18 3 65.06 27.12
-12 30 4 33.32 28.26
-30 18 4 28.24 26.05
-13 30 -5 79.87 50.88
-30 17 -5 -43.8 45.51
-13 30 -4 -33.27 36.3
-30 17 -4 69.65 49.68
13 -30 -4 10.38 22.51
17 13 -4 20.79 23.34
-13 30 -3 30.19 31.77
17 13 -3 17.92 29.39
-30 17 -3 -50.18 46.45
-30 17 -2 13.2 31.3
-13 30 -2 18.96 33.15
-30 17 -1 -5.96 35.05
-13 30 -1 -25.89 30.07
-13 30 0 -6.02 10.82
-30 17 0 -15.19 29.04
-13 30 0 -33.26 30.43
-30 17 1 28.15 20.39
-13 30 1 26.58 18.74
-13 30 1 -29.2 30.7
-30 17 1 42.69 33.15
-30 17 2 -6.74 17.38
-30 17 2 24.4 31.96
-13 30 2 24.36 21.9
-13 30 2 23.1 29.41
-30 17 3 26.41 21.58
-30 17 3 15.75 27.39
-13 30 3 44.14 28.09
-13 30 3 19.62 28.91
-13 30 4 -29.35 28.19
-30 17 4 54.89 30.6
-14 30 -5 -4.84 42.42
-30 16 -5 61.93 49.06
-14 30 -4 30.07 38.73
14 -30 -4 28.51 26.95
-30 16 -4 31.67 39.54
16 14 -4 -9.53 20.86
-14 30 -3 -10.14 31.77
-30 16 -3 80.66 52.2
16 14 -3 32.2 25.75
16 14 -2 -2.47 22.06
-30 16 -2 2.99 35.15
-14 30 -2 -7.91 28.18
-30 16 -1 119.9 49.14
-14 30 -1 54.77 30.55
-14 30 0 -2.77 10.6
-14 30 0 -33.35 34.15
-30 16 0 28.71 29.23
-30 16 1 90.41 27.76
-14 30 1 68.62 22.75
-14 30 1 27.06 25.48
-30 16 2 15.46 17.05
-30 16 2 2.53 30.19
-14 30 2 22.04 22.91
-14 30 2 2.29 26.08
-30 16 3 12.89 22.97
-14 30 3 38.6 27.21
-30 16 3 -28.52 29.77
-14 30 3 -46.53 34.09
-14 30 4 -66.61 35.96
-30 16 4 22.68 26.86
-30 15 -5 10.2 39.11
-15 30 -5 6.83 39.38
-15 30 -4 66.27 46.79
15 -30 -4 -35.56 27.72
15 15 -4 29.68 26.45
-30 15 -4 52.75 44.51
-15 30 -3 5.85 33.11
-30 15 -3 63.84 48.31
15 15 -3 -3.8 23.08
-15 30 -2 16.49 28.34
-30 15 -2 40 40.03
15 15 -2 42.05 29.4
-15 30 -1 241.43 56.53
-30 15 -1 170.85 53.94
-30 15 0 23.45 34.94
-15 30 0 6.22 12.81
-15 30 0 -55 31.5
-30 15 1 108.74 31.09
-15 30 1 139.56 28.03
-15 30 1 139.18 50.78
-30 15 1 216.07 60.31
-30 15 2 -26.75 21.47
-30 15 2 -25.33 29.99
-15 30 2 33.12 22.96
-15 30 2 40.4 28.98
-30 15 3 17.12 18.77
-30 15 3 30.86 32.98
-15 30 3 9.47 19.36
-15 30 3 -32.83 34.24
-15 30 4 34.3 30.44
-30 15 4 6.17 21.19
-30 14 -5 -9.43 38.65
-16 30 -5 59.48 45.29
-16 30 -4 49.72 42.93
16 -30 -4 24.33 20.63
14 16 -4 38 27.96
-30 14 -4 20.13 40.84
-16 30 -3 -53.74 29.66
16 -30 -3 68.13 32.21
14 16 -3 -23.3 24.33
-30 14 -3 -34.35 48.82
-16 30 -2 2.68 27.46
-30 14 -2 -20.77 36.98
14 16 -2 -10.27 25.96
-30 14 -1 74.45 43.25
-16 30 -1 36.67 34.91
-30 14 0 32.48 33.23
-16 30 0 17.8 12.77
-30 14 1 84.31 26.1
-30 14 1 30.83 33.71
-16 30 1 61.72 21.74
-16 30 1 -20.7 30.23
-30 14 2 14.05 21
-16 30 2 37.14 25.08
-30 14 2 71.14 40.2
-16 30 2 94.12 39.42
-16 30 3 13.77 25.2
-30 14 3 0.09 19.68
-30 14 3 5.15 29.52
-16 30 3 44.49 28.2
-30 14 4 19.22 21.19
-16 30 4 -3.44 23.11
-17 30 -5 27.15 39.32
-30 13 -5 6.41 37.8
-17 30 -4 121.06 49.52
17 -30 -4 70.46 33.22
13 17 -4 -24.97 25.8
-30 13 -4 -0.12 34.36
-17 30 -3 -81.29 43.49
17 -30 -3 -17.69 23.98
13 17 -3 24.74 26.84
-30 13 -3 -12.73 42.99
-17 30 -2 -3.26 29.45
13 17 -2 40.05 27.93
-30 13 -2 57.03 37.98
-17 30 -1 83.71 39.38
13 17 -1 -11.02 27.94
-30 13 -1 33.67 32.84
-30 13 0 30.25 32.56
-17 30 0 45.77 16.66
-17 30 0 7.34 28.18
-30 13 1 79.21 41.75
-17 30 1 1.52 14.44
-17 30 1 80.34 33.78
-17 30 2 29.49 35.61
-30 13 2 -21.96 22.87
-17 30 2 26.08 20.94
-30 13 2 21.65 28.6
-30 13 3 -12.66 21.89
-17 30 3 52.54 38.24
-30 13 3 18.33 26.57
-17 30 3 4.23 27.86
-30 13 4 20.65 25.21
13 17 4 86.31 56.18
-17 30 4 17.19 27.12
-30 12 -5 39.86 39.56
-18 30 -5 -25.03 38.67
-30 12 -4 -17.58 36.31
18 -30 -4 67.29 32.54
-18 30 -4 -46.14 40.98
12 18 -4 44.66 28.07
-18 30 -3 -2.98 41.31
18 -30 -3 61.97 34.54
12 18 -3 12.91 23.21
-30 12 -3 97.46 49.88
-18 30 -2 50.75 41
18 -30 -2 5.81 22.1
12 18 -2 12.64 25.71
-30 12 -2 32.61 33.24
-18 30 -1 -9.3 26.68
12 18 -1 76.31 40.31
-30 12 -1 87.8 44.87
-18 30 0 -6.22 29.51
12 18 0 -2.88 32.23
-30 12 0 4.67 31.33
-18 30 0 20.71 13.76
-18 30 1 -52.98 36.16
-18 30 1 54.97 21.35
-30 12 1 -28.13 34.71
-18 30 2 -9.74 26.29
-30 12 2 20.1 19.36
-30 12 2 -5.82 27.32
-18 30 2 -8.88 16.04
-30 12 3 6.67 19.73
-18 30 3 47.14 35.32
12 18 3 42.81 43.1
-18 30 3 -23.98 27.52
-30 12 3 4.73 27.59
-30 12 4 50.78 33.45
12 18 4 33.49 42.81
-18 30 4 46.84 33.68
-19 30 -5 -20.91 45.26
-30 11 -5 55.67 46.01
19 -30 -4 41.4 25.37
-19 30 -4 116.34 48.91
11 19 -4 65.96 36.67
-30 11 -4 8.5 34.58
-30 11 -3 22.99 44.26
-19 30 -3 -42.37 44.04
19 -30 -3 18.97 22.71
11 19 -3 -57.56 29.44
-19 30 -2 27.24 33.43
19 -30 -2 124.59 39.96
11 19 -2 84.36 36.15
-30 11 -2 102.49 43.85
-19 30 -1 55.61 35.91
11 19 -1 101.49 42.65
-30 11 -1 44.89 36.5
-19 30 0 24.85 32.39
11 19 0 47.3 37.47
-30 11 0 19.4 33.38
-19 30 0 43.33 15.52
-30 11 1 45.76 34
-19 30 1 7.42 26.93
11 19 1 -2.94 38.55
-19 30 1 -5.12 14.77
-30 11 2 76.72 31.13
-19 30 2 77.52 36.54
11 19 2 128.84 58.23
-19 30 2 89.71 32.87
-30 11 2 56.1 35.55
-30 11 3 -11.95 24.53
-19 30 3 36.67 33.42
11 19 3 -1.21 44.31
-30 11 3 83.19 37.67
-19 30 3 -31.87 25.64
-30 11 4 55.44 34.63
11 19 4 122.23 55.18
-19 30 4 36.41 30.19
-20 30 -5 42.98 36.64
-30 10 -5 11.78 34.06
20 -30 -4 13.36 34.55
-20 30 -4 -21.35 32.57
10 20 -4 -34.31 26.56
-30 10 -4 6.96 38.98
20 -30 -3 14.52 28.58
-20 30 -3 54.54 42.98
-30 10 -3 46.17 43.48
10 20 -3 28.99 25.03
-30 10 -2 76.5 44.14
20 -30 -2 23.46 26.99
10 20 -2 41.48 31.05
-20 30 -2 63.71 31.61
-20 30 -1 52.56 37.8
20 -30 -1 33.93 29.68
10 20 -1 -57.99 41.65
-30 10 -1 -3.56 29.29
-30 10 0 -2.4 30.62
-20 30 0 -0.03 29.35
10 20 0 33.1 33.76
-20 30 0 31.23 15.76
-20 30 1 47.93 44.69
10 20 1 5 44.2
-30 10 1 14.29 31.33
-20 30 1 -10.23 14.82
-30 10 2 -11.87 20.03
-20 30 2 13.45 26.09
10 20 2 3.33 42.37
-30 10 2 12.37 31.29
-20 30 2 31.98 21.05
-30 10 3 11.06 22.68
10 20 3 54.7 41.09
-20 30 3 -24.78 27.6
-20 30 3 40.24 25.46
-30 10 4 28.9 27.91
10 20 4 42.71 46.06
-20 30 4 -36.2 35.27
-21 30 -5 93.42 47.84
21 -30 -4 31.44 31
-21 30 -4 10.7 32.09
-30 9 -4 31.63 38.53
9 21 -4 -43.31 34.54
21 -30 -3 51 35.18
-21 30 -3 25.34 33.78
9 21 -3 31.46 26.87
-30 9 -3 24.64 38.39
-21 30 -2 141.07 46.51
21 -30 -2 48.83 29.7
9 21 -2 23.78 25.91
-30 9 -2 38.95 38.47
-21 30 -1 18.53 33.14
21 -30 -1 73.09 32.63
-30 9 -1 14.55 33.7
9 21 -1 44.12 27.57
-21 30 0 -61.95 36.06
9 21 0 -53.32 34.84
21 -30 0 -12.95 22.93
-30 9 0 -27.52 33.15
-21 30 0 -3.11 12.66
-21 30 1 -30.8 30.61
9 21 1 44.56 45.14
21 -30 1 16.94 14.38
-21 30 1 -1.1 15.51
-30 9 1 -32.38 27.94
-30 9 2 63.38 29.1
9 21 2 60.97 56.71
-30 9 2 35.02 27.02
-21 30 2 -5.99 17.15
-21 30 2 55.17 39.61
9 21 3 -4.58 37.76
-21 30 3 -0.91 23.91
-21 30 3 -33.71 22.41
-30 9 4 34.14 28.52
9 21 4 38.09 37.42
-21 30 4 -20.74 26.97
-22 30 -5 19.98 38.01
22 -30 -4 30.67 32.81
-30 8 -4 -33.03 47.22
-22 30 -4 27.42 38.13
8 22 -4 -36.71 35.4
-30 8 -3 49.13 41.64
22 -30 -3 -17.96 27.55
-22 30 -3 -53.62 42.8
8 22 -3 -30.66 27.88
22 -30 -2 66.89 34.18
-22 30 -2 14.02 30.5
8 22 -2 89.92 38.17
-30 8 -2 69.6 46.54
-22 30 -1 -17.08 33.25
22 -30 -1 51.3 25.87
8 22 -1 28.42 32.59
-30 8 -1 84.05 34.24
-22 30 0 79.6 39.44
8 22 0 34.2 31.43
22 -30 0 47.72 22.42
-30 8 0 7.45 29.52
-22 30 0 -10.77 17.5
-22 30 1 7.21 25.97
8 22 1 87.16 42.66
-30 8 1 89.64 41.12
-22 30 1 61.74 24.41
8 22 2 39.5 33.57
-22 30 2 94.25 39.39
-22 30 2 31.52 23.41
-30 8 3 36.45 25.59
8 22 3 38.05 43.46
-22 30 3 -6.95 29.69
-22 30 3 -5.38 19.1
-30 8 4 18.75 22.21
8 22 4 24.99 40.59
-22 30 4 73.14 37.84
-23 30 -5 6.85 38.89
-30 7 -4 -25.56 36.6
23 -30 -4 24.64 29.81
7 23 -4 31.63 29.98
-23 30 -4 -17.41 37.5
-30 7 -3 2.47 33.74
23 -30 -3 -11.23 28.64
-23 30 -3 -75.45 50.62
7 23 -3 -2.51 24.19
23 -30 -2 16.8 23.87
-30 7 -2 17.7 36.69
-23 30 -2 26.41 32.8
7 23 -2 66.09 36.13
-30 7 -1 48.88 35.92
-23 30 -1 84.77 41.62
23 -30 -1 124.11 34.17
7 23 -1 75.35 38.7
-23 30 0 11.71 31.52
23 -30 0 49.43 23.3
7 23 0 53.78 41.22
-30 7 0 34.84 32.79
-23 30 0 31.57 17.41
-23 30 1 76.64 35.65
7 23 1 65.69 46.94
-23 30 1 79.16 24.61
-30 7 1 96.75 41.07
7 23 2 25.53 35.98
-23 30 2 15.73 27.73
-23 30 2 14.68 19.37
-30 7 3 10.7 21.55
7 23 3 -2.66 35.1
-23 30 3 54.21 36.25
-23 30 3 -24.36 26.79
-30 7 4 -19.51 28.29
7 23 4 60.66 48.89
-23 30 4 25.99 22.21
-24 30 -5 -24.26 39.27
24 -30 -4 -27.1 33.86
6 24 -4 -43.7 36.85
-24 30 -4 45.52 43.5
24 -30 -3 -8.91 32.71
-30 6 -3 -2.81 33.09
6 24 -3 -5.56 26.63
-24 30 -3 -75.7 46.73
-30 6 -2 118.36 52.34
24 -30 -2 60.34 30.29
6 24 -2 116.57 40.88
-24 30 -2 33.54 39.64
-30 6 -1 -67.71 42.84
24 -30 -1 -2.32 18.32
-24 30 -1 21.97 29.99
6 24 -1 10.92 27.34
24 -30 0 34.15 16.34
-24 30 0 -17.71 28.89
6 24 0 23.43 34.07
-30 6 0 25.89 28.11
-24 30 0 61.74 20.37
6 24 1 61.99 48.23
-24 30 1 19.58 28.76
-24 30 1 -1.3 16.86
6 24 2 64.12 38.15
-24 30 2 48.43 34.63
-24 30 2 69.78 25.42
-30 6 3 2.97 20.34
6 24 3 53.8 42.57
-24 30 3 36.59 33.94
-24 30 3 81.26 32.55
-30 6 4 39.23 28.64
6 24 4 -8.4 38.17
-24 30 4 54.84 33.61
-25 30 -5 23.27 44.03
25 -30 -4 63.2 38.57
5 25 -4 18.29 34.49
-25 30 -4 34.59 42.06
25 -30 -3 41.27 27.1
5 25 -3 -22.52 31.56
-25 30 -3 -66.21 42.23
25 -30 -2 -1.28 24.39
5 25 -2 -1.55 29.94
-25 30 -2 46.58 38.87
-30 5 -2 43.88 31.28
-30 5 -1 37.28 29.93
25 -30 -1 3.96 19.98
5 25 -1 -27.46 33.98
-25 30 -1 39.66 33.42
-25 30 0 -9.49 17.82
25 -30 0 7.51 14.39
5 25 0 65.41 39.51
-25 30 0 35.46 36.03
5 25 1 -26.28 38.05
-25 30 1 30.75 41.26
-25 30 1 55.05 20.61
5 25 2 15.8 33.52
-25 30 2 50.98 33.02
-25 30 2 18.11 21
-30 5 3 20.33 24.83
5 25 3 50.78 39.47
-25 30 3 32.74 33.94
-25 30 3 -13.95 22.68
-30 5 4 65.18 32.65
5 25 4 135.6 55.43
-25 30 4 95.24 35.97
-26 30 -5 -40.09 48.86
26 -30 -4 59.75 36.36
4 26 -4 6.4 39
-26 30 -4 19.28 36.64
26 -30 -3 52.36 35.47
4 26 -3 15.38 27.9
-26 30 -3 71.07 42.27
26 -30 -2 94.85 34.37
4 26 -2 8.29 26.05
-26 30 -2 39.98 33.61
26 -30 -1 0.51 19.3
4 26 -1 15.88 33.12
-26 30 0 -12.63 15.98
26 -30 0 10.66 18.56
4 26 0 5.19 29.84
-26 30 0 0.76 30.38
4 26 1 48.09 35.44
-26 30 1 -2.83 30.98
-26 30 1 37.37 20.11
4 26 2 87.74 44.33
-26 30 2 71.72 39.87
-26 30 2 40.74 22.29
4 26 3 -22.51 44.61
-26 30 3 5.33 26.94
-26 30 3 12.93 23.86
-30 4 4 -8.59 22.07
4 26 4 5.61 38.04
-26 30 4 35.2 27.05
27 -30 -4 33.7 32.71
3 27 -4 52.81 41.84
-27 30 -4 0.75 40.44
27 -30 -3 35.4 39.19
3 27 -3 -15.38 31.19
-27 30 -3 -4.9 34.39
27 -30 -2 0.03 22.02
3 27 -2 23.98 33.95
-27 30 -2 26.55 30.88
27 -30 -1 11.73 23.03
3 27 -1 0.94 30.52
-27 30 0 37.93 22.19
3 27 0 79.97 35.8
-27 30 0 7.14 31.58
3 27 1 6.07 30.69
-27 30 1 -5.3 29.76
-27 30 1 6.4 17.34
-27 30 2 5.77 32.34
-27 30 2 -16.8 21.96
3 27 3 86.11 43.59
-27 30 3 2.79 29.75
-27 30 3 16.16 25.52
-30 3 4 17.91 22.75
3 27 4 80.97 50.49
-27 30 4 21.6 32.24
28 -30 -4 -56.32 42.15
2 28 -4 -19.06 35.68
-28 30 -4 -106.96 53.66
28 -30 -3 -48.63 33.46
2 28 -3 -3.48 35.28
-28 30 -3 16.1 35.19
28 -30 -2 33.21 28.46
-28 30 -2 -22.19 34.46
28 -30 -1 55.21 27.48
2 28 -1 -0.75 35.71
-28 30 -1 68.04 42.77
-28 30 0 -12.27 19.74
2 28 0 56.96 42.75
-28 30 0 119.84 43.45
2 28 1 14.53 34.53
-28 30 1 -34.07 41.34
-28 30 1 15.67 17.84
2 28 2 63.97 42.43
-28 30 2 5.89 29.7
-28 30 2 3.57 17.43
2 28 3 18.69 39.44
-28 30 3 -51.44 41.24
-28 30 3 19.88 23.49
2 28 4 13.09 35.08
-28 30 4 18.45 22.72
29 -30 -4 38.61 38
1 29 -4 -7.89 37.47
-29 30 -4 -50.9 52.05
29 -30 -3 66.07 34.92
1 29 -3 66.52 39.83
-29 30 -3 64.07 45.99
29 -30 -2 14.09 22.84
1 29 -2 43.76 35.56
-29 30 -2 74.53 47.24
29 -30 -1 36.46 25.91
1 29 -1 30.78 33.58
1 29 0 -10.83 36.6
-29 30 0 36.52 39.63
1 29 1 -52.39 41.11
-29 30 1 -50.12 42.11
-29 30 1 40.73 25.03
1 29 2 34.32 39.07
-29 30 2 -15.32 33.11
-29 30 2 0.55 20.78
1 29 3 36.11 46.29
-29 30 3 -19.81 24.67
-29 30 3 78.98 44.72
1 29 4 1.85 35.19
-29 30 4 -43.05 33.51
-30 30 -4 -5.25 40.14
0 30 -4 135.56 58.09
30 -30 -3 4.23 25.79
0 30 -3 -46.98 35.86
-30 30 -3 -23.76 41.2
30 -30 -2 13.51 24.05
0 30 -2 44.62 35.99
-30 30 -2 35.78 42.68
30 -30 -1 11.85 21.09
0 30 -1 -0.65 31.25
-30 30 -1 67.17 45.57
0 30 0 10.55 32.64
-30 30 0 2.97 32.42
-30 30 1 -25.09 20.27
0 30 1 -1.6 40.1
-30 30 1 19.36 31.66
0 30 2 62.38 36.12
-30 30 2 -19.56 36.13
-30 30 2 8.65 20.07
0 30 3 56.06 41.93
-30 30 3 62.63 30.89
-30 30 3 -6.66 31.81
0 30 4 94.03 49.99
-1 31 -4 -15.39 36.84
31 -30 -3 15.43 27.03
-1 31 -3 23.46 43.67
-31 30 -3 -20.46 44.14
31 -30 -2 92.38 34.49
-1 31 -2 104.89 44.83
-31 30 -2 96.29 50.69
-1 31 -1 49.89 40.84
-31 30 -1 -11.01 34.73
-1 31 0 -23.53 33.87
-31 30 0 10.35 42.34
-31 30 1 44.43 26.27
-1 31 1 39.81 42.43
-31 30 1 1.58 33.11
-1 31 2 -13.19 32.65
-31 30 2 23.92 36.59
-31 30 2 10.96 20.25
-31 30 3 25.78 35.81
-1 31 3 22.46 52.63
-1 31 3 14.52 42.15
-31 30 3 31.72 26.66
-31 29 -4 -29.4 47.82
-2 31 -4 18.51 36.37
31 -29 -3 38.26 33.51
-2 31 -3 1.12 33.7
31 -29 -2 111.3 38.02
-2 31 -2 129.83 47.72
-31 29 -2 95.79 43.43
31 -29 -1 -11.08 17.82
-2 31 -1 -1.54 36.29
-31 29 -1 44.68 41.06
-31 29 0 -3.37 20.92
-2 31 0 45.96 35.55
-31 29 0 42.03 49.3
-31 29 1 26.26 20.99
-2 31 1 -11.28 31.29
-31 29 1 -40.8 41.05
-2 31 2 151.29 56.78
-31 29 2 92.3 43.59
-31 29 2 109.5 35.06
-31 29 3 4.2 32.76
-2 31 3 -6.05 42.33
-2 31 3 80.94 38.16
-31 29 3 11.67 20.74
-31 28 -4 -15.17 41.47
31 -28 -4 18.93 34.67
-3 31 -4 118.39 60.23
-31 28 -3 19.03 38.13
31 -28 -3 10.46 26.98
-3 31 -3 7.95 30.31
31 -28 -2 71.97 33.01
-3 31 -2 5.42 35.86
-31 28 -2 46.53 42.41
31 -28 -1 45.95 28.91
-3 31 -1 69.87 42.76
-31 28 -1 16.01 35.09
-31 28 0 9.48 24.64
-3 31 0 21.3 36.82
-31 28 0 -58.88 41.59
-31 28 1 16.44 21.72
-3 31 1 67.71 39.59
-31 28 1 82.26 43.51
-31 28 2 15.48 37.43
-3 31 2 -18.93 29.31
-31 28 2 -16.04 19.48
-3 31 3 -85.61 55.71
-31 28 3 -11.25 34.36
-3 31 3 -4.03 35.88
-31 28 3 -12.83 25.51
-31 27 -4 24.42 40.71
31 -27 -4 81.02 44.27
-4 31 -4 28.3 46.42
-31 27 -3 8.67 37.61
31 -27 -3 29.28 30.24
-4 31 -3 -2.58 35.3
-31 27 -2 27.48 37.42
31 -27 -2 8.35 21.4
-4 31 -2 -4.57 30.62
31 -27 -1 36.14 25.92
-4 31 -1 40.76 39.51
-31 27 -1 -26.59 41.87
-31 27 0 111.83 34.71
-4 31 0 131.45 47.3
-31 27 0 143.93 51.59
-31 27 1 59.58 29.08
-4 31 1 53.13 37.94
-31 27 1 -6.93 36.22
-31 27 2 -2.89 31.83
-4 31 2 52.72 43.37
-4 31 2 30.97 35.04
-31 27 2 15.21 20.84
-4 31 3 85.34 53.27
-31 27 3 40.74 36.35
-4 31 3 8.11 27.86
-31 27 3 -0.02 22.79
-31 27 4 67.4 36.24
-5 31 -4 30.86 32.25
-31 26 -4 8.09 41.15
31 -26 -4 -7.22 26.86
-5 31 -4 22.32 41.1
-31 26 -3 74.86 50.04
31 -26 -3 52.23 32.95
-5 31 -3 -13.35 32.71
-31 26 -2 -33.37 38.87
31 -26 -2 24.38 20.07
-5 31 -2 -56.41 38.15
-31 26 -1 -7.8 31.2
31 -26 -1 9 20.37
-5 31 -1 42.09 35.21
-31 26 0 6.81 21.74
-5 31 0 23.17 28.98
-31 26 0 31.21 36.62
-31 26 1 36.26 21.05
-5 31 1 60.82 37.57
-31 26 2 37.38 39.54
-5 31 2 72.91 44.65
-5 31 2 36.16 31.12
-31 26 2 -17.51 22.68
-5 31 3 -30.71 40.32
-31 26 3 36.1 35.66
-5 31 3 38.46 31.22
-31 26 3 31.79 23.87
-31 26 4 36.93 32.57
-6 31 -4 24.15 26.48
-31 25 -4 7.42 38.6
31 -25 -4 71.55 46.54
-6 31 -4 57.45 44.3
-31 25 -3 52.45 45.75
31 -25 -3 35.7 30.69
-6 31 -3 28.55 38.45
-31 25 -2 93.2 50.05
31 -25 -2 60.88 28.96
-6 31 -2 71.07 38.97
-31 25 -1 -4.01 41.69
31 -25 -1 20.42 21.14
-6 31 -1 88.74 39.5
-31 25 0 14.23 32.46
-31 25 0 4.24 21.51
-31 25 1 23.44 22.74
-31 25 1 -24.85 36.03
-6 31 1 2.68 26.32
-6 31 1 32.97 31.37
-6 31 2 64.73 39.72
-31 25 2 12.05 31.14
-6 31 2 98.08 44.34
-31 25 2 -23.44 18.12
-31 25 3 -34.57 38.36
-6 31 3 27.46 30.64
-31 25 3 12.12 26.49
-31 25 4 27.99 24.81
-7 31 -4 -18.46 27.71
31 -24 -4 -36.83 31.55
-31 24 -4 -44.51 49.27
-7 31 -4 21.52 38.48
-7 31 -3 41.15 35.47
-31 24 -3 69.26 47.96
31 -24 -3 52.45 29.44
-7 31 -3 28.93 32.59
-31 24 -2 -3.04 36.74
31 -24 -2 7.27 19.5
-7 31 -2 41.1 31.9
-31 24 -1 33.9 33.29
-7 31 -1 54.13 38.01
-31 24 0 -13.44 35.42
-7 31 0 -4.61 29.52
-31 24 1 22.02 22.54
-31 24 1 -26.76 33.95
-7 31 1 56.67 36.25
-7 31 1 -24.83 27.1
-31 24 2 9.25 32.36
-7 31 2 18.42 30.71
-7 31 2 75.1 41.14
-31 24 2 -29.08 24.7
-31 24 3 15.83 31.43
-7 31 3 48.81 35.1
-31 24 3 -30.37 27.52
-31 24 4 -27.79 25.73
-31 23 -5 43.15 50.81
-8 31 -4 38.82 33.45
31 -23 -4 -11.66 27.07
-31 23 -4 -13.21 40.38
-8 31 -4 -15.33 37.48
-8 31 -3 -15.92 26.24
-31 23 -3 18.01 35.21
31 -23 -3 3.18 22.37
-8 31 -3 -19.76 34.82
-8 31 -2 31.06 30.45
-31 23 -2 -10.82 32.18
31 -23 -2 28.06 26.49
-8 31 -2 -13.35 32.13
-8 31 -1 49 34.88
-31 23 -1 79.02 39.18
-8 31 -1 69.79 36.33
-8 31 0 -9.94 23.01
-31 23 0 -60.15 44.52
-8 31 0 58.64 36.43
-31 23 1 75.72 29.65
-8 31 1 147.37 44.34
-31 23 1 83.99 42.99
-8 31 1 114.86 45.12
-31 23 2 16.6 19.39
-8 31 2 -16.55 28.52
-31 23 2 -2.91 28.58
-8 31 2 54.23 35.93
-8 31 3 9.65 28.67
-31 23 3 32.95 32.84
-31 23 3 -27.13 23.21
-8 31 4 24.99 31.31
-31 23 4 41.17 29.51
-31 22 -5 41.58 46.53
-9 31 -4 50.46 32.63
31 -22 -4 38.34 28.3
-31 22 -4 2.04 40.4
-9 31 -4 -32.74 42.07
-9 31 -3 -5.18 28.05
-31 22 -3 31.06 42.98
31 -22 -3 65.77 31.22
-9 31 -3 29.68 37.14
-9 31 -2 9.83 33.36
-31 22 -2 14.14 36.1
-9 31 -2 90.25 43.9
-9 31 -1 -35.83 26.74
-31 22 -1 -8.77 39.93
-9 31 -1 -16.84 38.2
-9 31 0 9.56 22.26
-31 22 0 73.88 40.57
-9 31 0 8.59 29.89
-31 22 1 -20.35 20.08
-9 31 1 52.28 31.41
-31 22 1 0.78 35.36
-9 31 1 -73.95 39.84
-31 22 2 2.21 17.5
-9 31 2 12.1 28.81
-31 22 2 -22.33 28.9
-9 31 2 4.48 32.63
-9 31 3 33.97 29.71
-9 31 3 72.76 39.41
-31 22 3 7.84 32.04
-31 22 3 -26.88 26.78
-9 31 4 70.93 37.49
-31 22 4 -9.42 23.02
-31 21 -5 0.94 41.37
-10 31 -4 22.7 37.92
-31 21 -4 30.2 45.69
-10 31 -3 83.91 39.48
-31 21 -3 -43.3 37.74
-10 31 -3 15.87 35.83
-31 21 -2 -13.4 40.25
-10 31 -2 -23.92 39.85
-10 31 -2 -47.53 32.34
-10 31 -1 -14.99 30.93
-31 21 -1 1.42 33.57
-10 31 -1 26.27 31.46
-10 31 0 213.53 49.37
-10 31 0 309.71 60.93
-31 21 0 340.4 67.18
-31 21 1 26 22.33
-10 31 1 60.24 32.16
-31 21 1 73.65 44.81
-10 31 1 21.09 20.2
-10 31 1 21.91 31.38
-31 21 2 4.48 18.59
-10 31 2 -23.74 21.21
-31 21 2 -46.47 38.77
-10 31 2 -0.35 29.23
-31 21 3 -26.29 34.68
-10 31 3 10.21 24.41
-10 31 3 -26.23 34.61
-31 21 3 14.93 22.95
-10 31 4 31.95 34.36
-31 21 4 -20.84 28.04
-31 20 -5 -22.32 42.52
-11 31 -4 71.73 48.7
-31 20 -4 -2.75 42.1
20 11 -3 65.34 31.79
-11 31 -3 35.68 33
-31 20 -3 57.07 49.21
-11 31 -3 37.52 32.62
-11 31 -2 66.4 35.42
-31 20 -2 14.69 37.81
-11 31 -2 52.89 40.7
-11 31 -1 -36.41 35.5
-31 20 -1 26.06 31.27
-11 31 -1 0.7 34.73
-11 31 0 134.46 45.79
-31 20 0 117.48 43.55
-11 31 0 40.82 35.79
-11 31 1 11.59 24.83
-11 31 1 14.05 18.37
-31 20 1 47.31 35.36
-11 31 1 44.46 35.1
-31 20 2 12.33 20.32
-11 31 2 40.97 21.31
-11 31 2 -54.95 36.07
-31 20 2 23.35 32.43
-31 20 3 -1.68 33.05
-11 31 3 23.09 23.77
-11 31 3 6.8 25.79
-31 20 3 -60.78 28.37
-11 31 4 3.71 30.04
-31 20 4 47.63 32.38
-31 19 -5 51.3 47.84
-31 19 -4 36.47 43.23
-12 31 -4 27.63 40.7
12 -31 -4 -55.68 28.19
19 12 -3 46.2 29.18
-31 19 -3 -42.7 42
-12 31 -3 -18.63 30.18
-12 31 -2 -30.06 31.72
-31 19 -2 34.53 34.83
-12 31 -2 -13.7 30.88
-12 31 -1 72.43 34.42
-31 19 -1 -3.67 36.31
-12 31 -1 27.81 38.34
-12 31 0 100.26 42.51
-31 19 0 110.49 46.5
-12 31 0 72.84 37.03
-31 19 1 4.21 17.76
-12 31 1 47.21 21.84
-31 19 1 -13.66 32.08
-12 31 1 48.98 34.08
-31 19 2 41.43 24.32
-12 31 2 44.28 26.89
-12 31 2 15.88 26.37
-31 19 2 44.72 37.01
-31 19 3 -10.28 19.9
-31 19 3 -44.99 38.19
-12 31 3 -18.23 26.81
-12 31 3 -6.95 28.52
-12 31 4 74.26 33.8
-31 19 4 21.02 24.41
-31 18 -5 401.43 79.23
-13 31 -4 21.46 43.01
-31 18 -4 62.52 43.26
13 -31 -4 -7.52 19.47
-13 31 -3 -9.41 30.71
18 13 -3 19.67 24.22
-31 18 -3 58.85 47.06
-31 18 -2 39.1 33.69
-13 31 -2 -45.96 33.41
-31 18 -1 7.86 33.43
-13 31 -1 29.97 27.73
-31 18 0 -28.93 33.12
-13 31 0 88.44 39.31
-31 18 1 70.15 26.8
-13 31 1 27.69 21.24
-13 31 1 55.27 33.63
-31 18 1 2.75 29.05
-31 18 2 3.31 20.39
-31 18 2 17.39 33.79
-13 31 2 0.02 18.19
-13 31 2 39.12 33.04
-31 18 3 -6.87 21.97
-31 18 3 49.82 36.47
-13 31 3 23.12 26
-13 31 3 32.41 31.52
-13 31 4 3.54 30.26
-31 18 4 62.38 31.7
-14 31 -5 -40.42 47
-31 17 -5 9.97 42.77
-14 31 -4 54.28 42.03
14 -31 -4 -9.2 24.75
-31 17 -4 36.24 44.34
-14 31 -3 39.13 33.4
-31 17 -3 -16.95 36.93
17 14 -3 23.43 24.73
-31 17 -2 -1.8 33.41
-14 31 -2 -57.42 38.48
-31 17 -1 -35.43 38.62
-14 31 -1 44.11 28.83
-14 31 0 16.26 28.91
-31 17 0 33.59 36.9
-31 17 1 55.24 28.6
-14 31 1 27.14 15.61
-14 31 1 93.62 43.66
-31 17 1 51.4 33.44
-31 17 2 -19.76 23.32
-31 17 2 31.45 32.66
-14 31 2 56.92 30.77
-14 31 2 -21.1 32.84
-31 17 3 -15.33 22.43
-14 31 3 -26.16 24.07
-14 31 3 1.19 31.46
-14 31 4 6.02 25.91
-31 17 4 29.22 27.8
-15 31 -5 63.69 49.39
-31 16 -5 -1.78 44.02
-15 31 -4 -11.33 36.18
15 -31 -4 23.64 20.92
16 15 -4 1.93 23.44
-31 16 -4 -5.18 41.17
-15 31 -3 0.33 36.33
-31 16 -3 -66.94 43.8
16 15 -3 34.89 24.87
-31 16 -2 -1.09 31.97
16 15 -2 -14.23 23.01
-15 31 -2 -21 27.77
-15 31 -1 29.09 32.02
-31 16 -1 -26.79 44.17
-15 31 0 412.26 66.36
-31 16 0 442.5 76.05
-31 16 1 13.09 19.82
-31 16 1 -58.28 36.41
-15 31 1 16.39 16.04
-15 31 1 -11.72 25.13
-31 16 2 -6.86 24.26
-31 16 2 33.39 33.88
-15 31 2 1.99 20.29
-15 31 2 26.91 33.02
-31 16 3 -9.44 20.54
-31 16 3 24.6 29.63
-15 31 3 -46.22 36.3
-31 16 4 -11.98 23.92
-15 31 4 -9.42 26.27
-31 15 -5 87.01 47.25
-16 31 -5 28.37 45.68
-16 31 -4 80.48 46.4
16 -31 -4 49.15 30.09
15 16 -4 54.08 31.63
-31 15 -4 67.96 64.95
-16 31 -3 54.21 38.51
16 -31 -3 49.44 33.18
15 16 -3 17.81 26.05
-16 31 -2 71.72 39.07
-31 15 -2 11.5 34.89
15 16 -2 71.32 35.7
-31 15 -1 24.75 33.68
-16 31 -1 75.33 39.24
-31 15 0 -9.97 34.95
-16 31 0 -11.19 30.82
-31 15 1 46.16 24.29
-31 15 1 38.13 33.83
-16 31 1 77.94 23.18
-16 31 1 85.86 38.2
-31 15 2 36.1 24.66
-31 15 2 20.82 30.72
-16 31 2 53.12 27.25
-16 31 2 17.31 27.39
-16 31 3 8.01 29.39
-31 15 3 61.7 28.06
-31 15 3 -2.75 30.29
-16 31 3 64.82 31.3
-31 15 4 -9.95 23.77
-16 31 4 24.25 27.14
-17 31 -5 -36.44 46.22
-31 14 -5 29.85 39.31
-17 31 -4 71.4 42.27
17 -31 -4 49.01 26.05
14 17 -4 67.55 33.8
-31 14 -4 10.76 39.18
-17 31 -3 -17.88 34.02
17 -31 -3 -1.54 24.27
14 17 -3 56.13 29.09
-31 14 -3 -18.27 37.59
-17 31 -2 -10.95 34.04
14 17 -2 10.89 27.83
-31 14 -2 15.6 43.38
-17 31 -1 61.91 41.31
14 17 -1 -7.22 34.55
-31 14 -1 9.2 30.29
-31 14 0 72.05 44.51
-17 31 0 168.11 51.78
-31 14 1 13.28 30.14
-17 31 1 0.16 16.79
-17 31 1 -27.29 31.8
-31 14 2 12.8 21.2
-17 31 2 -35.1 22.72
-31 14 2 36.26 34.92
-17 31 2 -14.68 35.67
-31 14 3 16.98 22.04
-17 31 3 31.95 29.26
-17 31 3 114.89 38.17
-31 14 3 44.65 34.99
-31 14 4 56.98 31.58
14 17 4 54.3 52.15
-17 31 4 31.69 27.86
-18 31 -5 -72.48 48.34
-31 13 -5 14.29 35.43
-31 13 -4 11.76 37.8
18 -31 -4 38.53 25.15
-18 31 -4 2.2 34.1
13 18 -4 49.44 31.96
-18 31 -3 -15.73 31.3
18 -31 -3 24.97 25.76
13 18 -3 6.37 22.1
-31 13 -3 74.1 49.73
-18 31 -2 50.8 35.93
13 18 -2 34.25 27.22
-31 13 -2 15.77 32.94
-18 31 -1 29.43 35.78
13 18 -1 74.23 42.31
-31 13 -1 10.59 29.3
-18 31 0 50.75 40.95
13 18 0 23.55 32.4
-31 13 0 55.4 39.37
-18 31 1 26.63 26.6
-31 13 1 21.5 31.36
-18 31 1 25.68 19.69
-18 31 2 48.74 28.35
-31 13 2 19.79 20.01
-31 13 2 18.27 31.52
-18 31 2 45.85 25.45
-31 13 3 -11.99 20.82
-18 31 3 -49.2 29.51
-31 13 3 28.08 31.03
-18 31 3 26.09 26.76
-31 13 4 17.84 23.75
13 18 4 81.67 55.05
-18 31 4 25.32 33.73
-31 12 -5 27.83 43.58
-19 31 -5 85.73 56.5
19 -31 -4 -19.2 24.5
-19 31 -4 70.1 40.44
-31 12 -4 -17.12 35.2
12 19 -4 31.83 30.25
-19 31 -3 30.89 35.92
19 -31 -3 55.92 33.9
12 19 -3 35.95 28.27
-31 12 -3 17.16 40.07
-19 31 -2 -12 34.55
19 -31 -2 -28.59 31.45
12 19 -2 24.68 29.28
-31 12 -2 68.88 41.13
-19 31 -1 24.94 36.21
12 19 -1 25.38 27.63
-31 12 -1 39.4 31.29
-19 31 0 18.69 35.24
12 19 0 54.94 43.79
-31 12 0 -27.23 34.34
-19 31 1 -4.81 27.84
12 19 1 59.98 47.62
-19 31 1 23.05 18.15
-31 12 1 -18.74 33.96
-19 31 2 76.16 37.64
-31 12 2 16.5 21.96
12 19 2 45.97 49.3
-31 12 2 25.45 31.73
-19 31 2 1.46 20.71
-31 12 3 38.99 26.86
-19 31 3 79.27 39.91
12 19 3 102.22 58.07
-19 31 3 12.52 21.75
-31 12 3 45.03 34.67
-31 12 4 -4.37 26.39
12 19 4 11.55 42.78
-19 31 4 43.41 32.97
-31 11 -5 -7.66 36.22
-20 31 -5 60.66 45.85
20 -31 -4 37.08 31.27
-20 31 -4 53.04 40.74
11 20 -4 57.3 35.1
-31 11 -4 -5.28 37.41
-31 11 -3 -38.67 44.91
-20 31 -3 -33.89 39.68
20 -31 -3 8.58 26.05
11 20 -3 70.34 33.79
-20 31 -2 8.17 31.77
20 -31 -2 -9.8 26.51
11 20 -2 9.2 26.55
-31 11 -2 -22.13 37.52
-20 31 -1 7.16 31.54
20 -31 -1 49.43 32.4
11 20 -1 42.15 36.11
-31 11 -1 56.21 36.24
-20 31 0 102.61 41.94
11 20 0 55.6 41.27
-31 11 0 28.88 33.38
-20 31 1 134.87 42.87
11 20 1 30.27 37.48
-31 11 1 52.89 31.55
-20 31 1 70.89 24.97
-31 11 2 37.36 26.52
-31 11 2 10.03 28.86
-20 31 2 6.49 25.9
11 20 2 40.98 40.07
-20 31 2 28.67 23.4
-31 11 3 53.78 28.03
-20 31 3 112.65 44.58
11 20 3 61.43 46.65
-20 31 3 43.84 26.5
-31 11 4 -38.28 26.48
11 20 4 -15.48 50.06
-20 31 4 26.78 28.36
-21 31 -5 55.33 46.49
-31 10 -5 61.18 44.11
-31 10 -4 -24.87 39.36
21 -31 -4 -12.01 27.7
-21 31 -4 3.3 40.13
10 21 -4 76.33 35.41
21 -31 -3 -27.73 34.71
-21 31 -3 -3.45 32.4
10 21 -3 -9.5 26.38
-31 10 -3 9.88 35.29
-21 31 -2 -1.88 30.56
-31 10 -2 32.67 31.62
21 -31 -2 -53.3 37.14
10 21 -2 18.22 27.79
-31 10 -1 47.4 33.75
-21 31 -1 107.73 42.49
21 -31 -1 64.33 32.27
10 21 -1 72.72 34.78
-21 31 0 85.04 38.45
10 21 0 144 50.61
21 -31 0 90.95 27.08
-31 10 0 70.59 38.16
-21 31 1 62.36 33.52
10 21 1 80.73 46.29
-31 10 1 58.31 39.14
-21 31 1 83.62 24.19
-31 10 2 15.4 20.56
-21 31 2 -58.83 39.92
10 21 2 -51.01 41.18
-21 31 2 15.63 18.06
-31 10 2 38.59 32.43
-31 10 3 -23.76 18.25
10 21 3 13.03 38.16
-21 31 3 24.78 29.69
-21 31 3 -26.21 26.45
-31 10 4 -12.08 22.1
10 21 4 -56.27 53.42
-21 31 4 -34.18 25.43
-22 31 -5 26.35 41.53
-31 9 -4 7.33 34.57
22 -31 -4 -0.58 26.17
-22 31 -4 72.78 44.9
9 22 -4 -8.77 29.09
-31 9 -3 -31.1 45.76
22 -31 -3 30.18 33.24
-22 31 -3 91.3 49.73
9 22 -3 28.55 30.29
-22 31 -2 113.17 48.84
22 -31 -2 24.67 29.06
9 22 -2 5.83 27.6
-31 9 -2 69.06 43.43
-22 31 -1 18.05 30.37
22 -31 -1 33.49 24.56
9 22 -1 10.13 27.13
-31 9 -1 -31.55 34.76
-22 31 0 40.52 34.48
9 22 0 48.5 42.54
22 -31 0 59.46 24.14
-31 9 0 53.6 28.23
-22 31 1 31.62 34.96
9 22 1 -46.68 39.41
-31 9 1 4.71 27.09
-22 31 1 13.51 17.4
-22 31 2 59.85 39.2
-22 31 2 11.31 16.78
-31 9 2 60.53 36.8
-31 9 3 16.72 21.59
9 22 3 45.77 52.08
-22 31 3 51.75 37.06
-22 31 3 26.66 24.48
-31 9 4 -12.81 22.28
-22 31 4 0.57 26.71
-23 31 -5 78.39 49.24
23 -31 -4 40.05 34.97
-31 8 -4 0.47 34.11
8 23 -4 41.9 35.74
-23 31 -4 -72.68 42.05
23 -31 -3 67.77 38.59
-23 31 -3 100.85 41.54
8 23 -3 30.56 26.29
-31 8 -3 17.88 34.62
-31 8 -2 -17.67 32.63
23 -31 -2 11.42 24.6
-23 31 -2 -7.85 33.32
8 23 -2 46.65 34.9
-23 31 -1 20.05 28.55
23 -31 -1 -9.17 20.05
8 23 -1 25.21 27.11
-31 8 0 52.99 36.93
-23 31 0 57.98 29.38
23 -31 0 11.17 23.05
8 23 0 -34.95 42.38
-23 31 1 47.08 31.34
8 23 1 10.25 38.63
-23 31 1 11.32 15.33
8 23 2 -68.09 43.17
-23 31 2 -20.91 21.52
-31 8 3 51.19 30.26
-23 31 3 4.46 25.1
-23 31 3 50.79 30.25
-31 8 4 9.14 26.79
8 23 4 -23.16 40.86
-23 31 4 -18.84 29.38
-24 31 -5 -64.87 52.59
24 -31 -4 0.4 28.14
7 24 -4 61.33 36.55
-24 31 -4 30.83 37.47
24 -31 -3 2.32 32.82
7 24 -3 -8.61 31.84
-24 31 -3 -10.68 34.2
-31 7 -3 71.11 47.9
24 -31 -2 33.46 34.35
-24 31 -2 120.33 46.43
7 24 -2 25.45 34.86
-31 7 -2 4.38 32.2
24 -31 -1 -6.02 22.58
-24 31 -1 -30.01 32.16
7 24 -1 21.6 31.72
-31 7 -1 -3.69 29.24
-31 7 0 48.34 35.74
-24 31 0 67.31 28.07
24 -31 0 32.84 19.34
7 24 0 -14.35 32.48
-31 7 1 40.7 37.63
7 24 1 54.94 40.36
-24 31 1 -10.59 30.6
-24 31 1 4.87 18.35
7 24 2 29.15 40.92
-24 31 2 36.11 29.18
-24 31 2 74.65 27.38
-31 7 3 -28.54 22.54
7 24 3 -36.73 42.41
-24 31 3 56.88 36.41
-24 31 3 35.14 27.77
-31 7 4 44.75 29.05
7 24 4 -6.26 38.15
-24 31 4 22.85 23.4
25 -31 -4 -10.71 35.68
6 25 -4 -7.93 38.32
-25 31 -4 -23.52 37.05
25 -31 -3 41.61 31.79
6 25 -3 71.14 38.05
-25 31 -3 16.39 36.28
25 -31 -2 8.02 25.09
6 25 -2 9.66 27.17
-25 31 -2 -48.07 32.4
25 -31 -1 -10.02 20.38
6 25 -1 -44.58 40.21
-25 31 -1 -31.12 35.87
-31 6 -1 9.87 29.16
-31 6 0 84.21 39.48
25 -31 0 -8.68 17.61
6 25 0 8.76 29.69
-25 31 0 41.84 34.41
6 25 1 46.33 39.74
-25 31 1 31.61 29.3
-25 31 1 12.41 18.97
6 25 2 -18.67 34.51
-25 31 2 15.21 33.62
-25 31 2 42.24 21.93
-31 6 3 -17.12 21.02
-25 31 3 12.33 30.04
-25 31 3 -12.26 24.73
-31 6 4 32.51 26.68
6 25 4 -15.94 39.09
-25 31 4 1.02 25.15
26 -31 -4 43.61 44.41
5 26 -4 35.18 37.33
-26 31 -4 1.37 38.57
26 -31 -3 26.77 35.19
5 26 -3 -11.17 26.45
-26 31 -3 3.72 35.89
26 -31 -2 30.95 28.26
5 26 -2 29.52 31.27
-26 31 -2 -32.3 32.2
26 -31 -1 1.61 17.92
5 26 -1 -41.22 39.92
-26 31 -1 -26.47 43.02
5 26 0 -24.74 29.79
-26 31 0 -4.8 28.79
5 26 1 60.27 40.78
-26 31 1 59.88 39.14
-26 31 1 31.03 20.52
5 26 2 27.92 39.06
-26 31 2 30.99 31.21
-26 31 2 50.22 24.55
5 26 3 3.23 32.56
-26 31 3 19.94 28.44
-26 31 3 36.25 28.16
-31 5 4 63.28 34.35
5 26 4 121.2 56.59
-26 31 4 15.68 23.88
4 27 -4 20.68 29.98
-27 31 -4 74.83 48.51
27 -31 -3 4.44 30.66
4 27 -3 -3.69 28.14
-27 31 -3 -68.89 42.67
27 -31 -2 -41.67 33.28
4 27 -2 38.73 39.93
-27 31 -2 57.62 45.23
27 -31 -1 20.65 26.48
4 27 -1 21.28 28.81
-27 31 -1 97.29 48.27
4 27 0 69.28 33.06
-27 31 0 113.81 43.77
4 27 1 78.55 48.66
-27 31 1 24.52 21.27
4 27 2 0.82 33.79
-27 31 2 -52.75 37.04
-27 31 2 37.46 23.13
4 27 3 40.5 39.86
-27 31 3 18.52 29.55
-27 31 3 -33.07 26.68
4 27 4 -71.09 55.77
-27 31 4 36.53 32.91
28 -31 -4 -15.63 38.01
3 28 -4 -13.32 31.56
-28 31 -4 26.76 41.63
28 -31 -3 50.07 33.76
3 28 -3 32.28 31.37
-28 31 -3 6.53 46.34
28 -31 -2 -35.53 28.88
3 28 -2 0.07 30.51
-28 31 -2 29.12 40.15
28 -31 -1 -3.44 18.38
3 28 -1 41.75 37.08
-28 31 -1 94.87 43.58
3 28 0 -35.33 33.77
-28 31 0 2.2 30.6
3 28 1 83.2 41.81
-28 31 1 -0.83 28.53
-28 31 1 17.93 21.74
3 28 2 8.11 31.32
-28 31 2 57.58 42.21
-28 31 2 -19.03 20.48
3 28 3 61.04 38.11
-28 31 3 62.73 39.67
-28 31 3 40.97 28.57
3 28 4 -2.11 45.97
-28 31 4 11.28 26.43
2 29 -4 45.44 39.83
-29 31 -4 -41.72 47.64
29 -31 -3 36.19 30.34
2 29 -3 23.65 32.18
-29 31 -3 95.73 57.52
29 -31 -2 -50.65 33.87
2 29 -2 -35.81 35.45
-29 31 -2 26.78 41.02
29 -31 -1 2.83 19.87
2 29 -1 -27.39 34.66
-29 31 -1 9.23 39.3
2 29 0 96.72 45.8
-29 31 0 109.29 47.83
2 29 1 24.92 40.3
-29 31 1 55.81 40.36
-29 31 1 12.49 20.18
2 29 2 25.29 34.16
-29 31 2 21.23 36.68
-29 31 2 9.12 18.33
2 29 3 35.79 39.04
-29 31 3 63.48 42.94
-29 31 3 -5.37 21.52
2 29 4 -44.84 45.69
1 30 -4 0.04 31.59
30 -31 -3 60.38 37.53
1 30 -3 106.58 44.45
-30 31 -3 8.06 43.63
30 -31 -2 26.61 26.76
1 30 -2 10.03 29
-30 31 -2 58.76 49.95
30 -31 -1 77.8 29.69
1 30 -1 5.17 31.25
-30 31 -1 39.77 40.94
1 30 0 48.09 39.93
-30 31 0 27.11 39.08
-30 31 1 39.37 23.02
1 30 1 26.95 35.82
-30 31 1 -58.46 43.6
1 30 2 55.8 38.14
-30 31 2 20.2 31.74
-30 31 2 31.67 21.82
1 30 3 85.39 45.38
-30 31 3 21.63 24.75
-30 31 3 75.79 52.11
1 30 4 54.91 49.65
0 31 -4 -11.28 36.39
31 -31 -3 61.69 35.33
0 31 -3 -10.36 31.65
-31 31 -3 -5.17 38.89
31 -31 -2 30.75 26.43
0 31 -2 -26.39 29.92
-31 31 -2 28.35 39.27
0 31 -1 -15.96 35.36
-31 31 -1 99.79 56.68
0 31 0 42.15 38.89
-31 31 0 37.17 40.81
-31 31 1 -20.14 21.19
0 31 1 9.66 33.65
-31 31 1 9.9 36.51
0 31 2 40.31 41.39
-31 31 2 112.88 56.64
-31 31 2 30.11 21.04
0 31 3 13.24 42.1
-31 31 3 -10.56 21.97
32 -31 -3 -11.12 27.52
-1 32 -3 19.03 34.27
-32 31 -3 0.1 44.01
32 -31 -2 27.01 32.39
-1 32 -2 92.48 43.78
-1 32 -1 58.02 39.58
-32 31 -1 129.41 53.37
-1 32 0 2.45 32.86
-32 31 0 2.37 35.9
-32 31 1 77.73 26.85
-1 32 1 90.13 44.73
-32 31 1 18.47 38.5
-1 32 2 19.35 38.52
-32 31 2 54.23 47.4
-32 31 2 11.94 21.75
-1 32 3 -20.91 51.49
-1 32 3 41.35 44.37
-32 31 3 -12.7 22.59
-2 32 -4 44.75 53.29
-32 30 -3 77.55 57.41
32 -30 -3 -5.6 28.46
-2 32 -3 -23.52 32.82
32 -30 -2 36.56 27.88
-2 32 -2 22.4 38.73
-32 30 -2 -4.23 39.3
-2 32 -1 25.03 33.18
-32 30 -1 57.45 44.43
-2 32 0 -2.14 34.16
-32 30 0 7.44 36.01
-32 30 1 -5.59 20.52
-2 32 1 1.34 32.7
-32 30 1 -32.02 37.48
-32 30 2 3.46 19.7
-32 30 2 41.26 40.31
-2 32 3 -36.77 54.65
-2 32 3 12.72 32.49
-32 30 3 37.95 26.25
-3 32 -4 21.71 38.2
-32 29 -3 71.05 50.79
32 -29 -3 78.33 34.94
-3 32 -3 28.04 36.99
32 -29 -2 11.21 21.78
-3 32 -2 57.43 41.1
-32 29 -2 30.06 41.13
-3 32 -1 73.84 48.38
-32 29 -1 19.61 38.14
-32 29 0 16.77 22.99
-3 32 0 58.59 38.79
-32 29 0 -35.53 39.27
-32 29 1 9.48 20.02
-3 32 1 -11.01 29.6
-32 29 1 -34.08 42.47
-32 29 2 -12.48 42.15
-3 32 2 12.07 31.22
-32 29 2 21.41 21.75
-3 32 3 134.75 70.34
-3 32 3 60.29 39.38
-32 29 3 78.77 32.95
-4 32 -4 -28.73 28.49
-4 32 -4 55.71 48.3
-32 28 -3 -41.77 47.06
32 -28 -3 12.33 23.95
-4 32 -3 3.25 35.71
32 -28 -2 20.14 25.6
-4 32 -2 -27.14 34.41
-4 32 -1 89.03 41.81
-32 28 -1 0.04 37.67
-32 28 0 60.79 34.53
-4 32 0 8.08 30.1
-32 28 0 -25.28 38.35
-32 28 1 49.92 38.78
-32 28 1 36.34 23.7
-4 32 1 19.75 33.8
-32 28 2 52.32 39.98
-4 32 2 -46.89 40.89
-4 32 2 55.91 38.7
-32 28 2 -11.67 20.07
-4 32 3 84.67 54.47
-32 28 3 77.43 48.38
-4 32 3 47.47 32.34
-32 28 3 -19.54 24.96
-5 32 -4 44.81 35.26
-32 27 -4 33.71 43.45
32 -27 -4 38.7 35.19
-5 32 -4 9.25 40.24
-32 27 -3 -20.51 39.54
32 -27 -3 42.02 34.35
-5 32 -3 65.07 41.33
-32 27 -2 11.84 40.99
32 -27 -2 69.1 29.6
-5 32 -2 1.86 29.96
-32 27 -1 31.88 36.59
32 -27 -1 14.62 24.06
-5 32 -1 9.65 29.23
-32 27 0 73.61 42.12
-5 32 0 59.39 37.21
-32 27 1 -0.1 19.32
-32 27 1 -44.56 40.45
-5 32 1 -17.08 32.07
-5 32 2 64.78 42.62
-5 32 2 40.85 35.48
-32 27 2 11.13 19.97
-5 32 3 30.06 36.57
-5 32 3 16.78 33.16
-32 27 3 11.62 22.56
-6 32 -4 8.2 29.13
-32 26 -4 -8.63 38.86
32 -26 -4 28.91 36.92
-6 32 -4 36.87 45.97
-6 32 -3 -26.27 30.92
-32 26 -3 12.84 40.91
32 -26 -3 29.33 24.33
-6 32 -3 -42.91 43.21
-32 26 -2 53.49 47.11
32 -26 -2 70.33 29.83
-6 32 -2 -22.35 34.94
-32 26 -1 3.44 36.07
-6 32 -1 78.24 40.97
-32 26 0 7.27 35.25
-6 32 0 58.86 33
-32 26 1 59.76 28.89
-32 26 1 55.71 35.42
-6 32 1 45.52 35.97
-6 32 1 56.36 37.5
-32 26 2 35.74 22.28
-6 32 2 69.3 41.05
-32 26 2 73.06 40.28
-6 32 2 134.4 44.9
-32 26 3 -29.12 37.69
-6 32 3 -0.62 34.64
-32 26 3 37.14 26.48
-7 32 -4 -19.5 29.49
32 -25 -4 15.78 37.32
-32 25 -4 27.71 47.58
-7 32 -4 -32.55 44.87
-7 32 -3 -30.88 37.2
-32 25 -3 11.17 40.03
32 -25 -3 23.68 30.15
-7 32 -3 25.14 33.77
32 -25 -2 6.55 25.93
-7 32 -2 -10.11 30.82
-32 25 -1 -54.86 37.95
-7 32 -1 57.11 40.81
-32 25 0 5.27 33.96
-7 32 0 16.91 32.34
-7 32 0 88.45 41.47
-32 25 1 5.01 19.94
-7 32 1 14.13 28.12
-32 25 1 -64.39 44.32
-7 32 1 33.12 32.94
-32 25 2 11.14 19.22
-7 32 2 54.76 43.31
-32 25 2 -28.92 32.12
-7 32 2 37.61 36.96
-32 25 3 42.39 41.3
-7 32 3 31.13 30.83
-32 25 3 -38.66 26.58
-32 25 4 51.67 33.39
-8 32 -4 72.55 39.78
32 -24 -4 19.04 29.28
-32 24 -4 60.52 48.8
-8 32 -4 111.44 57.41
-8 32 -3 -46.71 33.66
-32 24 -3 -65.19 47.28
32 -24 -3 -5.15 25.39
-8 32 -3 35.15 31.82
-8 32 -2 61.31 38.86
-32 24 -2 -15.62 35.17
-8 32 -2 -20.62 30.64
-8 32 -1 17.03 27.48
-32 24 -1 -4.65 35.83
-8 32 -1 6.63 31.16
-8 32 0 38.38 39.38
-32 24 0 -1.45 31.71
-8 32 0 1.92 35.68
-32 24 1 9.36 19.95
-8 32 1 83.5 40.17
-32 24 1 95.12 41.54
-8 32 1 80.92 35.52
-32 24 2 2 19.44
-8 32 2 -49.42 39.9
-32 24 2 -55.45 34.45
-8 32 2 51.7 38.96
-8 32 3 28.12 28.92
-32 24 3 16.41 32.45
-8 32 4 35.5 31.95
-32 24 4 53.87 31.54
-9 32 -4 4.84 26.7
-32 23 -4 4.31 39.18
-9 32 -4 77.56 51.47
-9 32 -3 26.91 27.1
-32 23 -3 43.57 48.98
-9 32 -3 -28.98 41.61
-9 32 -2 65.82 39.18
-32 23 -2 41.19 42.32
-9 32 -2 16.62 36.13
-9 32 -1 28.94 27.22
-32 23 -1 94.94 49.61
-9 32 -1 -7.68 34.86
-9 32 0 26.33 28.63
-32 23 0 -0.92 33.64
-32 23 1 -17.18 20.16
-9 32 1 26.46 26.26
-32 23 1 55.8 40.52
-9 32 1 31.35 31.39
-32 23 2 24.22 19.61
-9 32 2 73.68 35.81
-32 23 2 90.6 42.67
-9 32 2 63.24 35.67
-9 32 3 8.39 29.72
-9 32 3 103.75 46.63
-32 23 3 11.8 34.94
-32 23 3 39.55 28.28
-9 32 4 -20.52 27.8
-32 23 4 -33.05 27.35
-10 32 -4 62.16 48.36
-32 22 -4 -69 52.11
-10 32 -3 -6.95 28.88
-32 22 -3 -15.65 40.65
-10 32 -3 54.05 35.41
-10 32 -2 -2.27 28.37
-32 22 -2 -0.85 39.95
-10 32 -2 -7.12 30.19
-10 32 -1 24.6 27.44
-32 22 -1 48.21 35.3
-10 32 -1 85.97 42.32
-10 32 0 23.04 26.38
-32 22 0 97.08 45.86
-10 32 0 11.38 28.97
-32 22 1 9.45 18.56
-10 32 1 -22.11 28.76
-32 22 1 23.55 29.82
-10 32 1 32.53 20.41
-10 32 1 55.5 38.8
-32 22 2 4.64 19.31
-10 32 2 11.41 22.22
-32 22 2 35.12 37.01
-10 32 2 38.63 32.29
-10 32 3 -7.13 26.37
-10 32 3 31.03 29.61
-32 22 3 -19.71 24.09
-32 22 3 69.06 41.85
-10 32 4 5.44 34.08
-32 22 4 4.18 25.05
-11 32 -4 -4.01 42.68
-32 21 -4 10.01 38.84
-11 32 -3 17.61 30.44
-32 21 -3 85.41 50.25
-11 32 -3 62.82 46.74
-11 32 -2 -5.75 27.02
-32 21 -2 43.89 43.75
-11 32 -2 -38.02 40.85
-11 32 -1 0.93 28.19
-32 21 -1 -4.24 32.45
-11 32 -1 4.92 38.26
-11 32 0 342.32 62.08
-11 32 0 301.79 62.96
-32 21 0 234.89 60.47
-32 21 1 29.15 20.47
-11 32 1 -33.66 29.58
-11 32 1 11.38 16.86
-32 21 1 -18.97 39.51
-11 32 1 75.02 38.49
-32 21 2 25.76 21.48
-11 32 2 -12.4 24.45
-11 32 2 -17.61 33.3
-32 21 2 38.35 34.5
-32 21 3 -11.31 34.58
-11 32 3 37.96 25.62
-11 32 3 24.03 32.69
-32 21 3 29.19 24.35
-11 32 4 96.87 39.95
-32 21 4 70.9 34.73
-32 20 -5 -2.83 40.93
-32 20 -4 34.35 43.36
-12 32 -4 9.4 36.5
20 12 -3 -64.77 33.69
-32 20 -3 24.92 40.41
-12 32 -3 -13.86 33.7
-12 32 -2 0.29 28.47
-32 20 -2 5.65 34.75
-12 32 -1 -35.48 33.71
-32 20 -1 -50.74 36.17
-12 32 -1 3.57 35.87
-12 32 0 102.56 35.7
-32 20 0 41.01 41.58
-12 32 0 84.77 41.67
-32 20 1 22.59 25.25
-12 32 1 10.88 16.91
-32 20 1 40.04 31.62
-12 32 1 24.66 33.23
-32 20 2 30.43 24.08
-12 32 2 0.32 19.09
-12 32 2 -8.16 28.03
-32 20 2 30.06 33.7
-32 20 3 16.53 21.69
-32 20 3 -32.89 40.82
-12 32 3 17.13 21.97
-12 32 3 0.34 29
-12 32 4 41.05 35.85
-32 20 4 34.61 26.97
-32 19 -5 -16.51 43.13
-13 32 -4 -16.9 43.54
-32 19 -4 4.41 36.83
13 -32 -4 87.6 33.5
19 13 -3 40.24 28.24
-32 19 -3 6.65 38.02
-13 32 -3 57.84 40.12
-32 19 -2 -29.22 39.71
-13 32 -2 -12.6 32.4
-32 19 -1 -35.4 43.77
-13 32 -1 -7.91 29.27
-32 19 0 60.91 39.03
-13 32 0 68.03 42.8
-32 19 1 18.29 21
-13 32 1 16.98 18.47
-13 32 1 18.89 29.54
-32 19 1 58.46 31.28
-32 19 2 6.15 19.84
-32 19 2 59.81 34.56
-13 32 2 28.47 23.24
-13 32 2 -6.69 28.17
-32 19 3 20.66 27.36
-32 19 3 11 29.98
-13 32 3 -9.34 22.63
-13 32 3 -65.69 36.78
-13 32 4 41.51 34.73
-32 19 4 11.71 25.16
-32 18 -5 82.98 60.25
-14 32 -4 47.03 37.78
14 -32 -4 -44.3 24.91
-32 18 -4 -30.11 43.12
-14 32 -3 -23.2 35.87
-32 18 -3 0.74 34.7
18 14 -3 4.86 22.44
-32 18 -2 44.21 45.37
-14 32 -2 23.49 37.77
-32 18 -1 26.46 30.92
-14 32 -1 30.98 33.01
-14 32 0 40.59 39.69
-32 18 0 60.97 42.49
-32 18 1 63.71 26.99
-14 32 1 38.72 22.57
-14 32 1 22.53 34.43
-32 18 1 -2.65 31.75
-32 18 2 19.69 18.06
-32 18 2 8.03 33.3
-14 32 2 57.47 29.16
-32 18 3 7.59 22.01
-14 32 3 66.62 30.59
-32 18 3 -5.21 31.34
-14 32 3 -7.12 31.39
-14 32 4 -25.4 31.07
-32 18 4 9.7 21.46
-15 32 -5 24.37 40.96
-32 17 -5 72.88 51.17
-15 32 -4 43.66 44
15 -32 -4 62.16 31.73
-32 17 -4 -21.66 38.79
-15 32 -3 18.5 39.46
-32 17 -3 -20.69 38.23
17 15 -3 82.65 34.47
-32 17 -2 27.41 39.89
17 15 -2 28.46 31.54
-15 32 -2 -31.69 33.94
-15 32 -1 5.66 33.83
-32 17 -1 -12.43 33.27
-15 32 0 12.25 31.13
-32 17 0 -30.55 37.79
-32 17 1 -13.84 22.44
-15 32 1 19.28 17.19
-15 32 1 -8.12 29.71
-32 17 2 32.74 22.67
-32 17 2 -23.44 33.13
-15 32 2 39.09 24.12
-15 32 2 92.96 40.51
-32 17 3 1.73 22.01
-15 32 3 6.13 21.61
-32 17 3 -32.62 33.44
-32 17 4 26.44 24.88
-15 32 4 33.09 31.96
-32 16 -5 -9.8 45.43
-16 32 -5 -17.25 47.29
16 -32 -4 -1.14 22.56
16 16 -4 25.59 29.1
-32 16 -4 25.13 39.99
-16 32 -3 41.13 44.28
16 -32 -3 38.94 30.8
16 16 -3 -2.03 22.77
-32 16 -3 84.42 49.83
-16 32 -2 48.83 34.65
-32 16 -2 104.89 48.79
16 16 -2 -12.92 28.07
-32 16 -1 51.53 40.47
-16 32 -1 56.99 40.01
-32 16 0 78.03 43.51
-16 32 0 18.69 32.1
-32 16 1 74.3 27.92
-32 16 1 -3.28 31.1
-16 32 1 20.56 17.11
-16 32 1 84.29 39.58
-32 16 2 9.76 32.37
-16 32 2 23.14 18.79
-16 32 2 -2.59 27.05
-32 16 3 13.79 26.06
-32 16 3 56.47 38.79
-16 32 3 59.91 29.55
-16 32 3 7.27 30.76
-32 16 4 90.4 35.84
-16 32 4 60.16 34.68
-32 15 -5 -5.85 44.9
-17 32 -5 -35.54 45.28
-17 32 -4 47.11 43.78
17 -32 -4 -18.6 30.05
15 17 -4 39.57 30.98
-32 15 -4 102.24 56.52
-17 32 -3 21.97 37.96
17 -32 -3 28.74 27.54
15 17 -3 -28.15 26.07
-32 15 -3 78.1 45.48
-17 32 -2 65.03 41.54
15 17 -2 70.71 36.12
-32 15 -2 3.11 36.41
-17 32 -1 80.81 37.11
15 17 -1 39.32 33.49
-32 15 -1 39.32 42.34
-32 15 0 219.59 57.83
-17 32 0 157.12 44.59
-32 15 1 7 33.92
-17 32 1 26.58 18.77
-17 32 1 28.41 35.33
-32 15 2 63.68 28.6
-17 32 2 34.69 23.23
-32 15 2 44.7 33.82
-17 32 2 84.5 37.79
-17 32 3 -13.62 27.55
-32 15 3 -24.01 24.63
-17 32 3 -5.66 25.74
-32 15 3 20.61 27.55
-32 15 4 -6.87 25.87
-17 32 4 17.12 31.82
-18 32 -5 53.8 50.88
-32 14 -5 15.48 42.86
-32 14 -4 97.11 53.41
18 -32 -4 17.56 25.77
-18 32 -4 31.94 38.38
14 18 -4 20.72 25.2
-18 32 -3 30.56 39.97
18 -32 -3 -0.9 23.72
14 18 -3 28.52 31.11
-32 14 -3 15.32 40.98
-18 32 -2 25.85 39.56
14 18 -2 6.73 24.6
-32 14 -2 18.09 37.28
-18 32 -1 92.47 47.2
14 18 -1 62.35 31.16
-32 14 -1 96.41 42.93
-18 32 0 54.47 33.76
14 18 0 32.64 36.36
-32 14 0 95.35 40.29
-18 32 1 68.49 45.47
-32 14 1 84.85 43.92
-18 32 1 68.63 25.37
-18 32 2 1.2 30.3
-32 14 2 0.83 19.59
-32 14 2 55.7 33.71
-18 32 2 39.64 22.07
-32 14 3 -29.96 26.57
-18 32 3 64.22 37.62
-32 14 3 37.51 35.48
-18 32 3 45.28 28.51
-32 14 4 40.27 22.85
14 18 4 60.74 52.32
-18 32 4 35.24 33.63
-32 13 -5 23.67 42.7
-19 32 -5 91.42 58.6
-32 13 -4 55.33 42.81
19 -32 -4 1.57 23.43
-19 32 -4 25.7 42.8
13 19 -4 35.9 27.5
-19 32 -3 24.6 36.33
19 -32 -3 58.08 31.6
13 19 -3 -18.7 23.33
-32 13 -3 24.94 43.64
-19 32 -2 -11.93 30.44
19 -32 -2 39.57 28.62
13 19 -2 -2.12 23.91
-32 13 -2 55.81 37.78
-19 32 -1 -6.8 28.87
13 19 -1 54.66 30.49
-32 13 -1 -2.67 36.26
-19 32 0 46.12 38.26
13 19 0 63.97 49.7
-32 13 0 19.24 34.89
13 19 1 73.75 44.51
-19 32 1 -2.46 17.73
-32 13 1 78.63 47.57
-19 32 2 19.71 29.05
-32 13 2 40.88 23.83
13 19 2 19.97 38.86
-32 13 2 -24.07 28.62
-19 32 2 15.37 18.61
-32 13 3 92.38 34.63
-19 32 3 32.37 32.07
13 19 3 31.93 44.9
-32 13 3 51.46 37.23
-19 32 3 14.27 24.74
-32 13 4 8.08 22.8
13 19 4 86.83 62.59
-19 32 4 71.42 36.48
-20 32 -5 14.88 46.95
-32 12 -5 77.35 50.26
20 -32 -4 -47.21 34.98
-20 32 -4 4.26 34.35
12 20 -4 9.24 32.47
-32 12 -4 75.37 47.52
-32 12 -3 8.25 42.55
-20 32 -3 -60.49 43.5
20 -32 -3 21.53 26.02
12 20 -3 26.36 29.15
-20 32 -2 52.61 43.57
20 -32 -2 61.2 34.02
12 20 -2 132.66 47.71
-32 12 -2 122.58 49.51
-20 32 -1 6.87 30.61
12 20 -1 4.68 27.62
-32 12 -1 -59.83 43.28
-20 32 0 25.05 29.44
12 20 0 58.23 38.95
-32 12 0 87.2 42.2
-20 32 1 -18.91 31.15
-20 32 1 12.69 16.62
-32 12 2 59.88 30.42
-20 32 2 103.16 37.53
-20 32 2 109.09 32.31
-32 12 2 77.94 41.75
-20 32 3 -24.74 36.04
12 20 3 37.27 42.86
-20 32 3 0.83 21.17
-32 12 4 16.96 24.81
12 20 4 -24.02 42.88
-20 32 4 39.34 32.07
-21 32 -5 40.04 47.41
-32 11 -5 -21.23 40.03
-32 11 -4 -16.51 38.48
21 -32 -4 37.91 26.5
-21 32 -4 49.54 38.64
11 21 -4 -1.66 26.77
21 -32 -3 4.85 31.46
-21 32 -3 11.18 38.55
11 21 -3 22.95 27.28
-32 11 -3 43.74 49.31
-32 11 -2 -23.57 35.02
-21 32 -2 -36.07 41.79
21 -32 -2 0.37 26.46
11 21 -2 -4.44 29.15
-32 11 -1 129.1 52.19
11 21 -1 227.08 57.42
-21 32 -1 88.3 43.99
21 -32 -1 186.06 45.15
-21 32 0 20.35 33.51
-32 11 0 44.08 38.54
11 21 0 11.1 40.84
-21 32 1 122.6 46.69
11 21 1 229.06 62.75
-32 11 1 198.72 50.76
-21 32 1 149.9 28.94
-32 11 2 44.92 28.65
-21 32 2 22.07 27.88
11 21 2 4.25 39.37
-32 11 2 40.86 34.81
-21 32 2 31.94 22.22
-32 11 3 7.52 22.35
11 21 3 42.35 49.28
-21 32 3 36.07 32.59
-21 32 3 44.66 24.76
-32 11 4 -19.17 23.34
11 21 4 19.2 46.49
-21 32 4 6.36 27.74
22 -32 -4 32.91 34.51
-22 32 -4 56.64 46.25
10 22 -4 15.4 27.46
-32 10 -4 29.17 38.11
22 -32 -3 6.12 30.65
-22 32 -3 75.93 45.04
10 22 -3 -1.7 25.24
-32 10 -3 9.5 44.84
-22 32 -2 -26.48 39.3
22 -32 -2 19.69 28.62
10 22 -2 25.14 29.2
-32 10 -2 -1.9 35.05
-22 32 -1 -32.19 39.26
22 -32 -1 19.56 25.86
10 22 -1 83.31 42.44
-32 10 -1 24.04 36.19
-22 32 0 10.69 32.22
10 22 0 32.59 36.83
22 -32 0 4.44 18.21
-32 10 0 65.94 40.51
-32 10 1 6.53 33.58
-22 32 1 66.61 39.01
10 22 1 49.99 48.72
-22 32 1 44.45 20.69
-22 32 2 -24.37 28.95
-22 32 2 -2.01 20.18
-32 10 2 -47.65 28.97
-32 10 3 -21.34 23.95
10 22 3 60.83 38.95
-22 32 3 26.23 38.84
-22 32 3 -57.4 30.91
-32 10 4 10.33 24.02
10 22 4 -25.7 49.89
-22 32 4 -20.46 27.06
23 -32 -4 -16.17 28.72
9 23 -4 28.64 28.06
-23 32 -4 51.69 47.13
-32 9 -4 -18.06 34.66
23 -32 -3 24.63 29.99
-32 9 -3 -11.59 41.25
-23 32 -3 93.91 43.3
9 23 -3 -24.85 29.63
23 -32 -2 149.25 46.52
-23 32 -2 139.27 47.54
9 23 -2 106.11 40.64
-32 9 -2 184.76 56.03
-23 32 -1 -43.8 33.24
23 -32 -1 23.71 25.65
9 23 -1 9.25 30.1
-32 9 -1 35.09 33.22
-32 9 0 67.06 43.11
-23 32 0 29.47 33.21
23 -32 0 25.79 21.59
9 23 0 101.79 47.87
-23 32 1 9.14 32.66
9 23 1 69.23 44.76
-32 9 1 64.72 35.98
-23 32 1 0.94 16.75
9 23 2 221.98 69.16
-23 32 2 122.48 47.12
-23 32 2 143.82 34.84
-32 9 3 -6.74 25.79
9 23 3 -8.1 43.43
-23 32 3 51.44 36.38
-23 32 3 46.3 29.63
-32 9 4 68.56 34.13
9 23 4 -15.29 44.9
-23 32 4 50.57 32.95
24 -32 -4 -8.04 30.72
8 24 -4 38.86 30.93
-24 32 -4 19.29 37.95
-32 8 -3 18.97 38.06
24 -32 -3 -10.99 34.24
-24 32 -3 82.64 43.24
8 24 -3 -26.51 32.02
24 -32 -2 100.36 36.1
-24 32 -2 23.47 36.98
8 24 -2 77.68 39.06
-32 8 -2 122.86 48.45
24 -32 -1 77.31 29.83
-24 32 -1 54.8 39.94
8 24 -1 143.66 47.21
-32 8 -1 80.55 40.35
-24 32 0 -3.18 29.8
24 -32 0 -9.93 17.36
8 24 0 -56.47 36.25
-32 8 0 10.56 32.39
-32 8 1 50.16 34.89
8 24 1 109.14 49.43
-24 32 1 49.2 34.61
-24 32 1 82.02 24.6
8 24 2 59.99 43.07
-24 32 2 14.37 33.19
-24 32 2 47.18 24.7
-32 8 3 -7.35 24.62
8 24 3 7.77 40.58
-24 32 3 6.33 34.59
-24 32 3 14.36 22.8
8 24 4 -2.27 43.96
-24 32 4 -17.37 25.04
25 -32 -4 1.12 28.92
7 25 -4 7.42 32.1
-25 32 -4 30.55 37.12
-32 7 -3 -45.25 49.06
25 -32 -3 -64.84 41.35
7 25 -3 -16.33 28.77
-25 32 -3 -49.04 46.94
25 -32 -2 -21.59 30.47
-32 7 -2 -23.75 32.86
7 25 -2 -1.25 25.41
-25 32 -2 34.59 37.77
-32 7 -1 60.03 45.84
25 -32 -1 -6.14 22.31
-25 32 -1 79.3 42.68
7 25 -1 76.63 42.23
7 25 0 10.92 37.73
-25 32 0 28.46 34.7
-32 7 0 15.5 35.52
7 25 1 23.37 41.26
-25 32 1 56.03 39.94
-25 32 1 25.47 17.59
7 25 2 48.91 44.07
-25 32 2 -6.61 30.16
-25 32 2 2.64 19.17
7 25 3 47.88 40.27
-25 32 3 7.02 28.3
-25 32 3 -12.43 19.89
7 25 4 -34.47 42.4
-25 32 4 28.28 28.18
26 -32 -4 16.65 39.26
6 26 -4 -6.26 32.03
-26 32 -4 94.03 50.83
26 -32 -3 -17.78 29.2
6 26 -3 21.12 28.23
-26 32 -3 18.02 40.49
26 -32 -2 37.07 24.78
6 26 -2 5.68 27.47
-26 32 -2 -32.33 40.17
-32 6 -2 -4.56 34.34
26 -32 -1 94.62 34.65
6 26 -1 103.09 47.04
-26 32 -1 85.59 42.01
-32 6 -1 113.72 44.69
6 26 0 97.93 48.42
-26 32 0 49.38 41.62
6 26 1 170.68 55.83
-26 32 1 98.87 43.45
-26 32 1 91.08 28.03
6 26 2 29 38.67
-26 32 2 53.7 37.02
-26 32 2 60.66 28.85
6 26 3 39.34 36.9
-26 32 3 -13.15 32.7
-26 32 3 38.49 28.11
6 26 4 28.19 42.46
-26 32 4 35.04 28.08
5 27 -4 33.42 34.17
-27 32 -4 22.5 51.14
27 -32 -3 2.16 29.27
5 27 -3 45.57 35.73
-27 32 -3 51.44 39.51
27 -32 -2 123.76 39.1
5 27 -2 59.09 38.07
-27 32 -2 98.33 47.04
27 -32 -1 12.13 20.3
5 27 -1 52.44 39.39
-27 32 -1 59.59 44.82
5 27 0 -0.08 40.98
-27 32 0 18.3 32.03
5 27 1 34.92 41.96
-27 32 1 54.3 24.91
5 27 2 48.59 47.12
-27 32 2 48.96 38.42
-27 32 2 113.2 32.09
5 27 3 -16.95 40.29
-27 32 3 -25.37 34.29
-27 32 3 7.96 20.4
5 27 4 -15.99 45.59
-27 32 4 25 26.75
4 28 -4 18.71 33.65
28 -32 -3 25.52 32.16
4 28 -3 -28.78 34.49
-28 32 -3 60.05 49.01
28 -32 -2 -13.78 22.63
4 28 -2 -9.01 34.69
-28 32 -2 48.24 41.77
28 -32 -1 32.38 25.97
4 28 -1 50.58 37.88
-28 32 -1 4.64 34.75
4 28 0 19.44 31.87
-28 32 0 47.09 34.35
4 28 1 -7.74 37.69
-28 32 1 44.51 44.01
-28 32 1 -32.99 22.37
4 28 2 -26.41 40.16
-28 32 2 -4.48 34.79
-28 32 2 -18.55 22.72
4 28 3 10.73 34.18
-28 32 3 43.48 38.13
-28 32 3 -29.64 26.03
4 28 4 62.82 53.88
3 29 -4 -27.09 38.33
29 -32 -3 -0.5 32.5
3 29 -3 34.37 37.44
-29 32 -3 -35.54 51.16
29 -32 -2 10.7 26.73
3 29 -2 40.59 29.12
-29 32 -2 6.27 37.71
29 -32 -1 3.18 26.2
3 29 -1 50.25 40.48
-29 32 -1 74.65 39.34
3 29 0 36.54 38.07
-29 32 0 33.32 34.36
3 29 1 24.99 32.52
-29 32 1 -15.21 33.21
-29 32 1 -0.43 18.08
3 29 2 36.75 33.51
-29 32 2 45.61 38.35
-29 32 2 -4.11 22.91
3 29 3 -32.45 38.58
-29 32 3 12.8 36.8
-29 32 3 -13.68 22.45
3 29 4 35.56 41.66
2 30 -4 -10.31 34.16
30 -32 -3 11.35 27.03
2 30 -3 -15.81 31.66
-30 32 -3 -26.99 40.88
30 -32 -2 37.14 28.43
2 30 -2 51.93 36.32
-30 32 -2 8.36 43.04
2 30 -1 63.57 41.5
-30 32 -1 -20.51 42.09
2 30 0 40.97 41.3
-30 32 0 93.98 47.15
2 30 1 51.62 39.07
-30 32 1 53.93 40.4
-30 32 1 43.93 23.16
2 30 2 25.13 36.55
-30 32 2 -58.34 44.96
-30 32 2 44.33 28.79
2 30 3 33.82 44.06
-30 32 3 -8.99 23.43
1 31 -4 44.34 43.68
31 -32 -3 1.08 26.39
1 31 -3 94.77 62.81
-31 32 -3 -11.44 40.19
31 -32 -2 1.25 24.2
1 31 -2 57.41 39.29
-31 32 -2 -22.06 45.32
1 31 -1 1.79 34.42
-31 32 -1 28.01 46.95
1 31 0 -10.24 37.83
-31 32 0 92.17 43.69
-31 32 1 13.07 18.06
1 31 1 23.84 40.41
-31 32 1 -0.12 39.63
1 31 2 80.79 51.21
-31 32 2 -10.41 38.39
-31 32 2 -7.73 21.74
1 31 3 135.06 51.16
-31 32 3 16.85 23.46
32 -32 -3 85.44 39.59
0 32 -3 47.46 40.13
32 -32 -2 27.21 26.77
0 32 -2 31.18 38.38
-32 32 -2 12.34 44.91
0 32 -1 90.04 50.3
-32 32 -1 6.33 41.73
0 32 0 100.78 47.82
-32 32 0 137.89 52.83
-32 32 1 12.47 19.43
0 32 1 40.28 44.66
-32 32 1 35.64 38.5
0 32 2 7.21 32.99
-32 32 2 -26.68 36.43
-32 32 2 -38.43 26.44
0 32 3 68.23 63.04
0 32 3 -1.08 35.7
-32 32 3 30.87 25.25
33 -32 -3 64.39 38.25
-1 33 -3 0.36 37.47
33 -32 -2 3.13 22.44
-1 33 -2 6.02 37.32
-33 32 -2 46.54 47.22
-1 33 -1 15.02 39.2
-33 32 -1 -36.54 51.11
-1 33 0 175.2 62.05
-33 32 0 76.85 51.05
-33 32 1 46.78 26.62
-1 33 1 49.07 46.57
-33 32 1 -29.05 40.94
-1 33 2 -1.65 34.43
-33 32 2 26.66 43.42
-33 32 2 -44.28 27.48
-1 33 3 -4.03 53.81
-1 33 3 87.44 52.6
-33 32 3 18.14 24.36
33 -31 -3 -23.02 28.5
-2 33 -3 24.47 40.74
33 -31 -2 -7.06 24.41
-2 33 -2 -75.69 47.13
-33 31 -2 38.83 42.36
-2 33 -1 -65.29 46.55
-33 31 -1 102.61 56.98
-2 33 0 160.8 59.78
-33 31 0 81.29 47.33
-33 31 1 93.76 33.83
-2 33 1 59.27 41.93
-33 31 1 -11.61 32.96
-33 31 2 16.73 32.17
-2 33 2 27.73 31.92
-33 31 2 -22 21.19
-2 33 3 44.08 47.36
-33 31 3 26.5 26.49
-33 30 -3 -5.61 46.38
33 -30 -3 39.79 27.74
-3 33 -3 46.15 41.02
-33 30 -2 61.4 48.74
33 -30 -2 29.14 29.74
-3 33 -2 57.92 44.17
-3 33 -1 9.19 32.19
-33 30 -1 11.61 40.93
-3 33 0 6.05 34.15
-33 30 0 -70.96 50.43
-33 30 1 -31.17 23.98
-3 33 1 51.99 40.74
-33 30 1 44.39 36.47
-33 30 2 -6.02 36.27
-3 33 2 22.22 40.32
-3 33 2 92.28 45.92
-33 30 2 18.32 21.98
-3 33 3 40.32 49.85
-3 33 3 0.76 33.91
-33 30 3 23.79 25.49
-4 33 -4 79.02 48.87
-33 29 -3 -43.8 56.3
33 -29 -3 -36.93 31.47
-4 33 -3 -0.04 35.7
-33 29 -2 43.82 45.22
33 -29 -2 -39.4 24.32
-4 33 -2 87.75 47.24
-33 29 -1 102.29 53.43
-4 33 -1 17.76 33.31
-4 33 0 -33.16 40.29
-33 29 0 -30.31 43.12
-33 29 1 26.69 35.57
-33 29 1 9.42 19
-4 33 1 29.99 30.5
-33 29 2 14.66 20.3
-33 29 2 70.35 50.57
-4 33 2 7.63 38.24
-4 33 2 37.44 34.02
-4 33 3 40.94 52.94
-4 33 3 43.56 36.2
-33 29 3 16.22 27.75
-5 33 -4 20.49 44.81
-33 28 -3 2.71 49.41
33 -28 -3 66.87 39.13
-5 33 -3 73.28 52.01
-33 28 -2 53.09 44.72
33 -28 -2 21.76 30.19
-5 33 -2 88.46 46.1
-33 28 -1 99.2 54.92
-5 33 -1 60.28 36.35
-33 28 0 -7.82 33.4
-5 33 0 9.36 30.83
-33 28 1 17.02 21.44
-33 28 1 17.32 37.58
-33 28 2 -2.58 19.56
-33 28 2 93.14 49.1
-5 33 2 6.32 37.92
-5 33 2 29.05 35.43
-5 33 3 85.55 52.32
-5 33 3 91.51 47.43
-33 28 3 68.45 29.68
-6 33 -4 36.34 38.42
-6 33 -4 4.19 41.64
-6 33 -3 2.62 28.89
-33 27 -3 48.24 46.24
33 -27 -3 -12.34 24.14
-6 33 -3 -12.92 32.28
-33 27 -2 74.59 53.31
33 -27 -2 -10.42 25.22
-6 33 -2 -10.44 32.57
-33 27 -1 23.81 38.85
-6 33 -1 41.85 39.63
-33 27 0 -5.81 33.57
-6 33 0 -78.13 42.25
-33 27 1 6.37 22.94
-33 27 1 12.69 35.86
-6 33 1 32.99 36.9
-33 27 2 28.76 25.82
-6 33 2 43.22 47.89
-33 27 2 46.57 37.71
-6 33 2 39.53 31.3
-6 33 3 8.61 30.18
-33 27 3 5.12 23.1
-7 33 -4 -31.1 39.49
-7 33 -4 -7.49 26.87
-7 33 -3 -54.89 36.28
-33 26 -3 48.67 48.89
33 -26 -3 -5.03 23.47
-7 33 -3 33.34 43.65
-7 33 -2 8.42 27.33
-33 26 -2 15.5 36.13
33 -26 -2 65.58 29.3
-7 33 -2 -12.53 35.62
-33 26 -1 9.4 34.82
-7 33 -1 -51.07 33.14
-33 26 0 32.31 41.06
-7 33 0 37.05 33.5
-7 33 0 6.82 34.89
-33 26 1 40.03 23.33
-7 33 1 49.11 34.77
-33 26 1 11.1 32.82
-7 33 1 54.87 42.9
-33 26 2 35.82 22.71
-33 26 2 29.51 34.98
-7 33 2 53.87 35.8
-33 26 3 42.25 38.59
-7 33 3 22.14 30.86
-33 26 3 -8.43 21.88
-7 33 4 41.68 37.53
-8 33 -4 -4.48 34.17
33 -25 -4 -6.52 34.57
-33 25 -4 4.64 41.26
-8 33 -4 30.84 43.75
-8 33 -3 31.14 37.92
-33 25 -3 -22.73 38.55
33 -25 -3 91.49 41.47
-8 33 -3 53.36 40.62
-8 33 -2 115.16 45.41
-33 25 -2 189.2 59.62
-8 33 -2 96.96 45.97
-8 33 -1 119.76 45.07
-33 25 -1 138.07 49.33
-8 33 -1 53.07 39.95
-8 33 0 15.14 37.06
-33 25 0 -12.64 38.92
-8 33 0 108.86 50.08
-33 25 1 73.58 30.54
-8 33 1 123.2 43.92
-33 25 1 105.73 40.73
-8 33 1 105.72 46.74
-33 25 2 84.57 31.62
-8 33 2 118.4 43.61
-33 25 2 75.59 45.16
-8 33 2 76.99 42.79
-8 33 3 24.48 35.77
-33 25 3 -9.52 35.81
-33 25 3 -13 24.16
-8 33 4 -16.43 29.22
-9 33 -4 -11.76 29.9
-33 24 -4 41.87 46.5
-9 33 -4 20.21 41.32
-9 33 -3 64.95 33.49
-33 24 -3 -7.71 41.76
-9 33 -3 -6.79 33.7
-9 33 -2 25.93 29.62
-33 24 -2 24.98 38.13
-9 33 -2 -67.09 44.79
-9 33 -1 39.37 29.88
-33 24 -1 9 35.96
-9 33 -1 -13.23 37.35
-9 33 0 -5.83 32.61
-33 24 0 36.64 37.92
-9 33 0 0.47 28.81
-33 24 1 7.82 23.4
-9 33 1 63.55 36.13
-33 24 1 -42.05 36.82
-9 33 1 17.42 37.07
-33 24 2 33.03 23.67
-33 24 2 39.42 38
-9 33 2 11.83 28.98
-9 33 3 24.94 23.4
-9 33 3 26.09 35.54
-33 24 3 -27.07 33.4
-33 24 3 46.32 29.09
-9 33 4 -76.68 41.03
-10 33 -4 -10.56 41.22
-33 23 -4 -7.48 41.6
-10 33 -3 -54.4 36.46
-33 23 -3 55.53 45.27
-10 33 -3 3.2 34.36
-10 33 -2 -4.27 29.69
-33 23 -2 82.2 49.77
-10 33 -2 41.37 37.8
-10 33 -1 -12.57 29.7
-33 23 -1 -13.07 36.95
-10 33 -1 7.6 35.72
-10 33 0 -25.16 30.52
-33 23 0 15.25 37.9
-10 33 0 -7.97 30.12
-33 23 1 21.2 23.34
-10 33 1 -39.07 30.42
-33 23 1 2.77 29.34
-10 33 1 19.99 20.98
-10 33 1 50.41 41.09
-33 23 2 47.63 24.65
-10 33 2 108.2 33.96
-33 23 2 44.46 38.48
-10 33 2 97.41 41.89
-10 33 3 -2.9 26.22
-10 33 3 19.39 38.95
-33 23 3 -9.44 33.41
-33 23 3 -5.13 20.78
-10 33 4 -5.2 29.11
-11 33 -4 0.09 39.38
-33 22 -4 359.76 114.01
-11 33 -3 50.65 30.39
-33 22 -3 147.87 57.1
-11 33 -3 100.57 51.56
-11 33 -2 24.41 29.18
-33 22 -2 86.25 48.71
-11 33 -2 18.4 38.69
-11 33 -1 11.27 25.47
-33 22 -1 -59.54 36.57
-11 33 -1 -33.71 36.85
-11 33 0 68.7 33.87
-33 22 0 64.53 40.93
-11 33 0 172.75 52.92
-33 22 1 57.65 25.75
-11 33 1 -13.41 25.65
-11 33 1 31.31 21.47
-33 22 1 16.43 30.55
-11 33 1 32.61 38.69
-33 22 2 -7.46 22.97
-11 33 2 12.88 20.15
-11 33 2 49.71 35.41
-33 22 2 -45.97 39.54
-33 22 3 65.07 30.27
-33 22 3 48.23 39.88
-11 33 3 80.7 33.55
-11 33 3 23.62 31.73
-11 33 4 31.39 33.01
-12 33 -4 1.95 36.13
-33 21 -4 147.42 79.5
21 12 -3 35.69 32.01
-33 21 -3 -34.64 41.22
-12 33 -3 99.19 49.43
-12 33 -2 85.24 35.47
-33 21 -2 100.52 45.07
-12 33 -2 94.14 42.08
-12 33 -1 70.8 40.28
-33 21 -1 66.17 42.02
-12 33 -1 15.03 33.22
-12 33 0 33.25 27.73
-33 21 0 -37.53 39.5
-12 33 0 -41.95 37.49
-33 21 1 14.83 20.45
-12 33 1 37.83 20.37
-33 21 1 -3.17 31.78
-12 33 1 14.07 33.5
-33 21 2 7.51 18.75
-12 33 2 -10.45 20.02
-33 21 2 26.74 35.49
-33 21 3 30.03 28.98
-33 21 3 92.71 49.02
-12 33 3 38.8 31.07
-12 33 3 12.82 33.38
-12 33 4 -0.69 25.24
-13 33 -4 -15.66 38.49
-33 20 -4 19.73 41.63
20 13 -3 20.53 28.48
-33 20 -3 23.84 39.11
-13 33 -3 77.97 44.73
-33 20 -2 -31.38 45.61
-13 33 -2 -46.73 45.42
-33 20 -1 22.25 37.82
-13 33 -1 70.79 35.73
-33 20 0 -43.47 30.68
-13 33 0 62.45 40.18
-33 20 1 8.99 19.37
-13 33 1 22.07 18.28
-13 33 1 49.74 39.63
-33 20 1 48.79 43.04
-33 20 2 -10.69 21.78
-33 20 2 35.19 37.03
-13 33 2 18.93 20.79
-13 33 2 -14.61 30.8
-33 20 3 -5.78 19.76
-33 20 3 4.42 38.47
-13 33 3 -0.59 24.15
-13 33 3 33.33 37.06
-13 33 4 -12.19 25.47
-14 33 -4 77.8 48.95
-33 19 -4 -13.69 37.58
14 -33 -4 17.45 27.13
-14 33 -3 51.15 40.48
-33 19 -3 -57.05 52.6
19 14 -3 18.82 26.6
-33 19 -2 16.65 36.99
-14 33 -2 45.75 35.43
-14 33 -1 339.29 70.46
-33 19 -1 224.21 59.88
-14 33 0 -37.55 41.46
-33 19 0 -73.79 44.19
-33 19 1 207.52 42.41
-14 33 1 213.56 36
-14 33 1 114.79 40.42
-33 19 1 174.32 52.35
-33 19 2 15.09 19.75
-33 19 2 -33.07 32.41
-14 33 2 -6.5 19.61
-14 33 2 11.61 32.95
-33 19 3 0.81 20.78
-14 33 3 39.15 24.28
-33 19 3 46.74 41.51
-14 33 3 22.75 32.43
-14 33 4 71.44 36.34
-15 33 -4 16.03 37.44
15 -33 -4 -21.62 28.83
-33 18 -4 1.84 40.39
-15 33 -3 -57.23 42.17
18 15 -3 6.49 23.86
-33 18 -2 -104.88 56.45
18 15 -2 17.76 24.84
-15 33 -2 -68.84 39.79
-15 33 -1 125.77 49.91
-33 18 -1 85.7 43.29
-15 33 0 31.1 32.77
-33 18 0 24.39 33.47
-33 18 1 15.02 30.41
-33 18 1 27.58 24.6
-15 33 1 18.11 19.12
-15 33 1 -8.49 31.22
-33 18 2 13.54 22.84
-33 18 2 52.87 45.2
-15 33 2 24.67 25.23
-15 33 2 54.46 33.6
-33 18 3 -44.71 28.63
-15 33 3 3.12 22.86
-15 33 3 -31.89 35.01
-33 18 4 0.03 22.41
-15 33 4 0.42 26.74
-16 33 -4 -13.28 42
16 -33 -4 20.52 24.54
-33 17 -4 23.66 38.11
-16 33 -3 -0.04 32.16
17 16 -3 -1.07 23.99
-33 17 -3 35.48 42.79
-16 33 -2 113.36 46.7
-33 17 -2 3.51 36.67
17 16 -2 27.15 31.7
-33 17 -1 66.54 46.71
-16 33 -1 -13.08 33.46
-33 17 0 59.33 38.59
-16 33 0 74.47 41.52
-33 17 1 -32.81 34.95
-16 33 1 8.13 14.83
-16 33 1 0.55 27.89
-33 17 2 90.13 32.09
-33 17 2 -5.44 32.36
-16 33 2 43.87 29.91
-16 33 2 72.97 39.94
-33 17 3 33.12 24.68
-33 17 3 14.29 32.71
-16 33 3 -3.22 23
-16 33 3 -13.79 36.86
-16 33 4 -60.83 33.89
-17 33 -4 11.32 36.34
17 -33 -4 48.47 31.72
-33 16 -4 -46.85 52.23
-17 33 -3 24.99 40.02
17 -33 -3 -9.43 25.79
16 17 -3 16.42 28.3
-33 16 -3 20.15 41.91
-17 33 -2 116.27 49.95
16 17 -2 37.11 27.52
-33 16 -2 21.6 34.81
16 17 -1 -0.94 34.2
-33 16 -1 7.53 31.36
-17 33 -1 66.52 44.84
-33 16 0 192.87 53.69
-17 33 0 250.46 62.96
-33 16 1 39.59 30.82
-17 33 1 31.86 20.44
-17 33 1 19.57 31.2
-33 16 2 -19.47 24.09
-17 33 2 70.96 27.19
-33 16 2 23.47 32.6
-17 33 2 57.84 40.5
-17 33 3 -14.45 31.39
-33 16 3 24.77 27.43
-33 16 3 -20.24 35.12
-17 33 3 89.12 33.24
-33 16 4 5.97 26.63
-17 33 4 -19.38 33.82
-18 33 -4 40.13 43.19
18 -33 -4 29.73 29.99
-33 15 -4 71.28 49.6
-18 33 -3 0.31 33
18 -33 -3 -6.29 24.6
15 18 -3 -3.17 28.1
-33 15 -3 9.98 36.05
-18 33 -2 -36.93 40.72
15 18 -2 32.39 33.78
-33 15 -2 -28.51 39.13
-18 33 -1 55.85 40.25
15 18 -1 69.55 37.36
-33 15 -1 62.67 39.24
-18 33 0 122.33 49.1
-33 15 0 86.92 45.91
-33 15 1 38 33.45
-18 33 1 -33.89 20.62
-18 33 1 -6.91 34.22
-33 15 2 4.85 29.74
-18 33 2 96.84 44.8
-33 15 2 28.61 27.56
-18 33 2 5.24 21.78
-33 15 3 -33.12 40.82
-33 15 3 -18.72 24.28
-18 33 3 68.96 36.6
-18 33 3 3.64 21.89
15 18 4 15.88 51.61
-18 33 4 -3.7 28.42
-33 14 -4 46.71 47.11
19 -33 -4 27.68 28.46
-19 33 -4 -17.04 37.4
14 19 -4 -42.17 31.55
-19 33 -3 -29.14 44.57
19 -33 -3 31.69 32.02
14 19 -3 -11.49 24.1
-33 14 -3 24.89 46.62
-19 33 -2 41.91 36.98
19 -33 -2 114.92 44.54
14 19 -2 39.32 35.64
-33 14 -2 112.81 54.41
-19 33 -1 12.46 36.73
14 19 -1 33.84 36.51
-33 14 -1 22.2 39
14 19 0 340.48 75.55
-33 14 0 229.41 61.01
-19 33 0 225.6 62.01
-19 33 1 55.76 28.99
14 19 1 72.65 52.77
-19 33 1 -1.72 17.9
-33 14 1 -28.19 37.98
-19 33 2 8.34 36.88
-33 14 2 -52.11 26.32
14 19 2 -27.34 41.36
-33 14 2 3.34 29.95
-19 33 2 18.15 17.4
-33 14 3 -20.85 27.64
-19 33 3 35.97 39.73
14 19 3 -19.1 54.32
-19 33 3 -7.64 22.12
-33 14 3 50.32 37.95
14 19 4 38.15 53.46
-19 33 4 13.43 26.33
20 -33 -4 38.97 34.69
-20 33 -4 -22.34 35.73
13 20 -4 68.16 34.77
-33 13 -4 25.73 40.82
-33 13 -3 51.7 46.97
-20 33 -3 1.56 38.75
20 -33 -3 59.13 32.98
13 20 -3 27.36 26.38
-20 33 -2 36.08 39.6
13 20 -2 29.05 32.17
-20 33 -1 -0.04 31.89
13 20 -1 -0.04 29.99
-33 13 -1 -5.33 31.49
-20 33 0 0.92 30.74
13 20 0 45.88 41.82
-33 13 0 110.61 44.88
-20 33 1 3.54 28.12
-33 13 1 89.3 40
13 20 1 61.46 49.71
-20 33 1 -6.02 16.9
13 20 2 -22.85 56.83
-20 33 2 18.65 32.31
-33 13 2 15.84 24.25
-20 33 2 -7.29 22.17
-33 13 2 59.53 36.11
-33 13 3 10.87 25.44
-20 33 3 -29.94 32.28
13 20 3 35.08 46.54
-33 13 3 65.19 42.63
-20 33 3 38.66 28.67
13 20 4 20.57 47.3
-20 33 4 10.49 25.93
21 -33 -4 -46.91 37.45
-21 33 -4 19.18 43.55
12 21 -4 5.87 30.48
-33 12 -4 16.2 44.38
-21 33 -3 25.8 38.52
21 -33 -3 32.09 33.44
-33 12 -3 29.04 47.16
12 21 -3 99.16 39.34
-33 12 -2 34.02 39.83
-21 33 -2 -42.75 35.58
21 -33 -2 2.28 30.47
12 21 -2 -33.02 29.42
-33 12 -1 53.23 44.88
-21 33 -1 -15.28 33.6
21 -33 -1 53.22 36.41
12 21 -1 63.01 41.27
-33 12 0 26.89 38.62
-21 33 0 -36.01 33.43
12 21 0 75.32 49.86
-21 33 1 39.68 29.69
12 21 1 102.74 58.03
-33 12 1 44.45 39.58
-21 33 1 23.23 18.89
-33 12 2 6.66 22.96
-21 33 2 -77.72 38.69
12 21 2 15.81 42.81
-33 12 2 5.97 31.4
-21 33 2 -1.71 17.62
-33 12 3 2.98 22.07
-21 33 3 31.91 31.79
12 21 3 81.59 57.55
-21 33 3 88.05 35.19
12 21 4 83.93 58.39
-21 33 4 14.69 28.6
22 -33 -4 -0.47 29.88
-33 11 -4 16.32 46
-22 33 -4 33.2 40.93
11 22 -4 13.75 28.81
22 -33 -3 -11.6 27.94
-22 33 -3 46.9 41.24
11 22 -3 3.22 27.36
-33 11 -3 62.93 49.84
22 -33 -2 55.95 32.63
11 22 -2 110.16 44.76
-33 11 -2 69.99 47.3
-22 33 -1 -11.49 33.27
22 -33 -1 -5.3 24.07
11 22 -1 48.24 36.05
-33 11 -1 -2.57 34.08
-22 33 0 57.7 33.65
11 22 0 72.78 50.55
22 -33 0 35.22 24.08
-33 11 0 99.19 47.81
-22 33 1 29.96 38.52
11 22 1 -40.78 48.69
-22 33 1 2.67 18.52
-33 11 1 4.73 34.45
11 22 2 -10.88 39.81
-33 11 2 48.21 36.37
-22 33 2 22.71 18.33
-33 11 3 25.21 25.77
11 22 3 62.88 56.84
-22 33 3 -13.51 30.63
-22 33 3 43.73 27.59
11 22 4 34.2 52.02
-22 33 4 41.72 31.77
-33 10 -4 -7.98 47.65
23 -33 -4 7.74 39.02
-23 33 -4 46.43 52.09
10 23 -4 2.89 26.1
-33 10 -3 2.65 37.07
23 -33 -3 25.02 27.06
-23 33 -3 54.96 46.76
10 23 -3 40.11 32.32
-23 33 -2 41.33 34.4
10 23 -2 -8.61 28.77
-33 10 -2 -0.56 37.44
-23 33 -1 43.55 40.65
23 -33 -1 12.54 24.88
10 23 -1 21.53 37.91
-33 10 -1 22.67 34.76
-23 33 0 33.69 38.61
10 23 0 35.08 44.11
23 -33 0 1.93 18.19
-33 10 0 -54.17 32.47
-23 33 1 113.54 45.56
10 23 1 70.64 47.01
-33 10 1 40.61 34.27
-23 33 1 51.16 22.11
-33 10 2 13.72 27.97
-23 33 2 -4.3 36.22
10 23 2 87.53 47.25
-23 33 2 1.73 22.6
-33 10 3 64.66 33.3
10 23 3 85.43 55.06
-23 33 3 45.69 33.58
-23 33 3 19.19 19.99
10 23 4 -5.15 46.64
-23 33 4 5.72 26.46
-33 9 -4 -32.77 37.7
9 24 -4 -6.42 30.35
-24 33 -4 26.85 42.81
24 -33 -3 43.6 33.52
-24 33 -3 -31.79 38.26
9 24 -3 12.6 26.69
-33 9 -3 36.14 38.68
-33 9 -2 51.45 41.75
24 -33 -2 50.94 37.98
-24 33 -2 -11.2 33.9
9 24 -2 69.45 39.72
-33 9 -1 5.04 40.39
-24 33 -1 77.71 41.42
24 -33 -1 45.82 23.55
9 24 -1 -3.52 30.64
-24 33 0 240.19 60.08
24 -33 0 134.24 33.47
-33 9 0 147.94 55.34
-24 33 1 -4.77 31.33
-33 9 1 -0.74 29.32
-24 33 1 6.42 14.71
9 24 2 39.05 43.16
-24 33 2 2.94 30.84
-24 33 2 7.78 19.81
-33 9 3 -55.29 34.56
9 24 3 50.97 41.86
-24 33 3 -30.75 35.78
-24 33 3 10.19 23.67
9 24 4 4.2 41.22
-24 33 4 4.93 25.5
8 25 -4 6.25 32.2
-25 33 -4 -1.21 40.98
-33 8 -3 8.03 39.8
25 -33 -3 4.97 30.83
8 25 -3 28.1 32.81
-25 33 -3 22.53 41.58
-33 8 -2 -58.54 42.48
25 -33 -2 -4.93 25.92
-25 33 -2 -34.31 39.02
8 25 -2 -24.55 25.16
25 -33 -1 8.84 23.68
-25 33 -1 39.83 38.43
8 25 -1 -8.94 34.19
-33 8 -1 -36.81 38.37
-25 33 0 82.53 41.52
8 25 0 26.43 31.96
-33 8 0 -14.96 34.13
8 25 1 87.48 53.56
-25 33 1 83.68 45.47
-33 8 1 27.18 37.14
-25 33 1 -11.4 15.93
8 25 2 46.43 47.69
-25 33 2 96.07 47.77
-25 33 2 19.22 21.01
8 25 3 -0.88 38.76
-25 33 3 -35.96 35.47
-25 33 3 24.1 21.62
8 25 4 -48.85 53.75
-25 33 4 54.69 34.9
7 26 -4 35.42 36.46
-26 33 -4 -6.65 36.71
26 -33 -3 59.08 36.2
7 26 -3 22.72 28.17
-26 33 -3 36.59 45.56
26 -33 -2 27.81 23.7
7 26 -2 59.42 35.04
-26 33 -2 -23.67 38.27
-33 7 -2 36.54 39.4
-33 7 -1 26.23 30.57
26 -33 -1 42 27.64
7 26 -1 -57.6 40.99
-26 33 -1 -19.28 30.72
-33 7 0 4.84 36.01
-26 33 0 -3.48 34.5
7 26 1 43.86 41.19
-26 33 1 0.63 37.58
-26 33 1 51.97 26.85
7 26 2 86.36 53.43
-26 33 2 -10.77 34.96
-26 33 2 25.06 22.56
7 26 3 92.88 50.57
-26 33 3 -18.98 37.37
-26 33 3 62.62 30.93
7 26 4 51.81 49.37
-26 33 4 3.82 24.01
6 27 -4 8.12 32.02
27 -33 -3 26.17 30.57
6 27 -3 -20.61 32.23
-27 33 -3 87.32 54.26
27 -33 -2 97.3 37.49
6 27 -2 -3.89 29.8
-27 33 -2 11.3 32.71
27 -33 -1 -0.79 20.93
6 27 -1 34.54 38.39
-27 33 -1 13.67 38.33
6 27 0 162.07 55.45
-27 33 0 -9.56 37.04
6 27 1 11.2 43.78
-27 33 1 26.45 40.63
-27 33 1 40.55 22.81
6 27 2 -15.86 36.35
-27 33 2 -23.7 24.28
6 27 3 58.03 51.12
-27 33 3 16.77 31.09
-27 33 3 36.01 27.87
6 27 4 33.17 55.42
5 28 -4 93.95 49.64
28 -33 -3 33.69 34.53
5 28 -3 33.44 33.07
-28 33 -3 -27.05 36.98
28 -33 -2 -43.56 38.35
5 28 -2 52.71 41.39
-28 33 -2 15.23 34.95
28 -33 -1 18.99 22.19
5 28 -1 5.48 30.63
-28 33 -1 47.42 44.07
5 28 0 0.91 31.3
-28 33 0 79.37 49.95
5 28 1 25.21 43.36
-28 33 1 21.89 38.29
5 28 2 -0.73 38.12
-28 33 2 -16.47 33.11
-28 33 2 -1.51 18.25
5 28 3 48.61 41.04
-28 33 3 -11.86 34.95
-28 33 3 27.85 26.85
5 28 4 109.84 64.15
4 29 -4 -4.09 34.59
29 -33 -3 -37.5 34.46
4 29 -3 4.53 33.54
-29 33 -3 3 37.22
29 -33 -2 -16.13 25.58
4 29 -2 49.65 39.48
-29 33 -2 31.79 35.42
4 29 -1 -24.82 37.12
-29 33 -1 34.17 44.32
4 29 0 -26.27 38.01
-29 33 0 4.98 32.68
4 29 1 19.54 40.49
-29 33 1 -8.78 34.87
4 29 2 45.64 36.11
-29 33 2 72.12 42.16
-29 33 2 50.75 29.99
4 29 3 34.63 49.17
-29 33 3 13.33 40
-29 33 3 76.15 30.73
3 30 -4 71.23 44.41
30 -33 -3 34.73 37.98
3 30 -3 9.27 33.77
-30 33 -3 2.08 40.1
30 -33 -2 17.2 33.88
3 30 -2 18.6 34.72
-30 33 -2 -8.47 41.16
3 30 -1 41.79 39.51
-30 33 -1 52.61 39.05
3 30 0 -5.33 38.15
-30 33 0 50.07 43.68
3 30 1 159.18 51.4
-30 33 1 66.67 45.97
-30 33 2 43.16 42.84
-30 33 2 0.5 18.07
3 30 3 107.62 51.69
-30 33 3 1.02 26.1
31 -33 -3 54.55 36.05
2 31 -3 26.61 38.23
31 -33 -2 -4.95 22.36
2 31 -2 44.24 37.59
2 31 -1 100.03 51.77
-31 33 -1 72.53 45.13
2 31 0 32.44 38.33
-31 33 0 37.79 47.04
2 31 1 151.15 58.84
-31 33 1 103.52 56.88
2 31 2 8.9 38.63
-31 33 2 -19.14 37.44
-31 33 2 14.98 22.63
2 31 3 38.52 43.86
-31 33 3 -46.49 31.63
32 -33 -3 -8.96 27.62
1 32 -3 8.67 34.04
32 -33 -2 23.05 23.63
1 32 -2 -42.48 36.92
-32 33 -2 -28.21 46.07
1 32 -1 -43.41 41.35
-32 33 -1 8.81 35.62
1 32 0 -2.59 35.5
-32 33 0 -22.4 39.29
1 32 1 -27.39 36.91
-32 33 1 31.14 42.01
1 32 2 -30.53 43.65
-32 33 2 0.66 33.96
-32 33 2 22.74 25.53
1 32 3 -25.13 41.49
-32 33 3 -36.45 32.08
33 -33 -3 15.13 27.74
0 33 -2 64.84 46.19
0 33 -1 -19.69 44.39
-33 33 -1 43.05 48.73
0 33 0 34.01 34.48
-33 33 0 37.87 42.65
0 33 1 -18.86 33.75
-33 33 1 47.14 44.38
0 33 2 40.82 38.95
-33 33 2 64.11 45.04
-33 33 2 8.3 25.07
0 33 3 71.46 66.63
-33 33 3 -11.52 21.43
34 -33 -3 34.5 32.86
-1 34 -1 76.53 48.01
-34 33 -1 68.98 54.4
-1 34 0 77.46 39.17
-34 33 0 52.61 37.54
-1 34 1 76.58 51.36
-34 33 1 -10.53 34.66
-34 33 2 46.21 26.65
-34 33 2 1.8 42.67
-1 34 2 69.64 46.05
-1 34 3 -20.6 54.95
-34 33 3 17.69 24.54
34 -32 -3 -2.48 25.85
-2 34 -2 96.99 49.38
-2 34 -1 2.77 31.97
-34 32 -1 -19.11 37.78
-2 34 0 56.99 41.85
-34 32 0 -4.59 37.75
-2 34 1 72.41 47.64
-34 32 1 22.35 44.82
-34 32 2 -0.7 22.53
-34 32 2 -31 42.43
-2 34 2 60.13 45.48
-2 34 3 5.44 35.57
-34 32 3 -5.61 22.28
34 -31 -3 51.1 36.48
-34 31 -2 -19.05 43.89
-3 34 -2 -89.38 43.67
-3 34 -1 36.44 37.55
-34 31 -1 67.78 47.67
-3 34 0 -29.43 33.96
-34 31 0 27.56 39.63
-34 31 1 80.68 47.93
-34 31 1 48.94 27.4
-3 34 1 18.06 36.16
-34 31 2 -1.16 18.69
-34 31 2 25.64 34.25
-3 34 2 7.79 51.7
-3 34 2 14.32 36.69
-3 34 3 115.25 69.58
-3 34 3 72.92 49.02
-34 31 3 79.53 32.26
34 -30 -3 76.55 38.19
-4 34 -3 -41.64 42.26
-34 30 -2 15.53 42.04
34 -30 -2 69.26 30.5
-4 34 -2 -11.95 32.85
-34 30 -1 69.94 45.88
-4 34 -1 157.78 57.76
-34 30 0 -19.96 38.14
-4 34 0 5.31 35.1
-34 30 1 60.94 43.13
-34 30 1 32.27 26.85
-4 34 1 72.81 45.4
-34 30 2 3.37 21.85
-34 30 2 37.02 35.45
-4 34 2 79.04 50.24
-4 34 2 29.12 31.24
-4 34 3 -15.94 40.69
-4 34 3 -7.95 33.86
-34 30 3 53.16 32.25
34 -29 -3 99.19 41.28
-5 34 -3 -12.19 36.35
-34 29 -2 38.19 49.23
34 -29 -2 47.39 28.37
-5 34 -2 -5.18 31.57
-34 29 -1 62.15 48.34
-5 34 -1 37.87 39.78
-34 29 0 19.96 42.23
-5 34 0 -4.51 36.49
-34 29 1 -2.89 21.98
-34 29 1 27.94 38.41
-5 34 1 47.11 39.21
-5 34 1 59.3 45.99
-34 29 2 -22.58 25.04
-5 34 2 8.17 39.43
-34 29 2 -7.69 36.29
-5 34 2 76.49 41.99
-5 34 3 -2.05 43.99
-5 34 3 70.6 47.58
-34 29 3 50.09 29.61
-6 34 -3 115.94 47.36
-34 28 -3 -9.67 43.42
34 -28 -3 -35.67 30.18
-6 34 -3 48.34 44.33
-34 28 -2 17.51 47.17
34 -28 -2 18.28 23.26
-6 34 -2 4.92 37.24
-34 28 -1 66.35 43.22
-6 34 -1 38.51 35.19
-34 28 0 -10.59 40.77
-6 34 0 56.93 40.62
-34 28 1 20.99 23.31
-34 28 1 87.78 40.69
-6 34 1 -24.26 29.73
-6 34 1 67.34 41.94
-34 28 2 44.51 27.72
-6 34 2 38.76 40.8
-34 28 2 51.83 45.13
-6 34 2 -28.12 36.44
-6 34 3 11.32 35.71
-34 28 3 -11.41 22.61
-7 34 -3 58.41 46.91
-34 27 -3 -38.94 48.38
34 -27 -3 77.81 35.61
-7 34 -3 -18.78 38.21
-7 34 -2 23.83 31.25
-34 27 -2 41.57 49.27
-7 34 -2 38.25 46.09
-7 34 -1 1.97 28.86
-34 27 -1 66.96 46.49
-7 34 -1 5.1 36.3
-7 34 0 -4.05 31.01
-34 27 0 104.85 52.26
-7 34 0 15.7 35.68
-34 27 1 52.37 29
-7 34 1 71.51 39.52
-34 27 1 108.97 51.12
-7 34 1 42.05 34.04
-34 27 2 64.45 28.68
-7 34 2 17.84 39.65
-34 27 2 25.37 34.68
-7 34 2 62.67 32.5
-7 34 3 54.12 40.59
-34 27 3 6.26 22.31
-8 34 -4 -7.4 29
-8 34 -4 5.99 45.64
-8 34 -3 89.42 40.01
-34 26 -3 14.88 43.45
-8 34 -3 -6.12 34.15
-8 34 -2 -5.59 27.85
-34 26 -2 -0.97 36.12
-8 34 -2 35.87 38.53
-8 34 -1 14.63 27.96
-34 26 -1 -7.04 41.78
-8 34 -1 52.67 40.91
-8 34 0 77.06 37.94
-34 26 0 47.62 49.92
-8 34 0 74.76 38.86
-34 26 1 8.79 19.69
-8 34 1 46.83 37.38
-34 26 1 -36.39 35.96
-8 34 1 67.97 35.67
-34 26 2 12.18 23.44
-8 34 2 37.71 39.49
-34 26 2 17.04 34.81
-8 34 2 -58.9 43.33
-8 34 3 -18.27 37.29
-34 26 3 0.78 23.05
-9 34 -4 29.93 30.07
-9 34 -4 12.77 43.01
-9 34 -3 16.31 29.72
-34 25 -3 -12.55 41.95
-9 34 -3 24.5 42.78
-9 34 -2 73.43 36.17
-34 25 -2 12.36 39.32
-9 34 -2 -17.57 32.3
-9 34 -1 -30.12 32.07
-9 34 -1 10.94 35.2
-9 34 0 15.86 29.9
-34 25 0 102.54 45.72
-9 34 0 170.07 56.51
-34 25 1 37.15 26.73
-9 34 1 19.77 30.47
-34 25 1 -13.17 31.97
-9 34 1 94.85 42.97
-34 25 2 -25.93 24.6
-9 34 2 -3.05 20.69
-34 25 2 -13.04 33.61
-9 34 2 3.54 33.72
-34 25 3 2.77 21.51
-9 34 3 23.95 30.09
-9 34 3 -39.2 31.09
-10 34 -4 53.64 54.22
-10 34 -3 27.98 27.6
-34 24 -3 14.67 42.12
-10 34 -3 17.9 40.22
-10 34 -2 22.34 31.95
-34 24 -2 -24.85 35.15
-10 34 -2 -3.81 33.65
-10 34 -1 22.65 28.76
-34 24 -1 26.68 40.46
-10 34 -1 8.83 31.8
-10 34 0 -0.19 28.08
-34 24 0 42.59 40.35
-10 34 0 34.13 39.11
-34 24 1 7.84 20.88
-10 34 1 13.09 31.52
-10 34 1 -7.43 33.79
-34 24 2 16.32 22.56
-10 34 2 38.43 25.77
-34 24 2 0.19 37.36
-10 34 2 65.21 38.1
-34 24 3 10.31 22.65
-10 34 3 -8.99 25.08
-10 34 3 39.03 35.72
-10 34 4 68.95 40.37
-11 34 -4 47.58 48.13
-11 34 -3 24.7 29.31
-34 23 -3 -20.35 45.99
-11 34 -3 37.56 47.22
-11 34 -2 -9.37 32.89
-34 23 -2 -37.81 39.54
-11 34 -2 5.64 31.94
-11 34 -1 29.74 26.15
-34 23 -1 20.62 34.29
-11 34 -1 53.69 42.66
-11 34 0 1.92 27.31
-34 23 0 26.29 33.02
-11 34 0 30.66 34.82
-34 23 1 8.77 21.85
-34 23 1 51.53 41.56
-11 34 1 -7.9 32.95
-34 23 2 -24.45 23.5
-11 34 2 10.17 23.55
-11 34 2 41.54 32.34
-34 23 2 -63.96 42.58
-34 23 3 31.48 25.14
-11 34 3 30.23 34.12
-11 34 3 -3.46 31.79
-11 34 4 27.38 36.83
-34 22 -4 -24.98 55.29
-12 34 -4 -62.63 49.2
22 12 -3 20.73 27.17
-34 22 -3 -16.02 44.48
-12 34 -3 -27.89 40.71
-12 34 -2 31.41 31.38
-34 22 -2 94.02 49.57
-12 34 -2 -31.19 39.71
-12 34 -1 43.25 31.74
-34 22 -1 53.6 51
-12 34 -1 -21.18 31.36
-12 34 0 45.96 34.63
-34 22 0 181.53 56.58
-12 34 0 112.57 48.08
-34 22 1 -8.05 21.14
-34 22 1 -18.09 32.36
-12 34 1 -24.03 40.05
-34 22 2 26.81 21.64
-12 34 2 20.61 24.15
-34 22 2 3.83 34.09
-34 22 3 52.54 29.09
-34 22 3 -31.46 46.05
-12 34 3 41.28 29.66
-12 34 3 49.76 36.01
-12 34 4 18.94 28.77
-13 34 -4 51.03 43.35
-34 21 -4 4.49 39.94
21 13 -3 46.23 30.46
-34 21 -3 6.68 42.7
-13 34 -3 -7.04 33.44
-34 21 -2 27.01 37.12
-13 34 -2 11.66 33.29
-34 21 -1 -22.69 36.23
-13 34 -1 -14.47 30.41
-34 21 0 -17.62 36.51
-13 34 0 -20.9 38.35
-34 21 1 -6.88 22.03
-13 34 1 -6.47 34.74
-34 21 1 -10.19 37.39
-34 21 2 25.62 33.26
-34 21 2 -5.35 22.26
-13 34 2 17.21 25.21
-13 34 2 -40.02 28.51
-34 21 3 5.67 22.04
-34 21 3 19.86 36.39
-13 34 3 40.35 26.49
-13 34 3 15.44 31.77
-13 34 4 47.31 32.67
-14 34 -4 -35.32 43.63
-34 20 -4 3.49 42.98
-14 34 -3 59.1 47.33
-34 20 -3 -23.98 50.27
20 14 -3 27.07 29.72
-34 20 -2 -5.48 38.19
-14 34 -2 20.39 39.19
-34 20 -1 97.91 51.62
-14 34 -1 42.99 34.14
-14 34 0 7.82 31.6
-34 20 0 34.27 42.6
-34 20 1 75.45 30.03
-14 34 1 54.5 38.58
-34 20 1 51.12 30.98
-34 20 2 48.29 29.59
-34 20 2 15.91 32.8
-14 34 2 6.76 20.07
-14 34 2 25.13 38.56
-34 20 3 14.4 24.98
-34 20 3 56.05 44.3
-14 34 3 50.59 31.18
-14 34 3 6.71 28.67
-14 34 4 27.88 29.36
-15 34 -4 -31.83 42.97
-34 19 -4 9.71 39.38
-15 34 -3 19.05 33.15
-34 19 -3 -37.59 46.45
19 15 -3 -22.14 29.99
-34 19 -2 54.72 40.56
19 15 -2 25.81 28.72
-15 34 -2 86.4 48.95
-15 34 -1 26.95 42.18
-34 19 -1 123.32 52.73
-15 34 0 131.68 48.44
-34 19 0 148.08 54.47
-34 19 1 29.35 36.62
-34 19 1 34.12 26.32
-15 34 1 122.54 44.04
-34 19 2 54.33 29.66
-15 34 2 42.94 26.14
-15 34 2 0.99 34.38
-34 19 3 -23.47 26.83
-15 34 3 32.56 29.7
-34 19 3 -23.52 43.6
-15 34 3 31.84 34.67
-15 34 4 38.36 28.19
-16 34 -4 -17.22 41.4
-34 18 -4 120.33 57.46
-16 34 -3 -60.1 42.44
18 16 -3 20.72 24.66
-34 18 -3 -8.56 38.67
-16 34 -2 8.14 38.73
-34 18 -2 -6.76 35.43
18 16 -2 -19.1 35.03
-34 18 -1 -0.81 38.54
-16 34 -1 107 52.65
-34 18 0 49.15 46.88
-16 34 0 78.04 49.21
-34 18 1 -18.92 36.43
-16 34 1 58.42 34.84
-34 18 2 61.63 29.98
-34 18 2 5.81 30.15
-16 34 2 28.14 24.39
-16 34 2 44.44 37.09
-34 18 3 -19.23 24.45
-34 18 3 -28.17 39.35
-16 34 3 17.75 26
-16 34 4 45.68 32.79
-17 34 -4 -12.99 42.2
-34 17 -4 53.78 46.54
-17 34 -3 -24.58 40.96
17 -34 -3 8.85 26.14
17 17 -3 59.07 31.3
-34 17 -3 19.77 41.3
-17 34 -2 79.77 44.83
17 17 -2 64.75 33.48
-34 17 -2 40.02 37.72
17 17 -1 63.18 36.75
-34 17 -1 106.03 51.01
-17 34 -1 105.89 49.02
-34 17 0 -60.32 39.66
-17 34 0 104.43 44.54
-34 17 1 163.11 59.85
-17 34 1 113.69 40.23
-34 17 2 5.6 20.35
-17 34 2 32.19 23.1
-34 17 2 33.64 32.49
-17 34 2 31.7 31.71
-17 34 3 62.15 45.18
-34 17 3 12.83 26.59
-34 17 3 -51.29 40.72
-17 34 3 23.83 25.21
-17 34 4 -7.83 30.08
-18 34 -4 19.08 45.18
-34 16 -4 30.87 49.37
-18 34 -3 22.07 37.48
18 -34 -3 22.29 31.01
16 18 -3 34.12 28.18
-34 16 -3 -16.46 39.76
-18 34 -2 22.03 34.37
16 18 -2 7.32 28.42
-34 16 -2 44.04 47.9
-18 34 -1 -5.18 32.17
16 18 -1 41.28 42.54
-34 16 -1 12.65 36.82
-34 16 0 103.7 51.78
-18 34 0 89.45 42.02
-34 16 1 -43 37.57
-18 34 1 -19.78 28.51
-18 34 2 70.45 37.58
-34 16 2 11.2 22.23
-18 34 2 -29.51 25.83
-34 16 2 -2.14 32.44
-34 16 3 -8.79 21.95
-18 34 3 11.36 30.65
-18 34 3 20.66 27.15
-34 16 3 -46.85 37.45
16 18 4 62.99 57.31
-18 34 4 22.47 28.6
-34 15 -4 41.66 41.19
-19 34 -4 -52.74 45.99
-19 34 -3 45.69 43.72
19 -34 -3 -49.51 27.44
15 19 -3 67.44 34.4
-34 15 -3 62.74 44.38
-19 34 -2 41.12 32.63
19 -34 -2 23.51 26.87
15 19 -2 -35.45 35.92
-34 15 -2 -3.49 39.35
-19 34 -1 55.7 39.78
15 19 -1 53.92 45.2
-34 15 -1 98.87 46.98
-19 34 0 -10.61 31.26
15 19 0 94.05 52.7
-34 15 0 70.8 43.12
-19 34 1 21.96 30.77
-34 15 1 21.58 32.65
-19 34 2 37.86 38.17
-34 15 2 45.89 28.89
-34 15 2 27.52 37.42
-19 34 2 19.15 21.13
-34 15 3 -11.98 26.48
-19 34 3 -8.67 29.04
15 19 3 -63.54 53.51
-34 15 3 42.81 38.91
-19 34 3 8.02 21.94
15 19 4 38 54.78
-19 34 4 13.38 33.29
-20 34 -4 29.6 42.87
-34 14 -4 9.23 47.7
-34 14 -3 -17.45 39.03
20 -34 -3 -15.65 26.66
14 20 -3 66 34.4
-20 34 -2 37.33 39.47
20 -34 -2 -16.23 28.88
14 20 -2 18.9 30.93
-34 14 -2 -15.48 41.79
-20 34 -1 -24.81 37.52
14 20 -1 23.89 36.39
-34 14 -1 -3.93 36.73
-20 34 0 -28.52 33.72
14 20 0 -30.67 44.79
-34 14 0 47.23 38.52
-34 14 1 67.48 47.23
-20 34 1 0.43 31.28
14 20 1 28.4 41.13
-20 34 2 -11.73 34.81
-34 14 2 2.8 20.92
14 20 2 -77.88 63.26
-34 14 2 13.13 30.75
-20 34 2 10.51 18
-34 14 3 -2.78 23.51
-20 34 3 6.09 30.73
14 20 3 -15.08 45.61
-34 14 3 -11.77 30.84
-20 34 3 -26.1 24.05
14 20 4 74.18 53.29
-20 34 4 45.89 32.29
-21 34 -4 0.68 44.87
13 21 -4 92.77 44.22
-34 13 -4 -23.55 49.99
-34 13 -3 27.01 36.71
-21 34 -3 -34.79 37.59
21 -34 -3 -25.66 32.04
13 21 -3 38.59 37.08
-34 13 -2 10.72 38.13
-21 34 -2 -29.51 36.29
21 -34 -2 78.71 42.88
13 21 -2 5.48 29.29
-21 34 -1 17.77 34.3
21 -34 -1 -0.73 27.34
13 21 -1 2.86 37.64
-34 13 -1 104.88 48.47
-34 13 0 16.32 31.56
-21 34 0 19.9 32.7
13 21 0 75.32 53.48
-21 34 1 -46.12 33.39
13 21 1 51.47 45.47
-34 13 1 3.28 30.84
-34 13 2 27.16 30.25
-21 34 2 19.53 36.25
13 21 2 77.01 51.13
-21 34 2 91.4 27.69
-34 13 3 36.15 34.83
-21 34 3 38.96 31.8
13 21 3 23.94 56.45
-21 34 3 -3.92 20.9
13 21 4 96.51 68.24
-21 34 4 -26.36 27.63
-34 12 -4 26.8 45.24
-22 34 -4 8.69 37.17
12 22 -4 -16.61 33.08
22 -34 -3 46.07 39.6
-22 34 -3 -17.84 36.9
12 22 -3 9.01 33.06
-34 12 -3 49.25 36.02
-22 34 -2 6.87 33.63
-34 12 -2 12.07 38.01
22 -34 -2 75.22 40.88
12 22 -2 15.29 29.39
-22 34 -1 14 38.18
-34 12 -1 12.87 34.72
22 -34 -1 27.27 27.88
12 22 -1 27.8 33.07
-22 34 0 16.54 37.38
12 22 0 48.66 53.46
22 -34 0 19.47 21.61
-34 12 0 -1.63 32.74
-22 34 1 39.87 38.3
12 22 1 16.74 43.41
-34 12 1 -35.2 37.52
-22 34 2 3.45 37.62
12 22 2 -21.11 42.21
-22 34 2 18.41 19.32
-34 12 2 6.3 31.96
-34 12 3 1.29 22.4
12 22 3 15.88 50.09
-22 34 3 38.87 37.58
-22 34 3 5.22 21.02
12 22 4 65.97 54.65
-22 34 4 23.02 27.69
-23 34 -4 -31.94 38.99
11 23 -4 -31.24 33.71
-34 11 -4 18.39 41.13
23 -34 -3 -20.96 32.43
-23 34 -3 1.88 35.57
11 23 -3 6.52 25.39
-34 11 -3 36.75 40.57
-23 34 -2 97.43 48.05
23 -34 -2 -23.69 25.95
11 23 -2 30.61 35.14
-34 11 -2 35.97 35.32
-23 34 -1 59.21 45.95
23 -34 -1 -12.2 28.26
11 23 -1 12.04 30.54
-34 11 -1 -60.83 44.49
-23 34 0 99.18 43
23 -34 0 -6.38 21.86
11 23 0 39.96 42.45
-34 11 0 31.79 34.08
-23 34 1 15.31 30.11
11 23 1 48.4 51.15
-34 11 1 18.77 31.21
-34 11 2 -6.8 29.24
-23 34 2 -46.47 38.44
11 23 2 -28.61 46.06
-23 34 2 -2.08 19.06
-34 11 3 21.03 25.97
11 23 3 25.28 57.1
-23 34 3 56.96 37.17
-23 34 3 -5.56 22.57
11 23 4 72.74 55.41
-23 34 4 27.67 29.45
10 24 -4 18.71 27.54
-24 34 -4 15.31 39.11
24 -34 -3 13.92 32.57
-24 34 -3 -40.87 45.84
10 24 -3 20.04 32.65
-34 10 -3 -29.43 40.66
-34 10 -2 108.84 46.7
24 -34 -2 38.2 34.86
-24 34 -2 58.99 43.03
10 24 -2 9.8 29.12
-24 34 -1 -14.53 30.37
24 -34 -1 -7.24 22.88
10 24 -1 51.84 37.91
-34 10 -1 -29.02 34.53
-34 10 0 -39.11 35.83
-24 34 0 27.55 32.88
10 24 0 -43.36 51.98
-34 10 1 45.17 38.8
-24 34 1 17.05 33.96
10 24 1 120.07 51.87
-24 34 2 5.42 31.19
-24 34 2 18.27 20.11
-34 10 3 -5.65 25.11
10 24 3 42.45 56.97
-24 34 3 37.87 37.42
-24 34 3 11.8 22.3
10 24 4 75.04 62.03
-24 34 4 40.41 35.25
9 25 -4 -14.56 33.05
25 -34 -3 20.19 35.91
-34 9 -3 15.36 38.22
9 25 -3 -17.05 30.5
-25 34 -3 105.23 52.59
25 -34 -2 23.17 32.64
-25 34 -2 36.83 44.34
9 25 -2 26.25 38.16
-34 9 -2 -45.13 43.81
25 -34 -1 4.67 21.95
-25 34 -1 91.34 47.59
9 25 -1 39.53 32.41
-34 9 -1 -42.7 42.03
-25 34 0 66.72 47.58
9 25 0 19.31 35.69
-34 9 0 112.44 48.93
9 25 1 83.15 62.2
-25 34 1 51.66 39.63
-34 9 1 15.15 30.76
9 25 2 20.03 46.07
-25 34 2 -10.84 29.32
-25 34 2 19.56 22.03
9 25 3 68.66 41.56
-25 34 3 76.62 43.23
-25 34 3 15.77 23.72
9 25 4 47.47 52.92
8 26 -4 30.35 29.5
-34 8 -3 -20.25 43.15
26 -34 -3 45.96 37.73
8 26 -3 92.29 41.75
-26 34 -3 14.31 46.94
26 -34 -2 51.71 36.27
8 26 -2 49.32 42.77
-26 34 -2 -72.19 36.93
-34 8 -2 37.24 43.1
26 -34 -1 40.23 27.16
8 26 -1 -11.54 34.7
-26 34 -1 -27.1 31.86
-34 8 -1 -28.63 38.3
8 26 0 105.2 49.82
-26 34 0 2.63 34.82
-34 8 0 8.02 31.55
8 26 1 -20.55 38.52
-26 34 1 26.42 32.53
8 26 2 -54.66 54.3
-26 34 2 -7.63 32.14
-26 34 2 39.6 23.9
8 26 3 -9.53 41.89
-26 34 3 18.43 31.66
-26 34 3 -20.35 23.16
8 26 4 40.48 57.89
7 27 -4 23.39 33.57
27 -34 -3 -45.85 38.28
7 27 -3 -12 33
-27 34 -3 -53.92 43.7
27 -34 -2 4.96 25.79
-27 34 -2 27.85 44.55
27 -34 -1 17.11 24.61
7 27 -1 35.13 39.93
-27 34 -1 9.2 40.39
-34 7 -1 -85.78 42.87
7 27 0 36.6 40.87
-27 34 0 12.17 31.3
7 27 1 61.39 45.15
-27 34 1 46.8 40.17
7 27 2 -2.83 42.35
-27 34 2 17.68 39.19
-27 34 2 40.16 25.7
7 27 3 -3.37 46.54
-27 34 3 -12.39 33.23
-27 34 3 -25.38 27.12
7 27 4 1.02 55.18
28 -34 -3 3.42 33.33
6 28 -3 12.46 28.46
-28 34 -3 -39.22 42.51
28 -34 -2 53.66 28.68
6 28 -2 -14.58 34.04
-28 34 -2 52.48 47.92
28 -34 -1 37.87 28.4
6 28 -1 31.86 37.62
-28 34 -1 60 43.11
6 28 0 135.8 49.94
-28 34 0 100.21 48.29
6 28 1 100.52 50.65
-28 34 1 51.33 42.04
6 28 2 -7.75 46.75
-28 34 2 25.34 34.66
-28 34 2 17.74 23.97
-28 34 3 -26.48 33.28
-28 34 3 -25.32 25.1
29 -34 -3 -42.79 41.61
5 29 -3 55.85 41.37
29 -34 -2 15.85 26.38
5 29 -2 53.93 40.13
-29 34 -2 -2.85 37.83
5 29 -1 49.41 39.28
-29 34 -1 69.01 54.46
5 29 0 30.41 36.68
-29 34 0 68.92 39.09
5 29 1 91.3 44.66
-29 34 1 60.45 46.79
5 29 2 -15.71 38.17
-29 34 2 33.97 38.71
-29 34 2 -28.47 23.31
5 29 3 50.66 41.96
-29 34 3 22.95 24.37
30 -34 -3 -16.57 30.71
4 30 -3 -2.86 36.63
30 -34 -2 1.95 28.48
4 30 -2 64.66 37.62
-30 34 -2 1.81 38.12
4 30 -1 -19.69 31.62
-30 34 -1 10.04 33.05
4 30 0 -5.11 34.23
-30 34 0 48.2 41.16
4 30 1 37.17 40.55
-30 34 1 24.21 44.14
4 30 2 8.43 44.28
-30 34 2 10.23 36.87
-30 34 2 -5.3 20.81
4 30 3 81.95 50.91
-30 34 3 -14.83 22.78
31 -34 -3 13.07 30.27
3 31 -3 1.51 37.3
31 -34 -2 11.59 22.18
3 31 -2 -50.75 46.19
-31 34 -2 8.41 36.53
3 31 -1 30.62 41.09
-31 34 -1 51.74 42.33
3 31 0 59.03 43.75
-31 34 0 -23.21 37.22
3 31 1 -18.95 46.22
-31 34 1 -20.54 43.25
3 31 2 78.26 53.69
-31 34 2 24.06 40.6
-31 34 2 9.33 20.9
3 31 3 53.83 45.8
-31 34 3 82.07 35
32 -34 -3 -22.08 31.16
2 32 -2 101.64 40.88
2 32 -1 -2.39 35.15
-32 34 -1 41.54 41.48
2 32 0 -12.16 45.61
-32 34 0 -42.78 41.91
2 32 1 67.61 42.02
-32 34 1 21.44 41.02
2 32 2 -6.98 43.99
-32 34 2 69.57 43.93
-32 34 2 36.91 27.09
-32 34 3 13.05 24.98
33 -34 -3 -8.89 30.92
1 33 -1 9.65 41.88
-33 34 -1 38.33 58.54
1 33 0 -32.14 49.38
-33 34 0 -49.1 49.43
1 33 1 -3.54 34.73
-33 34 1 13.16 44.27
1 33 2 8.21 37.39
-33 34 2 -16.42 45.06
-33 34 2 -13.39 21.66
1 33 3 89.44 72.54
-33 34 3 44.32 29.93
0 34 0 -59.27 36.67
-34 34 0 42.62 47.32
0 34 1 55.5 44.72
-34 34 1 20.4 35.49
-34 34 2 12.01 36.72
-34 34 2 -33.35 24.84
-35 34 0 63.9 48.64
-35 34 1 104.77 56.61
-35 34 2 21.73 24.61
-35 34 2 17.12 42.59
-2 35 0 -36.03 49.27
-35 33 0 -8.85 39.46
-2 35 1 -75.16 44.32
-35 33 1 38.77 42.74
-35 33 2 -0.07 20.61
-35 33 2 -47.6 40.12
-2 35 2 -97.42 61.72
35 -32 -3 55.65 37.18
-35 32 -1 -9.38 38.47
-3 35 -1 79.45 41.2
-3 35 0 64.42 48.05
-35 32 0 15.46 41.06
-35 32 1 72.36 46.83
-3 35 1 -41.95 48.68
-35 32 2 -11.43 22.08
-35 32 2 -0.44 43.24
-3 35 2 22.21 40.76
-3 35 2 -4.97 34.36
-3 35 3 -30.6 51.76
35 -31 -3 5.63 25.96
-4 35 -2 6.28 34.12
-35 31 -1 -8.5 45.13
-4 35 -1 34.73 34.85
-35 31 0 11.85 39.7
-4 35 0 -17.19 37.92
-35 31 1 -0.53 22.15
-35 31 1 -0.22 42.51
-4 35 1 34.95 42.33
-35 31 2 23.67 26.17
-4 35 2 38.8 42.08
-35 31 2 -20.89 40.57
-4 35 2 -9.64 39.22
-4 35 3 66.36 50.56
35 -30 -3 67.39 37.46
-35 30 -2 -27.55 45.6
-5 35 -2 -59.93 42.71
-35 30 -1 9.86 40.46
-5 35 -1 24.18 39.19
-35 30 0 8.98 37.97
-5 35 0 83.57 49.53
-35 30 1 12.85 22.52
-35 30 1 -44.38 36.21
-5 35 1 24.14 45.89
-5 35 1 41.97 40.69
-35 30 2 14.47 21.01
-5 35 2 38.32 40.38
-35 30 2 34.15 50.02
-5 35 2 -2.43 40.87
-5 35 3 -11.37 42.89
-5 35 3 -35.11 42.81
-35 30 3 33.57 25.87
35 -29 -3 -8.49 28.59
-6 35 -2 66.29 41.17
-35 29 -2 9.47 39.51
-6 35 -2 84.95 47.01
-35 29 -1 55.13 49.25
-6 35 -1 23.6 39.75
-35 29 0 -9.23 35.95
-6 35 0 61.88 36.24
-6 35 0 111.56 51.62
-35 29 1 64.44 29.91
-6 35 1 85.2 44.09
-35 29 1 19.31 35.85
-6 35 1 22.84 32.26
-35 29 2 48.36 31.57
-6 35 2 54.86 46.81
-35 29 2 -48.69 38.35
-6 35 2 59.72 37.76
-6 35 3 5.41 35.84
-35 29 3 10.94 28.04
-7 35 -3 38.17 36.28
35 -28 -3 43.88 31.07
-7 35 -3 -19.64 36.44
-7 35 -2 80.96 37.33
-35 28 -2 93.08 54.7
-7 35 -2 31.49 45.23
-7 35 -1 1.67 31.11
-35 28 -1 47.2 44.23
-7 35 -1 15.19 37.13
-7 35 0 40.95 37.1
-35 28 0 -78.66 47.86
-7 35 0 37.4 44.92
-35 28 1 3.61 24.74
-7 35 1 -0.26 40.6
-35 28 1 81.74 44.15
-7 35 1 -11.06 30.86
-35 28 2 3.38 22.72
-7 35 2 59.72 48.33
-35 28 2 11.66 39.14
-7 35 2 -48.97 36
-7 35 3 26.06 32.11
-35 28 3 44.96 29.83
-8 35 -3 24.05 32.74
-8 35 -3 40.43 40.44
-8 35 -2 -87.76 43.03
-35 27 -2 66.45 53.77
-8 35 -2 -6.19 37.59
-8 35 -1 13.37 29.19
-35 27 -1 35.2 49.64
-8 35 -1 62.89 41.25
-8 35 0 56.79 37.86
-35 27 0 -24.04 43.85
-8 35 0 -34.6 40.44
-35 27 1 42.17 30.24
-8 35 1 37.32 35.01
-35 27 1 45.14 40.31
-8 35 1 65.65 42.42
-35 27 2 13.84 29.2
-8 35 2 57.35 44.66
-35 27 2 -13.3 33.91
-8 35 2 53.74 38.02
-35 27 3 16.09 21.64
-8 35 3 63.25 35.9
-8 35 3 -5.73 33.94
-9 35 -3 2.58 28.59
-35 26 -3 57.86 48.88
-9 35 -3 0.04 40.43
-9 35 -2 -1.21 30.34
-35 26 -2 36.02 40.95
-9 35 -2 -19.15 38.84
-9 35 -1 20.11 30.03
-35 26 -1 23.05 48.8
-9 35 -1 -6.4 36.36
-9 35 0 62.61 36.43
-35 26 0 113.61 51.4
-9 35 0 31.42 38.38
-35 26 1 39.65 26.57
-9 35 1 49.23 39.38
-35 26 1 -19 39.39
-9 35 1 40.19 40.77
-35 26 2 47.57 30.66
-9 35 2 43.52 27.37
-35 26 2 57.76 44.69
-9 35 2 113.58 48.08
-35 26 3 -12.23 22.01
-9 35 3 -7.72 25.38
-9 35 3 -39.39 39.15
-10 35 -3 -20.33 32.7
-35 25 -3 -8.78 45.6
-10 35 -3 21.09 42.51
-10 35 -2 -15.67 32.85
-35 25 -2 -6.71 37.5
-10 35 -2 -9.35 33.04
-10 35 -1 9.39 31.34
-35 25 -1 8.3 36.21
-10 35 0 32.97 35.1
-35 25 0 -35.78 42.44
-10 35 0 -16.64 32.09
-35 25 1 37.18 27.09
-10 35 1 95.63 43.12
-35 25 1 49.58 43.01
-10 35 1 42.94 36.41
-35 25 2 59.03 29.37
-10 35 2 -1.69 23.59
-35 25 2 3.22 41.92
-10 35 2 6.17 33.31
-35 25 3 -37.27 29.26
-10 35 3 6.25 29.84
-10 35 3 41.24 38.98
-11 35 -3 -57.97 39.19
-35 24 -3 39.19 40.93
-11 35 -3 91.52 47.96
-11 35 -2 28.51 32.84
-35 24 -2 104.18 51.21
-11 35 -2 36.01 44.61
-11 35 -1 72.4 40.93
-35 24 -1 16.55 41.02
-11 35 -1 120.07 55.15
-11 35 0 175.68 48.72
-35 24 0 83.8 37
-11 35 0 46.1 42.74
-35 24 1 19.1 26.93
-35 24 1 41.07 38.77
-11 35 1 59 43.65
-35 24 2 56.1 27.05
-11 35 2 35.3 24.83
-11 35 2 28.13 35.31
-35 24 2 16.07 45.38
-35 24 3 -29.99 28.02
-11 35 3 -4.24 27.67
-11 35 3 -28.92 41.71
-12 35 -4 5.01 44.3
23 12 -3 12.46 24.53
-35 23 -3 -9.85 42.56
-12 35 -3 -28.35 44.02
-12 35 -2 12.27 32.18
-35 23 -2 -10.62 37.78
-12 35 -2 15.16 36.2
-12 35 -1 144.12 42.74
-35 23 -1 23.52 37.85
-12 35 -1 137.31 53.86
-12 35 0 -34.67 32.13
-35 23 0 -10.25 40.88
-12 35 0 31.28 36.09
-35 23 1 27.71 23.93
-35 23 1 67.78 45.71
-12 35 1 86.54 45.26
-35 23 2 -9.19 19.68
-12 35 2 18.18 22.74
-12 35 2 -5.51 29.36
-35 23 2 31.45 35.66
-35 23 3 25.09 28.48
-12 35 3 -2.79 25.11
-12 35 3 -46.59 37.51
-13 35 -4 39.16 44.91
22 13 -3 59.74 34.01
-35 22 -3 17.49 41.32
-13 35 -3 67.46 45.22
-35 22 -2 41.83 47.44
-13 35 -2 18.74 33.02
-35 22 -1 12.73 34.17
-13 35 -1 -18.7 37.3
-35 22 0 107.3 52
-13 35 0 -9.88 40.2
-35 22 1 0.45 23.44
-13 35 1 -13.52 31.37
-35 22 1 -90.59 47.3
-35 22 2 76.96 42.48
-35 22 2 19.48 22.57
-13 35 2 21.79 20.98
-13 35 2 13.18 37.76
-35 22 3 75.39 35.06
-13 35 3 74.33 33.25
-13 35 3 32.04 34.09
-13 35 4 -13.48 27.2
-14 35 -4 41.21 48
-35 21 -3 -5.94 40.62
-14 35 -3 39.71 44.85
21 14 -3 14.78 31.21
-35 21 -2 37.05 47.01
-14 35 -2 50.72 44.98
-35 21 -1 19.26 36.73
-14 35 -1 -51.18 47.17
-14 35 0 39.52 36.71
-35 21 0 71.36 50.25
-35 21 1 4.31 20.01
-14 35 1 -53.52 42.73
-35 21 1 1.38 36.83
-35 21 2 -14.64 21.35
-35 21 2 -31.7 35.47
-14 35 2 23.93 27.08
-14 35 2 -24.2 34.59
-35 21 3 5.89 21.34
-14 35 3 2.66 23.12
-14 35 3 4.22 29.49
-14 35 4 42.49 29.36
-15 35 -4 44.79 45.47
-15 35 -3 38.8 43.56
-35 20 -3 -39.87 43.14
20 15 -3 69.87 31.72
-35 20 -2 -26.46 44.7
20 15 -2 27.43 37.49
-15 35 -2 11.85 40.7
-15 35 -1 34.79 43.3
-35 20 -1 -59.63 41.89
-15 35 0 -24.01 37.73
-35 20 0 29.81 38.94
-35 20 1 24.07 36.68
-15 35 1 12.17 33.27
-35 20 2 18.16 24.39
-35 20 2 43.72 35.29
-15 35 2 48.88 27.07
-15 35 2 -18.7 32.61
-35 20 3 48.95 29.21
-15 35 3 23.3 24.84
-15 35 3 56.5 39.63
-15 35 4 -25.6 32.86
-16 35 -4 74.93 53.08
-16 35 -3 50.2 41.77
-35 19 -3 45.78 45.66
19 16 -3 11.58 28.16
-16 35 -2 62.7 46.97
-35 19 -2 31.41 44.7
19 16 -2 46.86 38.1
-35 19 -1 74.08 49.6
-16 35 -1 42.04 44.57
-35 19 0 52.78 44.41
-16 35 0 -37.29 35.9
-35 19 1 48.9 39.36
-16 35 1 81.59 47.16
-35 19 2 13.22 22.92
-35 19 2 23.47 36.81
-16 35 2 14.91 22.55
-16 35 2 47.2 40.76
-35 19 3 9.02 21.57
-16 35 3 35.54 28.06
-16 35 3 19.25 35.61
-16 35 4 -49.91 35.56
-17 35 -4 -6.1 40.07
-17 35 -3 -55.06 44.13
17 -35 -3 -36.59 26.77
18 17 -3 -12.59 27.12
-35 18 -3 38.93 51.52
-17 35 -2 3.08 33.56
18 17 -2 -9.31 31.83
-35 18 -2 -28.94 39.11
18 17 -1 20.37 35.22
-35 18 -1 90.39 43.05
-17 35 -1 57.79 44.73
-35 18 0 90.01 50.24
-17 35 0 168.62 58.14
-35 18 1 84.86 46.06
-17 35 1 69.65 47.08
-35 18 2 -3.48 21.16
-17 35 2 53.35 26.1
-35 18 2 15.63 35.27
-17 35 2 49.14 48.08
-17 35 3 4.56 28.85
-35 18 3 -11.97 22.62
-17 35 3 23.32 29.13
-17 35 4 31.18 29.41
-18 35 -4 -12.05 45.64
18 -35 -3 -40.12 36.38
17 18 -3 -10.86 26
-35 17 -3 -66.27 45.99
-18 35 -2 21.65 42.29
17 18 -2 2.69 28.72
-35 17 -2 54.5 35.71
-18 35 -1 91.51 51.31
17 18 -1 -26.63 40.9
-35 17 -1 52.56 40.56
-35 17 0 55.47 45.09
-18 35 0 13.7 35.05
-35 17 1 87.38 50.49
-18 35 1 67.75 44.9
-18 35 2 29.28 37.31
-35 17 2 50.69 33.27
-18 35 2 -5.19 19.8
-35 17 2 61.01 41.5
-18 35 3 28.38 32.87
-35 17 3 64.22 32.35
-18 35 3 -25.41 26.33
17 18 4 8.82 50.62
-18 35 4 54.19 32.14
-19 35 -4 -67.43 53.01
-19 35 -3 51.96 44.33
19 -35 -3 32.13 28.01
16 19 -3 79.6 39.53
-35 16 -3 15.44 40.23
-19 35 -2 -29.09 37.51
16 19 -2 -14.04 29.27
-35 16 -2 55.25 40.67
-19 35 -1 18.04 33.58
16 19 -1 -0.89 33.13
-35 16 -1 45.24 38.62
-19 35 0 -61.59 37.1
16 19 0 52.5 42.63
-35 16 0 90.46 52.44
-19 35 1 42.56 45.45
-35 16 1 -18.62 35.16
-19 35 2 59.58 41.35
-35 16 2 -2.51 23.07
-35 16 2 57.62 36.02
-19 35 2 31.75 22.74
-35 16 3 45.33 27.98
-19 35 3 -25.03 31.87
16 19 3 -72.59 58.42
-19 35 3 50.89 30.81
16 19 4 30.32 56.63
-19 35 4 -11.68 29.52
-20 35 -4 42.51 44.3
-20 35 -3 -17.85 33.77
20 -35 -3 8.49 32.35
15 20 -3 32.54 29.15
-35 15 -3 -37.43 46.31
-20 35 -2 55.24 35.33
20 -35 -2 61.82 39.21
15 20 -2 83.59 48.6
-35 15 -2 81.46 50.46
-20 35 -1 60.39 41.66
15 20 -1 18.51 34.45
-35 15 -1 8.67 34.86
-20 35 0 50.48 41.09
15 20 0 77.38 58.29
-35 15 0 52.3 40.23
-20 35 1 82.32 43.38
15 20 1 -25.74 41.2
-35 15 1 -27.78 35.67
-20 35 2 138.09 48.67
-35 15 2 44.98 31.61
15 20 2 102.61 69.3
-35 15 2 84.23 43.02
-20 35 2 54.93 24.82
-35 15 3 4.9 25.65
-20 35 3 11.43 33.45
-20 35 3 8.1 21.13
15 20 4 52.08 57.79
-20 35 4 20.85 29.02
-35 14 -3 6.4 39.48
21 -35 -3 -32.87 32.73
14 21 -3 -37.74 31.94
-21 35 -2 62.44 41.38
21 -35 -2 26.04 35.81
14 21 -2 14.07 34.45
-35 14 -2 59.75 47.95
-21 35 -1 -27.67 35.3
21 -35 -1 9.12 26.4
14 21 -1 -3.71 33.94
-35 14 -1 68.29 51.96
-21 35 0 121.75 48.83
14 21 0 102.6 51.2
-35 14 0 134.23 50.41
-21 35 1 -2.32 32.29
14 21 1 23.11 45.29
-35 14 1 -77.02 47.37
-21 35 2 -16.79 32.47
14 21 2 -65.14 58.7
-21 35 2 20.25 21.24
-35 14 2 -29.55 36.43
-35 14 3 -36.02 28.09
-21 35 3 36.76 36.76
-21 35 3 11.84 24.95
14 21 4 -19.63 59.33
-21 35 4 -20.66 28.11
22 -35 -3 6.64 29.12
-22 35 -3 55.62 47.54
13 22 -3 5.84 26.97
-35 13 -3 50.69 44.77
-35 13 -2 -1.3 36.81
-22 35 -2 -17.43 42.51
22 -35 -2 23.52 32.52
13 22 -2 3.47 28.39
-35 13 -1 55.67 43.23
-22 35 -1 49.73 36.24
22 -35 -1 70.72 38.78
13 22 -1 150.52 54.87
-22 35 0 137.41 51.32
22 -35 0 153.31 41.21
13 22 0 116.14 57.9
-35 13 0 134.86 46.1
-22 35 1 91.86 46.98
13 22 1 131.48 64.88
-35 13 1 80.05 41.65
-22 35 2 -3.1 37.01
13 22 2 20.11 58.26
-35 13 2 13.06 31.13
-22 35 2 33.19 22.3
-35 13 3 22.45 27.27
13 22 3 60.74 61.46
-22 35 3 55.16 37.43
-22 35 3 -2.4 21.29
13 22 4 -94.72 67.67
-22 35 4 -13.7 24.53
23 -35 -3 131.4 57.41
-23 35 -3 -23.37 41.43
12 23 -3 28.62 33.15
-35 12 -3 89.81 46.92
-23 35 -2 59.9 48.09
23 -35 -2 12.13 28.56
12 23 -2 -3.78 31.68
-35 12 -2 35.8 45.37
-23 35 -1 64.49 39.64
23 -35 -1 42.17 31.19
12 23 -1 39.12 37.06
-35 12 -1 -30.57 39.96
-23 35 0 167.98 58.11
12 23 0 200.55 61.63
-35 12 0 80.87 34.18
-35 12 1 66.04 43.93
-23 35 1 69.06 35.39
12 23 1 53.44 51.29
-23 35 2 -18.58 29.68
12 23 2 88.65 58.81
-35 12 2 -0.57 31.12
-23 35 2 39.41 25.05
-35 12 3 -36.7 28.38
12 23 3 -41.17 64.81
-23 35 3 44.95 34.77
-23 35 3 64.93 31.17
12 23 4 -38.16 60.07
11 24 -4 14.11 28.55
24 -35 -3 43.63 36.1
-35 11 -3 0.57 40
-24 35 -3 21.56 35.76
11 24 -3 15.44 33.1
24 -35 -2 -17.03 29.95
-24 35 -2 62.33 45.61
11 24 -2 -62.16 41.54
-35 11 -2 55.41 47.77
-24 35 -1 34.08 43.77
24 -35 -1 25.62 31.45
11 24 -1 -9.27 36.52
-35 11 -1 -40.29 39.06
-35 11 0 9.44 42.7
-24 35 0 -27.86 36.06
11 24 0 82.61 47.21
-24 35 1 44.52 35.87
11 24 1 -47.43 40.83
-35 11 1 20.36 41.01
11 24 2 51.98 51.38
-24 35 2 21.43 41.56
-24 35 2 22.14 20.14
-35 11 3 33.45 27.66
11 24 3 -7.85 47.85
-24 35 3 -5.21 37.4
-24 35 3 38.53 29.12
11 24 4 64.5 49.92
-35 10 -3 35.89 47.42
25 -35 -3 37.25 36.78
-25 35 -3 -28.64 39.68
10 25 -3 -42.05 30.54
25 -35 -2 31.58 28.02
-25 35 -2 -105.42 52.73
10 25 -2 -14.17 28.02
-35 10 -2 -14.63 44.32
-25 35 -1 31.12 39.52
25 -35 -1 67.65 34.27
10 25 -1 13 36.33
-35 10 -1 -0.12 39.69
-25 35 0 8.84 33.05
10 25 0 -35.54 39.44
-35 10 0 68.29 39.23
-25 35 1 54.03 38.17
10 25 1 -2.27 49.38
-35 10 1 30.37 32.96
10 25 2 48.19 45.02
-25 35 2 33.13 43.72
-25 35 2 21.7 23.37
10 25 3 26.14 50.71
-25 35 3 91.76 47.37
-25 35 3 18.23 25.06
10 25 4 31.14 55.67
26 -35 -3 125.96 48.05
9 26 -3 90.87 38.13
-26 35 -3 78.83 51.95
-35 9 -3 -16.68 37
-35 9 -2 32.06 44.38
26 -35 -2 28.02 31.15
9 26 -2 13.66 32.37
-26 35 -2 69.01 44.51
-35 9 -1 2.29 35.02
26 -35 -1 58.67 30.02
-26 35 -1 93.18 50.1
9 26 -1 102.54 46.39
-26 35 0 57.45 44.37
9 26 0 -11 38.98
-35 9 0 -24.01 31.12
9 26 1 211.06 71.21
-26 35 1 57.9 46.11
9 26 2 21.57 41.93
-26 35 2 61.47 42.94
-26 35 2 16.46 19.46
9 26 3 -46.46 57.04
-26 35 3 46.7 42.37
-26 35 3 52.85 28.23
27 -35 -3 -50.21 36.96
8 27 -3 50.51 34.7
-27 35 -3 21.81 39.18
27 -35 -2 50.34 32.25
8 27 -2 24.14 30.49
-27 35 -2 -18.63 38.09
-35 8 -2 5.74 38.13
-35 8 -1 53.88 38.25
27 -35 -1 50.25 30.8
8 27 -1 -27.73 35.84
-27 35 -1 53.39 43.42
8 27 0 20.91 37.65
-27 35 0 -44.28 37.87
8 27 1 132.45 56.73
-27 35 1 68.63 44.5
8 27 2 0.05 49.91
-27 35 2 62.26 40.66
-27 35 2 23.79 22
8 27 3 0.82 49.18
-27 35 3 -1.49 33.27
-27 35 3 33.35 27.88
28 -35 -3 -28.92 33.67
7 28 -3 -7.95 28.03
28 -35 -2 4.6 26.59
7 28 -2 11.52 31.49
-28 35 -2 -68.82 43.52
7 28 -1 119.34 47.71
-28 35 -1 49.44 38.08
7 28 0 32.41 44.86
-28 35 0 1.12 34.52
7 28 1 132.98 62.86
-28 35 1 45.2 38.25
7 28 2 38.17 53.64
-28 35 2 1.9 33.58
-28 35 2 63.59 26.92
7 28 3 69.98 54.96
-28 35 3 37.06 28.27
29 -35 -3 82.94 44.76
6 29 -3 16.94 35.92
29 -35 -2 52 34.6
6 29 -2 49.38 38.65
-29 35 -2 46.24 48.76
6 29 -1 12.05 39.26
-29 35 -1 65.05 46.52
6 29 0 76.86 50.14
-29 35 0 63.37 46.62
6 29 1 84.36 52.91
-29 35 1 -40.07 41.73
6 29 2 -13.3 50.78
-29 35 2 -3.96 36.69
-29 35 2 -5.23 20.8
6 29 3 23.2 45.43
-29 35 3 -2.21 22.86
30 -35 -3 -0.23 33.26
5 30 -3 21.32 35.67
30 -35 -2 5.44 25.4
5 30 -2 24.87 39.3
-30 35 -2 -73.19 47.65
5 30 -1 -18.78 33.01
-30 35 -1 44.98 41.65
5 30 0 28.26 41.59
-30 35 0 1.34 34.79
5 30 1 -20.24 37.85
-30 35 1 61.26 44.61
5 30 2 -37.25 54.53
-30 35 2 6.74 44.6
-30 35 2 -5.64 25.56
-30 35 3 46.16 27.68
31 -35 -3 13.06 32.08
31 -35 -2 76.69 35.61
4 31 -2 20.31 34.53
4 31 -1 16.42 40.57
-31 35 -1 -59.77 45.76
4 31 0 1.66 39.22
-31 35 0 85.95 46.7
4 31 1 -34.53 46.01
-31 35 1 21.09 35.86
4 31 2 81.17 48.09
-31 35 2 -11.64 39.14
-31 35 3 5.12 21.46
32 -35 -3 85.43 43.49
3 32 -1 20.32 37.87
-32 35 -1 57.39 42.42
3 32 0 138.47 57.4
-32 35 0 183.93 62.48
3 32 1 -35.32 48.12
-32 35 1 8.72 42.97
-32 35 2 15.28 40.33
-32 35 3 49.09 27.86
2 33 0 67.3 51.09
-33 35 0 -36.54 44.53
2 33 1 64.54 50.75
-33 35 1 55.76 44.23
-33 35 2 35.53 40.01
-34 35 0 187.24 70.28
-34 35 1 31.82 44.98
-34 35 2 22.87 42.65
-35 35 2 61.54 50.27
-36 34 2 -15.84 46.49
-36 33 0 -37.24 47.27
-36 33 1 -5.42 37.28
-36 33 2 4.02 22.08
-36 33 2 72.74 49.3
-36 32 0 94.86 58.98
-4 36 0 52.78 44.62
-36 32 1 15.02 40.79
-4 36 1 -7.91 36.69
-36 32 2 13.2 25.52
-4 36 2 65.46 53.67
-36 32 2 24.65 35.42
-36 31 -1 -14.35 36.69
-5 36 -1 13.97 33.44
-36 31 0 -6.28 38.18
-5 36 0 46.07 32.63
-36 31 1 2 22.47
-36 31 1 60.4 51.92
-5 36 1 3.96 36.26
-5 36 1 77.95 44.77
-36 31 2 18.37 26.72
-5 36 2 65.85 54.01
-36 31 2 31.6 39.57
-5 36 2 11.78 37.23
36 -30 -3 -16.14 33.99
-36 30 -1 52.57 46.14
-6 36 -1 -27.19 37.56
-6 36 -1 -21.44 45.74
-36 30 0 -77.15 45.81
-6 36 0 7.04 34.71
-6 36 0 4.79 36.6
-36 30 1 11.85 24.17
-6 36 1 26.99 36.96
-36 30 1 -11.99 43.4
-6 36 1 -28.3 41.86
-36 30 2 35.35 28.46
-6 36 2 23.14 43.6
-36 30 2 105.54 55.79
-6 36 2 106.64 48.12
-7 36 -2 -40.65 38.97
-7 36 -2 24.13 35.13
-7 36 -1 19.45 34.72
-36 29 -1 65.67 46.3
-7 36 -1 56.29 45.17
-7 36 0 84.3 45.14
-36 29 0 63.25 50.76
-7 36 0 -76.59 46.51
-36 29 1 43.7 30.25
-7 36 1 36.2 36.94
-36 29 1 -69.72 48.61
-7 36 1 -47.37 48.94
-36 29 2 12.58 22.76
-7 36 2 -86.34 50.55
-36 29 2 36.03 42.41
-7 36 2 -34.93 40.67
-7 36 3 72.3 52.4
-8 36 -2 34.28 35.99
-36 28 -2 19.88 55.06
-8 36 -2 54.95 46.95
-8 36 -1 6.98 33.16
-36 28 -1 1.2 38.85
-8 36 -1 -34.2 37.01
-8 36 0 -41.68 34.57
-36 28 0 -41.53 48.66
-8 36 0 24.94 38.25
-36 28 1 42.01 30.05
-8 36 1 136.4 52.9
-36 28 1 16.38 41.54
-8 36 1 20.85 43.99
-36 28 2 57.38 26.42
-8 36 2 135.22 57.64
-36 28 2 24.97 44.84
-8 36 2 78.24 45.46
-8 36 3 57.48 36.83
-8 36 3 -69.27 44.44
-9 36 -2 18.55 31.38
-36 27 -2 52.69 54.39
-9 36 -2 1.78 39.88
-9 36 -1 33.58 32.18
-36 27 -1 1.1 40.31
-9 36 -1 73.5 51.29
-9 36 0 30.01 33.59
-36 27 0 43.54 41.85
-9 36 0 84.08 41.81
-36 27 1 53.09 31.32
-9 36 1 33.05 34.11
-36 27 1 75.92 45.61
-9 36 1 -26.33 35.82
-36 27 2 -8.82 22.23
-36 27 2 -8.51 33.57
-9 36 2 -5.32 39.72
-9 36 3 20.5 33.98
-9 36 3 59.15 41.8
-10 36 -3 -41.4 49.21
-10 36 -2 19.34 29.67
-36 26 -2 -4.33 40.76
-10 36 -2 66.79 47.85
-10 36 -1 -46.01 33.2
-36 26 -1 67.75 50.11
-10 36 -1 9.98 35.61
-10 36 0 78.44 37.98
-36 26 0 30.59 41.91
-10 36 0 99.43 46.33
-36 26 1 45.05 32.02
-10 36 1 -71.35 39.52
-36 26 1 -24.53 38.17
-10 36 1 18.37 40.53
-36 26 2 -11.55 24.35
-36 26 2 -55.58 46.15
-10 36 2 -8.33 35.57
-36 26 3 13.92 23.57
-10 36 3 11.57 27.47
-10 36 3 6.51 35.37
-11 36 -3 0.04 28.33
-11 36 -3 54.72 40.47
-11 36 -2 9.1 32.3
-36 25 -2 -31.85 43.63
-11 36 -2 13.03 33.78
-11 36 -1 26.14 31.67
-36 25 -1 -6.03 40.8
-11 36 -1 -0.58 40.41
-11 36 0 83.45 44.8
-36 25 0 4.8 37.63
-11 36 0 -13.43 36.72
-36 25 1 10.38 24.87
-36 25 1 70.27 48.07
-11 36 1 33.88 38.73
-36 25 2 -5.03 20.69
-11 36 2 68.88 35.62
-36 25 2 -16.51 43.96
-36 25 3 29.45 27.79
-11 36 3 -16.09 28.15
-11 36 3 6.49 36.62
24 12 -3 33.25 32.66
-12 36 -3 16.46 40.06
-12 36 -2 -27.58 33.69
-36 24 -2 76.29 52.18
-12 36 -2 -12.13 35.52
-12 36 -1 37.63 31.67
-36 24 -1 -1.76 39.61
-12 36 -1 -9.95 37.62
-36 24 0 70.32 41.77
-12 36 0 50.04 44.68
-36 24 1 52.48 32.99
-36 24 1 58 41.99
-12 36 1 28.09 40.68
-36 24 2 91.58 35.72
-12 36 2 8.5 32.82
-36 24 2 7.61 35.54
-36 24 3 0.49 23.8
-12 36 3 12.77 30.11
-12 36 3 46.11 43.06
23 13 -3 -13.97 25.7
-36 23 -3 19.55 44.85
-13 36 -3 18.63 40.99
-36 23 -2 48.73 43.11
-13 36 -2 41.68 41
-36 23 -1 21.21 40.26
-13 36 -1 54.06 46.51
-36 23 0 -68.53 46.74
-13 36 0 100.41 50.7
-36 23 1 29.64 28.34
-13 36 1 -27.49 37.44
-36 23 1 46.81 41.08
-36 23 2 71.92 46.56
-36 23 2 -12.45 22.49
-13 36 2 25.72 36.3
-36 23 3 40.69 33.19
-13 36 3 -5.72 25.43
-13 36 3 -6.39 36.63
-14 36 -3 -8.52 38.96
-36 22 -3 2.99 42.1
22 14 -3 14.68 27.75
-36 22 -2 -25.34 44.63
-14 36 -2 -24.43 38.79
-36 22 -1 52.12 42.59
-14 36 -1 35.28 39.87
-14 36 0 113.46 46.51
-36 22 0 158.43 57.63
-14 36 1 55.06 40.52
-36 22 1 41.79 41.27
-36 22 2 12.74 24.12
-36 22 2 57.85 42.51
-14 36 2 76 38.73
-36 22 3 12.3 28.42
-14 36 3 41.69 30.21
-14 36 3 60.65 41.95
-15 36 -3 39.53 40.75
-36 21 -3 -9.97 39.09
21 15 -3 38.05 32.63
-36 21 -2 -1.79 40.99
21 15 -2 -57.29 42.88
-15 36 -2 18.65 35.36
-15 36 -1 79.82 46.19
-36 21 -1 100.9 54.74
-15 36 0 -49.27 42.74
-36 21 0 61.34 43.63
-36 21 1 9.88 41.31
-15 36 1 3.4 32.88
-36 21 2 132.31 38.09
-36 21 2 43.69 39.3
-15 36 2 34.08 32.78
-36 21 3 13.88 25.96
-15 36 3 45.68 30.09
-15 36 3 76.97 43.66
-16 36 -3 -12.34 39.88
-36 20 -3 58.75 52.28
20 16 -3 -14.98 32.23
-16 36 -2 -17.74 41.28
-36 20 -2 111.76 61.23
20 16 -2 34.26 36.71
-36 20 -1 18.57 36.25
-16 36 -1 78.33 46.13
-36 20 0 61.62 44.06
-16 36 0 83.26 44.96
-36 20 1 96.58 54.7
-16 36 1 6.54 33.38
-36 20 2 -2.62 20.93
-36 20 2 60.78 43.8
-16 36 2 20.54 37.81
-36 20 3 13.38 23.74
-16 36 3 -10.9 28.1
-16 36 3 -18.02 34.66
-17 36 -3 89.1 50.67
17 -36 -3 33.3 37.39
19 17 -3 2.42 25.57
-36 19 -3 -47.81 49.19
-17 36 -2 -14.82 39.7
19 17 -2 32.58 37.1
-36 19 -2 7.17 40.32
-36 19 -1 56.89 45.49
-17 36 -1 114.69 50.87
-36 19 0 36.33 35.57
-17 36 0 21.86 39.01
-36 19 1 83.38 44.01
-17 36 1 -0.66 32.17
-36 19 2 42.05 28.66
-36 19 2 59.71 46.52
-17 36 2 56.72 47.04
-17 36 3 20.49 37.95
-36 19 3 97.56 39.3
-17 36 3 33.77 27.39
-18 36 -3 -32.86 43.85
18 -36 -3 -34.84 33.56
18 18 -3 19.91 28.53
-36 18 -3 7.56 42.22
-18 36 -2 71.91 44.39
18 18 -2 43.8 34.01
-36 18 -2 -8.09 46.78
-18 36 -1 24.77 34.89
18 18 -1 106.94 47.69
-36 18 -1 76.33 45.21
-36 18 0 -18.19 34.79
-18 36 0 -5.41 34.46
-36 18 1 11.65 34.23
-18 36 1 0.58 33.19
-18 36 2 32.9 45.54
-36 18 2 103.58 38.56
-36 18 2 24.65 33.48
-18 36 3 9.82 32.48
-36 18 3 -11.39 22.03
-18 36 3 -41.59 34.53
-19 36 -3 31.18 36.06
19 -36 -3 97.9 50.22
17 19 -3 40.49 29.23
-36 17 -3 75.16 57.21
-19 36 -2 57.78 38.87
17 19 -2 -5.31 34.89
-36 17 -2 -25.68 41.22
-19 36 -1 -24.26 35.52
17 19 -1 146.03 58.45
-36 17 -1 90.55 48.25
-19 36 0 -22.13 32.73
17 19 0 21.52 44.1
-36 17 0 -58.33 47.82
-19 36 1 14.63 38.22
-36 17 1 104.52 49.2
-19 36 2 43.35 46.92
-36 17 2 -21.19 26.54
-36 17 2 17.55 35.92
-36 17 3 25.8 26.3
-19 36 3 9.43 34
17 19 3 46.13 59.8
-19 36 3 -15.64 29.23
-20 36 -3 150.1 57.26
20 -36 -3 34.36 31.61
16 20 -3 44.45 31.86
-36 16 -3 49.55 52.21
-20 36 -2 20.17 34.83
20 -36 -2 -7.33 29.38
16 20 -2 -13.42 31.2
-36 16 -2 3.42 41.78
-20 36 -1 33.25 35.86
16 20 -1 125.76 54.26
-36 16 -1 115.85 54.02
-20 36 0 118.54 52.51
16 20 0 115.63 56.85
-36 16 0 52.37 39.17
-20 36 1 43.38 36.72
16 20 1 136.15 66.39
-36 16 1 105.69 47.4
-20 36 2 27.85 42.36
-36 16 2 -14.88 24.88
16 20 2 0.49 56.6
-36 16 2 -24.69 34.89
-36 16 3 45.07 31.41
-20 36 3 -37.55 37.12
-20 36 3 48.19 29.15
-36 15 -3 -69.26 46.27
-21 36 -3 45.34 52.82
21 -36 -3 -36.15 39.07
15 21 -3 0.96 30.06
-21 36 -2 18.31 41.97
21 -36 -2 21.15 35.9
15 21 -2 -21.37 37.55
-36 15 -2 -65.75 47.5
-21 36 -1 33.95 40.59
15 21 -1 39.03 33.6
-36 15 -1 68.25 47.75
-21 36 0 -35.76 43.52
15 21 0 22.7 44.22
-36 15 0 -55.74 48.92
-21 36 1 7.7 32.86
15 21 1 101.46 62.32
-36 15 1 102.81 46.14
-21 36 2 32.66 31.23
15 21 2 42.16 56.2
-36 15 2 37.69 41.41
-21 36 3 16.63 40.43
15 21 3 23.24 64.1
-21 36 3 7.27 22.52
-22 36 -3 -51.48 38.68
22 -36 -3 4.58 32.28
14 22 -3 16.47 32.83
-36 14 -3 29.14 50.56
-36 14 -2 68.95 45.83
-22 36 -2 4.58 41.8
22 -36 -2 57.18 48.35
14 22 -2 2.78 32.93
-36 14 -1 51.47 43.46
-22 36 -1 8.62 31.32
22 -36 -1 66.53 36.53
14 22 -1 6.59 34.85
-22 36 0 100.36 49.1
-36 14 0 89.7 46.35
14 22 0 180.06 69.22
-22 36 1 -8.11 30.2
14 22 1 75.61 52.6
-36 14 1 -7.31 36.75
-22 36 2 -7.97 40.99
14 22 2 -23.65 48.14
-36 14 2 56.95 45.3
-22 36 3 10.83 42.26
14 22 3 -72.61 67.65
-22 36 3 20.67 26.94
23 -36 -3 12.62 30.31
-23 36 -3 -52.18 46.25
13 23 -3 9.78 25.38
-36 13 -3 78.67 53.41
-23 36 -2 71.69 48.94
23 -36 -2 35.19 38.58
13 23 -2 4.34 28.47
-36 13 -2 70.3 47.55
-23 36 -1 -28.38 43.26
23 -36 -1 -21.55 29.32
13 23 -1 35.31 42.86
-36 13 -1 -50.71 44.3
-23 36 0 -22.1 40.65
13 23 0 -20.86 43.65
-36 13 0 1.1 32.79
-23 36 1 24.48 35.88
13 23 1 109.7 56.4
-23 36 2 -32.15 35.05
13 23 2 73.44 59.17
-36 13 2 -5.51 32.83
-23 36 3 72.64 42.29
-23 36 3 14.69 25.13
24 -36 -3 101.71 52.06
-24 36 -3 77.25 54.78
12 24 -3 41.99 34.16
24 -36 -2 46.13 29.29
12 24 -2 51.9 38.62
-36 12 -2 84.72 46.2
-24 36 -1 62.88 43.99
24 -36 -1 95.98 35.85
12 24 -1 75.4 46.55
-36 12 -1 16.64 41.55
-24 36 0 19.82 31.73
12 24 0 -1.33 41.49
-36 12 0 15.75 37.61
-24 36 1 41.58 32.49
12 24 1 -41.88 41.91
-36 12 1 20.43 38.28
-24 36 2 54.48 38.34
12 24 2 -80.33 59.59
-36 12 2 -30.44 40.53
12 24 3 -25.76 58.69
-24 36 3 13.02 39.24
-24 36 3 18.81 24.64
25 -36 -3 -22.45 31.76
11 25 -3 -19.64 29.54
-36 11 -2 54.1 51.26
25 -36 -2 6.68 28.4
-25 36 -2 10.12 42.81
11 25 -2 -13.85 32.24
-36 11 -1 101.73 47.59
-25 36 -1 -26.15 38.32
25 -36 -1 38.46 26.67
11 25 -1 42.27 41.46
-25 36 0 21.95 41.23
11 25 0 17.47 49.77
-36 11 0 -14.29 33.35
-25 36 1 91.33 44.45
11 25 1 101.74 60.58
-36 11 1 109.54 46.93
11 25 2 -14.01 45.73
-25 36 2 -15.81 35.25
11 25 3 -3.13 48.8
-25 36 3 2.99 34.22
-25 36 3 4.33 21.98
26 -36 -3 31.65 38.08
10 26 -3 60.66 37.93
-36 10 -2 83.4 51.36
26 -36 -2 63.23 38.93
-26 36 -2 33.55 39.45
10 26 -2 45.17 34.58
26 -36 -1 14.29 23.26
-26 36 -1 0.22 39.5
10 26 -1 -82.58 45.34
-36 10 -1 44.51 41.95
-36 10 0 11.95 38.34
-26 36 0 13.59 36.26
10 26 0 -21.52 42.95
10 26 1 63.34 51.64
-26 36 1 37.95 41.26
-36 10 1 16.68 34.24
10 26 2 66.85 61.67
-26 36 2 69.49 46.5
10 26 3 71.15 57.14
-26 36 3 53.22 36.78
-26 36 3 8.09 24.36
27 -36 -3 24.09 32.9
9 27 -3 -47.26 32.25
-36 9 -2 -30.9 44.42
27 -36 -2 35.46 29.56
9 27 -2 30.3 37.44
-27 36 -2 22.24 45.58
-36 9 -1 30.62 37.99
9 27 -1 59.08 44.63
-27 36 -1 64.04 45.22
9 27 0 80.39 42.01
-27 36 0 -12.38 40.8
-36 9 0 19.51 32.75
9 27 1 -26.94 45
-27 36 1 63.2 47.31
9 27 2 41.51 49.34
-27 36 2 83.35 47.47
9 27 3 70.1 68.62
-27 36 3 -13.49 25.62
28 -36 -3 38.18 46.23
8 28 -3 9.73 34.55
28 -36 -2 18.93 31.31
8 28 -2 54.97 39.72
-28 36 -2 12.48 47.12
8 28 -1 18.26 34.53
-28 36 -1 2.48 34.26
8 28 0 93.09 62.27
-28 36 0 45.07 44.34
8 28 1 -51.33 50.19
-28 36 1 29.25 41.33
8 28 2 91.74 60.59
-28 36 2 4.9 34.12
-28 36 3 22.56 26.02
29 -36 -3 53.01 37.66
29 -36 -2 -47.41 33.05
7 29 -2 -60.22 40.26
7 29 -1 -11.2 33.27
-29 36 -1 -35.88 50.35
7 29 0 7.78 36.67
-29 36 0 -21.57 45.68
7 29 1 17.11 46.8
-29 36 1 22.91 37.99
7 29 2 116.86 63.63
-29 36 2 44.8 42.74
-29 36 3 -39.49 27.76
30 -36 -3 -0.41 29.1
30 -36 -2 -12.28 30.69
6 30 -2 19.85 38.54
6 30 -1 5.97 35.48
-30 36 -1 64.04 50.12
6 30 0 -62.77 50.59
-30 36 0 37.95 46.1
6 30 1 18.55 42.09
-30 36 1 22.39 34.87
6 30 2 122.42 65.2
-30 36 2 29.4 42.04
-30 36 3 23.07 22.45
5 31 -1 124.64 47.54
-31 36 -1 18.07 37.2
5 31 0 39.12 49.17
-31 36 0 38.28 43.8
5 31 1 143.67 57.17
-31 36 1 61.82 38.98
-31 36 2 53.48 42.39
-32 36 0 56.74 48.79
-32 36 1 21 35.32
-32 36 2 29.7 47.57
-33 36 1 50.95 45.17
-33 36 2 21.51 42.13
-37 33 2 11.88 25.81
-37 32 1 22.45 41.73
-37 32 2 -8.58 22.79
-37 32 2 3.52 41.09
-37 31 0 47.89 51.55
-37 31 1 23.83 30.81
-37 31 1 -17.86 42.77
-37 31 2 -16.92 24.68
-37 31 2 58.72 46.4
-7 37 0 49.96 39.07
-37 30 0 46.24 49.19
-7 37 0 31.72 43.98
-37 30 1 28.15 29.03
-7 37 1 33.07 40.65
-37 30 1 -37.64 41.52
-7 37 1 -13.98 35.84
-37 30 2 -6.93 21.5
-7 37 2 11.69 40.66
-37 30 2 -6.47 38.01
-8 37 -1 77.34 45.79
-37 29 -1 42.89 37.13
-8 37 -1 8.6 36.67
-8 37 0 -4.39 33.15
-37 29 0 -64.03 52.17
-8 37 0 -42.9 43.21
-37 29 1 45.96 30.96
-8 37 1 44.33 37.11
-37 29 1 -57.77 51.16
-8 37 1 82.59 46.13
-37 29 2 36.95 29.6
-8 37 2 -34.67 41.7
-37 29 2 -7.56 39.07
-8 37 2 8.41 38.65
-9 37 -1 -31.09 31.33
-37 28 -1 -12.42 38.01
-9 37 -1 2.72 34.95
-9 37 0 54.09 37.5
-37 28 0 132.77 56.31
-9 37 0 -1.13 39.11
-37 28 1 31.84 25.39
-9 37 1 -54.9 39.07
-37 28 1 -73.19 47.8
-9 37 1 -62.37 42.82
-37 28 2 8.87 21.23
-37 28 2 -11.87 42.93
-9 37 2 81.81 42.28
-9 37 3 -22.29 28.23
-10 37 -2 -15.52 36.63
-10 37 -2 75.39 48.47
-10 37 -1 39.42 32.73
-37 27 -1 82.83 54.01
-10 37 -1 30.77 42.64
-10 37 0 66.23 42.89
-37 27 0 0.55 38.42
-10 37 0 51.59 44.02
-37 27 1 2.69 22.55
-10 37 1 49.37 42.9
-37 27 1 15.03 42.41
-10 37 1 20.5 32.79
-37 27 2 38.1 28.22
-37 27 2 35.04 37.74
-10 37 2 32.71 41.45
-10 37 3 2.75 29.56
-10 37 3 -43.23 37.7
-11 37 -2 19.51 34.24
-37 26 -2 -10.33 43.25
-11 37 -2 -11.15 44.71
-11 37 -1 18.68 28.26
-37 26 -1 37.68 41.37
-11 37 -1 43.8 37.74
-11 37 0 89.72 42.5
-37 26 0 114.43 53.3
-11 37 0 32.5 36.22
-37 26 1 11.32 23.45
-37 26 1 -27.59 40.14
-11 37 1 -11.61 43.09
-37 26 2 -33.33 29.07
-11 37 2 -49.32 40.92
-37 26 2 5.57 42.38
-11 37 3 41.21 32.72
-11 37 3 74.74 46.65
25 12 -3 56.95 38.89
-37 25 -2 -10.21 43.98
-12 37 -2 1.31 38.39
-12 37 -1 53.99 31.23
-37 25 -1 48.54 45.1
-12 37 -1 66.11 40.41
-37 25 0 26.53 39.63
-12 37 0 -8.76 38.43
-37 25 1 2.16 25.94
-37 25 1 -28.01 43.43
-12 37 1 88.53 46.85
-37 25 2 -3.32 22.35
-12 37 2 70.15 44.79
-37 25 2 50.88 37.78
-12 37 3 25.39 27.45
-12 37 3 106.56 50.21
24 13 -3 61.85 37.91
-37 24 -2 -52.27 53.33
-13 37 -2 -11.28 44.42
-37 24 -1 1.4 40.79
-13 37 -1 50.13 44.54
-37 24 0 -14.81 40.28
-13 37 0 70.23 45.54
-13 37 1 19.58 37.2
-37 24 1 24.36 37.14
-37 24 2 -10.49 45.1
-37 24 2 36.21 24.9
-13 37 2 72.52 47.61
-13 37 3 71.29 31.23
-13 37 3 30.96 38.97
23 14 -3 -34.97 29.54
-37 23 -2 -126.89 63.73
-14 37 -2 26.55 49.94
-37 23 -1 91.57 49.53
-14 37 -1 -14.93 34.96
-14 37 0 21.8 33.48
-37 23 0 -30.49 41.98
-14 37 1 -12.01 36.89
-37 23 1 -41.23 43.32
-37 23 2 14.25 25.28
-37 23 2 20.21 37.5
-14 37 2 -42.76 42.39
-14 37 3 38.66 29.06
-14 37 3 27.97 44.76
22 15 -3 -4.11 27.21
-37 22 -2 5.63 43.07
22 15 -2 5.36 36.39
-15 37 -2 -1.13 37.26
-15 37 -1 140.44 59.44
-37 22 -1 49.69 54.86
-15 37 0 99.68 41.84
-37 22 0 120.77 54.81
-37 22 1 -36.72 42.79
-15 37 1 77.96 46.88
-37 22 2 50.31 31.16
-37 22 2 14.25 37.34
-15 37 2 -45.03 45.93
-15 37 3 24.76 25.63
-15 37 3 72.91 44.62
21 16 -3 -18.8 26.91
-16 37 -2 26.88 35.31
-37 21 -2 -17.51 40.84
-37 21 -1 96.63 52.58
-16 37 -1 34.66 45.88
-37 21 0 11.41 39.97
-16 37 0 70.22 43.27
-37 21 1 72.38 45.36
-16 37 1 4.3 42.24
-37 21 2 45.61 27.63
-37 21 2 -9.47 42.14
-16 37 2 -77.21 44.66
-16 37 3 30.56 27.2
-16 37 3 9.08 33.01
20 17 -3 9.39 27.97
-17 37 -2 115.85 54.66
20 17 -2 58 36.09
-37 20 -2 77.91 48.19
-37 20 -1 42.94 47.46
-17 37 -1 65.67 40.22
-37 20 0 25.33 46.49
-17 37 0 19.16 39.01
-37 20 1 -25.57 41.35
-17 37 1 15.24 34.54
-37 20 2 14.06 22.65
-37 20 2 14.51 38.61
-17 37 2 9.22 39.83
-17 37 3 50.12 43.29
-17 37 3 24.49 26.61
18 -37 -3 4.72 37.11
19 18 -3 -14.24 26.47
-18 37 -2 -6.02 40.3
19 18 -2 -1.79 28.5
-37 19 -2 75.58 56.59
-18 37 -1 38.48 44.14
19 18 -1 54.24 39.21
-37 19 -1 44.35 52.89
-37 19 0 -48.6 43.55
-18 37 0 -5.42 32.24
-37 19 1 31.56 43.02
-18 37 1 15.86 33.95
-18 37 2 70.52 50.57
-37 19 2 19.93 23.39
-37 19 2 -39.44 43.86
-18 37 3 16.67 41.76
-18 37 3 17.3 28.1
19 -37 -3 36.41 39.28
18 19 -3 -1.42 30.01
-19 37 -2 49.21 44.48
18 19 -2 65.96 41.21
-37 18 -2 55.49 55.02
-19 37 -1 -12.38 35.18
18 19 -1 -20.77 39.58
-37 18 -1 65.66 55.81
-19 37 0 45.37 39.85
18 19 0 69.33 59.27
-37 18 0 16.38 42.19
-19 37 1 -0.32 38.33
-37 18 1 98.6 51.34
-19 37 2 141.4 53.59
-37 18 2 77.09 34.8
-19 37 3 39.19 42.53
18 19 3 -16.49 58.14
-19 37 3 22.52 24.01
20 -37 -3 31.39 35.48
17 20 -3 -43.71 30.07
-20 37 -2 -25.63 41.69
20 -37 -2 34.9 32.1
17 20 -2 14.59 33.5
-37 17 -2 26.63 47.82
-20 37 -1 -101.26 55.66
17 20 -1 45.38 39.92
-37 17 -1 -55.79 45.35
-20 37 0 51.77 42.26
17 20 0 -23.74 41.5
-37 17 0 33.99 44.14
-20 37 1 43.98 36.76
17 20 1 101.9 62.7
-37 17 1 -5.36 35.16
-20 37 2 35.25 43.62
17 20 2 77.1 66.15
-37 17 2 18.36 38.42
-20 37 3 8.23 33.17
17 20 3 14.99 54.2
-20 37 3 39.53 29.15
21 -37 -3 7.3 29.94
16 21 -3 -1.79 26.05
-21 37 -2 43.16 44.2
21 -37 -2 38.44 34.27
16 21 -2 4.55 34.24
-37 16 -2 51.17 46.6
-21 37 -1 49.37 38.61
16 21 -1 109.2 59.02
-37 16 -1 6.11 39.54
-21 37 0 62.97 42.05
16 21 0 13.11 44.85
-37 16 0 118.88 52.88
-21 37 1 82.44 49.7
-37 16 1 20.2 44.04
16 21 1 105.7 65.69
-21 37 2 -19.65 40.22
16 21 2 22.55 51.68
-37 16 2 66.31 40.65
-21 37 3 -68.73 42.94
16 21 3 4.8 55.4
-21 37 3 22.43 24.47
22 -37 -3 33.52 37.42
15 22 -3 -27.62 34.23
-37 15 -2 17.12 42.35
-22 37 -2 26.91 38.49
22 -37 -2 6.3 33.66
15 22 -2 -23.68 33.56
-37 15 -1 1.2 42.13
-22 37 -1 112.99 52.98
22 -37 -1 -22.49 32.22
15 22 -1 86.54 52.01
-22 37 0 69.66 44.65
-37 15 0 -0.94 37.55
15 22 0 -63.24 43.19
-22 37 1 10.99 35
15 22 1 72.31 69.84
-37 15 1 16.5 35.19
-22 37 2 0.08 38.37
15 22 2 48.07 54.92
-37 15 2 39.29 33.85
-22 37 3 54.62 38.11
15 22 3 -4.84 56.8
-22 37 3 85.27 35.71
23 -37 -3 -10.31 36.84
14 23 -3 62.83 39.09
-23 37 -2 105.66 56.1
23 -37 -2 39.97 31.11
14 23 -2 14.44 29.95
-37 14 -2 4.12 41.01
-23 37 -1 22.12 37.21
23 -37 -1 8.53 29.57
14 23 -1 -34.11 45.79
-37 14 -1 51.22 42.47
-23 37 0 33.76 36.51
14 23 0 18.84 39.92
-37 14 0 65.69 48.23
-23 37 1 66.14 40.92
14 23 1 -0.58 52.39
-37 14 1 14.89 34.42
-37 14 2 -60.79 40.08
-23 37 2 6.17 33.22
14 23 2 -34.65 56.88
-23 37 3 66.89 43.61
-23 37 3 4.79 22.04
24 -37 -3 -10.02 33.93
13 24 -3 12.02 27.36
-24 37 -2 -52.42 44.79
24 -37 -2 71.82 40.57
13 24 -2 70.15 36.63
-37 13 -2 -19.11 42.87
-24 37 -1 -28.79 38.15
24 -37 -1 46.12 30.54
13 24 -1 84.96 47.76
-37 13 -1 39.68 46.83
-24 37 0 6.4 38.14
13 24 0 107.37 54.02
-37 13 0 47.2 40.04
-24 37 1 4.03 32.46
13 24 1 53.15 53.38
-37 13 1 6.81 39.22
-24 37 2 50.31 33.53
13 24 2 55.84 54.69
-37 13 2 -35.66 37.69
-24 37 3 17.87 32.77
-24 37 3 13.09 23.56
25 -37 -3 5.39 33.72
12 25 -3 54.63 39.7
-37 12 -2 58.16 49.03
25 -37 -2 57.98 36.72
-25 37 -2 42.26 50.07
12 25 -2 -12.96 33.63
-37 12 -1 49.51 50.67
-25 37 -1 12.81 33.9
25 -37 -1 39.38 28.99
12 25 -1 71.98 42.38
-25 37 0 -39.27 36.54
12 25 0 40.57 49.2
-37 12 0 36.63 35.38
-37 12 1 -44.58 42.8
-25 37 1 63.83 40.99
12 25 1 158.49 72.23
12 25 2 8.92 51.43
-25 37 2 7.26 36.42
-25 37 3 39.03 43.65
-25 37 3 16.74 25.11
26 -37 -3 -30.09 37.05
11 26 -3 20.04 31.98
26 -37 -2 -12.18 30.68
-26 37 -2 -16.71 38.78
11 26 -2 -21.51 33.26
-37 11 -2 19.51 43.22
-26 37 -1 -0.04 44.62
11 26 -1 64.32 50.02
-37 11 -1 -8.08 43.87
-37 11 0 15.14 37.52
-26 37 0 37.81 34.24
11 26 0 16.99 41.95
11 26 1 70.03 62.15
-26 37 1 106.83 51.49
-37 11 1 46.77 44.75
11 26 2 -62.17 54.7
-26 37 2 -27.76 39.72
-26 37 3 -8.89 25.82
27 -37 -3 -63.05 47.48
27 -37 -2 66.91 45.47
10 27 -2 32.21 35.46
10 27 -1 30.47 45.99
-27 37 -1 -36.57 48.31
-37 10 -1 47.07 46.47
10 27 0 36.32 41.99
-27 37 0 -49.5 43.52
-37 10 0 74.08 47.51
10 27 1 40.81 53.29
-27 37 1 7.75 33.88
10 27 2 -69.03 52.92
-27 37 2 -41.87 44.55
-27 37 3 -1.03 21.42
28 -37 -2 -57.31 37.04
9 28 -2 26.03 36.52
9 28 -1 64.78 46.35
-37 9 -1 -68.04 49.97
9 28 0 -11.84 41.81
-28 37 0 18.52 39.12
9 28 1 32.36 41.04
-28 37 1 59.28 44.47
-28 37 2 30.9 33.62
-28 37 3 4.75 25.72
29 -37 -2 41.32 35.72
8 29 -1 51.18 39.17
-29 37 -1 59.17 47.97
8 29 0 -38.05 41.79
-29 37 0 -29.16 44.44
8 29 1 29.38 50.66
-29 37 1 48.13 40.53
-29 37 2 -16.71 39.9
7 30 0 -70.77 49.23
-30 37 0 10.24 35.45
-30 37 1 24.86 38.48
-30 37 2 53.97 37.79
-31 37 0 79.93 49.27
-31 37 1 15.24 39.92
-31 37 2 -35.72 44.47
-32 37 1 40.55 46.18
-32 37 2 -49.99 48.28
-38 32 2 23.36 27.64
-38 31 2 36.39 27.53
-38 31 2 30.9 44.38
-38 30 1 28.03 29.73
-38 30 1 -46.06 52.38
-38 30 2 44.35 30.89
-38 30 2 31.65 39.57
-38 29 0 -37.53 43.34
-38 29 1 8.1 27.47
-38 29 1 -9.65 44.14
-38 29 2 -12.1 23.3
-38 29 2 29.47 45.78
-10 38 0 -3.67 27.48
-38 28 0 -86.82 57.3
-10 38 0 50.38 48.13
-38 28 1 -4 24.16
-10 38 1 7.39 32.39
-38 28 1 50.81 40.26
-10 38 1 35.31 39.97
-38 28 2 18.69 24.98
-38 28 2 89.86 59.57
27 11 -3 -3.6 27.33
-38 27 -1 1.38 40.04
-11 38 -1 -41.51 48.5
-11 38 0 -11.43 29.46
-38 27 0 93.57 44.14
-11 38 0 15.19 40.11
-38 27 1 -42.67 45.24
-11 38 1 -5.7 39.44
-38 27 2 -18.62 25.98
-11 38 2 -22.65 34.04
-38 27 2 64.87 48.15
26 12 -3 22.77 33.03
-12 38 -1 108.34 46.62
-38 26 -1 -13.43 40.64
-12 38 -1 58.42 40.47
-38 26 0 32.33 45.57
-12 38 0 -63.33 45.44
-38 26 1 -6.09 36.91
-12 38 1 27.61 44.72
-38 26 2 39.01 31.36
-12 38 2 26.63 36.72
-38 26 2 46.75 40.51
25 13 -3 -38.49 38.3
-38 25 -1 70.83 53.57
-13 38 -1 -31.67 38.96
-38 25 0 122.56 60.92
-13 38 0 136.69 57.83
-13 38 1 34.68 38.17
-38 25 1 69.33 46.69
-38 25 2 22.18 40.69
-38 25 2 22.14 26.56
-13 38 2 -2.89 34.72
-13 38 3 72.18 50.47
24 14 -3 -42.28 31.93
-38 24 -1 -70.05 48.97
-14 38 -1 -8.01 39.83
-14 38 0 31.44 47.18
-38 24 0 -5.22 38.28
-14 38 1 -11.52 41.01
-38 24 1 -16.29 42.24
-38 24 2 -3.01 26.56
-38 24 2 11.88 38.45
-14 38 2 65.32 47.47
-14 38 3 38.52 34.79
23 15 -3 28.17 33.45
23 15 -2 44.93 37.32
-15 38 -2 38.14 42.92
-15 38 -1 104.64 55.26
-38 23 -1 88.49 53.53
-15 38 0 9.7 46.28
-38 23 0 8.02 40.81
-38 23 1 36.79 37.37
-15 38 1 99.39 47.53
-38 23 2 -23.89 28.17
-38 23 2 47.76 44.68
-15 38 2 -18.36 37.12
-15 38 3 41.63 39.65
22 16 -3 24.81 32.92
-16 38 -2 4.07 41.37
22 16 -2 -66.4 39.39
-38 22 -1 -27.72 42.6
-16 38 -1 99.8 56.01
-38 22 0 144.97 62.08
-16 38 0 149.2 56.77
-38 22 1 55.87 41.09
-16 38 1 -8.01 33.32
-38 22 2 -3.81 23.56
-38 22 2 -27.16 43.11
-16 38 2 12.6 42.35
-16 38 3 33.96 36.51
21 17 -3 21.88 28.89
-17 38 -2 -79.9 50.65
21 17 -2 20.43 38.9
-38 21 -2 -6.1 43.84
-38 21 -1 6.97 39.01
-17 38 -1 86.52 46.37
-38 21 0 33.92 52.23
-17 38 0 142.72 52.76
-38 21 1 2.84 36.66
-17 38 1 7.15 40.57
-38 21 2 -30.79 30.54
-38 21 2 2.18 41.77
-17 38 2 -28.03 34.02
-17 38 3 -14.39 42.19
20 18 -3 -15.8 28.64
-18 38 -2 -40.52 39.76
-38 20 -2 -17.52 42.54
20 18 -1 -83.34 54.67
-38 20 -1 12.34 43.76
-38 20 0 21.8 36.7
-18 38 0 15.46 41.47
-38 20 1 -3.63 39.42
-18 38 1 54.63 48.74
-18 38 2 -1.82 37.47
-38 20 2 -7.66 22.64
-38 20 2 -70.86 47.72
-18 38 3 4.95 34.15
19 19 -3 0.26 29.31
-19 38 -2 -18.6 39.63
19 19 -2 44.96 38.83
-38 19 -2 -18.51 41.27
-19 38 -1 15.66 37.68
19 19 -1 91.44 46.41
-38 19 -1 -10.84 37.92
-19 38 0 -52.68 47.94
19 19 0 49.23 46.67
-38 19 0 29.6 45.27
-19 38 1 32.01 41.74
-38 19 1 7.85 36.28
-19 38 2 96.82 46.92
-38 19 2 13.44 38.95
-19 38 3 7.06 36.09
18 20 -3 -1.38 30.61
-20 38 -2 -28.74 43.75
20 -38 -2 -17.72 33.15
18 20 -2 28.99 41.39
-38 18 -2 95.87 57.53
-20 38 -1 -17.87 39.65
18 20 -1 -27.41 35.78
-38 18 -1 50.07 46.11
-20 38 0 40.88 46.79
18 20 0 -75.08 56.58
-38 18 0 50.93 47.29
-20 38 1 -6.17 35.14
18 20 1 -4.09 51.31
-38 18 1 12.75 38.39
-20 38 2 87.69 46.34
18 20 2 98.6 71.14
-38 18 2 -13.36 35.5
-20 38 3 7.89 36.39
17 21 -3 -1.66 34.69
-21 38 -2 26.69 39.68
21 -38 -2 -73.5 45.84
17 21 -2 -21.97 32.75
-21 38 -1 121.32 57.13
17 21 -1 67.44 48.08
-38 17 -1 -36.21 39.74
-21 38 0 151.58 57.38
17 21 0 166.97 61.56
-38 17 0 18.61 39.87
-21 38 1 21.87 37.73
-38 17 1 -34.67 40.92
17 21 1 73.61 63.12
-21 38 2 -49.6 39.72
17 21 2 -7.12 56.99
-38 17 2 87.23 50.69
-21 38 3 12.75 38.54
16 22 -3 51.52 34.37
-22 38 -2 51.85 47.15
22 -38 -2 36.63 44.68
16 22 -2 37.08 35.85
-38 16 -1 35.37 37.66
22 -38 -1 -19.89 30.45
16 22 -1 -6.26 35.97
-38 16 0 -62.63 49.23
-22 38 0 70.17 46.58
16 22 0 18.56 43.47
-22 38 1 10.86 44.36
16 22 1 -45.9 58.22
-38 16 1 -2.47 36.41
-38 16 2 42.4 37.89
-22 38 2 36.34 39.78
16 22 2 25.12 60.93
-22 38 3 50.6 40.25
15 23 -3 -29.09 28.68
23 -38 -2 75.65 48.3
15 23 -2 67.97 37.21
-23 38 -1 54.68 54.98
-38 15 -1 30.28 38.13
23 -38 -1 -6.61 30.77
15 23 -1 65.97 45.7
-23 38 0 3.56 38.83
15 23 0 30.29 52.48
-38 15 0 13.75 35.92
-23 38 1 -22.97 40
15 23 1 5.52 52.49
-38 15 1 75.49 47.65
-23 38 2 61.18 41.06
-38 15 2 66.24 44.4
-23 38 3 -21.21 37.8
24 -38 -2 49.75 39.36
14 24 -2 -18.87 36.96
-24 38 -1 1.21 51.4
24 -38 -1 98.16 44.52
14 24 -1 140.04 55.07
-38 14 -1 24.2 40.96
-24 38 0 128.56 53.54
14 24 0 62.08 51.6
-38 14 0 -58.79 50.55
-24 38 1 11.78 33.06
-38 14 1 24.1 36.3
14 24 1 -25.07 55.91
-24 38 2 8.13 39.26
-38 14 2 20.75 37.27
25 -38 -2 -11.05 29.91
13 25 -2 -21.68 35.89
-25 38 -1 95.5 54.53
13 25 -1 -0.27 38.29
-38 13 0 29.28 44.92
-25 38 0 73.19 50.69
13 25 0 66.2 56.82
-25 38 1 29.76 37.43
13 25 1 60.47 49.14
-38 13 1 81.6 48.2
-25 38 2 0.08 38.68
26 -38 -2 120.01 49.13
12 26 -2 16.1 33.99
-26 38 -1 -48.2 46.33
12 26 -1 -29.09 41.28
-38 12 -1 72 50.26
-26 38 0 -5.32 38.64
12 26 0 -32.17 42.84
-38 12 0 21.03 36.46
-38 12 1 85.69 47.79
-26 38 1 19.85 42.08
12 26 1 135.54 65.51
-26 38 2 -80.02 51.19
27 -38 -2 -11.51 28.2
-38 11 -1 -8.53 37.57
-27 38 -1 8.46 39.73
11 27 -1 84.75 52.15
-27 38 0 95.3 50.54
-38 11 0 103.73 42.16
-27 38 1 20.56 37.33
-27 38 2 -26.7 44.48
28 -38 -2 79.35 45.54
10 28 0 -21.34 46.73
-28 38 0 82.59 48.9
-28 38 1 13.86 36.08
-28 38 2 28.33 36.57
-29 38 0 4.48 40.64
-29 38 1 50.05 38.12
-29 38 2 10.98 38.46
-30 38 1 59.62 50.14
-30 38 2 -29.95 46.01
-39 29 2 3.13 30.38
-39 29 2 55.48 48.33
-39 28 1 17.41 45.22
-39 28 2 21.1 25.57
-39 28 2 -26.24 51.53
-39 27 0 28.79 42.99
-39 27 1 46.59 44.4
-39 27 2 17.67 26.71
-39 27 2 66.2 46.66
-39 26 0 55.88 50.04
-39 26 1 69.17 56.3
-39 26 2 0.89 40.19
-39 26 2 34.69 29.43
-14 39 0 56.86 41.47
-39 25 0 1.54 54.32
-39 25 1 96.25 54.76
-14 39 1 19.18 34.99
-39 25 2 21 28.46
-39 25 2 -11.33 38.5
24 15 -2 27.21 42.47
-15 39 0 73.46 51.34
-39 24 0 -48.36 41.68
-39 24 1 -41.55 38.77
-15 39 1 4.94 37.21
-39 24 2 7.79 25.39
-39 24 2 -40.46 42.88
-15 39 2 37.77 39.4
23 16 -2 15.17 31.03
-39 23 -1 107.5 54.42
-39 23 0 -26.41 45.74
-16 39 0 -3.15 42.12
-39 23 1 -0.6 41.21
-16 39 1 72.68 39.86
-39 23 2 -15.78 25.49
-39 23 2 -16.95 43.47
-16 39 2 -64.41 43.19
22 17 -2 -1.28 35.04
-39 22 -1 -5.17 46.25
-17 39 -1 -15.6 36.41
-39 22 0 -23.28 41.87
-17 39 0 -64.31 44.64
-39 22 1 26.09 36.75
-17 39 1 33.68 39.64
-39 22 2 5 24.23
-39 22 2 6.91 41.39
-17 39 2 2.12 35.2
21 18 -2 -22.62 38.88
-18 39 -1 -6.18 35.08
21 18 -1 71.4 47.97
-39 21 -1 -1.43 51.57
-39 21 0 63.46 46.08
-18 39 0 36.39 34.92
-39 21 1 29.58 52.43
-18 39 1 23.58 39.06
-18 39 2 -40.68 50.24
-39 21 2 -46.12 50.17
20 19 -2 6.25 32.29
-19 39 -1 29.03 41.09
20 19 -1 242.23 68.75
-39 20 -1 185.87 68.79
-19 39 0 8.33 40.07
20 19 0 5.33 45.14
-39 20 0 26.39 42.27
-19 39 1 74.35 42.46
-39 20 1 142.08 61.82
-19 39 2 87.5 49.47
-39 20 2 72.43 45.83
20 -39 -2 120.12 50.83
19 20 -2 14.25 33.2
-20 39 -1 -9.14 37.11
19 20 -1 48.26 50.02
-39 19 -1 19.36 43.47
-20 39 0 50.97 45.87
19 20 0 -19.27 50.58
-39 19 0 -67.19 41.26
-20 39 1 59.35 39.92
19 20 1 -17.96 58.24
-39 19 1 99.8 52.45
-20 39 2 -34.16 38.96
-39 19 2 49.99 38.87
21 -39 -2 23.32 35.52
18 21 -2 -28.97 34.58
-21 39 -1 -49.81 49.29
18 21 -1 44.9 47.17
-39 18 -1 -65.96 48.72
-21 39 0 44.93 46.57
18 21 0 47.28 47.73
-39 18 0 -4.78 36.86
-21 39 1 42.87 41.73
-39 18 1 -23.46 46.12
18 21 1 -70.65 55.93
-21 39 2 68.88 52.23
-39 18 2 11.24 46.55
22 -39 -2 -8.49 33.74
17 22 -2 -19.27 36.73
-22 39 -1 -56.23 49.42
22 -39 -1 -30.88 28.64
17 22 -1 15.47 44.71
-39 17 -1 -22.39 42.38
-39 17 0 23.24 40.33
-22 39 0 105.74 53.4
17 22 0 48.63 49.28
-22 39 1 37.32 46.46
-39 17 1 65.1 44.99
-39 17 2 9.21 42.87
-22 39 2 -9.78 36.6
23 -39 -2 -34.5 39.02
23 -39 -1 15.45 28.95
16 23 -1 -12.54 37.76
-23 39 0 37.95 43.34
16 23 0 -16.55 47.42
-39 16 0 48.13 45.84
-23 39 1 71.51 49.01
-39 16 1 26.33 44.14
-23 39 2 77.38 46.01
-39 16 2 85.72 47.85
24 -39 -2 22.46 37.41
15 24 -1 59.53 46.75
-24 39 0 38.33 42.8
15 24 0 131.74 61.36
-39 15 0 -11.66 37.7
-39 15 1 129.92 54.78
-24 39 1 52.27 45.5
-24 39 2 3.67 33.95
-39 15 2 -28.33 48.73
25 -39 -2 1.22 31.91
-39 14 0 -1.75 41.09
-25 39 0 78.11 43.24
-25 39 1 75.86 49.72
-39 14 1 56.36 46.71
-25 39 2 -20.54 43.88
26 -39 -2 -32.3 29.76
-26 39 0 56.58 40.11
-39 13 0 55.03 45.48
-26 39 1 -40.23 41.92
-39 13 1 10.85 45.13
-26 39 2 -33.44 38.21
27 -39 -2 10.2 33.48
-27 39 1 66.27 55.74
-27 39 2 -8.31 41.3
-40 26 2 -25.33 43.21
-40 25 1 16.44 45.64
-40 25 2 41.44 48.72
-40 24 1 46.15 37.75
-40 24 2 -43.46 53.61
-40 23 1 21.08 38.09
-40 23 2 -21.69 40.82
-40 22 1 95.35 60.88
-40 22 2 -0.28 44.72
-40 21 1 47.08 57.35
-40 21 2 21.98 38.28
20 -40 -2 106.9 52.63
-40 20 1 -13.58 42.91
-40 20 2 -18.72 42.07
21 -40 -2 17.06 36.53
-40 19 1 -7.38 37.81
-40 19 2 42.2 49.92
22 -40 -2 -34.13 33.62
22 -40 -1 57.03 41.6
-40 18 1 -61.89 46.21
-40 18 2 0.63 37.23
23 -40 -2 -4.3 34.33
-40 17 1 21.42 41.54
-40 17 2 22.11 41.89
24 -40 -2 4.44 43.05
-40 16 1 71.74 52.53
-40 16 2 -27.19 41.45
25 -40 -2 12.49 38.74
-40 15 2 83.07 53.18
