#------------------------------------------------------------------------------
#$Date: 2017-09-12 07:05:29 +0300 (Tue, 12 Sep 2017) $
#$Revision: 200745 $
#$URL: file:///home/coder/svn-repositories/cod/cif/1/54/64/1546423.cif $
#------------------------------------------------------------------------------
#
# This file is available in the Crystallography Open Database (COD),
# http://www.crystallography.net/
#
# All data on this site have been placed in the public domain by the
# contributors.
#
data_1546423
loop_
_publ_author_name
'Pan, Dong'
'Wei, Yin'
'Shi, Min'
_publ_section_title
;
 Rh(II)-Catalyzed Chemoselective Oxidative Amination and Cyclization
 Cascade of 1-(Arylethynyl)cycloalkyl)methyl Sulfamates.
;
_journal_issue                   13
_journal_name_full               'Organic letters'
_journal_page_first              3584
_journal_page_last               3587
_journal_paper_doi               10.1021/acs.orglett.7b01558
_journal_volume                  19
_journal_year                    2017
_chemical_absolute_configuration ad
_chemical_formula_sum            'C13 H13 N O3 S'
_chemical_formula_weight         263.30
_chemical_name_systematic
; 
 ? 
;
_space_group_crystal_system      orthorhombic
_space_group_IT_number           19
_space_group_name_Hall           'P 2ac 2ab'
_space_group_name_H-M_alt        'P 21 21 21'
_symmetry_space_group_name_Hall  'P 2ac 2ab'
_symmetry_space_group_name_H-M   'P 21 21 21'
_atom_sites_solution_hydrogens   geom
_audit_creation_method           SHELXL-2013
_cell_angle_alpha                90
_cell_angle_beta                 90
_cell_angle_gamma                90
_cell_formula_units_Z            4
_cell_length_a                   5.4587(10)
_cell_length_b                   9.1326(16)
_cell_length_c                   24.374(4)
_cell_measurement_reflns_used    2208
_cell_measurement_temperature    293(2)
_cell_measurement_theta_max      47.493
_cell_measurement_theta_min      4.263
_cell_volume                     1215.1(4)
_computing_cell_refinement       'Bruker SMART'
_computing_data_collection       'Bruker SMART'
_computing_data_reduction        'Bruker SHELXTL'
_computing_molecular_graphics    'Bruker SHELXTL'
_computing_publication_material  'Bruker SHELXTL'
_computing_structure_refinement  'SHELXL-2013 (Sheldrick, 2013)'
_computing_structure_solution    'Bruker SHELXTL'
_diffrn_ambient_temperature      293(2)
_diffrn_measured_fraction_theta_full 1.000
_diffrn_measured_fraction_theta_max 1.000
_diffrn_measurement_device_type  'CCD area detector'
_diffrn_measurement_method       'phi and omega scans'
_diffrn_radiation_type           MoK\a
_diffrn_radiation_wavelength     0.71073
_diffrn_reflns_av_R_equivalents  0.0360
_diffrn_reflns_av_unetI/netI     0.0353
_diffrn_reflns_Laue_measured_fraction_full 1.000
_diffrn_reflns_Laue_measured_fraction_max 1.000
_diffrn_reflns_limit_h_max       6
_diffrn_reflns_limit_h_min       -6
_diffrn_reflns_limit_k_max       7
_diffrn_reflns_limit_k_min       -11
_diffrn_reflns_limit_l_max       29
_diffrn_reflns_limit_l_min       -29
_diffrn_reflns_number            6981
_diffrn_reflns_point_group_measured_fraction_full 1.000
_diffrn_reflns_point_group_measured_fraction_max 1.000
_diffrn_reflns_theta_full        25.242
_diffrn_reflns_theta_max         25.484
_diffrn_reflns_theta_min         1.671
_exptl_absorpt_coefficient_mu    0.266
_exptl_absorpt_correction_T_max  0.7456
_exptl_absorpt_correction_T_min  0.6821
_exptl_absorpt_correction_type   multi-scan
_exptl_absorpt_process_details   sadabs
_exptl_crystal_colour            colorless
_exptl_crystal_density_diffrn    1.439
_exptl_crystal_description       prismatic
_exptl_crystal_F_000             552
_exptl_crystal_size_max          0.200
_exptl_crystal_size_mid          0.160
_exptl_crystal_size_min          0.120
_refine_diff_density_max         0.995
_refine_diff_density_min         -0.352
_refine_diff_density_rms         0.069
_refine_ls_abs_structure_details
; 
 Flack x determined using 757 quotients [(I+)-(I-)]/[(I+)+(I-)] 
 (Parsons and Flack (2004), Acta Cryst. A60, s61). 
;
_refine_ls_abs_structure_Flack   0.13(5)
_refine_ls_extinction_method     none
_refine_ls_goodness_of_fit_ref   1.049
_refine_ls_hydrogen_treatment    constr
_refine_ls_matrix_type           full
_refine_ls_number_parameters     163
_refine_ls_number_reflns         2264
_refine_ls_number_restraints     1
_refine_ls_restrained_S_all      1.052
_refine_ls_R_factor_all          0.0645
_refine_ls_R_factor_gt           0.0584
_refine_ls_shift/su_max          0.000
_refine_ls_shift/su_mean         0.000
_refine_ls_structure_factor_coef Fsqd
_refine_ls_weighting_details
'w=1/[\s^2^(Fo^2^)+(0.1058P)^2^+0.6894P] where P=(Fo^2^+2Fc^2^)/3'
_refine_ls_weighting_scheme      calc
_refine_ls_wR_factor_gt          0.1617
_refine_ls_wR_factor_ref         0.1684
_reflns_Friedel_coverage         0.672
_reflns_Friedel_fraction_full    1.000
_reflns_Friedel_fraction_max     1.000
_reflns_number_gt                2009
_reflns_number_total             2264
_reflns_threshold_expression     'I > 2\s(I)'
_cod_data_source_file            ol7b01558_si_002.cif
_cod_data_source_block           cd16476
_cod_depositor_comments
'Adding full bibliography for 1546422--1546423.cif.'
_cod_database_code               1546423
_shelx_space_group_comment
; 
The symmetry employed for this shelxl refinement is uniquely defined 
by the following loop, which should always be used as a source of 
symmetry information in preference to the above space-group names. 
They are only intended as comments. 
;
_shelx_estimated_absorpt_t_min   0.949
_shelx_estimated_absorpt_t_max   0.969
_shelxl_version_number           2013-4
_shelx_res_file
; 
TITL cd16476 in P2(1)2(1)2(1) 
CELL 0.71073   5.4587   9.1326  24.3743  90.000  90.000  90.000 
ZERR    4.00   0.0010   0.0016   0.0044   0.000   0.000   0.000 
LATT -1 
SYMM 0.5-X, -Y, 0.5+Z 
SYMM -X, 0.5+Y, 0.5-Z 
SYMM 0.5+X, 0.5-Y, -Z 
SFAC C  H  N  O  S 
UNIT 52 52 4 12 4 
OMIT  -3.00  51.00 
L.S. 10 
ACTA 
BOND  $H 
FMAP 2 
PLAN 20 
HTAB C1 O3_$1 
wpdb -1 
size 0.20 0.16 0.12 
mpla n1 c2 c3 c7 
mpla C8 > c13 
delu 0.003 s1 o1 
htab 
conf 
EQIV $1 x-1/2, -y+1/2, -z+2 
HTAB C1 O3_$1 
HTAB C1 O3_$1 
HTAB C1 O3_$1 
WGHT    0.105800    0.689400 
FVAR       0.24616 
MOLE 1 
S1    5   -0.237760    0.051721    0.936757    11.00000    0.06783    0.03654 = 
         0.03878    0.00259    0.00814   -0.01516 
N1    3   -0.084966    0.093594    0.881206    11.00000    0.05858    0.03359 = 
         0.03185   -0.00209    0.00023   -0.00534 
O1    4   -0.249810    0.195189    0.972260    11.00000    0.07946    0.05377 = 
         0.04282    0.00178    0.01233   -0.00314 
O2    4   -0.462967   -0.002218    0.920600    11.00000    0.07583    0.12036 = 
         0.06691    0.03603   -0.01619   -0.04808 
O3    4   -0.087844   -0.038291    0.971021    11.00000    0.10064    0.06621 = 
         0.04145    0.01071   -0.00616   -0.00846 
C1    1   -0.326303    0.321909    0.939251    11.00000    0.05719    0.03970 = 
         0.04808    0.00588    0.02018    0.00686 
AFIX  23 
H1A   2   -0.352052    0.406146    0.962795    11.00000   -1.20000 
H1B   2   -0.478891    0.300356    0.920522    11.00000   -1.20000 
AFIX   0 
C2    1   -0.129950    0.354391    0.898289    11.00000    0.04103    0.03632 = 
         0.03175    0.00069    0.00428   -0.00067 
C3    1   -0.033490    0.486931    0.894649    11.00000    0.04508    0.03359 = 
         0.03657    0.00096    0.00221    0.00577 
C4    1   -0.075232    0.622603    0.928586    11.00000    0.06710    0.03480 = 
         0.05402   -0.00383    0.00332    0.00495 
AFIX  23 
H4A   2   -0.215109    0.680199    0.916893    11.00000   -1.20000 
H4B   2   -0.080580    0.604334    0.967770    11.00000   -1.20000 
AFIX   0 
C5    1    0.166868    0.681295    0.908765    11.00000    0.07290    0.03948 = 
         0.06256   -0.00276   -0.00556   -0.01528 
AFIX  23 
H5A   2    0.296662    0.675041    0.935844    11.00000   -1.20000 
H5B   2    0.156819    0.779144    0.893450    11.00000   -1.20000 
AFIX   0 
C6    1    0.176754    0.559225    0.865048    11.00000    0.05300    0.03450 = 
         0.05044    0.00106    0.00881   -0.00155 
AFIX  23 
H6A   2    0.137020    0.592031    0.828259    11.00000   -1.20000 
H6B   2    0.327246    0.502753    0.865413    11.00000   -1.20000 
AFIX   0 
C7    1   -0.043287    0.226881    0.867024    11.00000    0.03707    0.02967 = 
         0.03190   -0.00043   -0.00303   -0.00048 
C8    1    0.093536    0.243689    0.815072    11.00000    0.03760    0.03319 = 
         0.02953   -0.00241    0.00135   -0.00273 
C9    1    0.014728    0.339144    0.774864    11.00000    0.04482    0.03684 = 
         0.03884   -0.00267   -0.00008    0.00142 
AFIX  43 
H9    2   -0.121859    0.397601    0.781218    11.00000   -1.20000 
AFIX   0 
C10   1    0.136400    0.348857    0.725288    11.00000    0.06897    0.04603 = 
         0.03186    0.00681   -0.00067   -0.00821 
AFIX  43 
H10   2    0.079794    0.411576    0.698033    11.00000   -1.20000 
AFIX   0 
C11   1    0.343449    0.264331    0.716553    11.00000    0.06470    0.05921 = 
         0.03525   -0.00368    0.01423   -0.00510 
AFIX  43 
H11   2    0.427610    0.271343    0.683483    11.00000   -1.20000 
AFIX   0 
C12   1    0.425226    0.169914    0.756651    11.00000    0.04563    0.05282 = 
         0.05450   -0.00944    0.00826    0.00588 
AFIX  43 
H12   2    0.565574    0.114424    0.750685    11.00000   -1.20000 
AFIX   0 
C13   1    0.300065    0.157187    0.805638    11.00000    0.04696    0.03928 = 
         0.03625    0.00272    0.00083    0.00124 
AFIX  43 
H13   2    0.353083    0.091329    0.832207    11.00000   -1.20000 
AFIX   0 
HKLF 4 
  
REM  cd16476 in P2(1)2(1)2(1) 
REM R1 =  0.0584 for    2009 Fo > 4sig(Fo)  and  0.0645 for all    2264 data 
REM    163 parameters refined using      1 restraints 
  
END 
  
WGHT      0.1059      0.6882 
  
REM Instructions for potential hydrogen bonds 
HTAB C1 O3_$1 
  
REM Highest difference peak  0.995,  deepest hole -0.352,  1-sigma level  0.069 
Q1    1  -0.4503  0.1939  0.9327  11.00000  0.05    1.00 
Q2    1  -0.1575  0.0529  0.9791  11.00000  0.05    0.61 
Q3    1  -0.3492  0.0514  0.9119  11.00000  0.05    0.40 
Q4    1  -0.4528 -0.0774  0.9073  11.00000  0.05    0.29 
Q5    1  -0.7454  0.1663  0.9324  11.00000  0.05    0.24 
Q6    1  -0.4239 -0.0395  0.9335  11.00000  0.05    0.22 
Q7    1   0.2073  0.2026  0.8128  11.00000  0.05    0.22 
Q8    1  -0.1534  0.1201  0.8645  11.00000  0.05    0.22 
Q9    1  -0.0331  0.5318  0.9202  11.00000  0.05    0.21 
Q10   1   0.0766  0.2399  0.8435  11.00000  0.05    0.21 
Q11   1   0.4298  0.2526  0.7489  11.00000  0.05    0.20 
Q12   1  -0.2617  0.3426  0.9095  11.00000  0.05    0.20 
Q13   1  -0.1128  0.2984  0.8780  11.00000  0.05    0.20 
Q14   1   0.0915  0.3355  0.8084  11.00000  0.05    0.19 
Q15   1   0.1829  0.2816  0.7157  11.00000  0.05    0.17 
Q16   1  -0.1012 -0.0613  0.9337  11.00000  0.05    0.16 
Q17   1   0.2118  0.1623  0.6547  11.00000  0.05    0.16 
Q18   1   0.1680  0.3747  0.7413  11.00000  0.05    0.16 
Q19   1   0.1389  0.3258  0.6353  11.00000  0.05    0.16 
Q20   1  -0.3833  0.0716  0.9723  11.00000  0.05    0.15 
;
_shelx_res_checksum              86848
_shelx_hkl_file
; 
   1   0   0    0.03    0.04 
   2   0   0    1.06    0.16 
   3   0   0    0.02    0.09 
   4   0   0    2.15    0.32 
   5   0   0   -0.18    0.16 
  -6   0   0    1.04    0.27 
  -6   0   0    1.19    0.33 
   6   0   0    1.57    0.41 
   6  -1   0    0.54    0.30 
  -6   1   0    0.98    0.27 
   5  -1   0    5.34    0.54 
  -5   1   0    4.96    0.44 
   4  -1   0    1.72    0.30 
  -4   1   0    1.88    0.26 
   3  -1   0    8.99    0.52 
   2  -1   0   39.32    1.38 
  -2   1   0   39.41    1.22 
   1  -1   0  411.44   11.59 
   1  -1   0  367.01   11.45 
  -1   1   0  390.95   10.73 
   0  -1   0    0.00    0.03 
   0  -1   0    0.02    0.02 
  -1  -1   0  424.35   12.18 
  -1  -1   0  402.45   12.23 
   2   1   0    0.02    0.05 
   3   1   0    9.59    0.51 
   4   1   0    2.18    0.30 
  -5  -1   0    3.93    0.45 
  -5  -1   0    4.83    0.44 
  -6  -1   0    0.61    0.26 
  -7  -1   0    0.55    0.29 
   6  -2   0    0.36    0.30 
   5  -2   0   -0.07    0.18 
  -5   2   0   -0.05    0.12 
   4  -2   0   12.88    0.76 
  -4   2   0   12.92    0.60 
   3  -2   0    4.94    0.42 
  -3   2   0    4.70    0.28 
   2  -2   0    1.07    0.19 
  -2   2   0    1.00    0.12 
   1  -2   0    7.11    0.36 
   1  -2   0    6.81    0.29 
  -1   2   0    6.73    0.26 
   0  -2   0    2.35    0.16 
   0  -2   0    1.95    0.14 
  -1  -2   0    6.97    0.28 
  -1  -2   0    6.36    0.33 
  -2  -2   0    0.89    0.17 
  -2  -2   0    1.10    0.12 
  -3  -2   0    5.37    0.33 
  -3  -2   0    5.33    0.41 
  -4  -2   0   13.27    0.62 
  -4  -2   0   11.13    0.69 
  -5  -2   0   -0.04    0.19 
  -5  -2   0   -0.02    0.14 
  -6  -2   0    0.35    0.26 
  -7  -2   0    0.16    0.34 
   7  -3   0    0.48    0.42 
   6  -3   0   -0.17    0.26 
   5  -3   0    0.07    0.21 
  -5   3   0   -0.15    0.12 
   4  -3   0    1.26    0.31 
  -4   3   0    1.11    0.18 
   3  -3   0    0.22    0.14 
  -3   3   0    0.53    0.12 
   2  -3   0    4.82    0.39 
   2  -3   0    5.28    0.30 
  -2   3   0    5.02    0.25 
   1  -3   0  117.50    3.64 
   1  -3   0  113.56    3.48 
   0  -3   0    0.18    0.09 
   0  -3   0   -0.02    0.06 
  -1  -3   0  118.30    3.54 
  -1  -3   0  113.29    3.58 
  -2  -3   0    5.29    0.27 
  -2  -3   0    5.18    0.37 
  -3  -3   0    0.27    0.16 
  -3  -3   0    0.38    0.11 
  -4  -3   0    1.36    0.22 
  -4  -3   0    1.72    0.33 
  -5  -3   0    0.30    0.22 
  -6  -3   0   -0.16    0.22 
  -7  -3   0    0.57    0.41 
   6  -4   0    0.21    0.30 
   5  -4   0   -0.08    0.23 
   4  -4   0    5.38    0.58 
  -4   4   0    7.34    0.40 
   3  -4   0    1.66    0.32 
  -3   4   0    1.90    0.19 
   2  -4   0    5.84    0.44 
   2  -4   0    5.87    0.34 
  -2   4   0    6.14    0.30 
   1  -4   0    4.64    0.26 
   0  -4   0    4.27    0.26 
   0  -4   0    4.01    0.30 
  -1  -4   0   11.13    0.56 
  -1  -4   0   12.31    0.53 
  -2  -4   0    6.11    0.33 
  -2  -4   0    6.08    0.42 
  -3  -4   0    2.36    0.21 
  -3  -4   0    2.34    0.34 
  -4  -4   0    6.89    0.60 
  -5  -4   0   -0.22    0.20 
  -6  -4   0    0.17    0.30 
   6  -5   0    1.82    0.51 
   5  -5   0    0.34    0.30 
   4  -5   0    0.67    0.29 
   3  -5   0    0.04    0.16 
   3  -5   0    0.28    0.13 
  -3   5   0    0.42    0.12 
   2  -5   0    2.86    0.37 
   2  -5   0    2.84    0.25 
   1  -5   0    5.09    0.39 
   0  -5   0   -0.03    0.08 
   0  -5   0   -0.02    0.09 
  -1  -5   0    4.29    0.34 
  -1  -5   0    5.92    0.36 
  -2  -5   0    2.66    0.33 
  -2  -5   0    3.53    0.27 
  -3  -5   0    0.24    0.19 
  -3  -5   0    0.44    0.14 
  -4  -5   0    0.76    0.27 
  -5  -5   0   -0.12    0.24 
  -6  -5   0    1.73    0.46 
   6  -6   0    2.51    0.61 
   5  -6   0    2.32    0.50 
   4  -6   0    0.91    0.34 
   3  -6   0   20.34    1.10 
   2  -6   0    0.88    0.25 
   2  -6   0    1.07    0.19 
   1  -6   0    0.76    0.16 
   1  -6   0    0.66    0.20 
   0  -6   0   14.37    0.73 
   0  -6   0   15.14    0.67 
  -1  -6   0    0.98    0.21 
  -1  -6   0    0.90    0.20 
  -2  -6   0    1.57    0.29 
  -2  -6   0    1.41    0.23 
  -3  -6   0   18.48    0.98 
  -4  -6   0    0.99    0.31 
  -5  -6   0    2.28    0.47 
  -6  -6   0    3.23    0.59 
   5  -7   0    2.84    0.58 
   4  -7   0    0.29    0.29 
   3  -7   0    1.24    0.36 
   2  -7   0    2.33    0.27 
   2  -7   0    1.82    0.38 
   1  -7   0   68.26    2.24 
   1  -7   0   66.13    2.46 
   0  -7   0    0.05    0.15 
   0  -7   0   -0.07    0.13 
  -1  -7   0   69.13    2.34 
  -1  -7   0   63.45    2.29 
  -2  -7   0    2.54    0.39 
  -2  -7   0    2.46    0.32 
  -3  -7   0    1.40    0.34 
  -4  -7   0    0.80    0.33 
  -5  -7   0    2.90    0.55 
   5  -8   0    0.96    0.43 
   4  -8   0    5.98    0.74 
   3  -8   0    2.19    0.46 
   2  -8   0   44.58    1.92 
   1  -8   0   33.59    1.53 
   1  -8   0   36.50    1.36 
   0  -8   0   17.38    0.91 
   0  -8   0   14.93    0.77 
  -1  -8   0   38.18    1.48 
  -1  -8   0   35.72    1.50 
  -2  -8   0   40.51    1.68 
  -3  -8   0    1.47    0.37 
  -4  -8   0    4.74    0.63 
  -5  -8   0    1.59    0.46 
   4  -9   0    3.33    0.65 
   3  -9   0    3.38    0.60 
   2  -9   0    0.33    0.27 
   1  -9   0    9.64    0.61 
   1  -9   0    9.75    0.74 
   0  -9   0   -0.05    0.18 
   0  -9   0    0.03    0.17 
  -1  -9   0   10.92    0.71 
  -1  -9   0   10.37    0.69 
  -2  -9   0   -0.12    0.21 
  -3  -9   0    3.99    0.55 
  -4  -9   0    4.14    0.62 
   4 -10   0    0.03    0.30 
   3 -10   0    0.13    0.29 
   2 -10   0    6.79    0.78 
   1 -10   0    0.91    0.35 
   0 -10   0   24.49    1.28 
   0 -10   0   23.71    1.11 
  -1 -10   0    0.89    0.30 
  -2 -10   0    6.34    0.65 
  -3 -10   0    0.13    0.29 
  -4 -10   0    0.70    0.37 
   3 -11   0    1.85    0.54 
   2 -11   0   -0.10    0.32 
   1 -11   0    3.51    0.64 
  -1 -11   0    3.86    0.51 
  -2 -11   0    0.13    0.27 
  -3 -11   0    1.53    0.44 
   1 -12   0    0.28    0.39 
   1 -12   1    0.46    0.40 
  -3 -11   1    0.88    0.39 
  -2 -11   1    0.52    0.32 
  -1 -11   1    1.15    0.35 
   0 -11   1    1.25    0.41 
   1 -11   1    0.83    0.38 
   2 -11   1    0.12    0.32 
   3 -11   1    0.69    0.41 
  -4 -10   1    0.09    0.32 
  -3 -10   1    0.41    0.28 
  -2 -10   1    1.75    0.40 
  -1 -10   1    1.49    0.35 
   0 -10   1    0.72    0.30 
   0 -10   1    0.42    0.25 
   1 -10   1    1.12    0.35 
   2 -10   1    2.18    0.48 
   3 -10   1    0.07    0.31 
   4 -10   1    0.54    0.44 
  -4  -9   1    0.98    0.36 
  -3  -9   1    0.91    0.35 
  -2  -9   1    4.33    0.51 
  -1  -9   1    3.29    0.45 
  -1  -9   1    3.46    0.44 
   0  -9   1   -0.09    0.20 
   0  -9   1    0.40    0.21 
   1  -9   1    3.28    0.51 
   2  -9   1    5.33    0.65 
   3  -9   1    1.58    0.43 
   4  -9   1    0.32    0.36 
  -5  -8   1    0.64    0.37 
  -4  -8   1    0.47    0.31 
  -3  -8   1    7.59    0.70 
  -2  -8   1   14.46    0.86 
  -1  -8   1    3.94    0.44 
  -1  -8   1    4.15    0.42 
   0  -8   1    3.53    0.44 
   0  -8   1    3.57    0.36 
   1  -8   1    4.29    0.52 
   2  -8   1   11.95    0.85 
   3  -8   1    6.19    0.69 
   4  -8   1    0.58    0.34 
   5  -8   1    0.99    0.45 
  -5  -7   1    0.35    0.31 
  -4  -7   1    8.18    0.74 
  -3  -7   1    3.73    0.49 
  -2  -7   1   16.23    0.88 
  -2  -7   1   15.55    0.78 
  -1  -7   1   20.57    0.95 
  -1  -7   1   19.42    0.92 
   0  -7   1   11.53    0.68 
   0  -7   1   11.25    0.59 
   2  -7   1   15.44    0.91 
   3  -7   1    3.57    0.52 
   4  -7   1    8.02    0.82 
   5  -7   1    0.22    0.31 
  -6  -6   1   -0.18    0.28 
  -5  -6   1    3.28    0.52 
  -4  -6   1    1.26    0.34 
  -3  -6   1   36.05    1.37 
  -3  -6   1   37.41    1.56 
  -2  -6   1    4.14    0.35 
  -2  -6   1    3.21    0.39 
  -1  -6   1   17.38    0.83 
  -1  -6   1   19.99    0.86 
   0  -6   1   12.81    0.68 
   0  -6   1   12.75    0.60 
   1  -6   1    8.34    0.42 
   2  -6   1    3.35    0.27 
   2  -6   1    2.60    0.39 
  -3   6  -1   32.20    1.19 
   3  -6   1   37.78    1.59 
   4  -6   1    1.81    0.44 
   5  -6   1    3.97    0.65 
   6  -6   1    0.16    0.37 
  -6  -5   1    1.58    0.44 
  -5  -5   1    3.23    0.53 
  -4  -5   1   15.69    0.93 
  -3  -5   1    8.05    0.59 
  -3  -5   1    8.54    0.46 
  -2  -5   1    7.48    0.51 
  -2  -5   1    7.55    0.42 
  -1  -5   1   20.82    0.86 
  -1  -5   1   20.92    0.89 
   0  -5   1   14.83    0.71 
   0  -5   1   15.22    0.63 
   1  -5   1   20.26    0.92 
   1  -5   1   20.45    0.76 
   2  -5   1    6.99    0.37 
   2  -5   1    6.54    0.50 
  -3   5  -1    8.48    0.41 
   3  -5   1    7.83    0.43 
   3  -5   1    6.74    0.60 
  -4   5  -1   12.53    0.58 
   4  -5   1   13.31    0.86 
   5  -5   1    3.88    0.61 
   6  -5   1    1.90    0.51 
  -6  -4   1    1.87    0.46 
  -5  -4   1    0.59    0.29 
  -4  -4   1    2.15    0.38 
  -4  -4   1    1.94    0.24 
  -3  -4   1   15.86    0.84 
  -3  -4   1   17.11    0.69 
  -2  -4   1   14.29    0.72 
  -2  -4   1   14.56    0.60 
  -1  -4   1   49.17    1.71 
  -1  -4   1   51.11    1.68 
   0  -4   1   24.31    0.88 
   0  -4   1   24.27    0.94 
   1  -4   1   49.64    1.59 
   1  -4   1   50.66    1.77 
  -2   4  -1   14.66    0.55 
   2  -4   1   14.78    0.59 
   2  -4   1   13.09    0.72 
  -3   4  -1   18.24    0.67 
   3  -4   1   16.09    0.88 
  -4   4  -1    1.97    0.24 
   4  -4   1    2.67    0.44 
   5  -4   1    0.54    0.29 
   6  -4   1    1.07    0.42 
  -7  -3   1    0.60    0.37 
  -6  -3   1    2.09    0.43 
  -5  -3   1    0.59    0.26 
  -4  -3   1    5.73    0.52 
  -4  -3   1    5.15    0.38 
  -3  -3   1   16.38    0.81 
  -3  -3   1   16.95    0.68 
  -2  -3   1   72.48    2.41 
  -2  -3   1   71.93    2.27 
  -1  -3   1   68.56    2.11 
  -1  -3   1   64.68    2.16 
   0  -3   1    0.41    0.11 
   0  -3   1    0.25    0.08 
  -1   3  -1   66.79    1.97 
   1  -3   1   66.09    2.06 
   1  -3   1   69.57    2.23 
  -2   3  -1   73.54    2.12 
   2  -3   1   71.17    2.43 
   2  -3   1   70.75    2.24 
  -3   3  -1   16.60    0.64 
   3  -3   1   16.87    0.84 
  -4   3  -1    5.63    0.36 
   4  -3   1    5.23    0.53 
  -5   3  -1    0.66    0.19 
   5  -3   1    0.28    0.23 
   6  -3   1    1.50    0.43 
   7  -3   1    0.54    0.44 
  -7  -2   1    0.77    0.38 
  -6  -2   1    1.46    0.38 
  -5  -2   1   14.05    0.75 
  -5  -2   1   14.18    0.85 
  -4  -2   1    1.94    0.32 
  -4  -2   1    1.88    0.26 
  -3  -2   1   23.68    0.92 
  -2  -2   1   64.60    2.04 
  -2  -2   1   63.71    2.13 
  -1  -2   1    0.93    0.13 
  -1  -2   1    0.81    0.09 
   0  -2   1   92.98    2.82 
   0  -2   1   90.53    2.77 
  -1   2  -1    0.92    0.09 
   1  -2   1    0.82    0.08 
   1  -2   1    0.49    0.12 
  -2   2  -1   62.93    1.84 
   2  -2   1   60.73    2.07 
  -3   2  -1   21.20    0.78 
   3  -2   1   21.53    0.95 
  -4   2  -1    2.06    0.25 
   4  -2   1    1.97    0.33 
  -5   2  -1   13.96    0.70 
   5  -2   1   14.37    0.87 
  -6   2  -1    2.21    0.36 
   6  -2   1    2.41    0.48 
  -6  -1   1    0.82    0.29 
  -5  -1   1   -0.09    0.19 
  -5  -1   1    0.53    0.20 
  -4  -1   1   10.69    0.59 
   3   1  -1   22.90    0.94 
  -2  -1   1   51.19    1.67 
  -1  -1   1   64.18    1.97 
   0  -1   1  311.21    9.26 
  -1   1  -1   61.35    1.77 
   1  -1   1   62.21    1.95 
  -2   1  -1   49.17    1.49 
   2  -1   1   47.86    1.64 
  -3   1  -1   21.19    0.82 
   3  -1   1   23.22    0.95 
  -4   1  -1   12.06    0.60 
   4  -1   1   11.22    0.66 
  -5   1  -1    0.17    0.15 
   5  -1   1    0.41    0.24 
  -6   1  -1    0.81    0.25 
   6  -1   1    0.84    0.35 
   6   0  -1   -0.16    0.25 
  -6   0   1    0.30    0.27 
   5   0  -1    0.55    0.25 
   4   0  -1   11.62    0.67 
   3   0  -1    0.43    0.15 
   2   0  -1   39.79    1.37 
   1   0  -1  301.83    8.98 
   0   0  -1   -0.18    0.01 
   0   0  -1   -0.18    0.00 
   0   0   1   -0.18    0.00 
   2   0   1   41.04    1.39 
   3   0   1    0.56    0.15 
   4   0   1   10.43    0.61 
  -5   0  -1    0.75    0.25 
   5   0   1    0.82    0.27 
  -6   0  -1    0.06    0.21 
  -6   0  -1    0.50    0.22 
  -7   0  -1    0.09    0.27 
   6  -1  -1    0.36    0.30 
  -6   1   1    1.15    0.29 
   5  -1  -1    0.33    0.25 
  -5   1   1    0.31    0.17 
   4  -1  -1   10.66    0.65 
   3  -1  -1   20.98    0.92 
   2  -1  -1   47.88    1.64 
   1  -1  -1   53.23    1.81 
   1  -1  -1   60.48    1.87 
  -1   1   1   62.50    1.67 
   0  -1  -1  307.89    9.13 
   0  -1  -1  304.28    9.02 
  -1  -1  -1   62.91    1.97 
  -1  -1  -1   63.47    1.92 
  -2  -1  -1   45.78    1.58 
   2   1   1   48.64    1.55 
  -4  -1  -1   11.72    0.65 
   4   1   1    9.71    0.58 
  -5  -1  -1    0.49    0.23 
  -5  -1  -1    0.36    0.18 
  -6  -1  -1    1.05    0.32 
  -7  -1  -1   -0.02    0.24 
   7  -2  -1    0.57    0.45 
   6  -2  -1    2.13    0.45 
   5  -2  -1   12.32    0.83 
  -5   2   1   14.27    0.69 
   4  -2  -1    1.78    0.34 
  -4   2   1    1.96    0.24 
   3  -2  -1   20.52    0.95 
  -3   2   1   21.88    0.77 
   2  -2  -1   62.11    2.09 
  -2   2   1   61.63    1.80 
   1  -2  -1    0.81    0.13 
  -1   2   1    0.70    0.07 
   0  -2  -1   88.68    2.73 
   0  -2  -1   91.93    2.77 
  -1  -2  -1    0.79    0.08 
  -1  -2  -1    0.84    0.13 
  -2  -2  -1   61.00    2.03 
  -2  -2  -1   61.51    1.91 
  -3  -2  -1   22.92    0.96 
  -3  -2  -1   22.04    0.84 
  -4  -2  -1    2.09    0.33 
  -4  -2  -1    2.18    0.25 
  -5  -2  -1   12.64    0.77 
  -6  -2  -1    1.82    0.40 
   7  -3  -1   -0.06    0.37 
   6  -3  -1    1.63    0.45 
   5  -3  -1    0.59    0.28 
   4  -3  -1    5.84    0.56 
  -4   3   1    5.39    0.34 
   3  -3  -1   16.72    0.84 
  -3   3   1   16.47    0.62 
   2  -3  -1   74.13    2.34 
   2  -3  -1   72.20    2.47 
  -2   3   1   73.31    2.12 
   1  -3  -1   68.95    2.27 
   0  -3  -1    0.32    0.08 
   0  -3  -1    0.31    0.09 
  -1  -3  -1   66.17    2.17 
  -1  -3  -1   68.17    2.10 
  -2  -3  -1   68.11    2.13 
  -2  -3  -1   68.79    2.29 
  -3  -3  -1   17.08    0.65 
  -3  -3  -1   16.74    0.82 
  -4  -3  -1    6.35    0.53 
  -4  -3  -1    5.10    0.35 
  -5  -3  -1    1.20    0.33 
  -6  -3  -1    1.43    0.38 
  -7  -3  -1    0.14    0.36 
   6  -4  -1    1.75    0.46 
   5  -4  -1    0.07    0.23 
   4  -4  -1    1.75    0.37 
  -4   4   1    2.27    0.24 
   3  -4  -1   15.46    0.85 
  -3   4   1   16.32    0.60 
   2  -4  -1   14.09    0.61 
   2  -4  -1   12.90    0.70 
  -2   4   1   15.42    0.53 
   1  -4  -1   46.70    1.56 
   1  -4  -1   49.21    1.70 
   0  -4  -1   24.78    0.94 
   0  -4  -1   24.82    0.90 
  -1  -4  -1   52.24    1.77 
  -1  -4  -1   51.63    1.70 
  -2  -4  -1   15.49    0.61 
  -2  -4  -1   16.05    0.75 
  -3  -4  -1   17.57    0.67 
  -3  -4  -1   15.44    0.84 
  -4  -4  -1    1.74    0.34 
  -5  -4  -1    0.43    0.27 
  -6  -4  -1    2.19    0.47 
   6  -5  -1    1.11    0.41 
   5  -5  -1    2.43    0.50 
   4  -5  -1   14.01    0.92 
   3  -5  -1    7.63    0.65 
   3  -5  -1    8.42    0.48 
  -3   5   1    8.03    0.39 
   2  -5  -1    6.77    0.40 
   2  -5  -1    7.79    0.54 
   1  -5  -1   21.11    0.91 
   1  -5  -1   19.16    0.77 
   0  -5  -1   14.69    0.67 
   0  -5  -1   14.14    0.62 
  -1  -5  -1   20.58    0.83 
  -1  -5  -1   20.97    0.88 
  -2  -5  -1    7.07    0.49 
  -2  -5  -1    7.39    0.40 
  -3  -5  -1    8.84    0.44 
  -3  -5  -1    7.25    0.55 
  -4  -5  -1   15.22    0.89 
  -5  -5  -1    2.03    0.41 
  -6  -5  -1    1.98    0.46 
   6  -6  -1   -0.22    0.31 
   5  -6  -1    3.58    0.60 
   4  -6  -1    1.71    0.42 
   3  -6  -1   36.85    1.63 
   2  -6  -1    3.06    0.42 
   2  -6  -1    3.06    0.29 
   1  -6  -1   17.73    0.76 
   1  -6  -1   19.52    0.91 
   0  -6  -1   13.42    0.68 
   0  -6  -1   12.86    0.62 
  -1  -6  -1   19.20    0.82 
  -1  -6  -1   17.24    0.82 
  -2  -6  -1    3.91    0.32 
  -2  -6  -1    3.23    0.40 
  -3  -6  -1   37.35    1.58 
  -4  -6  -1    1.53    0.37 
  -5  -6  -1    3.40    0.54 
  -6  -6  -1    0.32    0.35 
   5  -7  -1    0.32    0.31 
   4  -7  -1    7.13    0.77 
   3  -7  -1    4.70    0.59 
   2  -7  -1   15.94    0.92 
   2  -7  -1   15.02    0.72 
   1  -7  -1   21.67    0.89 
   1  -7  -1   19.63    1.02 
   0  -7  -1   10.75    0.65 
   0  -7  -1   11.23    0.59 
  -1  -7  -1   23.85    1.02 
  -1  -7  -1   21.81    0.99 
  -2  -7  -1   16.99    0.89 
  -2  -7  -1   15.72    0.77 
  -3  -7  -1    4.06    0.51 
  -4  -7  -1    9.54    0.81 
  -5  -7  -1    0.36    0.30 
   5  -8  -1    0.07    0.32 
   4  -8  -1   -0.07    0.27 
   3  -8  -1    8.21    0.79 
   2  -8  -1   12.00    0.83 
   1  -8  -1    4.19    0.37 
   1  -8  -1    3.27    0.46 
   0  -8  -1    3.46    0.43 
   0  -8  -1    4.34    0.40 
  -1  -8  -1    4.10    0.44 
  -1  -8  -1    5.38    0.48 
  -2  -8  -1   13.71    0.82 
  -3  -8  -1    8.68    0.74 
  -4  -8  -1    0.38    0.30 
  -5  -8  -1    1.53    0.47 
   4  -9  -1    0.33    0.37 
   3  -9  -1    1.68    0.43 
   2  -9  -1    4.76    0.64 
   1  -9  -1    2.80    0.46 
   1  -9  -1    3.58    0.39 
   0  -9  -1   -0.14    0.18 
   0  -9  -1    0.25    0.21 
  -1  -9  -1    3.03    0.42 
  -1  -9  -1    3.94    0.47 
  -2  -9  -1    5.07    0.54 
  -3  -9  -1    0.71    0.30 
  -4  -9  -1    0.63    0.34 
   4 -10  -1    0.59    0.38 
   3 -10  -1    0.22    0.34 
   2 -10  -1    1.21    0.41 
   1 -10  -1    0.82    0.35 
   0 -10  -1    0.40    0.28 
   0 -10  -1    0.11    0.21 
  -1 -10  -1    1.21    0.32 
  -2 -10  -1    1.85    0.40 
  -3 -10  -1    0.49    0.31 
  -4 -10  -1    0.90    0.38 
   3 -11  -1    1.08    0.50 
   2 -11  -1    0.66    0.41 
   1 -11  -1    0.26    0.32 
  -1 -11  -1    1.03    0.35 
  -2 -11  -1    0.88    0.35 
  -3 -11  -1    1.57    0.48 
  -1 -12  -1    0.50    0.39 
   1 -12   2    1.49    0.49 
  -3 -11   2    0.51    0.35 
  -2 -11   2    0.95    0.38 
  -1 -11   2    1.22    0.36 
   0 -11   2    3.49    0.57 
   1 -11   2    1.36    0.43 
   2 -11   2    1.08    0.42 
   3 -11   2    1.18    0.48 
  -4 -10   2    0.81    0.38 
  -3 -10   2    2.11    0.47 
  -2 -10   2    3.01    0.49 
  -1 -10   2    2.45    0.45 
  -1 -10   2    2.71    0.42 
   0 -10   2    0.88    0.32 
   0 -10   2    0.73    0.27 
   1 -10   2    2.90    0.51 
   2 -10   2    2.62    0.54 
   3 -10   2    2.60    0.57 
   4 -10   2    0.29    0.36 
  -4  -9   2    2.82    0.53 
  -3  -9   2    2.76    0.49 
  -2  -9   2    4.09    0.51 
  -1  -9   2   11.30    0.74 
  -1  -9   2   10.45    0.68 
   0  -9   2    0.07    0.20 
   0  -9   2    0.03    0.17 
   1  -9   2    9.52    0.80 
   2  -9   2    3.74    0.58 
   3  -9   2    3.63    0.60 
   4  -9   2    2.54    0.58 
  -5  -8   2    2.42    0.53 
  -4  -8   2    3.64    0.57 
  -3  -8   2   11.28    0.81 
  -2  -8   2   19.00    1.01 
  -2  -8   2   18.50    0.94 
  -1  -8   2    5.27    0.46 
  -1  -8   2    4.34    0.47 
   0  -8   2   22.24    1.08 
   0  -8   2   20.70    0.93 
   1  -8   2    4.43    0.35 
   1  -8   2    4.99    0.56 
   2  -8   2   18.10    1.07 
   3  -8   2    8.38    0.80 
   4  -8   2    3.22    0.60 
   5  -8   2    2.64    0.60 
  -5  -7   2    0.69    0.34 
  -4  -7   2    2.52    0.46 
  -3  -7   2    2.34    0.41 
  -2  -7   2    1.31    0.26 
  -2  -7   2    0.58    0.23 
  -1  -7   2   16.13    0.83 
  -1  -7   2   19.14    0.90 
   0  -7   2   45.28    1.58 
   0  -7   2   42.40    1.71 
   1  -7   2   18.29    0.96 
   1  -7   2   16.94    0.74 
   2  -7   2    0.74    0.26 
   3  -7   2    2.40    0.45 
   4  -7   2    2.57    0.50 
   5  -7   2    0.42    0.35 
  -6  -6   2    0.12    0.33 
  -5  -6   2    2.00    0.46 
  -4  -6   2    1.79    0.39 
  -3  -6   2    2.92    0.32 
  -3  -6   2    2.94    0.43 
  -2  -6   2    0.61    0.18 
  -2  -6   2    0.34    0.21 
  -1  -6   2   14.57    0.71 
  -1  -6   2   14.04    0.70 
   0  -6   2    0.03    0.10 
   0  -6   2    0.01    0.12 
   1  -6   2   12.86    0.74 
   1  -6   2   13.64    0.58 
   2  -6   2    0.11    0.17 
   2  -6   2    0.37    0.13 
  -3   6  -2    3.40    0.30 
   3  -6   2    2.37    0.42 
   4  -6   2    2.57    0.50 
   5  -6   2    1.54    0.45 
   6  -6   2    0.59    0.40 
  -6  -5   2    1.84    0.46 
  -5  -5   2    0.69    0.32 
  -4  -5   2    0.67    0.28 
  -3  -5   2    1.44    0.21 
  -3  -5   2    1.16    0.29 
  -2  -5   2    0.61    0.20 
  -2  -5   2    0.54    0.15 
  -1  -5   2   26.94    1.05 
  -1  -5   2   25.81    1.03 
   0  -5   2    0.06    0.09 
   0  -5   2    0.13    0.11 
   1  -5   2   27.54    0.96 
   1  -5   2   27.11    1.14 
  -2   5  -2    0.69    0.14 
   2  -5   2    0.73    0.13 
   2  -5   2    0.67    0.20 
  -3   5  -2    1.14    0.18 
   3  -5   2    0.77    0.27 
  -4   5  -2    0.20    0.13 
   4  -5   2    0.43    0.26 
   5  -5   2    1.47    0.45 
   6  -5   2    1.48    0.44 
  -6  -4   2    1.25    0.39 
  -5  -4   2    5.75    0.63 
  -4  -4   2    5.34    0.54 
  -4  -4   2    5.32    0.38 
  -3  -4   2    4.75    0.32 
  -3  -4   2    4.41    0.44 
  -2  -4   2    0.54    0.17 
  -2  -4   2    0.98    0.16 
  -1  -4   2   40.33    1.40 
  -1  -4   2   40.35    1.43 
   0  -4   2   31.38    1.20 
   0  -4   2   33.83    1.14 
   1  -4   2   38.63    1.24 
   1  -4   2   38.40    1.43 
  -2   4  -2    0.84    0.14 
   2  -4   2    0.88    0.22 
   2  -4   2    0.88    0.12 
  -3   4  -2    4.97    0.30 
   3  -4   2    4.84    0.48 
  -4   4  -2    5.86    0.38 
   4  -4   2    5.26    0.55 
  -5   4  -2    4.35    0.38 
   5  -4   2    3.74    0.56 
   6  -4   2    0.47    0.35 
  -7  -3   2    0.26    0.36 
  -6  -3   2   -0.05    0.25 
  -5  -3   2   -0.02    0.21 
  -4  -3   2    2.78    0.40 
  -4  -3   2    2.22    0.28 
  -3  -3   2    4.55    0.31 
  -3  -3   2    5.29    0.45 
  -2  -3   2    3.97    0.25 
  -2  -3   2    3.52    0.33 
  -1  -3   2   29.00    0.99 
  -1  -3   2   27.55    1.03 
   0  -3   2   75.53    2.34 
   0  -3   2   70.46    2.26 
  -1   3  -2   29.13    0.93 
   1  -3   2   28.79    1.09 
   1  -3   2   29.39    0.93 
  -2   3  -2    3.65    0.23 
   2  -3   2    2.93    0.31 
   2  -3   2    3.45    0.21 
  -3   3  -2    5.14    0.31 
   3  -3   2    4.58    0.44 
  -4   3  -2    3.09    0.30 
   4  -3   2    2.52    0.39 
  -5   3  -2    0.10    0.15 
   5  -3   2    0.27    0.26 
   6  -3   2   -0.02    0.27 
  -7  -2   2    0.73    0.39 
  -6  -2   2    1.92    0.44 
  -5  -2   2    5.64    0.58 
  -5  -2   2    6.84    0.50 
  -4  -2   2    3.66    0.34 
  -3  -2   2    4.67    0.33 
  -2  -2   2   23.40    0.85 
  -1  -2   2  175.65    5.27 
   0  -2   2  545.11   16.14 
  -1   2  -2  182.42    5.12 
   1  -2   2  180.97    5.43 
   1  -2   2  187.38    5.59 
  -2   2  -2   22.67    0.76 
   2  -2   2   21.73    0.90 
  -3   2  -2    5.26    0.32 
   3  -2   2    4.81    0.41 
  -4   2  -2    3.61    0.32 
   4  -2   2    3.22    0.40 
  -5   2  -2    5.73    0.47 
   5  -2   2    6.20    0.60 
  -6   2  -2    2.46    0.39 
   6  -2   2    1.86    0.44 
  -6  -1   2    4.42    0.56 
  -5  -1   2    9.47    0.62 
  -4  -1   2   10.70    0.60 
  -3  -1   2   27.85    1.07 
  -2  -1   2   21.76    0.82 
  -1  -1   2  160.19    4.81 
   0  -1   2   51.88    1.61 
  -1   1  -2  150.22    4.30 
   1  -1   2  157.87    4.66 
  -2   1  -2   20.40    0.70 
   2  -1   2   19.19    0.78 
  -3   1  -2   28.43    1.00 
   3  -1   2   27.23    1.10 
  -4   1  -2    9.38    0.52 
   4  -1   2    8.86    0.58 
  -5   1  -2    9.06    0.57 
  -5   1  -2    9.63    0.60 
   5  -1   2    9.19    0.66 
  -6   1  -2    3.69    0.45 
   6  -1   2    3.93    0.55 
  -6   0   2    2.01    0.38 
   5   0  -2   18.03    1.00 
   4   0  -2   21.17    1.00 
   3   0  -2   30.70    1.20 
   2   0  -2   95.08    3.02 
   1   0  -2  287.55    8.58 
   0   0  -2  120.46    3.59 
  -1   0  -2  288.09    8.49 
   2   0   2   87.41    2.74 
   3   0   2   29.84    1.13 
  -4   0  -2   20.81    0.92 
   4   0   2   21.07    0.94 
  -5   0  -2   16.41    0.83 
   5   0   2   14.80    0.85 
  -6   0  -2    1.67    0.34 
  -7   0  -2    0.23    0.27 
   6  -1  -2    4.24    0.59 
   5  -1  -2    9.18    0.69 
  -5   1   2    9.24    0.55 
   4  -1  -2    9.47    0.62 
   3  -1  -2   26.81    1.11 
   2  -1  -2   20.17    0.82 
   1  -1  -2  166.31    4.92 
   1  -1  -2  160.57    4.97 
  -1   1   2  165.65    4.56 
   0  -1  -2   48.35    1.51 
   0  -1  -2   50.82    1.53 
  -1  -1  -2  161.56    4.91 
  -1  -1  -2  167.05    4.94 
  -2  -1  -2   19.52    0.78 
   2   1   2   21.50    0.75 
  -3  -1  -2   26.82    1.04 
   3   1   2   26.03    1.00 
  -6  -1  -2    4.15    0.52 
  -7  -1  -2    0.22    0.26 
   7  -2  -2    0.47    0.43 
   6  -2  -2    1.91    0.48 
   5  -2  -2    7.54    0.67 
  -5   2   2    6.79    0.45 
   4  -2  -2    3.13    0.42 
  -4   2   2    4.08    0.31 
   3  -2  -2    4.60    0.42 
  -3   2   2    4.87    0.27 
   2  -2  -2   23.26    0.86 
   2  -2  -2   20.79    0.91 
  -2   2   2   22.91    0.72 
   1  -2  -2  182.11    5.49 
   1  -2  -2  185.87    5.59 
  -1   2   2  182.68    5.08 
   0  -2  -2  533.61   15.76 
   0  -2  -2  531.90   15.62 
  -1  -2  -2  197.54    5.92 
  -1  -2  -2  199.57    5.95 
  -2  -2  -2   22.98    0.91 
  -2  -2  -2   23.36    0.78 
  -3  -2  -2    5.17    0.31 
  -3  -2  -2    5.75    0.41 
  -4  -2  -2    3.59    0.39 
  -4  -2  -2    3.92    0.30 
  -5  -2  -2    6.37    0.57 
  -6  -2  -2    2.03    0.41 
   7  -3  -2   -0.09    0.36 
   6  -3  -2    0.18    0.29 
   5  -3  -2    0.65    0.28 
   4  -3  -2    2.44    0.40 
  -4   3   2    2.39    0.23 
   3  -3  -2    4.69    0.45 
  -3   3   2    4.61    0.26 
   2  -3  -2    3.91    0.36 
  -2   3   2    3.75    0.19 
   1  -3  -2   29.40    1.01 
   1  -3  -2   29.33    1.09 
   0  -3  -2   73.33    2.31 
   0  -3  -2   75.28    2.35 
  -1  -3  -2   30.31    1.12 
  -1  -3  -2   32.78    1.04 
  -2  -3  -2    3.52    0.20 
  -2  -3  -2    3.14    0.30 
  -3  -3  -2    4.53    0.41 
  -3  -3  -2    4.70    0.27 
  -4  -3  -2    2.56    0.37 
  -4  -3  -2    2.58    0.25 
  -5  -3  -2    0.49    0.26 
  -6  -3  -2    0.13    0.25 
  -7  -3  -2   -0.22    0.29 
   6  -4  -2    0.72    0.35 
   5  -4  -2    4.06    0.58 
   4  -4  -2    5.28    0.57 
   3  -4  -2    4.94    0.37 
   3  -4  -2    4.07    0.46 
  -3   4   2    5.52    0.28 
   2  -4  -2    0.98    0.22 
  -2   4   2    1.06    0.12 
   1  -4  -2   39.60    1.30 
   1  -4  -2   36.80    1.40 
   0  -4  -2   32.13    1.11 
   0  -4  -2   30.50    1.13 
  -1  -4  -2   40.11    1.35 
  -1  -4  -2   40.35    1.43 
  -2  -4  -2    0.91    0.13 
  -2  -4  -2    0.89    0.21 
  -3  -4  -2    4.89    0.28 
  -3  -4  -2    4.84    0.44 
  -4  -4  -2    5.90    0.55 
  -5  -4  -2    3.66    0.50 
  -6  -4  -2    0.93    0.36 
   6  -5  -2    1.55    0.48 
   5  -5  -2    0.63    0.33 
   4  -5  -2    0.35    0.24 
   3  -5  -2    1.20    0.22 
   3  -5  -2    0.63    0.23 
  -3   5   2    1.08    0.15 
   2  -5  -2    0.95    0.24 
   1  -5  -2   28.06    1.15 
   1  -5  -2   27.45    1.02 
   0  -5  -2    0.05    0.10 
   0  -5  -2    0.03    0.08 
  -1  -5  -2   28.05    1.09 
  -1  -5  -2   27.59    1.03 
  -2  -5  -2    0.24    0.15 
  -2  -5  -2    0.72    0.14 
  -3  -5  -2    1.03    0.27 
  -4  -5  -2    0.28    0.23 
  -5  -5  -2    1.04    0.34 
  -6  -5  -2    1.18    0.39 
   6  -6  -2   -0.07    0.33 
   5  -6  -2    1.06    0.38 
   4  -6  -2    2.14    0.45 
   3  -6  -2    2.73    0.31 
   3  -6  -2    1.97    0.38 
   2  -6  -2    0.02    0.09 
   2  -6  -2    0.25    0.19 
   1  -6  -2   13.06    0.73 
   1  -6  -2   13.81    0.63 
   0  -6  -2   -0.04    0.11 
   0  -6  -2    0.01    0.10 
  -1  -6  -2   13.08    0.66 
  -1  -6  -2   13.53    0.64 
  -2  -6  -2    0.54    0.16 
  -2  -6  -2    0.44    0.20 
  -3  -6  -2    2.98    0.44 
  -4  -6  -2    1.97    0.40 
  -5  -6  -2    1.63    0.41 
  -6  -6  -2    0.33    0.34 
   5  -7  -2    1.22    0.44 
   4  -7  -2    2.59    0.51 
   3  -7  -2    2.52    0.48 
   2  -7  -2    0.68    0.26 
   1  -7  -2   17.44    0.93 
   1  -7  -2   18.39    0.81 
   0  -7  -2   42.65    1.67 
   0  -7  -2   44.42    1.60 
  -1  -7  -2   17.69    0.84 
  -1  -7  -2   18.99    0.89 
  -2  -7  -2    0.70    0.27 
  -3  -7  -2    2.21    0.39 
  -4  -7  -2    2.48    0.46 
  -5  -7  -2    1.42    0.43 
   5  -8  -2    1.87    0.53 
   4  -8  -2    3.06    0.58 
   3  -8  -2    8.18    0.79 
   1  -8  -2    4.86    0.53 
   1  -8  -2    5.13    0.42 
   0  -8  -2   20.98    1.05 
   0  -8  -2   22.45    0.99 
  -1  -8  -2    5.13    0.46 
  -1  -8  -2    4.08    0.45 
  -2  -8  -2   17.65    0.95 
  -3  -8  -2    9.51    0.73 
  -4  -8  -2    3.90    0.58 
  -5  -8  -2    2.66    0.56 
   4  -9  -2    0.89    0.40 
   3  -9  -2    3.08    0.55 
   2  -9  -2    4.83    0.64 
   1  -9  -2   11.50    0.82 
   1  -9  -2   10.57    0.66 
   0  -9  -2    0.05    0.17 
   0  -9  -2   -0.03    0.18 
  -1  -9  -2   10.21    0.68 
  -2  -9  -2    3.81    0.50 
  -3  -9  -2    2.82    0.48 
  -4  -9  -2    2.54    0.50 
   4 -10  -2    0.30    0.35 
   3 -10  -2    2.97    0.61 
   2 -10  -2    1.96    0.48 
   1 -10  -2    2.08    0.46 
   0 -10  -2    0.58    0.26 
   0 -10  -2    1.01    0.34 
  -1 -10  -2    2.99    0.44 
  -2 -10  -2    2.70    0.46 
  -3 -10  -2    3.34    0.53 
  -4 -10  -2    0.37    0.36 
   3 -11  -2    2.37    0.57 
   2 -11  -2    1.28    0.45 
   1 -11  -2    0.96    0.40 
   0 -11  -2    3.68    0.50 
  -1 -11  -2    1.19    0.35 
  -2 -11  -2    0.77    0.35 
  -3 -11  -2    1.69    0.46 
  -1 -12  -2    1.17    0.39 
   1 -12   3    0.74    0.45 
  -3 -11   3    0.12    0.35 
  -2 -11   3    0.65    0.34 
  -1 -11   3    3.93    0.53 
   0 -11   3    0.00    0.26 
   1 -11   3    4.70    0.69 
   2 -11   3    0.30    0.35 
   3 -11   3    0.91    0.45 
  -4 -10   3    0.57    0.38 
  -3 -10   3    1.90    0.45 
  -2 -10   3    1.61    0.37 
  -1 -10   3    0.34    0.25 
  -1 -10   3    0.29    0.25 
   0 -10   3    0.00    0.24 
   1 -10   3    0.21    0.27 
   2 -10   3    1.12    0.39 
   3 -10   3    2.08    0.53 
   4 -10   3    0.32    0.36 
  -4  -9   3    0.42    0.32 
  -3  -9   3    0.70    0.33 
  -2  -9   3   -0.06    0.22 
  -1  -9   3    5.64    0.57 
  -1  -9   3    4.91    0.48 
   0  -9   3    5.50    0.59 
   0  -9   3    6.55    0.48 
   1  -9   3    6.08    0.66 
   2  -9   3   -0.03    0.21 
   3  -9   3    0.52    0.31 
   4  -9   3    0.46    0.36 
  -5  -8   3    0.50    0.37 
  -4  -8   3    3.23    0.53 
  -3  -8   3    1.14    0.35 
  -2  -8   3    4.33    0.46 
  -2  -8   3    4.66    0.51 
  -1  -8   3    2.90    0.40 
  -1  -8   3    2.56    0.35 
   0  -8   3    2.85    0.32 
   0  -8   3    2.31    0.39 
   1  -8   3    2.63    0.44 
   1  -8   3    2.64    0.28 
   2  -8   3    3.33    0.50 
   3  -8   3    0.56    0.33 
   4  -8   3    2.92    0.56 
   5  -8   3    0.47    0.41 
  -5  -7   3    0.27    0.30 
  -4  -7   3    1.32    0.36 
  -3  -7   3    8.79    0.68 
  -2  -7   3   31.85    1.28 
  -2  -7   3   29.27    1.32 
  -1  -7   3   39.57    1.53 
  -1  -7   3   39.07    1.56 
   0  -7   3   12.26    0.74 
   0  -7   3   13.32    0.64 
   1  -7   3   38.75    1.37 
   1  -7   3   39.82    1.63 
   2  -7   3   28.84    1.38 
   3  -7   3    8.86    0.78 
   4  -7   3    1.97    0.46 
   5  -7   3    0.78    0.39 
  -6  -6   3    0.10    0.33 
  -5  -6   3    0.30    0.30 
  -4  -6   3    8.52    0.74 
  -3  -6   3   11.28    0.75 
  -3  -6   3   10.53    0.59 
  -2  -6   3   54.73    2.00 
  -2  -6   3   52.86    1.91 
  -1  -6   3   14.45    0.71 
  -1  -6   3   12.86    0.68 
   0  -6   3   22.35    0.99 
   0  -6   3   21.42    0.87 
   1  -6   3   12.62    0.54 
   1  -6   3   13.07    0.73 
   2  -6   3   51.59    2.02 
   2  -6   3   52.02    1.71 
  -3   6  -3    9.85    0.51 
   3  -6   3    9.31    0.72 
  -4   6  -3    9.28    0.51 
   4  -6   3    9.62    0.83 
   5  -6   3    0.45    0.32 
   6  -6   3   -0.16    0.34 
  -6  -5   3    0.63    0.39 
  -5  -5   3    5.52    0.66 
  -4  -5   3    9.28    0.53 
  -4  -5   3    9.88    0.73 
  -3  -5   3   20.25    1.01 
  -3  -5   3   19.87    0.85 
  -2  -5   3   26.76    1.06 
  -2  -5   3   28.20    1.18 
  -1  -5   3   11.16    0.57 
  -1  -5   3   11.77    0.59 
   0  -5   3    2.43    0.29 
   0  -5   3    2.87    0.25 
   1  -5   3    9.87    0.43 
   1  -5   3   10.63    0.60 
  -2   5  -3   26.53    0.96 
   2  -5   3   25.95    1.18 
   2  -5   3   27.24    0.93 
  -3   5  -3   20.63    0.81 
   3  -5   3   21.52    1.07 
  -4   5  -3    8.76    0.49 
   4  -5   3    9.66    0.73 
   5  -5   3    4.76    0.65 
   6  -5   3    1.03    0.41 
  -6  -4   3    1.57    0.43 
  -5  -4   3    4.60    0.57 
  -4  -4   3    3.24    0.45 
  -4  -4   3    3.21    0.32 
  -3  -4   3    2.29    0.35 
  -3  -4   3    2.65    0.26 
  -2  -4   3   80.93    2.62 
  -2  -4   3   82.09    2.73 
  -1  -4   3    3.99    0.29 
  -1  -4   3    3.97    0.31 
   0  -4   3   41.04    1.42 
   0  -4   3   38.25    1.32 
   1  -4   3    4.29    0.34 
   1  -4   3    3.78    0.21 
  -2   4  -3   85.37    2.55 
   2  -4   3   85.36    2.91 
   2  -4   3   86.20    2.62 
  -3   4  -3    2.41    0.23 
   3  -4   3    1.72    0.31 
  -4   4  -3    3.23    0.31 
   4  -4   3    3.00    0.45 
  -5   4  -3    4.88    0.41 
   5  -4   3    3.93    0.57 
   6  -4   3    0.71    0.40 
  -7  -3   3    0.71    0.39 
  -6  -3   3    0.68    0.32 
  -5  -3   3    1.60    0.29 
  -5  -3   3    1.48    0.35 
  -4  -3   3    0.76    0.20 
  -4  -3   3    0.84    0.27 
  -3  -3   3   34.34    1.24 
  -3  -3   3   33.99    1.38 
  -2  -3   3   17.64    0.79 
  -2  -3   3   17.76    0.70 
  -1  -3   3   24.40    0.88 
  -1  -3   3   24.18    0.92 
   0  -3   3   -0.06    0.05 
   0  -3   3   -0.05    0.08 
  -1   3  -3   24.81    0.82 
   1  -3   3   24.82    0.79 
   1  -3   3   24.14    0.96 
  -2   3  -3   16.63    0.63 
   2  -3   3   17.27    0.79 
  -3   3  -3   35.71    1.19 
   3  -3   3   34.47    1.40 
  -4   3  -3    1.02    0.19 
   4  -3   3    1.06    0.28 
  -5   3  -3    1.49    0.27 
   5  -3   3    1.95    0.41 
   6  -3   3    0.12    0.29 
  -7  -2   3   -0.11    0.27 
  -6  -2   3    1.22    0.37 
  -5  -2   3    0.99    0.26 
  -5  -2   3    0.80    0.27 
  -4  -2   3   13.40    0.70 
  -3  -2   3   15.77    0.69 
  -2  -2   3   11.17    0.50 
  -1  -2   3  127.53    3.88 
   0  -2   3  310.74    9.27 
  -1   2  -3  132.19    3.72 
   1  -2   3  131.02    4.06 
  -2   2  -3   10.01    0.43 
   2  -2   3   10.31    0.52 
  -3   2  -3   14.46    0.61 
   3  -2   3   14.60    0.73 
  -4   2  -3   12.43    0.60 
   4  -2   3   11.33    0.70 
  -5   2  -3    0.82    0.23 
   5  -2   3    0.92    0.30 
  -6   2  -3    0.94    0.27 
   6  -2   3    1.25    0.40 
  -7  -1   3    0.43    0.36 
  -6  -1   3    0.33    0.28 
  -6  -1   3    0.35    0.23 
  -5  -1   3    3.13    0.40 
  -4  -1   3   16.06    0.79 
  -3  -1   3   12.98    0.63 
  -2  -1   3  117.58    3.65 
  -1  -1   3  708.86   20.93 
   0   1  -3   14.75    0.48 
   0  -1   3   15.23    0.53 
  -1   1  -3  846.49   23.23 
  -1   1  -3  718.69   21.23 
   1  -1   3  763.17   22.86 
  -2   1  -3  108.58    3.20 
   2  -1   3  112.85    3.47 
  -3   1  -3   13.16    0.58 
   3  -1   3   12.95    0.64 
  -4   1  -3   15.30    0.73 
  -4   1  -3   16.03    0.74 
   4  -1   3   16.69    0.82 
  -5   1  -3    2.74    0.36 
  -5   1  -3    3.06    0.35 
   5  -1   3    2.97    0.41 
  -6   1  -3    0.45    0.23 
   6  -1   3    0.38    0.32 
  -6   0   3    0.51    0.27 
   5   0  -3    0.79    0.29 
   4   0  -3    0.25    0.16 
   3   0  -3   35.51    1.37 
   2   0  -3    3.52    0.28 
   1   0  -3  195.78    5.90 
   0   0  -3   -1.11    0.04 
   0   0  -3   -1.25    0.05 
   0   0   3   -1.26    0.04 
  -1   0  -3  194.10    5.63 
  -1   0  -3  210.09    5.98 
  -3   0  -3   33.54    1.22 
   3   0   3   34.91    1.26 
  -4   0  -3    0.06    0.13 
   4   0   3    0.41    0.17 
  -5   0  -3    0.81    0.25 
  -5   0  -3    0.93    0.25 
   5   0   3    0.57    0.23 
  -6   0  -3    0.36    0.22 
  -7   0  -3    1.34    0.36 
   6  -1  -3    0.26    0.28 
   5  -1  -3    2.46    0.43 
   4  -1  -3   16.09    0.85 
   3  -1  -3   12.75    0.67 
   2  -1  -3  110.81    3.52 
   1  -1  -3  764.36   22.91 
   1  -1  -3  799.15   23.11 
   0  -1  -3   15.51    0.53 
   0  -1  -3   15.15    0.52 
  -1  -1  -3  833.94   24.41 
  -2  -1  -3  116.79    3.63 
   2   1   3  118.28    3.58 
  -3  -1  -3   12.58    0.61 
   3   1   3   13.40    0.59 
  -4  -1  -3   16.48    0.78 
   4   1   3   14.87    0.73 
  -5  -1  -3    2.73    0.39 
   5   1   3    3.03    0.39 
  -6  -1  -3    0.49    0.27 
  -7  -1  -3    0.00    0.24 
   7  -2  -3   -0.08    0.35 
   6  -2  -3    0.94    0.38 
   5  -2  -3    0.98    0.31 
  -5   2   3    1.44    0.25 
   4  -2  -3   10.99    0.71 
  -4   2   3   11.61    0.53 
   3  -2  -3   14.22    0.74 
  -3   2   3   13.83    0.54 
   2  -2  -3   10.37    0.50 
   2  -2  -3    9.84    0.54 
  -2   2   3   10.48    0.37 
   1  -2  -3  131.93    4.05 
   1  -2  -3  135.33    4.13 
   0  -2  -3  313.72    9.16 
   0  -2  -3  301.69    9.08 
  -1  -2  -3  143.01    4.26 
  -1  -2  -3  139.77    4.29 
  -2  -2  -3   10.27    0.37 
  -2  -2  -3    9.67    0.49 
  -3  -2  -3   15.13    0.71 
  -3  -2  -3   13.60    0.56 
  -4  -2  -3   11.25    0.66 
  -4  -2  -3   11.69    0.55 
  -5  -2  -3    0.76    0.27 
  -6  -2  -3    1.51    0.36 
   7  -3  -3    0.35    0.39 
   6  -3  -3    0.61    0.34 
   5  -3  -3    2.11    0.43 
   4  -3  -3    1.04    0.29 
  -4   3   3    1.02    0.17 
   3  -3  -3   34.97    1.44 
  -3   3   3   35.29    1.11 
   2  -3  -3   16.98    0.80 
   2  -3  -3   16.76    0.72 
  -2   3   3   17.87    0.57 
   1  -3  -3   24.53    0.95 
   1  -3  -3   24.40    0.88 
   0  -3  -3    0.11    0.08 
   0  -3  -3    0.04    0.07 
  -1  -3  -3   24.89    0.95 
  -1  -3  -3   25.91    0.85 
  -2  -3  -3   17.94    0.60 
  -2  -3  -3   17.26    0.76 
  -3  -3  -3   35.12    1.15 
  -3  -3  -3   34.05    1.35 
  -4  -3  -3    0.69    0.24 
  -5  -3  -3    1.07    0.29 
  -6  -3  -3    0.07    0.24 
  -7  -3  -3    0.12    0.35 
   6  -4  -3    1.30    0.44 
   5  -4  -3    3.29    0.53 
   4  -4  -3    2.52    0.43 
   3  -4  -3    2.57    0.38 
  -3   4   3    2.77    0.19 
   2  -4  -3   84.07    2.73 
   2  -4  -3   84.76    2.87 
   1  -4  -3    3.59    0.26 
   1  -4  -3    3.38    0.31 
   0  -4  -3   37.34    1.29 
   0  -4  -3   37.42    1.31 
  -1  -4  -3    3.64    0.30 
  -1  -4  -3    3.81    0.24 
  -2  -4  -3   90.89    2.74 
  -2  -4  -3   85.75    2.91 
  -3  -4  -3    2.65    0.20 
  -3  -4  -3    2.46    0.34 
  -4  -4  -3    1.96    0.34 
  -5  -4  -3    4.07    0.51 
  -6  -4  -3    1.55    0.40 
   6  -5  -3    0.96    0.42 
   5  -5  -3    6.48    0.74 
   4  -5  -3    7.33    0.70 
   3  -5  -3   20.34    1.06 
   2  -5  -3   26.91    1.06 
   2  -5  -3   27.77    1.20 
   1  -5  -3   11.40    0.62 
   1  -5  -3   11.11    0.53 
   0  -5  -3    2.65    0.25 
   0  -5  -3    2.90    0.28 
  -1  -5  -3   10.41    0.48 
  -1  -5  -3    9.42    0.53 
  -2  -5  -3   29.07    1.02 
  -2  -5  -3   28.45    1.20 
  -3  -5  -3   23.77    1.11 
  -4  -5  -3    8.98    0.67 
  -5  -5  -3    4.96    0.58 
  -6  -5  -3    0.65    0.34 
   6  -6  -3    0.34    0.35 
   5  -6  -3    0.09    0.29 
   4  -6  -3    8.47    0.80 
   3  -6  -3    9.49    0.58 
   3  -6  -3    8.93    0.69 
   2  -6  -3   55.49    2.08 
   2  -6  -3   52.70    1.89 
   1  -6  -3   13.92    0.75 
   1  -6  -3   14.11    0.65 
   0  -6  -3   20.57    0.88 
   0  -6  -3   21.90    0.93 
  -1  -6  -3   13.30    0.69 
  -1  -6  -3   14.32    0.65 
  -2  -6  -3   55.69    1.88 
  -2  -6  -3   57.12    2.07 
  -3  -6  -3   10.64    0.71 
  -4  -6  -3   10.55    0.77 
  -5  -6  -3    0.14    0.24 
  -6  -6  -3   -0.40    0.26 
   5  -7  -3    0.63    0.34 
   4  -7  -3    1.70    0.43 
   3  -7  -3    9.49    0.74 
   2  -7  -3   29.44    1.34 
   2  -7  -3   26.81    1.14 
   1  -7  -3   36.26    1.57 
   1  -7  -3   41.16    1.47 
   0  -7  -3   12.86    0.71 
   0  -7  -3   13.71    0.68 
  -1  -7  -3   41.48    1.56 
  -1  -7  -3   42.37    1.60 
  -2  -7  -3   28.20    1.24 
  -3  -7  -3    9.23    0.69 
  -4  -7  -3    1.47    0.38 
  -5  -7  -3    0.15    0.28 
   5  -8  -3   -0.19    0.31 
   4  -8  -3    3.04    0.58 
   3  -8  -3    0.34    0.28 
   2  -8  -3    3.72    0.39 
   2  -8  -3    4.43    0.56 
   1  -8  -3    2.84    0.35 
   1  -8  -3    2.39    0.40 
   0  -8  -3    2.45    0.37 
   0  -8  -3    2.30    0.33 
  -1  -8  -3    2.35    0.36 
  -1  -8  -3    2.76    0.35 
  -2  -8  -3    3.85    0.47 
  -3  -8  -3    0.41    0.26 
  -4  -8  -3    3.12    0.51 
  -5  -8  -3    0.00    0.28 
   4  -9  -3    0.70    0.36 
   3  -9  -3    1.18    0.40 
   2  -9  -3    0.08    0.20 
   1  -9  -3    5.48    0.61 
   1  -9  -3    5.65    0.50 
   0  -9  -3    6.90    0.61 
   0  -9  -3    6.09    0.52 
  -1  -9  -3    5.92    0.54 
  -2  -9  -3   -0.04    0.21 
  -3  -9  -3    0.90    0.32 
  -4  -9  -3    0.62    0.32 
   4 -10  -3    0.33    0.38 
   3 -10  -3    2.21    0.54 
   2 -10  -3    1.72    0.45 
   1 -10  -3    0.58    0.31 
   0 -10  -3    0.18    0.22 
   0 -10  -3    0.11    0.24 
  -1 -10  -3    0.21    0.23 
  -2 -10  -3    2.18    0.44 
  -3 -10  -3    1.69    0.41 
  -4 -10  -3    0.28    0.36 
   3 -11  -3    0.72    0.42 
   2 -11  -3    0.16    0.33 
   1 -11  -3    4.87    0.69 
   0 -11  -3   -0.07    0.24 
  -1 -11  -3    4.97    0.58 
  -2 -11  -3    0.15    0.28 
  -3 -11  -3    0.46    0.36 
  -1 -12  -3    1.22    0.41 
  -3 -11   4    1.18    0.40 
  -2 -11   4    3.92    0.56 
   0 -11   4    2.92    0.55 
   1 -11   4   -0.02    0.30 
   2 -11   4    6.14    0.82 
  -4 -10   4   -0.16    0.31 
  -3 -10   4    1.53    0.43 
  -2 -10   4    3.63    0.52 
  -1 -10   4   11.44    0.75 
  -1 -10   4   10.89    0.80 
   0 -10   4    1.57    0.40 
   1 -10   4   11.24    0.94 
   2 -10   4    3.34    0.55 
   3 -10   4    1.99    0.52 
   4 -10   4    0.10    0.32 
  -4  -9   4    2.44    0.50 
  -3  -9   4    4.70    0.60 
  -2  -9   4    1.13    0.33 
  -2  -9   4    0.90    0.29 
  -1  -9   4    0.31    0.21 
  -1  -9   4    0.26    0.22 
   0  -9   4   13.88    0.75 
   0  -9   4   14.59    0.90 
   1  -9   4    0.22    0.24 
   2  -9   4    0.83    0.32 
   3  -9   4    3.42    0.57 
   4  -9   4    3.43    0.65 
  -5  -8   4    0.24    0.34 
  -4  -8   4    3.19    0.55 
  -3  -8   4   17.03    1.02 
  -2  -8   4    2.85    0.43 
  -2  -8   4    3.62    0.43 
  -1  -8   4   14.71    0.84 
  -1  -8   4   15.34    0.81 
   0  -8   4    1.96    0.37 
   0  -8   4    2.16    0.29 
   1  -8   4   17.09    0.98 
   2  -8   4    3.57    0.53 
   3  -8   4   15.99    1.05 
   4  -8   4    2.48    0.55 
   5  -8   4    1.05    0.44 
  -5  -7   4    0.18    0.32 
  -4  -7   4    2.87    0.49 
  -3  -7   4    7.69    0.53 
  -3  -7   4    6.90    0.64 
  -2  -7   4   18.37    0.95 
  -2  -7   4   18.40    0.91 
  -1  -7   4    4.45    0.42 
  -1  -7   4    4.05    0.42 
   0  -7   4   38.85    1.42 
   0  -7   4   39.34    1.60 
   1  -7   4    3.88    0.30 
   1  -7   4    3.89    0.46 
   2  -7   4   18.91    1.05 
   3  -7   4    7.61    0.73 
   4  -7   4    2.69    0.52 
   5  -7   4    0.04    0.27 
  -6  -6   4    0.51    0.38 
  -5  -6   4    0.23    0.28 
  -4  -6   4    3.95    0.56 
  -3  -6   4    0.48    0.24 
  -3  -6   4    0.26    0.17 
  -2  -6   4    1.36    0.30 
  -2  -6   4    1.47    0.25 
  -1  -6   4    1.99    0.28 
  -1  -6   4    2.40    0.31 
   0  -6   4   17.01    0.75 
   0  -6   4   18.88    0.88 
   1  -6   4    1.98    0.33 
   1  -6   4    1.93    0.19 
   2  -6   4    1.27    0.31 
  -3   6  -4    0.50    0.15 
   3  -6   4    0.43    0.24 
  -4   6  -4    3.87    0.36 
   4  -6   4    4.58    0.60 
   5  -6   4   -0.05    0.27 
   6  -6   4    0.49    0.41 
  -6  -5   4    2.74    0.58 
  -5  -5   4    2.19    0.45 
  -4  -5   4    5.28    0.40 
  -4  -5   4    4.15    0.53 
  -3  -5   4    0.80    0.26 
  -3  -5   4    0.62    0.18 
  -2  -5   4    5.66    0.47 
  -2  -5   4    5.77    0.40 
  -1  -5   4   11.71    0.60 
  -1  -5   4   12.14    0.61 
   0  -5   4   -0.06    0.09 
   0  -5   4   -0.07    0.08 
   1  -5   4   12.00    0.48 
   1  -5   4   11.24    0.64 
  -2   5  -4    5.49    0.35 
   2  -5   4    6.12    0.30 
   2  -5   4    5.00    0.49 
  -3   5  -4    0.89    0.19 
   3  -5   4    0.47    0.22 
   4  -5   4    3.79    0.53 
   5  -5   4    3.09    0.54 
   6  -5   4    1.77    0.49 
  -6  -4   4    0.86    0.36 
  -5  -4   4    2.45    0.44 
  -4  -4   4    7.19    0.48 
  -4  -4   4    8.21    0.64 
  -3  -4   4    4.92    0.48 
  -3  -4   4    4.88    0.36 
  -2  -4   4   23.49    0.93 
  -2  -4   4   24.26    1.03 
  -1  -4   4    1.04    0.18 
  -1  -4   4    0.94    0.18 
   0  -4   4   10.21    0.52 
   1  -4   4    1.24    0.23 
   1  -4   4    0.98    0.10 
  -2   4  -4   24.94    0.89 
   2  -4   4   24.43    1.08 
   2  -4   4   25.23    0.82 
  -3   4  -4    4.99    0.32 
   3  -4   4    4.15    0.44 
  -4   4  -4    6.47    0.42 
   4  -4   4    6.64    0.62 
  -5   4  -4    1.71    0.27 
   5  -4   4    1.80    0.42 
   6  -4   4    1.20    0.42 
  -7  -3   4    0.38    0.36 
  -6  -3   4    0.40    0.29 
  -5  -3   4    1.45    0.29 
  -5  -3   4    1.28    0.33 
  -4  -3   4    0.98    0.23 
  -3  -3   4   18.65    0.78 
  -2  -3   4   86.48    2.75 
  -1  -3   4   36.48    1.26 
   0  -3   4  634.32   18.82 
  -1   3  -4   37.45    1.19 
   1  -3   4   38.06    1.16 
   1  -3   4   37.73    1.37 
  -2   3  -4   85.25    2.54 
   2  -3   4   86.42    2.86 
  -3   3  -4   19.37    0.75 
   3  -3   4   18.79    0.91 
  -4   3  -4    0.90    0.19 
   4  -3   4    1.09    0.30 
  -5   3  -4    1.75    0.28 
   5  -3   4    1.63    0.39 
  -6   3  -4    0.35    0.23 
   6  -3   4    0.29    0.33 
  -7  -2   4    0.29    0.33 
  -6  -2   4   -0.08    0.22 
  -5  -2   4    1.94    0.32 
  -4  -2   4    2.05    0.29 
  -3  -2   4    2.16    0.25 
  -2  -2   4    6.01    0.35 
  -1  -2   4  282.07    8.43 
   0  -2   4  122.93    3.77 
  -1   2  -4  281.27    7.96 
   1  -2   4  292.39    8.63 
  -2   2  -4    5.89    0.30 
   2  -2   4    5.36    0.36 
  -3   2  -4    2.02    0.22 
   3  -2   4    2.03    0.29 
  -4   2  -4    2.27    0.29 
  -4   2  -4    1.75    0.22 
   4  -2   4    1.77    0.31 
  -5   2  -4    2.30    0.33 
   5  -2   4    2.44    0.42 
  -6   2  -4   -0.12    0.16 
   6  -2   4    0.04    0.27 
  -7  -1   4    0.12    0.30 
  -6  -1   4    1.72    0.35 
  -5  -1   4    0.12    0.17 
  -4  -1   4   24.27    1.06 
  -3  -1   4    0.38    0.14 
  -2  -1   4   60.38    1.98 
  -1  -1   4  148.47    4.50 
   0   1  -4  109.64    3.13 
   0  -1   4  112.95    3.38 
  -1   1  -4  145.36    4.35 
  -1   1  -4  145.64    4.10 
   1  -1   4  145.57    4.42 
  -2   1  -4   62.63    1.87 
  -2   1  -4   59.84    1.84 
   2  -1   4   58.71    1.98 
  -3   1  -4    0.33    0.12 
  -3   1  -4    0.26    0.10 
   3  -1   4    0.26    0.13 
  -4   1  -4   21.99    0.90 
  -4   1  -4   21.75    0.93 
   4  -1   4   23.09    1.02 
  -5   1  -4    0.01    0.14 
   5  -1   4    0.07    0.19 
  -6   1  -4    1.72    0.34 
  -7   1  -4    0.19    0.28 
  -6   0   4    0.36    0.22 
   5   0  -4   20.43    1.09 
   4   0  -4    0.49    0.20 
   3   0  -4    0.39    0.15 
   2   0  -4   20.60    0.84 
  -1   0   4  885.89   26.15 
   0   0  -4   38.00    1.09 
   0   0  -4   37.02    1.18 
   0   0   4   36.71    1.17 
  -1   0  -4  866.94   23.53 
  -1   0  -4  789.53   22.05 
   1   0   4  752.58   23.68 
   2   0   4   10.72    0.46 
  -3   0  -4    0.47    0.13 
   3   0   4   -0.01    0.08 
  -4   0  -4    0.58    0.17 
   4   0   4    0.65    0.19 
  -5   0  -4   21.01    0.98 
  -5   0  -4   20.66    0.97 
   5   0   4   21.67    1.03 
  -6   0  -4    0.38    0.22 
  -7   0  -4   -0.02    0.22 
  -7   1   4    0.05    0.29 
   6  -1  -4    1.95    0.46 
   5  -1  -4    0.14    0.23 
   4  -1  -4   19.59    0.98 
   3  -1  -4    0.09    0.11 
   2  -1  -4   59.79    2.03 
   1  -1  -4  145.93    4.41 
   1  -1  -4  145.08    4.45 
   0  -1  -4  116.47    3.50 
   0  -1  -4  115.72    3.48 
  -1  -1  -4  147.91    4.43 
  -2  -1  -4   59.93    2.00 
   2   1   4   64.29    1.95 
  -3  -1  -4    0.31    0.13 
   3   1   4    0.24    0.11 
  -4  -1  -4   23.21    1.01 
   4   1   4   23.07    0.97 
  -5  -1  -4    0.37    0.20 
  -6  -1  -4    1.60    0.34 
  -6  -1  -4    2.35    0.41 
  -7  -1  -4    0.09    0.24 
   7  -2  -4    0.30    0.38 
   6  -2  -4   -0.08    0.25 
   5  -2  -4    1.62    0.39 
   4  -2  -4    1.64    0.34 
  -4   2   4    2.46    0.24 
   3  -2  -4    2.05    0.31 
  -3   2   4    2.05    0.18 
   2  -2  -4    5.18    0.38 
   2  -2  -4    5.51    0.36 
  -2   2   4    5.85    0.23 
   1  -2  -4  302.35    8.92 
   1  -2  -4  290.35    8.81 
   0  -2  -4  130.68    3.81 
   0  -2  -4  119.93    3.78 
  -1  -2  -4  309.76    9.19 
  -2  -2  -4    6.00    0.36 
  -2  -2  -4    5.84    0.23 
  -3  -2  -4    1.82    0.17 
  -3  -2  -4    1.72    0.25 
  -4  -2  -4    1.18    0.26 
  -4  -2  -4    2.01    0.22 
  -5  -2  -4    2.47    0.38 
  -6  -2  -4    0.29    0.27 
  -7  -2  -4    0.33    0.28 
   7  -3  -4    0.48    0.43 
   6  -3  -4    0.16    0.29 
   5  -3  -4    1.34    0.39 
   4  -3  -4    0.79    0.25 
  -4   3   4    0.77    0.15 
   3  -3  -4   19.21    0.96 
  -3   3   4   19.82    0.67 
   2  -3  -4   87.27    2.85 
   2  -3  -4   90.05    2.96 
  -2   3   4   88.63    2.50 
   1  -3  -4   38.75    1.29 
   1  -3  -4   36.43    1.34 
   0  -3  -4  623.33   18.04 
   0  -3  -4  604.40   18.17 
  -1  -3  -4   38.65    1.33 
  -1  -3  -4   39.09    1.23 
  -2  -3  -4   92.82    2.99 
  -2  -3  -4   92.26    2.79 
  -3  -3  -4   20.63    0.90 
  -3  -3  -4   19.22    0.68 
  -4  -3  -4    0.79    0.23 
  -5  -3  -4    1.70    0.35 
  -6  -3  -4    0.43    0.28 
   6  -4  -4    1.41    0.45 
   5  -4  -4    1.94    0.44 
   4  -4  -4    6.34    0.63 
   3  -4  -4    4.22    0.48 
   3  -4  -4    5.31    0.41 
  -3   4   4    5.14    0.25 
   2  -4  -4   25.37    1.01 
   2  -4  -4   24.77    1.08 
   1  -4  -4    1.11    0.21 
   1  -4  -4    1.09    0.17 
   0  -4  -4   10.29    0.48 
   0  -4  -4   10.02    0.48 
  -1  -4  -4    1.10    0.18 
  -1  -4  -4    0.93    0.13 
  -2  -4  -4   25.81    0.88 
  -2  -4  -4   27.28    1.09 
  -3  -4  -4    3.97    0.41 
  -4  -4  -4    8.02    0.59 
  -5  -4  -4    1.78    0.37 
  -6  -4  -4    0.83    0.32 
   6  -5  -4    2.02    0.52 
   5  -5  -4    2.90    0.54 
   4  -5  -4    4.60    0.58 
   3  -5  -4    0.69    0.19 
   3  -5  -4    0.60    0.24 
   2  -5  -4    6.08    0.41 
   2  -5  -4    5.61    0.50 
   1  -5  -4   11.75    0.56 
   1  -5  -4   11.26    0.62 
   0  -5  -4    0.00    0.09 
   0  -5  -4    0.01    0.08 
  -1  -5  -4   12.25    0.61 
  -1  -5  -4   12.20    0.54 
  -2  -5  -4    5.74    0.44 
  -2  -5  -4    6.12    0.32 
  -3  -5  -4    0.69    0.21 
  -4  -5  -4    4.56    0.51 
  -5  -5  -4    2.81    0.48 
  -6  -5  -4    1.72    0.43 
   6  -6  -4    0.39    0.39 
   5  -6  -4    0.11    0.28 
   4  -6  -4    4.80    0.62 
   3  -6  -4    0.19    0.13 
   3  -6  -4    0.51    0.25 
   2  -6  -4    1.63    0.26 
   2  -6  -4    1.54    0.32 
   1  -6  -4    2.14    0.26 
   1  -6  -4    1.91    0.29 
   0  -6  -4   18.28    0.83 
   0  -6  -4   18.32    0.81 
  -1  -6  -4    2.17    0.25 
  -1  -6  -4    2.10    0.29 
  -2  -6  -4    0.98    0.25 
  -3  -6  -4    0.47    0.24 
  -4  -6  -4    4.38    0.54 
  -5  -6  -4   -0.10    0.21 
  -6  -6  -4    0.37    0.34 
   5  -7  -4   -0.22    0.28 
   4  -7  -4    2.86    0.52 
   3  -7  -4    8.68    0.76 
   2  -7  -4   17.93    1.00 
   2  -7  -4   17.78    0.86 
   1  -7  -4    4.58    0.39 
   1  -7  -4    3.54    0.44 
   0  -7  -4   35.79    1.38 
   0  -7  -4   31.94    1.30 
  -1  -7  -4    3.67    0.35 
  -1  -7  -4    4.13    0.41 
  -2  -7  -4   17.34    0.89 
  -3  -7  -4    6.96    0.62 
  -4  -7  -4    3.34    0.51 
  -5  -7  -4    0.18    0.29 
   5  -8  -4    0.40    0.39 
   4  -8  -4    1.81    0.50 
   3  -8  -4   15.96    1.03 
   2  -8  -4    3.21    0.38 
   2  -8  -4    3.10    0.48 
   1  -8  -4   14.77    0.86 
   1  -8  -4   14.70    0.77 
   0  -8  -4    2.62    0.34 
   0  -8  -4    2.77    0.37 
  -1  -8  -4   14.26    0.79 
  -2  -8  -4    3.22    0.46 
  -3  -8  -4   15.46    0.92 
  -4  -8  -4    1.90    0.44 
  -5  -8  -4    1.06    0.41 
   4  -9  -4    3.08    0.61 
   3  -9  -4    3.52    0.59 
   2  -9  -4    0.93    0.35 
   1  -9  -4    0.26    0.22 
   1  -9  -4    0.67    0.30 
   0  -9  -4   14.25    0.86 
   0  -9  -4   14.24    0.80 
  -1  -9  -4    0.58    0.25 
  -2  -9  -4    0.97    0.33 
  -3  -9  -4    4.22    0.56 
  -4  -9  -4    1.66    0.42 
   4 -10  -4    0.16    0.37 
   3 -10  -4    1.97    0.52 
   2 -10  -4    4.06    0.63 
   1 -10  -4   11.17    0.75 
   1 -10  -4   12.50    0.88 
   0 -10  -4    2.09    0.39 
  -1 -10  -4   10.76    0.74 
  -2 -10  -4    3.70    0.52 
  -3 -10  -4    1.95    0.45 
  -4 -10  -4   -0.10    0.31 
   2 -11  -4    4.14    0.69 
   1 -11  -4    0.06    0.35 
   0 -11  -4    2.62    0.46 
  -1 -11  -4    0.66    0.31 
  -2 -11  -4    4.58    0.62 
  -3 -11  -4    1.48    0.43 
  -1 -12  -4    2.17    0.48 
   0 -12   5    0.35    0.39 
  -2 -11   5    1.04    0.39 
   0 -11   5    0.32    0.31 
   1 -11   5    0.53    0.35 
   2 -11   5    0.90    0.43 
  -4 -10   5    0.46    0.36 
  -3 -10   5   -0.07    0.28 
  -2 -10   5   -0.09    0.24 
  -1 -10   5    1.27    0.38 
  -1 -10   5    1.80    0.36 
   0 -10   5    0.05    0.22 
   1 -10   5    1.44    0.40 
   2 -10   5    0.25    0.27 
   3 -10   5    0.00    0.26 
  -4  -9   5    1.05    0.39 
  -3  -9   5    1.66    0.40 
  -2  -9   5    6.92    0.62 
  -2  -9   5    5.02    0.57 
  -1  -9   5    0.55    0.24 
  -1  -9   5    0.91    0.27 
   0  -9   5    1.69    0.30 
   0  -9   5    2.05    0.41 
   1  -9   5    0.97    0.34 
   2  -9   5    6.76    0.75 
   3  -9   5    1.50    0.42 
   4  -9   5    0.11    0.32 
  -5  -8   5    0.27    0.33 
  -4  -8   5   -0.12    0.23 
  -3  -8   5    6.91    0.66 
  -2  -8   5   12.54    0.77 
  -2  -8   5   12.78    0.80 
  -1  -8   5    0.00    0.17 
  -1  -8   5   -0.10    0.16 
   0  -8   5    3.19    0.45 
   0  -8   5    3.15    0.33 
   1  -8   5    0.01    0.18 
   2  -8   5   11.92    0.86 
   3  -8   5    7.95    0.80 
   4  -8   5    0.20    0.29 
   5  -8   5    0.18    0.34 
  -5  -7   5    1.85    0.46 
  -4  -7   5   -0.07    0.24 
  -3  -7   5    9.88    0.63 
  -3  -7   5   10.87    0.77 
  -2  -7   5    3.80    0.40 
  -2  -7   5    3.43    0.43 
  -1  -7   5   28.04    1.14 
  -1  -7   5   23.66    1.13 
   0  -7   5    0.07    0.16 
   0  -7   5    0.01    0.12 
   1  -7   5   25.84    0.97 
   1  -7   5   26.02    1.23 
   2  -7   5    3.65    0.49 
   3  -7   5   10.05    0.78 
   4  -7   5   -0.09    0.22 
   5  -7   5    1.01    0.44 
  -6  -6   5    0.79    0.41 
  -5  -6   5   -0.01    0.26 
  -4  -6   5    7.05    0.70 
  -3  -6   5    1.09    0.24 
  -3  -6   5    1.83    0.37 
  -2  -6   5   47.58    1.79 
  -2  -6   5   44.50    1.69 
  -1  -6   5    4.35    0.38 
  -1  -6   5    4.56    0.41 
   0  -6   5    6.40    0.40 
   0  -6   5    7.47    0.52 
   1  -6   5    4.63    0.28 
   1  -6   5    3.86    0.43 
   2  -6   5   43.68    1.79 
  -3   6  -5    0.74    0.19 
   3  -6   5    0.61    0.26 
  -4   6  -5    7.21    0.47 
   4  -6   5    9.45    0.82 
   5  -6   5    0.23    0.28 
   6  -6   5    1.11    0.47 
  -6  -5   5    0.10    0.30 
  -5  -5   5    2.50    0.50 
  -4  -5   5   13.94    0.72 
  -4  -5   5   14.31    0.90 
  -3  -5   5    9.51    0.66 
  -3  -5   5    9.12    0.54 
  -2  -5   5   16.43    0.83 
  -2  -5   5   17.76    0.79 
  -1  -5   5   22.66    0.94 
  -1  -5   5   21.73    0.93 
   0  -5   5   43.42    1.61 
   1  -5   5   21.72    0.75 
   1  -5   5   20.79    0.97 
  -2   5  -5   18.11    0.72 
   2  -5   5   17.27    0.61 
   2  -5   5   16.31    0.88 
  -3   5  -5    8.74    0.48 
   3  -5   5   10.02    0.69 
  -4   5  -5   14.39    0.67 
   4  -5   5   13.45    0.90 
  -5   5  -5    2.79    0.33 
   5  -5   5    2.85    0.54 
   6  -5   5   -0.29    0.30 
  -6  -4   5    1.01    0.39 
  -5  -4   5    0.38    0.26 
  -4  -4   5   13.02    0.69 
  -4  -4   5   13.06    0.83 
  -3  -4   5    6.89    0.58 
  -3  -4   5    7.87    0.47 
  -2  -4   5   14.77    0.76 
  -2  -4   5   15.57    0.69 
  -1  -4   5   50.28    1.71 
  -1  -4   5   48.60    1.70 
   0  -4   5    4.50    0.34 
  -1   4  -5   53.93    1.69 
   1  -4   5   52.74    1.64 
   1  -4   5   53.69    1.89 
  -2   4  -5   15.27    0.63 
   2  -4   5   15.28    0.78 
  -3   4  -5    6.62    0.38 
   3  -4   5    6.29    0.54 
  -4   4  -5   12.45    0.62 
   4  -4   5   13.92    0.85 
  -5   4  -5    0.17    0.14 
   5  -4   5    0.41    0.29 
   6  -4   5    0.81    0.37 
  -6  -3   5    2.35    0.50 
  -5  -3   5    6.27    0.52 
  -5  -3   5    6.31    0.65 
  -4  -3   5    0.51    0.18 
  -3  -3   5   52.46    1.82 
  -2  -3   5    3.16    0.27 
  -1  -3   5   52.99    1.76 
   0  -3   5   68.11    2.23 
  -1   3  -5   56.97    1.70 
   1  -3   5   55.94    1.67 
   1  -3   5   53.11    1.89 
  -2   3  -5    3.51    0.25 
   2  -3   5    3.34    0.34 
  -3   3  -5   50.92    1.66 
  -3   3  -5   51.78    1.61 
   3  -3   5   51.63    1.91 
  -4   3  -5   -0.01    0.11 
   4  -3   5    0.49    0.23 
  -5   3  -5    5.29    0.46 
   5  -3   5    5.90    0.61 
  -6   3  -5    2.01    0.35 
   6  -3   5    1.97    0.47 
  -7  -2   5    0.76    0.37 
  -6  -2   5    4.30    0.60 
  -5  -2   5    2.36    0.35 
  -4  -2   5   11.68    0.65 
  -3  -2   5    6.43    0.41 
  -2  -2   5   37.82    1.33 
  -1  -2   5   44.25    1.47 
   0  -2   5    0.22    0.08 
  -1   2  -5   45.69    1.38 
   1  -2   5   44.31    1.53 
  -2   2  -5   38.70    1.17 
  -2   2  -5   38.46    1.24 
   2  -2   5   36.92    1.38 
  -3   2  -5    6.23    0.31 
  -3   2  -5    6.06    0.36 
   3  -2   5    6.42    0.45 
  -4   2  -5   10.19    0.56 
  -4   2  -5   11.61    0.53 
   4  -2   5   10.05    0.65 
  -5   2  -5    1.85    0.29 
   5  -2   5    2.21    0.41 
  -6   2  -5    4.95    0.51 
   6  -2   5    4.94    0.61 
  -7  -1   5    0.99    0.42 
  -6  -1   5    0.47    0.25 
  -5  -1   5    0.00    0.17 
  -4  -1   5    6.38    0.47 
  -3  -1   5   72.51    2.44 
  -2  -1   5   12.86    0.58 
  -1  -1   5  133.26    4.08 
   0   1  -5    5.85    0.25 
   0  -1   5    5.99    0.28 
  -1   1  -5  127.52    3.65 
  -1   1  -5  127.80    3.82 
   1  -1   5  130.26    3.94 
  -2   1  -5   12.19    0.52 
  -2   1  -5   13.25    0.47 
   2  -1   5   12.87    0.57 
  -3   1  -5   72.62    2.27 
  -3   1  -5   71.91    2.30 
   3  -1   5   74.06    2.44 
  -4   1  -5    5.59    0.37 
  -4   1  -5    4.64    0.40 
   4  -1   5    5.73    0.44 
  -5   1  -5    0.07    0.16 
   5  -1   5   -0.12    0.17 
  -6   1  -5    0.47    0.25 
  -7   1  -5    0.76    0.31 
  -6   0   5   -0.01    0.21 
  -5   0   5    0.40    0.21 
   4   0  -5   17.74    0.92 
   3   0  -5    0.87    0.21 
   2   0  -5    2.95    0.29 
   1   0  -5   68.95    2.22 
  -1   0   5   70.56    2.21 
   0   0  -5    0.01    0.03 
   0   0  -5    0.00    0.04 
   0   0   5    0.08    0.05 
  -1   0  -5   74.22    2.16 
  -1   0  -5   71.98    2.08 
   1   0   5   67.83    2.19 
  -2   0  -5    3.05    0.21 
  -2   0  -5    3.17    0.25 
   2   0   5    3.29    0.22 
  -3   0  -5    0.45    0.15 
  -3   0  -5    0.40    0.13 
   3   0   5    0.15    0.10 
  -4   0  -5   15.46    0.74 
  -4   0  -5   17.23    0.79 
  -5   0  -5    0.61    0.21 
  -5   0  -5    0.00    0.18 
   5   0   5    0.11    0.14 
  -6   0  -5    0.50    0.23 
  -7   0  -5   -0.03    0.24 
  -7   1   5    0.59    0.32 
   6  -1  -5    0.26    0.32 
   5  -1  -5    0.28    0.24 
   4  -1  -5    6.92    0.59 
   3  -1  -5   70.88    2.47 
   2  -1  -5   12.39    0.61 
   1  -1  -5  124.06    3.85 
   1  -1  -5  126.70    3.88 
   0  -1  -5    3.47    0.15 
  -1  -1  -5  130.10    3.98 
   1   1   5  134.25    3.97 
  -2  -1  -5   13.51    0.57 
   2   1   5   13.70    0.51 
  -3  -1  -5   73.31    2.41 
   3   1   5   73.89    2.36 
  -4  -1  -5    6.60    0.46 
   4   1   5    5.42    0.40 
  -5  -1  -5    0.32    0.21 
  -6  -1  -5    0.20    0.21 
  -7  -1  -5   -0.04    0.24 
   7  -2  -5    0.39    0.42 
   6  -2  -5    3.94    0.61 
   5  -2  -5    1.29    0.36 
   4  -2  -5   12.40    0.76 
  -4   2   5   11.01    0.52 
   3  -2  -5    6.45    0.48 
  -3   2   5    6.44    0.31 
   2  -2  -5   37.24    1.40 
   2  -2  -5   37.46    1.36 
  -2   2   5   37.06    1.09 
   1  -2  -5   42.70    1.46 
   1  -2  -5   44.41    1.50 
   0  -2  -5    0.12    0.06 
   0  -2  -5    0.10    0.06 
  -1  -2  -5   43.50    1.43 
  -2  -2  -5   38.55    1.36 
  -3  -2  -5    6.40    0.31 
  -3  -2  -5    6.42    0.42 
  -4  -2  -5   10.43    0.62 
  -5  -2  -5    2.41    0.38 
  -6  -2  -5    4.28    0.51 
  -7  -2  -5    0.54    0.30 
   6  -3  -5    1.15    0.39 
   5  -3  -5    5.60    0.65 
   4  -3  -5   -0.10    0.15 
   3  -3  -5   54.34    1.88 
   3  -3  -5   51.77    1.96 
  -3   3   5   50.87    1.54 
   2  -3  -5    3.36    0.30 
   2  -3  -5    3.06    0.33 
  -2   3   5    3.01    0.14 
   1  -3  -5   55.75    1.90 
   1  -3  -5   56.10    1.85 
   0  -3  -5   63.29    1.98 
   0  -3  -5   60.17    1.98 
  -1  -3  -5   55.21    1.82 
  -1  -3  -5   55.38    1.70 
  -2  -3  -5    3.24    0.30 
  -3  -3  -5   52.33    1.66 
  -3  -3  -5   55.73    1.93 
  -4  -3  -5    0.07    0.16 
  -5  -3  -5    5.44    0.54 
  -6  -3  -5    1.41    0.37 
   6  -4  -5    1.35    0.44 
   5  -4  -5   -0.10    0.25 
   4  -4  -5   11.85    0.81 
   3  -4  -5    7.38    0.57 
   3  -4  -5    7.12    0.50 
   2  -4  -5   15.76    0.79 
   2  -4  -5   15.25    0.72 
   1  -4  -5   50.84    1.74 
   1  -4  -5   51.77    1.80 
   0  -4  -5    4.64    0.30 
   0  -4  -5    4.46    0.30 
  -1  -4  -5   51.59    1.64 
  -1  -4  -5   50.78    1.75 
  -2  -4  -5   15.31    0.74 
  -3  -4  -5    6.61    0.49 
  -4  -4  -5   13.22    0.79 
  -5  -4  -5    0.13    0.21 
  -6  -4  -5    1.18    0.38 
   6  -5  -5    0.20    0.32 
   5  -5  -5    3.06    0.55 
   4  -5  -5   14.66    0.96 
   3  -5  -5    8.78    0.57 
   3  -5  -5    9.46    0.67 
   2  -5  -5   17.54    0.88 
   2  -5  -5   16.13    0.77 
   1  -5  -5   21.88    0.96 
   1  -5  -5   22.75    0.91 
   0  -5  -5   40.05    1.46 
   0  -5  -5   42.38    1.46 
  -1  -5  -5   21.51    0.91 
  -1  -5  -5   21.93    0.82 
  -2  -5  -5   17.14    0.62 
  -2  -5  -5   17.18    0.83 
  -3  -5  -5    8.92    0.61 
  -4  -5  -5   16.43    0.92 
  -5  -5  -5    3.07    0.49 
  -6  -5  -5    0.38    0.29 
   6  -6  -5    0.97    0.43 
   5  -6  -5    0.30    0.30 
   4  -6  -5    8.08    0.77 
   3  -6  -5    1.21    0.25 
   3  -6  -5    1.16    0.30 
   2  -6  -5   45.86    1.72 
   2  -6  -5   47.47    1.86 
   1  -6  -5    5.40    0.46 
   1  -6  -5    3.75    0.35 
   0  -6  -5    6.94    0.44 
   0  -6  -5    6.48    0.45 
  -1  -6  -5    4.53    0.32 
  -1  -6  -5    4.60    0.40 
  -2  -6  -5   43.66    1.67 
  -3  -6  -5    1.07    0.29 
  -4  -6  -5    9.99    0.75 
  -5  -6  -5    0.32    0.28 
  -6  -6  -5    0.56    0.37 
   5  -7  -5    1.15    0.40 
   4  -7  -5   -0.10    0.21 
   3  -7  -5   10.13    0.77 
   3  -7  -5    8.52    0.61 
   2  -7  -5    4.42    0.41 
   2  -7  -5    3.49    0.49 
   1  -7  -5   21.29    1.09 
   1  -7  -5   26.55    1.06 
   0  -7  -5    0.14    0.15 
   0  -7  -5    0.19    0.16 
  -1  -7  -5   29.23    1.22 
  -1  -7  -5   27.88    1.12 
  -2  -7  -5    4.60    0.47 
  -3  -7  -5   10.80    0.73 
  -4  -7  -5    0.03    0.24 
  -5  -7  -5    0.78    0.33 
   5  -8  -5    0.01    0.29 
   4  -8  -5    0.34    0.32 
   3  -8  -5    7.83    0.80 
   2  -8  -5   12.14    0.85 
   2  -8  -5   13.33    0.76 
   1  -8  -5    0.10    0.17 
   1  -8  -5   -0.03    0.16 
   0  -8  -5    2.81    0.38 
   0  -8  -5    2.45    0.35 
  -1  -8  -5   -0.03    0.17 
  -2  -8  -5   14.20    0.84 
  -3  -8  -5    8.62    0.71 
  -4  -8  -5    0.22    0.28 
  -5  -8  -5    0.16    0.32 
   4  -9  -5    0.32    0.35 
   3  -9  -5    1.78    0.47 
   2  -9  -5    7.09    0.73 
   2  -9  -5    5.05    0.52 
   1  -9  -5    0.83    0.26 
   1  -9  -5    0.44    0.26 
   0  -9  -5    1.66    0.34 
   0  -9  -5    1.95    0.37 
  -1  -9  -5    0.78    0.28 
  -2  -9  -5    6.06    0.60 
  -3  -9  -5    1.32    0.38 
  -4  -9  -5    0.68    0.32 
   3 -10  -5    0.13    0.33 
   2 -10  -5    0.02    0.29 
   1 -10  -5    1.97    0.39 
   1 -10  -5    2.17    0.45 
   0 -10  -5   -0.21    0.19 
  -1 -10  -5    1.99    0.40 
  -2 -10  -5   -0.07    0.24 
  -3 -10  -5    0.07    0.28 
  -4 -10  -5   -0.41    0.32 
   2 -11  -5    0.57    0.37 
   0 -11  -5    0.30    0.30 
  -1 -11  -5    0.33    0.29 
  -2 -11  -5    0.95    0.36 
  -2 -11   6    2.66    0.51 
  -1 -11   6    2.44    0.53 
   0 -11   6    6.50    0.76 
   1 -11   6    3.19    0.61 
   2 -11   6    1.86    0.47 
  -3 -10   6    0.25    0.32 
  -2 -10   6    4.82    0.58 
  -1 -10   6    2.78    0.43 
  -1 -10   6    2.11    0.45 
   0 -10   6    1.82    0.43 
   1 -10   6    2.91    0.54 
   2 -10   6    5.55    0.73 
   3 -10   6    0.19    0.29 
  -4  -9   6    0.02    0.29 
  -3  -9   6    3.98    0.57 
  -2  -9   6    5.42    0.58 
  -2  -9   6    5.36    0.57 
  -1  -9   6    3.95    0.52 
  -1  -9   6    4.45    0.46 
   0  -9   6   17.46    1.03 
   1  -9   6    5.68    0.65 
   2  -9   6    4.38    0.62 
   3  -9   6    3.84    0.64 
   4  -9   6   -0.01    0.26 
  -5  -8   6    1.48    0.46 
  -4  -8   6    0.47    0.32 
  -3  -8   6    3.81    0.53 
  -2  -8   6   10.54    0.72 
  -2  -8   6   10.81    0.71 
  -1  -8   6   22.97    1.13 
  -1  -8   6   23.27    1.07 
   0  -8   6    3.38    0.33 
   0  -8   6    3.63    0.47 
   1  -8   6   20.22    1.09 
   2  -8   6   10.13    0.78 
   3  -8   6    3.20    0.54 
   4  -8   6    0.16    0.27 
   5  -8   6    2.27    0.56 
  -5  -7   6    0.46    0.34 
  -4  -7   6    1.75    0.41 
  -3  -7   6    0.12    0.21 
  -3  -7   6    0.37    0.21 
  -2  -7   6   13.59    0.76 
  -2  -7   6   13.46    0.79 
  -1  -7   6    3.31    0.37 
  -1  -7   6    3.98    0.43 
   0  -7   6    0.59    0.18 
   0  -7   6    0.69    0.23 
   1  -7   6    4.40    0.50 
   2  -7   6   13.07    0.85 
   3  -7   6    0.46    0.27 
  -4   7  -6    2.80    0.36 
   4  -7   6    1.61    0.42 
   5  -7   6    0.31    0.32 
  -6  -6   6   -0.12    0.33 
  -5  -6   6   -0.12    0.28 
  -4  -6   6    7.15    0.52 
  -4  -6   6    6.76    0.69 
  -3  -6   6    8.90    0.67 
  -3  -6   6    8.32    0.55 
  -2  -6   6   16.26    0.87 
  -2  -6   6   16.44    0.81 
  -1  -6   6    0.96    0.22 
  -1  -6   6    0.75    0.20 
   0  -6   6   41.57    1.62 
   1  -6   6    0.85    0.14 
   1  -6   6    0.96    0.25 
   2  -6   6   18.22    0.98 
  -3   6  -6    8.06    0.48 
   3  -6   6    7.85    0.69 
  -4   6  -6    6.25    0.44 
   4  -6   6    7.31    0.73 
   5  -6   6   -0.24    0.26 
   6  -6   6    0.55    0.44 
  -6  -5   6    1.21    0.43 
  -5  -5   6    0.84    0.33 
  -4  -5   6   -0.06    0.20 
  -4  -5   6    0.25    0.17 
  -3  -5   6   42.83    1.63 
  -3  -5   6   45.37    1.79 
  -2  -5   6    6.07    0.42 
  -2  -5   6    6.66    0.49 
  -1  -5   6    1.42    0.23 
  -1  -5   6    1.19    0.22 
   0  -5   6   51.29    1.86 
   1  -5   6    1.47    0.27 
   1  -5   6    1.29    0.14 
  -2   5  -6    6.13    0.38 
   2  -5   6    5.98    0.52 
  -3   5  -6   41.80    1.47 
   3  -5   6   45.14    1.80 
  -4   5  -6    0.38    0.16 
   4  -5   6    0.43    0.24 
  -5   5  -6    0.80    0.21 
   5  -5   6    0.64    0.34 
   6  -5   6    1.19    0.43 
  -6  -4   6    0.30    0.32 
  -5  -4   6    2.90    0.39 
  -5  -4   6    2.93    0.51 
  -4  -4   6    7.52    0.52 
  -4  -4   6    9.55    0.69 
  -3  -4   6    7.27    0.46 
  -2  -4   6    6.69    0.41 
  -1  -4   6   33.89    1.25 
  -1  -4   6   32.14    1.23 
   0  -4   6   10.51    0.47 
  -1   4  -6   32.85    1.12 
   1  -4   6   31.58    1.27 
   1  -4   6   32.65    1.03 
  -2   4  -6    7.84    0.40 
   2  -4   6    6.29    0.47 
  -3   4  -6    6.91    0.41 
   3  -4   6    7.21    0.55 
  -4   4  -6    8.79    0.51 
   4  -4   6    8.84    0.68 
  -5   4  -6    2.76    0.36 
   5  -4   6    2.89    0.50 
   6  -4   6    0.57    0.36 
  -6  -3   6    0.42    0.30 
  -5  -3   6    6.39    0.54 
  -4  -3   6    4.52    0.41 
  -3  -3   6    1.08    0.21 
  -2  -3   6   28.82    1.09 
  -1  -3   6   71.19    2.32 
   0  -3   6   44.84    1.55 
  -1   3  -6   67.87    2.11 
   1  -3   6   73.39    2.12 
   1  -3   6   69.69    2.35 
  -2   3  -6   29.94    1.02 
   2  -3   6   28.73    1.17 
  -3   3  -6    1.06    0.18 
   3  -3   6    0.92    0.24 
  -4   3  -6    5.63    0.40 
   4  -3   6    5.42    0.53 
  -5   3  -6    6.95    0.49 
   5  -3   6    7.20    0.68 
  -6   3  -6    0.00    0.19 
   6  -3   6    0.92    0.38 
  -7  -2   6    0.42    0.40 
  -6  -2   6    2.47    0.40 
  -5  -2   6    3.13    0.40 
  -4  -2   6   29.52    1.23 
  -3  -2   6    3.28    0.32 
  -2  -2   6    3.70    0.28 
  -1  -2   6   26.17    0.95 
   0  -2   6   43.28    1.46 
  -1   2  -6   26.57    0.87 
   1  -2   6   25.52    0.97 
  -2   2  -6    3.12    0.23 
   2  -2   6    3.59    0.30 
  -3   2  -6    3.39    0.22 
  -3   2  -6    3.44    0.29 
   3  -2   6    3.27    0.34 
  -4   2  -6   28.91    1.12 
   4  -2   6   29.26    1.27 
  -5   2  -6    3.28    0.38 
   5  -2   6    3.28    0.46 
  -6   2  -6    3.47    0.45 
  -7  -1   6    0.62    0.35 
  -6  -1   6    0.79    0.30 
  -5  -1   6    1.97    0.34 
  -4  -1   6    5.68    0.48 
  -3  -1   6   27.35    1.09 
  -2  -1   6   80.92    2.63 
  -1  -1   6   67.36    2.15 
   0   1  -6  384.37   10.55 
   0   1  -6  382.20   11.27 
   0  -1   6  380.31   11.36 
  -1   1  -6   65.17    1.93 
  -1   1  -6   66.67    1.98 
   1  -1   6   64.26    2.09 
  -2   1  -6   77.19    2.32 
  -2   1  -6   79.84    2.35 
   2  -1   6   74.48    2.48 
  -3   1  -6   26.80    0.98 
  -3   1  -6   25.24    0.91 
   3  -1   6   25.83    1.03 
  -4   1  -6    5.76    0.42 
  -4   1  -6    5.54    0.37 
   4  -1   6    6.02    0.45 
  -5   1  -6    1.93    0.32 
   5  -1   6    1.56    0.34 
  -6   1  -6    0.91    0.28 
  -7   1  -6    0.19    0.25 
  -6   0   6   -0.07    0.20 
  -5   0   6    1.02    0.29 
  -4   0   6    2.87    0.37 
   3   0  -6   65.85    2.32 
  -3   0   6   65.89    2.28 
  -2   0   6   11.24    0.55 
   1   0  -6  367.86   10.80 
  -1   0   6  358.92   10.83 
   0   0  -6 1000.00   26.58 
   0   0  -6  938.45   28.34 
   0   0   6  968.66   28.56 
  -1   0  -6  357.91    9.84 
  -1   0  -6  351.85    9.28 
   1   0   6  293.23    9.90 
  -2   0  -6   12.72    0.53 
  -2   0  -6   11.76    0.48 
   2   0   6   11.70    0.50 
  -3   0  -6   69.60    2.26 
  -3   0  -6   70.46    2.24 
   3   0   6   71.30    2.32 
  -4   0  -6    3.23    0.31 
  -4   0  -6    2.92    0.34 
   4   0   6    2.24    0.29 
  -5   0  -6    0.88    0.24 
  -5   0  -6    0.99    0.24 
  -6   0  -6    0.08    0.19 
  -7   0  -6    0.63    0.30 
  -7   1   6    0.29    0.32 
  -6   1   6    0.68    0.31 
   5  -1  -6    2.41    0.44 
   4  -1  -6    5.26    0.53 
   3  -1  -6   26.89    1.17 
   2  -1  -6   76.76    2.48 
   2  -1  -6   73.56    2.51 
   1  -1  -6   67.11    2.15 
   1  -1  -6   66.10    2.17 
   0  -1  -6  397.54   11.72 
  -1  -1  -6   64.73    2.07 
   1   1   6   68.16    2.02 
  -2  -1  -6   80.29    2.53 
   2   1   6   80.17    2.46 
  -3  -1  -6   26.58    1.02 
   3   1   6   26.32    0.96 
  -4  -1  -6    5.82    0.42 
   4   1   6    4.94    0.37 
  -5  -1  -6    2.55    0.36 
  -6  -1  -6    0.92    0.29 
  -7  -1  -6    0.25    0.26 
  -7   2   6    0.35    0.32 
   6  -2  -6    3.06    0.56 
   5  -2  -6    3.36    0.53 
   4  -2  -6   29.47    1.35 
  -4   2   6   29.32    1.03 
   3  -2  -6    3.57    0.40 
  -3   2   6    2.97    0.20 
   2  -2  -6    2.99    0.30 
   2  -2  -6    2.97    0.31 
  -2   2   6    3.58    0.15 
   1  -2  -6   24.29    0.93 
   1  -2  -6   25.53    0.95 
   0  -2  -6   41.76    1.38 
   0  -2  -6   42.96    1.40 
  -1  -2  -6   26.95    0.96 
  -2  -2  -6    4.03    0.30 
  -3  -2  -6    3.35    0.20 
  -3  -2  -6    3.42    0.32 
  -4  -2  -6   30.07    1.23 
  -5  -2  -6    3.22    0.41 
  -6  -2  -6    3.68    0.50 
  -7  -2  -6    0.08    0.25 
   6  -3  -6    0.42    0.33 
   5  -3  -6    7.29    0.73 
   4  -3  -6    5.09    0.56 
   3  -3  -6    1.11    0.23 
   3  -3  -6    1.16    0.26 
  -3   3   6    1.23    0.12 
   2  -3  -6   29.31    1.14 
   2  -3  -6   28.97    1.19 
   1  -3  -6   68.36    2.24 
   1  -3  -6   69.15    2.29 
   0  -3  -6   44.31    1.48 
   0  -3  -6   44.68    1.50 
  -1  -3  -6   70.22    2.13 
  -1  -3  -6   69.91    2.26 
  -2  -3  -6   29.78    1.14 
  -3  -3  -6    1.23    0.25 
  -4  -3  -6    4.44    0.44 
  -5  -3  -6    7.77    0.61 
  -6  -3  -6    0.32    0.28 
   6  -4  -6    0.96    0.39 
   5  -4  -6    2.31    0.47 
   4  -4  -6    9.36    0.71 
   3  -4  -6    6.78    0.59 
   3  -4  -6    6.95    0.50 
   2  -4  -6    7.56    0.51 
   2  -4  -6    7.20    0.47 
   1  -4  -6   31.15    1.23 
   1  -4  -6   32.70    1.19 
   0  -4  -6   23.70    0.91 
   0  -4  -6   24.77    0.94 
  -1  -4  -6   31.74    1.06 
  -1  -4  -6   31.75    1.18 
  -2  -4  -6    8.26    0.50 
  -3  -4  -6    7.75    0.53 
  -4  -4  -6    8.95    0.63 
  -5  -4  -6    2.79    0.45 
  -6  -4  -6    1.08    0.35 
   6  -5  -6    0.45    0.35 
   5  -5  -6    0.72    0.35 
   4  -5  -6    0.56    0.27 
   3  -5  -6   45.15    1.74 
   3  -5  -6   46.48    1.89 
   2  -5  -6    7.03    0.47 
   2  -5  -6    6.05    0.53 
   1  -5  -6    1.44    0.22 
   1  -5  -6    1.30    0.24 
   0  -5  -6   49.00    1.73 
   0  -5  -6   50.55    1.73 
  -1  -5  -6    1.11    0.22 
  -1  -5  -6    1.37    0.17 
  -2  -5  -6    5.81    0.43 
  -3  -5  -6   47.69    1.83 
  -4  -5  -6    0.50    0.25 
  -5  -5  -6    0.76    0.30 
  -6  -5  -6    1.10    0.40 
   6  -6  -6    0.57    0.37 
   5  -6  -6   -0.08    0.21 
   4  -6  -6    7.77    0.78 
   3  -6  -6    8.62    0.59 
   3  -6  -6    8.78    0.69 
   2  -6  -6   17.38    0.84 
   2  -6  -6   16.51    0.91 
   1  -6  -6    0.89    0.23 
   1  -6  -6    1.01    0.21 
   0  -6  -6   42.02    1.53 
   0  -6  -6   40.66    1.52 
  -1  -6  -6    1.09    0.18 
  -1  -6  -6    1.22    0.24 
  -2  -6  -6   17.18    0.85 
  -3  -6  -6    8.51    0.63 
  -4  -6  -6    6.61    0.63 
  -5  -6  -6   -0.09    0.23 
  -6  -6  -6    0.64    0.37 
   5  -7  -6    0.48    0.39 
   4  -7  -6    2.27    0.49 
   3  -7  -6    0.08    0.19 
   3  -7  -6    0.13    0.24 
   2  -7  -6   11.87    0.78 
   2  -7  -6   13.03    0.73 
   1  -7  -6    3.26    0.42 
   1  -7  -6    3.74    0.38 
   0  -7  -6    0.93    0.24 
   0  -7  -6    1.23    0.26 
  -1  -7  -6    4.30    0.35 
  -1  -7  -6    3.21    0.39 
  -2  -7  -6   13.82    0.79 
  -3  -7  -6    0.15    0.23 
  -4  -7  -6    2.16    0.43 
  -5  -7  -6    0.63    0.33 
   5  -8  -6    1.18    0.41 
   4  -8  -6    0.35    0.31 
   3  -8  -6    3.77    0.58 
   2  -8  -6    9.97    0.66 
   2  -8  -6    9.38    0.73 
   1  -8  -6   21.61    1.04 
   1  -8  -6   24.14    1.15 
   0  -8  -6    3.66    0.41 
   0  -8  -6    4.16    0.43 
  -1  -8  -6   21.60    1.04 
  -2  -8  -6    9.39    0.67 
  -3  -8  -6    3.92    0.51 
  -4  -8  -6   -0.12    0.23 
  -5  -8  -6    1.35    0.41 
   4  -9  -6    0.14    0.31 
   3  -9  -6    4.00    0.63 
   2  -9  -6    4.35    0.59 
   2  -9  -6    4.17    0.49 
   1  -9  -6    4.69    0.57 
   1  -9  -6    4.73    0.50 
   0  -9  -6   19.42    0.99 
   0  -9  -6   18.98    1.00 
  -1  -9  -6    5.22    0.52 
  -2  -9  -6    5.58    0.59 
  -3  -9  -6    4.37    0.57 
  -4  -9  -6    0.21    0.30 
   3 -10  -6   -0.18    0.33 
   2 -10  -6    5.93    0.73 
   1 -10  -6    2.01    0.41 
   1 -10  -6    1.80    0.43 
   0 -10  -6    2.04    0.40 
  -1 -10  -6    2.75    0.45 
  -2 -10  -6    4.36    0.57 
  -3 -10  -6   -0.04    0.27 
   2 -11  -6    2.61    0.59 
   0 -11  -6    5.38    0.61 
  -1 -11  -6    1.88    0.42 
  -2 -11  -6    3.19    0.54 
   0 -12  -6    0.17    0.36 
  -2 -11   7    1.20    0.41 
  -1 -11   7    0.36    0.30 
   0 -11   7    3.98    0.63 
   1 -11   7    0.23    0.32 
   2 -11   7    1.91    0.54 
  -3 -10   7    0.00    0.31 
  -2 -10   7    2.26    0.44 
  -1 -10   7    1.68    0.43 
   0 -10   7    1.28    0.39 
   1 -10   7    1.69    0.42 
   2 -10   7    1.91    0.48 
   3 -10   7    0.05    0.28 
  -4  -9   7    0.73    0.38 
  -3  -9   7    0.71    0.32 
  -2  -9   7    1.99    0.39 
  -2  -9   7    1.26    0.35 
  -1  -9   7    4.12    0.54 
  -1  -9   7    4.05    0.46 
   0  -9   7    0.43    0.25 
   1  -9   7    4.36    0.59 
   2  -9   7    1.23    0.39 
   3  -9   7    0.64    0.36 
   4  -9   7    0.52    0.37 
  -5  -8   7    0.46    0.36 
  -4  -8   7    0.17    0.30 
  -3  -8   7    1.03    0.29 
  -3  -8   7    1.17    0.34 
  -2  -8   7    0.53    0.22 
  -2  -8   7   -0.01    0.21 
  -1  -8   7    1.94    0.35 
  -1  -8   7    2.50    0.39 
   0  -8   7    5.40    0.56 
   1  -8   7    1.84    0.39 
   2  -8   7    0.08    0.22 
   3  -8   7    0.47    0.27 
   4  -8   7    0.27    0.29 
   5  -8   7    1.31    0.48 
  -5  -7   7    1.17    0.39 
  -4  -7   7    2.34    0.47 
  -3  -7   7    0.22    0.19 
  -3  -7   7    0.15    0.25 
  -2  -7   7    5.33    0.52 
  -2  -7   7    4.93    0.49 
  -1  -7   7    5.53    0.45 
  -1  -7   7    5.42    0.51 
   0  -7   7   70.20    2.56 
   1  -7   7    6.43    0.59 
   2  -7   7    5.02    0.56 
   3  -7   7    0.15    0.23 
  -4   7  -7    3.02    0.37 
   4  -7   7    1.64    0.45 
   5  -7   7    1.52    0.46 
  -6  -6   7    0.42    0.39 
  -5  -6   7    0.50    0.31 
  -4  -6   7    3.54    0.40 
  -4  -6   7    2.63    0.48 
  -3  -6   7   15.30    0.80 
  -3  -6   7   15.99    0.92 
  -2  -6   7    5.18    0.46 
  -2  -6   7    5.82    0.51 
  -1  -6   7   18.77    0.87 
  -1  -6   7   19.47    0.92 
   0  -6   7   -0.03    0.09 
   0  -6   7    0.04    0.13 
   1  -6   7   20.28    0.75 
   1  -6   7   20.18    1.01 
   2  -6   7    5.36    0.55 
  -3   6  -7   15.30    0.71 
   3  -6   7   14.44    0.92 
  -4   6  -7    3.49    0.37 
   4  -6   7    3.10    0.53 
   5  -6   7    0.82    0.38 
   6  -6   7    1.23    0.48 
  -6  -5   7    1.37    0.44 
  -5  -5   7    0.93    0.37 
  -4  -5   7    2.19    0.32 
  -4  -5   7    2.16    0.44 
  -3  -5   7   21.28    1.08 
  -3  -5   7   21.40    0.96 
  -2  -5   7   34.61    1.36 
  -2  -5   7   35.69    1.43 
  -1  -5   7    4.96    0.37 
  -1  -5   7    4.61    0.39 
   0  -5   7   12.86    0.58 
   1  -5   7    4.81    0.44 
   1  -5   7    4.73    0.26 
  -2   5  -7   37.33    1.30 
   2  -5   7   36.57    1.52 
  -3   5  -7   22.78    0.91 
   3  -5   7   22.15    1.14 
  -4   5  -7    2.73    0.31 
   4  -5   7    2.47    0.45 
  -5   5  -7    1.08    0.22 
   5  -5   7    0.78    0.39 
   6  -5   7    1.29    0.46 
  -6  -4   7   -0.06    0.27 
  -5  -4   7    1.16    0.37 
  -5  -4   7    0.77    0.26 
  -4  -4   7    3.01    0.36 
  -3  -4   7   39.68    1.49 
  -2  -4   7   30.79    1.19 
  -1  -4   7  235.81    7.22 
   0  -4   7   12.07    0.60 
   0  -4   7   10.34    0.49 
  -1   4  -7  238.46    6.82 
   1  -4   7  238.96    7.42 
   1  -4   7  243.53    7.10 
  -2   4  -7   28.94    1.02 
   2  -4   7   27.39    1.19 
  -3   4  -7   37.90    1.33 
   3  -4   7   38.76    1.59 
  -4   4  -7    3.94    0.37 
   4  -4   7    4.30    0.52 
  -5   4  -7    0.70    0.21 
   5  -4   7    1.14    0.36 
  -6   4  -7    0.25    0.21 
   6  -4   7   -0.07    0.30 
  -6  -3   7    0.83    0.38 
  -5  -3   7    1.32    0.30 
  -4  -3   7   19.99    0.94 
  -3  -3   7    1.84    0.27 
  -2  -3   7   76.35    2.52 
  -1  -3   7    7.47    0.42 
   0  -3   7  127.51    4.00 
  -1   3  -7    7.85    0.39 
   1  -3   7    7.84    0.46 
   1  -3   7    7.86    0.28 
  -2   3  -7   73.07    2.25 
   2  -3   7   74.69    2.52 
  -3   3  -7    1.87    0.25 
   3  -3   7    1.62    0.30 
  -4   3  -7   21.47    0.90 
   4  -3   7   21.06    1.06 
  -5   3  -7    0.98    0.23 
   5  -3   7    1.52    0.37 
  -6   3  -7    0.99    0.28 
   6  -3   7    1.22    0.42 
  -7  -2   7   -0.24    0.31 
  -6  -2   7    0.71    0.30 
  -5  -2   7    5.80    0.54 
  -4  -2   7    6.95    0.51 
  -3  -2   7   15.80    0.75 
  -2  -2   7   42.08    1.49 
  -1  -2   7    5.16    0.32 
   0   2  -7    7.00    0.33 
   0  -2   7    6.72    0.36 
  -1   2  -7    5.53    0.28 
   1  -2   7    4.62    0.32 
  -2   2  -7   40.76    1.37 
   2  -2   7   44.79    1.54 
  -3   2  -7   14.62    0.54 
  -3   2  -7   13.55    0.64 
   3  -2   7   15.61    0.75 
  -4   2  -7    7.26    0.47 
   4  -2   7    7.13    0.53 
  -5   2  -7    5.53    0.49 
   5  -2   7    5.49    0.56 
  -6   2  -7    0.45    0.22 
  -7   2  -7    0.42    0.28 
  -6  -1   7    0.39    0.26 
  -5  -1   7    2.47    0.38 
  -4  -1   7    5.07    0.46 
  -3  -1   7   52.14    1.86 
  -2  -1   7   19.09    0.79 
  -1  -1   7  112.83    3.51 
   0   1  -7    4.80    0.23 
   0   1  -7    4.44    0.25 
   0  -1   7    3.92    0.24 
  -1   1  -7  110.81    3.22 
  -1   1  -7  111.22    3.36 
   1  -1   7  114.42    3.48 
  -2   1  -7   17.59    0.59 
  -2   1  -7   16.84    0.67 
   2  -1   7   17.11    0.71 
  -3   1  -7   48.46    1.64 
  -3   1  -7   50.25    1.61 
   3  -1   7   49.46    1.74 
  -4   1  -7    5.31    0.35 
  -4   1  -7    5.12    0.43 
   4  -1   7    5.32    0.45 
  -5   1  -7    2.23    0.34 
   5  -1   7    2.24    0.38 
  -6   1  -7    0.89    0.30 
  -7   1  -7   -0.05    0.23 
  -7   0   7    0.15    0.32 
  -6   0   7    0.01    0.21 
  -5   0   7    5.26    0.54 
  -4   0   7    8.42    0.59 
  -3   0   7    6.60    0.46 
  -2   0   7    9.52    0.51 
   1   0  -7   18.23    0.75 
  -1   0   7   19.12    0.73 
   0   0  -7    0.22    0.08 
   0   0  -7    0.07    0.05 
   0   0   7   -0.04    0.05 
  -1   0  -7   18.01    0.63 
  -1   0  -7   18.32    0.64 
  -2   0  -7    8.39    0.42 
  -2   0  -7    7.96    0.36 
   2   0   7    7.84    0.38 
  -3   0  -7    6.57    0.41 
  -3   0  -7    6.08    0.35 
   3   0   7    5.79    0.37 
  -4   0  -7    8.39    0.53 
  -4   0  -7    8.79    0.49 
   4   0   7    7.19    0.49 
  -5   0  -7    5.25    0.50 
  -6   0  -7    0.06    0.20 
  -7   0  -7    0.55    0.30 
  -7   1   7   -0.20    0.27 
  -6   1   7    0.02    0.25 
   5  -1  -7    2.02    0.42 
   4  -1  -7    4.08    0.50 
   3  -1  -7   46.60    1.78 
   2  -1  -7   16.46    0.78 
   2  -1  -7   18.00    0.79 
   1  -1  -7  112.32    3.49 
   1  -1  -7  109.66    3.47 
   0  -1  -7    4.32    0.26 
   0   1   7    3.99    0.23 
  -1  -1  -7  115.79    3.34 
  -1  -1  -7  113.72    3.52 
   1   1   7  118.03    3.49 
  -2  -1  -7   16.66    0.67 
   2   1   7   17.82    0.62 
  -3  -1  -7   49.51    1.71 
   3   1   7   49.91    1.65 
  -4  -1  -7    5.40    0.41 
   4   1   7    5.13    0.38 
  -5  -1  -7    2.32    0.33 
  -5  -1  -7    1.76    0.31 
  -6  -1  -7    0.52    0.23 
  -7  -1  -7   -0.23    0.24 
  -7   2   7    0.02    0.32 
   6  -2  -7    0.91    0.39 
   5  -2  -7    5.54    0.65 
   4  -2  -7    7.84    0.67 
   3  -2  -7   11.98    0.71 
   2  -2  -7   44.68    1.59 
   2  -2  -7   44.03    1.61 
  -2   2   7   42.27    1.24 
   1  -2  -7    5.23    0.34 
   1  -2  -7    5.24    0.34 
   0  -2  -7    7.40    0.35 
   0  -2  -7    7.41    0.37 
  -1  -2  -7    5.10    0.30 
   1   2   7    5.17    0.19 
  -2  -2  -7   42.65    1.47 
  -3  -2  -7   15.91    0.72 
   3   2   7   14.68    0.56 
  -4  -2  -7    6.59    0.49 
  -5  -2  -7    5.56    0.51 
  -6  -2  -7    0.62    0.25 
  -7  -2  -7    0.17    0.25 
   6  -3  -7    1.21    0.42 
   5  -3  -7    1.31    0.38 
   4  -3  -7   20.50    1.10 
   3  -3  -7    1.30    0.28 
   3  -3  -7    2.10    0.31 
  -3   3   7    1.69    0.13 
   2  -3  -7   73.88    2.57 
   2  -3  -7   76.50    2.53 
   1  -3  -7    7.26    0.42 
   1  -3  -7    7.00    0.42 
   0  -3  -7  123.08    3.80 
   0  -3  -7  122.82    3.79 
  -1  -3  -7    7.89    0.31 
  -1  -3  -7    7.70    0.41 
  -2  -3  -7   72.23    2.37 
  -3  -3  -7    1.91    0.28 
  -4  -3  -7   20.38    0.98 
  -5  -3  -7    1.43    0.32 
  -6  -3  -7    1.23    0.33 
   6  -4  -7   -0.07    0.32 
   5  -4  -7    0.89    0.36 
   4  -4  -7    4.05    0.54 
   3  -4  -7   41.97    1.59 
   3  -4  -7   37.77    1.63 
   2  -4  -7   28.84    1.22 
   2  -4  -7   27.85    1.15 
   1  -4  -7  234.62    7.19 
   1  -4  -7  238.87    7.28 
   0  -4  -7   12.20    0.56 
   0  -4  -7   11.91    0.57 
  -1  -4  -7  239.87    7.20 
  -1  -4  -7  242.16    7.30 
  -2  -4  -7   28.02    1.11 
  -3  -4  -7   41.83    1.61 
  -4  -4  -7    3.66    0.44 
  -5  -4  -7    0.84    0.29 
  -6  -4  -7   -0.26    0.25 
   6  -5  -7    1.62    0.48 
   5  -5  -7    0.51    0.30 
   4  -5  -7    2.56    0.46 
   3  -5  -7   22.77    1.05 
   3  -5  -7   20.78    1.11 
   2  -5  -7   37.77    1.46 
   2  -5  -7   37.29    1.54 
   1  -5  -7    5.36    0.39 
   1  -5  -7    5.25    0.44 
   0  -5  -7   21.23    0.88 
   0  -5  -7   22.33    0.91 
  -1  -5  -7    4.20    0.36 
  -1  -5  -7    4.69    0.29 
  -2  -5  -7   36.72    1.41 
  -3  -5  -7   21.54    1.03 
  -4  -5  -7    1.76    0.35 
  -5  -5  -7    1.14    0.35 
  -6  -5  -7    1.31    0.42 
   6  -6  -7    0.42    0.37 
   5  -6  -7    0.26    0.32 
   4  -6  -7    2.59    0.47 
   4  -6  -7    3.04    0.42 
   3  -6  -7   15.77    0.96 
   3  -6  -7   16.31    0.87 
   2  -6  -7    5.47    0.46 
   2  -6  -7    5.14    0.53 
   1  -6  -7   19.04    0.92 
   1  -6  -7   19.04    0.88 
   0  -6  -7    0.05    0.11 
   0  -6  -7    0.19    0.14 
  -1  -6  -7   20.89    0.94 
  -1  -6  -7   19.82    0.81 
  -2  -6  -7    6.06    0.51 
  -3  -6  -7   16.43    0.89 
  -4  -6  -7    3.33    0.47 
  -5  -6  -7    0.38    0.29 
  -6  -6  -7    0.75    0.39 
   5  -7  -7    1.30    0.45 
   4  -7  -7    2.41    0.49 
   3  -7  -7    0.27    0.24 
   3  -7  -7    0.10    0.21 
   2  -7  -7    5.74    0.58 
   2  -7  -7    4.77    0.47 
   1  -7  -7    5.70    0.52 
   1  -7  -7    5.73    0.48 
   0  -7  -7   60.77    2.16 
   0  -7  -7   60.97    2.16 
  -1  -7  -7    5.70    0.49 
  -2  -7  -7    5.48    0.52 
  -3  -7  -7    0.12    0.20 
  -4  -7  -7    2.61    0.45 
  -5  -7  -7    0.93    0.35 
   5  -8  -7    0.98    0.45 
   4  -8  -7    0.38    0.31 
   3  -8  -7    0.40    0.30 
   2  -8  -7    0.28    0.24 
   2  -8  -7    0.40    0.23 
   1  -8  -7    2.26    0.36 
   1  -8  -7    2.38    0.40 
   0  -8  -7    6.33    0.53 
   0  -8  -7    6.72    0.52 
  -1  -8  -7    1.64    0.33 
  -2  -8  -7    0.29    0.24 
  -3  -8  -7    1.53    0.37 
  -4  -8  -7    0.07    0.27 
  -5  -8  -7    1.53    0.43 
   4  -9  -7    0.74    0.41 
   3  -9  -7    1.07    0.39 
   2  -9  -7    1.76    0.37 
   2  -9  -7    1.36    0.39 
   1  -9  -7    3.65    0.51 
   1  -9  -7    4.13    0.48 
   0  -9  -7    0.36    0.24 
  -1  -9  -7    4.32    0.51 
  -2  -9  -7    1.60    0.37 
  -3  -9  -7    0.75    0.31 
  -4  -9  -7    0.54    0.32 
   3 -10  -7    0.01    0.32 
   2 -10  -7    1.66    0.46 
   1 -10  -7    1.81    0.42 
   1 -10  -7    1.29    0.37 
   0 -10  -7    1.35    0.35 
  -1 -10  -7    2.05    0.40 
  -2 -10  -7    2.50    0.47 
  -3 -10  -7    0.25    0.28 
   2 -11  -7    2.28    0.57 
   0 -11  -7    5.93    0.64 
  -1 -11  -7    0.85    0.33 
  -2 -11  -7    1.90    0.46 
  -1 -11   8    2.69    0.54 
   0 -11   8    0.07    0.29 
   1 -11   8    3.04    0.61 
   2 -11   8    1.45    0.47 
  -3 -10   8    0.97    0.41 
  -2 -10   8    3.71    0.54 
  -2 -10   8    4.20    0.60 
  -1 -10   8    2.85    0.51 
   0 -10   8    8.75    0.82 
   1 -10   8    1.82    0.46 
   2 -10   8    3.04    0.57 
   3 -10   8    1.31    0.46 
  -4  -9   8    1.83    0.46 
  -3  -9   8   -0.09    0.24 
  -2  -9   8    0.85    0.30 
  -2  -9   8    1.15    0.33 
  -1  -9   8    6.35    0.56 
  -1  -9   8    6.53    0.65 
   0  -9   8    0.10    0.22 
   1  -9   8    6.42    0.69 
   2  -9   8    0.57    0.29 
   3  -9   8    0.04    0.27 
   4  -9   8    1.40    0.46 
  -5  -8   8    0.32    0.35 
  -4  -8   8    4.75    0.65 
  -3  -8   8    0.58    0.25 
  -3  -8   8    0.52    0.30 
  -2  -8   8   11.77    0.76 
  -2  -8   8   11.34    0.75 
  -1  -8   8   14.88    0.81 
  -1  -8   8   14.85    0.88 
   0  -8   8    2.09    0.28 
   0  -8   8    4.02    0.51 
   1  -8   8   14.91    0.93 
   2  -8   8   10.92    0.81 
   3  -8   8    0.80    0.34 
   4  -8   8    4.09    0.66 
   5  -8   8    0.75    0.45 
  -5  -7   8    0.73    0.37 
  -4  -7   8    0.65    0.34 
  -3  -7   8   15.58    0.88 
  -3  -7   8   16.79    0.99 
  -2  -7   8    5.54    0.53 
  -2  -7   8    5.05    0.49 
  -1  -7   8    6.08    0.53 
  -1  -7   8    4.81    0.44 
   0  -7   8    0.43    0.22 
   0  -7   8    0.56    0.17 
   1  -7   8    5.34    0.56 
   2  -7   8    4.93    0.57 
  -3   7  -8   14.60    0.76 
   3  -7   8   14.93    0.97 
  -4   7  -8    0.93    0.25 
   4  -7   8    0.79    0.36 
   5  -7   8    0.39    0.37 
  -6  -6   8    1.46    0.46 
  -5  -6   8    0.59    0.33 
  -4  -6   8    0.04    0.25 
  -4  -6   8   -0.06    0.17 
  -3  -6   8    3.04    0.46 
  -3  -6   8    3.87    0.42 
  -2  -6   8    4.19    0.45 
  -2  -6   8    3.51    0.40 
  -1  -6   8    4.84    0.42 
  -1  -6   8    4.91    0.46 
   0  -6   8    0.23    0.13 
   0  -6   8    0.29    0.17 
   1  -6   8    4.87    0.29 
   1  -6   8    4.42    0.47 
  -2   6  -8    3.16    0.34 
   2  -6   8    3.47    0.45 
  -3   6  -8    2.74    0.32 
   3  -6   8    3.49    0.51 
  -4   6  -8    0.35    0.17 
   4  -6   8    0.10    0.25 
  -5   6  -8    0.52    0.21 
   5  -6   8    0.59    0.35 
   6  -6   8    1.69    0.54 
  -6  -5   8    0.37    0.37 
  -5  -5   8    0.54    0.29 
  -4  -5   8    1.05    0.25 
  -4  -5   8    1.13    0.34 
  -3  -5   8   13.80    0.74 
  -3  -5   8   14.33    0.85 
  -2  -5   8    0.33    0.16 
  -2  -5   8    0.70    0.21 
  -1  -5   8    6.31    0.45 
  -1  -5   8    5.73    0.41 
   0  -5   8   22.60    0.89 
   0  -5   8   24.06    1.04 
   1  -5   8    5.05    0.46 
   1  -5   8    5.43    0.28 
  -2   5  -8    0.73    0.18 
   2  -5   8    0.70    0.24 
  -3   5  -8   15.87    0.72 
   3  -5   8   15.39    0.92 
  -4   5  -8    1.24    0.23 
   4  -5   8    1.84    0.43 
  -5   5  -8    0.66    0.22 
   5  -5   8    0.57    0.32 
   6  -5   8    0.24    0.36 
  -6  -4   8    0.59    0.36 
  -5  -4   8    1.39    0.39 
  -5  -4   8    1.13    0.28 
  -4  -4   8    1.47    0.29 
  -3  -4   8    2.77    0.33 
  -2  -4   8   13.75    0.68 
  -1  -4   8   14.91    0.70 
   0  -4   8    7.19    0.46 
   0  -4   8    7.41    0.39 
  -1   4  -8   15.29    0.66 
   1  -4   8   15.73    0.54 
   1  -4   8   14.78    0.75 
  -2   4  -8   14.07    0.63 
   2  -4   8   15.20    0.78 
  -3   4  -8    3.02    0.30 
   3  -4   8    2.43    0.38 
  -4   4  -8    1.20    0.24 
   4  -4   8    0.99    0.31 
  -5   4  -8    1.26    0.27 
   5  -4   8    1.35    0.40 
  -6   4  -8    0.58    0.24 
   6  -4   8    0.60    0.37 
  -5  -3   8    2.78    0.40 
  -4  -3   8    2.55    0.36 
  -3  -3   8    8.35    0.53 
  -2  -3   8    1.61    0.23 
  -1  -3   8   99.99    3.21 
   0  -3   8   21.82    0.89 
  -1   3  -8   95.91    2.91 
   1  -3   8   99.07    3.19 
   1  -3   8  100.03    2.95 
  -2   3  -8    1.71    0.21 
   2  -3   8    1.66    0.26 
  -3   3  -8    8.09    0.46 
   3  -3   8    7.65    0.54 
  -4   3  -8    2.01    0.28 
   4  -3   8    1.94    0.36 
  -5   3  -8    2.97    0.38 
   5  -3   8    3.89    0.52 
  -6   3  -8    0.42    0.21 
   6  -3   8    0.53    0.37 
  -6  -2   8    1.56    0.37 
  -5  -2   8    5.80    0.55 
  -4  -2   8   19.51    0.94 
  -3  -2   8    2.62    0.31 
  -2  -2   8    5.44    0.37 
  -1  -2   8   19.31    0.78 
   0   2  -8    6.89    0.33 
   0  -2   8    6.55    0.37 
  -1   2  -8   17.93    0.68 
   1  -2   8   19.08    0.77 
  -2   2  -8    5.36    0.32 
   2  -2   8    5.09    0.37 
  -3   2  -8    1.95    0.25 
  -3   2  -8    2.23    0.15 
   3  -2   8    1.90    0.28 
  -4   2  -8   20.29    0.90 
   4  -2   8   21.09    1.01 
  -5   2  -8    5.95    0.51 
   5  -2   8    5.63    0.57 
  -6   2  -8    1.40    0.32 
  -6  -1   8    0.15    0.23 
  -5  -1   8    7.22    0.62 
  -4  -1   8   11.25    0.69 
  -3  -1   8   23.61    1.02 
  -2  -1   8   92.00    2.98 
  -1  -1   8    7.55    0.40 
   0   1  -8   24.02    0.85 
   0   1  -8   23.57    0.78 
   0  -1   8   23.11    0.85 
  -1   1  -8    7.55    0.36 
  -1   1  -8    8.44    0.34 
   1  -1   8    7.45    0.39 
  -2   1  -8   91.23    2.70 
  -2   1  -8   86.96    2.66 
   2  -1   8   89.05    2.86 
  -3   1  -8   21.63    0.79 
  -3   1  -8   21.98    0.88 
   3  -1   8   22.08    0.92 
  -4   1  -8   12.39    0.66 
  -4   1  -8   12.64    0.57 
   4  -1   8   11.07    0.66 
  -5   1  -8    5.67    0.51 
   5  -1   8    6.33    0.56 
  -6   1  -8    0.45    0.24 
  -7   1  -8    0.72    0.32 
  -7   0   8   -0.11    0.31 
  -6   0   8    0.47    0.27 
  -5   0   8    3.46    0.46 
  -4   0   8   12.95    0.76 
  -3   0   8   25.13    1.08 
  -2   0   8  119.38    3.79 
   1   0  -8    0.98    0.17 
  -1   0   8    1.20    0.17 
   0   0  -8   94.24    2.98 
   0   0  -8   96.18    2.74 
   0   0   8   98.23    2.98 
  -1   0  -8    1.04    0.13 
  -1   0  -8    0.99    0.11 
  -2   0  -8  119.02    3.56 
  -2   0  -8  121.82    3.67 
   2   0   8  122.69    3.74 
  -3   0  -8   23.07    0.88 
  -3   0  -8   23.16    0.93 
   3   0   8   23.28    0.91 
  -4   0  -8   14.11    0.73 
  -4   0  -8   13.82    0.66 
   4   0   8   13.53    0.69 
  -5   0  -8    2.90    0.39 
  -6   0  -8    0.78    0.28 
  -7   0  -8   -0.32    0.24 
  -7   1   8    0.22    0.29 
  -6   1   8   -0.03    0.21 
  -5   1   8    6.75    0.63 
   4  -1  -8   12.73    0.82 
   3  -1  -8   20.08    0.98 
   2  -1  -8   85.10    2.86 
   2  -1  -8   88.11    2.89 
   1  -1  -8    7.57    0.42 
  -1   1   8    6.92    0.38 
   0  -1  -8   23.14    0.85 
   0   1   8   23.09    0.81 
  -1  -1  -8    7.14    0.35 
  -1  -1  -8    7.65    0.36 
   1   1   8    8.09    0.32 
  -2  -1  -8   88.70    2.72 
  -2  -1  -8   89.15    2.80 
   2   1   8   91.07    2.75 
  -3  -1  -8   21.15    0.89 
  -3  -1  -8   20.66    0.86 
   3   1   8   22.58    0.82 
  -4  -1  -8   13.03    0.70 
  -4  -1  -8   11.85    0.64 
  -5  -1  -8    7.12    0.52 
  -5  -1  -8    6.60    0.57 
  -6  -1  -8    0.09    0.19 
  -7  -1  -8    0.54    0.30 
   6  -2  -8    1.86    0.50 
   5  -2  -8    6.39    0.69 
   4  -2  -8   18.40    1.01 
   3  -2  -8    1.73    0.31 
   2  -2  -8    4.83    0.37 
   2  -2  -8    4.69    0.40 
   1  -2  -8   17.53    0.74 
   1  -2  -8   16.59    0.73 
   0  -2  -8    6.44    0.27 
   0  -2  -8    6.34    0.35 
  -1  -2  -8   18.00    0.71 
   1   2   8   18.21    0.59 
  -2  -2  -8    5.30    0.34 
  -3  -2  -8    1.86    0.26 
   3   2   8    2.13    0.16 
  -4  -2  -8   18.29    0.87 
  -5  -2  -8    5.20    0.49 
  -6  -2  -8    1.38    0.34 
   6  -3  -8    0.09    0.33 
   5  -3  -8    2.86    0.53 
   4  -3  -8    2.39    0.43 
   3  -3  -8    6.82    0.51 
   3  -3  -8    6.18    0.55 
   2  -3  -8    1.51    0.26 
   2  -3  -8    1.97    0.27 
   1  -3  -8   96.45    3.14 
   1  -3  -8   97.70    3.12 
   0  -3  -8   22.11    0.84 
   0  -3  -8   22.86    0.88 
  -1  -3  -8   97.72    3.12 
   1   3   8  100.01    2.98 
  -2  -3  -8    1.94    0.25 
  -3  -3  -8    7.18    0.48 
  -4  -3  -8    2.47    0.36 
  -5  -3  -8    3.48    0.45 
  -6  -3  -8    0.66    0.31 
   6  -4  -8    0.54    0.39 
   5  -4  -8    1.16    0.38 
   4  -4  -8    1.31    0.36 
   3  -4  -8    2.61    0.41 
   3  -4  -8    3.89    0.41 
   2  -4  -8   13.75    0.74 
   2  -4  -8   13.21    0.70 
   1  -4  -8   15.64    0.74 
   1  -4  -8   14.89    0.71 
   0  -4  -8    7.61    0.44 
   0  -4  -8    7.52    0.41 
  -1  -4  -8   15.35    0.70 
  -1  -4  -8   14.50    0.56 
  -2  -4  -8   14.02    0.69 
  -3  -4  -8    2.53    0.35 
  -4  -4  -8    1.56    0.31 
  -5  -4  -8    1.11    0.32 
  -6  -4  -8    0.48    0.31 
   6  -5  -8   -0.11    0.28 
   5  -5  -8    0.53    0.32 
   4  -5  -8    1.27    0.32 
   4  -5  -8    1.20    0.34 
   3  -5  -8   14.11    0.84 
   3  -5  -8   11.52    0.73 
   2  -5  -8    0.88    0.24 
   2  -5  -8    0.60    0.20 
   1  -5  -8    6.15    0.45 
   1  -5  -8    6.02    0.42 
   0  -5  -8   23.34    0.97 
   0  -5  -8   23.09    0.94 
  -1  -5  -8    5.48    0.39 
  -1  -5  -8    5.06    0.31 
  -2  -5  -8    0.63    0.21 
  -3  -5  -8   15.50    0.83 
  -4  -5  -8    1.63    0.33 
  -5  -5  -8    0.61    0.29 
  -6  -5  -8    0.38    0.34 
   6  -6  -8    1.79    0.52 
   5  -6  -8    0.14    0.25 
   4  -6  -8    0.24    0.24 
   4  -6  -8    0.17    0.22 
   3  -6  -8    4.36    0.47 
   3  -6  -8    3.59    0.52 
   2  -6  -8    2.49    0.36 
   2  -6  -8    4.36    0.49 
   1  -6  -8    4.84    0.43 
   1  -6  -8    4.92    0.46 
   0  -6  -8    0.19    0.15 
   0  -6  -8    0.39    0.15 
  -1  -6  -8    5.62    0.43 
  -1  -6  -8    5.27    0.35 
  -2  -6  -8    4.14    0.44 
  -3  -6  -8    3.37    0.44 
  -4  -6  -8   -0.20    0.18 
  -5  -6  -8    0.42    0.28 
  -6  -6  -8    2.35    0.50 
   5  -7  -8    0.22    0.34 
   4  -7  -8    0.44    0.31 
   3  -7  -8   15.48    0.98 
   3  -7  -8   15.71    0.91 
   2  -7  -8    6.42    0.55 
   2  -7  -8    5.97    0.61 
   1  -7  -8    6.04    0.50 
   1  -7  -8    4.91    0.50 
   0  -7  -8    0.41    0.18 
   0  -7  -8    0.34    0.18 
  -1  -7  -8    5.49    0.48 
  -2  -7  -8    5.83    0.54 
  -3  -7  -8   17.01    0.96 
  -4  -7  -8    0.37    0.27 
  -5  -7  -8    0.30    0.28 
   5  -8  -8   -0.07    0.32 
   4  -8  -8    4.63    0.71 
   3  -8  -8    0.49    0.28 
   3  -8  -8    0.68    0.34 
   2  -8  -8   11.35    0.81 
   2  -8  -8   11.05    0.73 
   1  -8  -8   14.91    0.84 
   1  -8  -8   14.51    0.86 
   0  -8  -8    3.83    0.44 
   0  -8  -8    4.16    0.43 
  -1  -8  -8   13.85    0.80 
  -2  -8  -8   10.93    0.73 
  -3  -8  -8    0.66    0.30 
  -4  -8  -8    4.74    0.61 
  -5  -8  -8    0.30    0.32 
   4  -9  -8    2.39    0.58 
   3  -9  -8   -0.01    0.27 
   2  -9  -8    0.85    0.30 
   2  -9  -8    0.56    0.32 
   1  -9  -8    6.99    0.62 
   1  -9  -8    8.27    0.71 
   0  -9  -8    0.14    0.20 
  -1  -9  -8    7.22    0.63 
  -2  -9  -8    0.71    0.30 
  -3  -9  -8    0.13    0.25 
  -4  -9  -8    1.38    0.42 
   3 -10  -8    1.53    0.46 
   2 -10  -8    3.20    0.57 
   1 -10  -8    1.63    0.38 
   0 -10  -8    9.00    0.70 
  -1 -10  -8    1.83    0.40 
  -2 -10  -8    4.43    0.57 
  -3 -10  -8    0.91    0.37 
   2 -11  -8    1.16    0.48 
   1 -11  -8    2.72    0.52 
   0 -11  -8    0.18    0.29 
  -1 -11  -8    3.61    0.55 
  -2 -11  -8    1.06    0.38 
  -1 -11   9    0.37    0.32 
   0 -11   9    2.26    0.52 
   1 -11   9    0.84    0.42 
   2 -11   9    2.90    0.65 
  -3 -10   9    0.59    0.37 
  -2 -10   9    0.15    0.28 
  -2 -10   9    0.24    0.29 
  -1 -10   9    0.48    0.31 
   0 -10   9    0.03    0.24 
   1 -10   9    0.15    0.25 
   2 -10   9   -0.19    0.25 
   3 -10   9    0.94    0.42 
  -4  -9   9    0.25    0.34 
  -3  -9   9    0.75    0.33 
  -2  -9   9    0.51    0.29 
  -2  -9   9    0.65    0.29 
  -1  -9   9    2.41    0.45 
  -1  -9   9    1.98    0.38 
   0  -9   9    0.06    0.21 
   1  -9   9    2.63    0.49 
   2  -9   9    0.87    0.35 
   3  -9   9    0.53    0.32 
   4  -9   9   -0.02    0.31 
  -5  -8   9    0.89    0.41 
  -4  -8   9    1.87    0.46 
  -3  -8   9    0.81    0.28 
  -3  -8   9    1.08    0.36 
  -2  -8   9    1.18    0.32 
  -2  -8   9    1.16    0.31 
  -1  -8   9    8.59    0.60 
  -1  -8   9    9.71    0.70 
   0  -8   9   11.55    0.80 
   1  -8   9    8.03    0.72 
   2  -8   9    1.35    0.37 
   3  -8   9    0.56    0.31 
   4  -8   9    2.43    0.54 
   5  -8   9    0.20    0.40 
  -5  -7   9    0.39    0.34 
  -4  -7   9    1.76    0.36 
  -4  -7   9    1.51    0.41 
  -3  -7   9    8.12    0.61 
  -3  -7   9    7.91    0.70 
  -2  -7   9   10.86    0.70 
  -2  -7   9   11.42    0.74 
  -1  -7   9    8.89    0.58 
  -1  -7   9    9.41    0.65 
   0  -7   9   14.03    0.83 
   0  -7   9   14.03    0.67 
   1  -7   9   10.27    0.72 
   2  -7   9   11.46    0.79 
  -3   7  -9    7.32    0.53 
   3  -7   9    8.66    0.80 
  -4   7  -9    2.14    0.34 
   4  -7   9    2.31    0.50 
   5  -7   9    0.39    0.39 
  -6  -6   9    0.39    0.36 
  -5  -6   9    1.82    0.47 
  -4  -6   9    0.35    0.22 
  -4  -6   9    0.76    0.33 
  -3  -6   9   10.27    0.65 
  -3  -6   9    9.50    0.70 
  -2  -6   9    3.04    0.40 
  -2  -6   9    2.86    0.38 
  -1  -6   9    9.94    0.65 
  -1  -6   9   12.00    0.64 
   0  -6   9    0.37    0.20 
   0  -6   9    0.67    0.17 
   1  -6   9   11.32    0.71 
  -2   6  -9    2.20    0.30 
   2  -6   9    1.95    0.37 
  -3   6  -9    9.36    0.56 
   3  -6   9    9.88    0.74 
  -4   6  -9    0.63    0.21 
   4  -6   9    1.03    0.35 
  -5   6  -9    1.98    0.34 
   5  -6   9    1.00    0.42 
   6  -6   9    0.43    0.43 
  -6  -5   9    0.95    0.42 
  -5  -5   9    0.73    0.35 
  -5  -5   9    1.35    0.31 
  -4  -5   9   10.12    0.63 
  -4  -5   9    7.02    0.70 
  -3  -5   9   15.44    0.81 
  -2  -5   9    7.99    0.53 
  -1  -5   9   20.94    0.97 
  -1  -5   9   22.05    0.94 
   0  -5   9   66.54    2.34 
   0  -5   9   66.09    2.17 
   1  -5   9   18.97    0.97 
   1  -5   9   21.78    0.74 
  -2   5  -9    7.30    0.45 
   2  -5   9    8.30    0.59 
  -3   5  -9   15.36    0.72 
   3  -5   9   15.19    0.91 
  -4   5  -9    8.96    0.54 
   4  -5   9    8.34    0.74 
  -5   5  -9    1.03    0.25 
   5  -5   9    0.80    0.36 
   6  -5   9    0.73    0.42 
  -6  -4   9    2.67    0.58 
  -5  -4   9    3.69    0.47 
  -4  -4   9   10.85    0.67 
  -3  -4   9   27.32    1.16 
  -2  -4   9   10.11    0.57 
  -1  -4   9   36.50    1.38 
   0  -4   9   16.11    0.76 
  -1   4  -9   38.70    1.31 
   1  -4   9   38.52    1.20 
   1  -4   9   35.34    1.44 
  -2   4  -9    9.27    0.48 
   2  -4   9    9.27    0.59 
  -3   4  -9   29.25    1.10 
   3  -4   9   28.93    1.30 
  -4   4  -9    9.45    0.57 
   4  -4   9   11.04    0.76 
  -5   4  -9    4.62    0.46 
   5  -4   9    4.25    0.59 
  -6   4  -9    2.66    0.42 
   6  -4   9    1.78    0.50 
  -6  -3   9    0.73    0.29 
  -5  -3   9    2.48    0.40 
  -4  -3   9   20.17    0.97 
  -3  -3   9    0.82    0.21 
  -2  -3   9   37.83    1.41 
  -1  -3   9   11.43    0.57 
   0  -3   9    7.08    0.43 
  -1   3  -9   12.63    0.55 
   1  -3   9   12.18    0.63 
  -2   3  -9   37.24    1.27 
   2  -3   9   37.35    1.45 
  -3   3  -9    0.90    0.20 
   3  -3   9    0.80    0.23 
  -4   3  -9   20.24    0.89 
   4  -3   9   20.05    1.04 
  -5   3  -9    2.83    0.38 
   5  -3   9    3.24    0.50 
  -6   3  -9    0.52    0.23 
  -6  -2   9    0.13    0.23 
  -5  -2   9    2.25    0.39 
  -4  -2   9    2.74    0.37 
  -3  -2   9    5.43    0.42 
  -2  -2   9    5.72    0.38 
  -1  -2   9   85.62    2.76 
   0   2  -9    0.07    0.07 
   0  -2   9    0.05    0.07 
  -1   2  -9   81.62    2.48 
   1  -2   9   85.01    2.71 
  -2   2  -9    6.46    0.36 
   2  -2   9    5.36    0.39 
  -3   2  -9    4.99    0.36 
  -3   2  -9    5.05    0.24 
   3  -2   9    4.98    0.43 
  -4   2  -9    2.81    0.35 
   4  -2   9    2.90    0.38 
  -5   2  -9    3.19    0.41 
   5  -2   9    2.55    0.43 
  -6   2  -9    0.38    0.25 
  -6  -1   9    0.35    0.28 
  -5  -1   9    6.45    0.60 
  -4  -1   9   10.58    0.67 
  -3  -1   9    1.08    0.25 
  -2  -1   9  135.45    4.27 
  -1  -1   9   31.89    1.15 
   0   1  -9   15.60    0.56 
   0   1  -9   14.81    0.61 
   0  -1   9   14.54    0.61 
  -1   1  -9   33.37    1.09 
  -1   1  -9   32.64    1.09 
   1  -1   9   33.19    1.17 
  -2   1  -9  137.93    4.12 
  -2   1  -9  138.45    4.02 
   2  -1   9  137.27    4.30 
  -3   1  -9    0.70    0.17 
  -3   1  -9    1.22    0.15 
   3  -1   9    1.13    0.21 
  -4   1  -9    9.77    0.58 
   4  -1   9    9.27    0.59 
  -5   1  -9    6.67    0.57 
  -6   1  -9   -0.10    0.18 
  -6   0   9    0.48    0.26 
  -5   0   9    5.24    0.55 
  -4   0   9    8.23    0.59 
  -3   0   9    0.30    0.16 
  -2   0   9   40.30    1.46 
   1   0  -9   40.63    1.43 
  -1   0   9   38.98    1.38 
   0   0  -9    0.07    0.07 
   0   0  -9    0.16    0.06 
   0   0   9    0.08    0.06 
  -1   0  -9   40.28    1.28 
  -1   0  -9   40.78    1.33 
  -2   0  -9   41.86    1.36 
  -2   0  -9   41.00    1.38 
   2   0   9   42.03    1.41 
  -3   0  -9    0.42    0.13 
  -3   0  -9    0.39    0.15 
   3   0   9    0.68    0.16 
  -4   0  -9    8.12    0.53 
  -4   0  -9    8.27    0.48 
   4   0   9    8.33    0.52 
  -5   0  -9    5.44    0.52 
  -6   0  -9    0.27    0.22 
  -7   0  -9    0.25    0.28 
  -6   1   9    0.18    0.26 
  -5   1   9    5.19    0.58 
   4  -1  -9    9.36    0.70 
   3  -1  -9    0.72    0.22 
   2  -1  -9  134.99    4.28 
  -2   1   9  133.24    4.26 
   1  -1  -9   33.90    1.21 
  -1   1   9   30.62    1.15 
   0  -1  -9   16.04    0.64 
   0   1   9   15.05    0.59 
  -1  -1  -9   32.59    1.14 
  -1  -1  -9   33.49    1.09 
   1   1   9   33.63    1.09 
  -2  -1  -9  136.82    4.25 
  -2  -1  -9  137.88    4.08 
   2   1   9  142.76    4.22 
  -3  -1  -9    0.88    0.18 
  -3  -1  -9    0.90    0.20 
   3   1   9    1.19    0.16 
  -4  -1  -9    9.31    0.60 
  -4  -1  -9   10.45    0.58 
  -5  -1  -9    6.59    0.51 
  -5  -1  -9    6.84    0.59 
  -6  -1  -9   -0.16    0.18 
  -6   2   9    0.12    0.25 
   5  -2  -9    2.01    0.45 
   4  -2  -9    2.20    0.41 
   3  -2  -9    4.22    0.46 
   2  -2  -9    5.67    0.42 
   2  -2  -9    5.59    0.43 
   1  -2  -9   81.81    2.67 
   1  -2  -9   81.23    2.67 
   0  -2  -9    0.16    0.09 
   0  -2  -9    0.01    0.05 
   0   2   9   -0.05    0.04 
  -1  -2  -9   83.48    2.67 
   1   2   9   84.98    2.56 
  -2  -2  -9    5.38    0.35 
  -3  -2  -9    5.02    0.37 
  -4  -2  -9    3.34    0.36 
  -5  -2  -9    2.72    0.38 
  -5  -2  -9    2.06    0.37 
  -6  -2  -9    0.25    0.22 
   6  -3  -9    0.46    0.37 
   5  -3  -9    2.85    0.53 
   4  -3  -9   20.12    1.12 
   3  -3  -9    0.84    0.23 
   3  -3  -9    0.80    0.25 
   2  -3  -9   38.40    1.51 
   2  -3  -9   38.21    1.48 
   1  -3  -9   12.16    0.61 
   1  -3  -9   12.00    0.62 
   0  -3  -9    6.70    0.41 
   0  -3  -9    8.46    0.41 
  -1  -3  -9   11.50    0.56 
   1   3   9   11.91    0.42 
  -2  -3  -9   35.52    1.31 
  -3  -3  -9    1.06    0.23 
  -4  -3  -9   20.91    0.98 
  -5  -3  -9    2.35    0.39 
  -6  -3  -9    0.78    0.31 
   6  -4  -9    2.16    0.55 
   5  -4  -9    3.39    0.57 
   4  -4  -9    8.67    0.76 
   3  -4  -9   29.05    1.32 
   3  -4  -9   27.67    1.26 
   2  -4  -9   10.03    0.62 
   2  -4  -9    9.35    0.59 
   1  -4  -9   39.01    1.47 
   1  -4  -9   38.52    1.47 
   1  -4  -9   40.56    1.14 
   0  -4  -9   16.41    0.68 
   0  -4  -9   15.18    0.71 
  -1  -4  -9   37.57    1.37 
  -1  -4  -9   36.80    1.21 
  -2  -4  -9    8.94    0.53 
  -3  -4  -9   31.21    1.27 
  -4  -4  -9   10.00    0.65 
  -5  -4  -9    3.43    0.46 
  -6  -4  -9    2.87    0.49 
   6  -5  -9    0.91    0.40 
   5  -5  -9    1.36    0.40 
   4  -5  -9    8.31    0.76 
   4  -5  -9    7.02    0.62 
   3  -5  -9   15.94    0.89 
   3  -5  -9   16.92    0.97 
   2  -5  -9    8.84    0.57 
   2  -5  -9    6.65    0.54 
   1  -5  -9   21.00    0.95 
   1  -5  -9   21.93    0.97 
   0  -5  -9   63.58    2.20 
   0  -5  -9   67.68    2.25 
  -1  -5  -9   21.18    0.79 
  -1  -5  -9   21.50    0.94 
  -2  -5  -9    8.54    0.56 
  -3  -5  -9   15.75    0.83 
  -4  -5  -9    8.73    0.64 
  -5  -5  -9    0.94    0.33 
  -6  -5  -9    0.88    0.35 
   6  -6  -9   -0.09    0.35 
   5  -6  -9    1.79    0.46 
   4  -6  -9    1.19    0.37 
   4  -6  -9    0.87    0.31 
   3  -6  -9   10.03    0.69 
   3  -6  -9   10.08    0.75 
   2  -6  -9    2.91    0.37 
   2  -6  -9    2.60    0.40 
   1  -6  -9   11.60    0.69 
   1  -6  -9   12.59    0.69 
   0  -6  -9    0.54    0.18 
   0  -6  -9    0.32    0.17 
  -1  -6  -9   11.67    0.66 
  -2  -6  -9    2.70    0.38 
  -3  -6  -9   10.78    0.70 
  -4  -6  -9    0.81    0.28 
  -5  -6  -9    1.70    0.39 
  -6  -6  -9   -0.23    0.26 
   5  -7  -9    0.33    0.35 
   4  -7  -9    0.76    0.33 
   3  -7  -9    7.97    0.75 
   3  -7  -9    7.89    0.66 
   2  -7  -9   13.05    0.83 
   2  -7  -9   11.82    0.77 
   1  -7  -9    8.92    0.61 
   1  -7  -9    9.02    0.63 
   0  -7  -9   14.62    0.79 
   0  -7  -9   14.77    0.76 
  -1  -7  -9    9.26    0.62 
  -2  -7  -9   11.40    0.71 
  -3  -7  -9    9.38    0.68 
  -4  -7  -9    1.32    0.34 
  -5  -7  -9    1.03    0.36 
   5  -8  -9    0.60    0.41 
   4  -8  -9    2.53    0.54 
   3  -8  -9    1.05    0.38 
   3  -8  -9    1.24    0.36 
   2  -8  -9    0.83    0.31 
   2  -8  -9    0.70    0.27 
   1  -8  -9   10.90    0.72 
   1  -8  -9   10.07    0.70 
   0  -8  -9   11.10    0.69 
   0  -8  -9   12.58    0.75 
  -1  -8  -9    9.57    0.66 
  -2  -8  -9    1.30    0.34 
  -3  -8  -9    0.83    0.32 
  -4  -8  -9    2.98    0.52 
  -5  -8  -9    0.63    0.36 
   4  -9  -9    0.42    0.39 
   3  -9  -9    1.04    0.38 
   2  -9  -9    0.34    0.30 
   2  -9  -9    0.68    0.30 
   1  -9  -9    2.15    0.40 
   1  -9  -9    2.22    0.42 
   0  -9  -9    0.08    0.21 
  -1  -9  -9    1.64    0.36 
  -2  -9  -9    0.67    0.28 
  -3  -9  -9    1.33    0.36 
  -4  -9  -9    0.20    0.30 
   3 -10  -9    1.28    0.47 
   2 -10  -9    0.04    0.28 
   2 -10  -9    0.19    0.32 
   1 -10  -9    0.27    0.26 
   0 -10  -9    0.34    0.25 
  -1 -10  -9    0.39    0.26 
  -2 -10  -9    0.06    0.28 
  -3 -10  -9    1.08    0.37 
   1 -11  -9    0.21    0.32 
   0 -11  -9    1.71    0.42 
  -1 -11  -9   -0.29    0.26 
  -2 -11  -9    1.44    0.42 
  -1 -11  10    6.30    0.79 
   0 -11  10    1.19    0.40 
   1 -11  10    5.12    0.74 
   2 -11  10    4.62    0.78 
  -3 -10  10    4.34    0.63 
  -2 -10  10    0.86    0.36 
  -2 -10  10    0.78    0.34 
  -1 -10  10    4.70    0.66 
   0 -10  10    1.52    0.42 
   1 -10  10    4.88    0.67 
   2 -10  10    0.38    0.30 
   3 -10  10    3.69    0.68 
  -4  -9  10    1.31    0.42 
  -3  -9  10    4.38    0.57 
  -3  -9  10    4.54    0.60 
  -2  -9  10    1.73    0.38 
  -2  -9  10    3.02    0.48 
  -1  -9  10    5.35    0.62 
  -1  -9  10    6.07    0.56 
   0  -9  10   10.78    0.81 
   1  -9  10    6.13    0.70 
   2  -9  10    1.59    0.42 
   3  -9  10    4.49    0.69 
   4  -9  10    2.12    0.58 
  -5  -8  10    1.19    0.45 
  -4  -8  10    0.71    0.36 
  -3  -8  10    3.89    0.51 
  -3  -8  10    3.95    0.56 
  -2  -8  10   11.01    0.76 
  -2  -8  10   11.49    0.77 
  -1  -8  10    7.45    0.66 
  -1  -8  10    7.06    0.54 
   0  -8  10   19.12    1.07 
   1  -8  10    7.33    0.71 
   2  -8  10   12.15    0.87 
   3  -8  10    3.57    0.61 
   4  -8  10    0.76    0.38 
   5  -8  10    0.09    0.37 
  -5  -7  10    1.55    0.45 
  -4  -7  10    0.47    0.30 
  -4  -7  10    0.34    0.24 
  -3  -7  10    3.13    0.47 
  -3  -7  10    2.09    0.38 
  -2  -7  10    9.25    0.65 
  -2  -7  10    9.84    0.68 
  -1  -7  10    2.56    0.35 
  -1  -7  10    2.72    0.40 
   0  -7  10   -0.04    0.15 
   0  -7  10    0.03    0.13 
   1  -7  10    2.97    0.44 
   2  -7  10    8.95    0.70 
  -3   7 -10    2.90    0.39 
   3  -7  10    3.13    0.52 
  -4   7 -10    0.30    0.18 
   4  -7  10   -0.05    0.23 
   5  -7  10    1.91    0.55 
  -5  -6  10    1.49    0.44 
  -4  -6  10    2.77    0.42 
  -4  -6  10    2.04    0.45 
  -3  -6  10   16.12    0.94 
  -3  -6  10   16.20    0.88 
  -2  -6  10    2.52    0.37 
  -2  -6  10    1.80    0.34 
  -1  -6  10    1.14    0.27 
  -1  -6  10    1.40    0.25 
   0  -6  10    4.89    0.49 
   0  -6  10    5.51    0.38 
   1  -6  10    0.71    0.25 
  -2   6 -10    1.84    0.28 
   2  -6  10    2.16    0.39 
  -3   6 -10   13.71    0.72 
   3  -6  10   16.97    0.99 
  -4   6 -10    2.27    0.33 
   4  -6  10    1.87    0.43 
  -5   6 -10    1.11    0.27 
   5  -6  10    1.14    0.42 
  -6  -5  10    0.47    0.38 
  -5  -5  10    1.38    0.32 
  -5  -5  10    1.46    0.43 
  -4  -5  10    5.67    0.52 
  -3  -5  10    1.59    0.30 
  -2  -5  10   30.79    1.29 
  -1  -5  10    6.36    0.44 
  -1  -5  10    6.70    0.49 
   0  -5  10    0.78    0.17 
   0  -5  10    0.84    0.20 
   1  -5  10    5.17    0.49 
   1  -5  10    6.84    0.32 
  -2   5 -10   31.54    1.17 
   2  -5  10   30.03    1.36 
  -3   5 -10    1.72    0.26 
   3  -5  10    1.81    0.36 
  -4   5 -10    5.36    0.46 
   4  -5  10    6.65    0.67 
  -5   5 -10    1.52    0.29 
   5  -5  10    1.35    0.43 
  -6   5 -10    0.69    0.28 
   6  -5  10    0.82    0.43 
  -6  -4  10    0.96    0.42 
  -5  -4  10    0.96    0.28 
  -4  -4  10    0.93    0.27 
  -3  -4  10    6.10    0.48 
  -2  -4  10    9.99    0.58 
  -1  -4  10    0.06    0.11 
   0  -4  10   -0.06    0.09 
  -1   4 -10    0.24    0.12 
   1  -4  10    0.24    0.13 
   1  -4  10    0.22    0.08 
  -2   4 -10   11.49    0.57 
   2  -4  10   11.37    0.68 
  -3   4 -10    6.10    0.40 
   3  -4  10    5.28    0.53 
  -4   4 -10    0.90    0.23 
   4  -4  10    0.95    0.30 
  -5   4 -10    0.67    0.23 
   5  -4  10    0.67    0.32 
  -6   4 -10    0.84    0.28 
   6  -4  10    1.31    0.47 
  -6  -3  10    0.27    0.27 
  -5  -3  10    2.44    0.40 
  -4  -3  10    9.28    0.62 
  -3  -3  10    1.84    0.30 
  -2  -3  10   20.72    0.91 
  -1  -3  10   10.30    0.55 
   0  -3  10  178.61    5.55 
  -1   3 -10   10.68    0.49 
   1  -3  10    9.06    0.53 
  -2   3 -10   19.97    0.80 
   2  -3  10   21.04    0.95 
  -3   3 -10    2.46    0.29 
   3  -3  10    2.54    0.36 
  -4   3 -10    9.52    0.57 
   4  -3  10   10.72    0.73 
  -5   3 -10    2.57    0.37 
   5  -3  10    3.23    0.49 
  -6   3 -10    0.21    0.20 
  -6  -2  10    0.12    0.24 
  -5  -2  10    3.61    0.46 
  -4  -2  10    3.22    0.41 
  -3  -2  10   19.85    0.93 
  -2  -2  10   69.52    2.35 
  -1  -2  10  115.62    3.67 
   0   2 -10   23.71    0.82 
   0  -2  10   21.54    0.89 
  -1   2 -10  110.16    3.28 
   1  -2  10  114.09    3.57 
  -2   2 -10   67.03    2.09 
   2  -2  10   66.19    2.27 
  -3   2 -10   15.84    0.76 
   3  -2  10   21.20    0.91 
  -4   2 -10    2.77    0.35 
   4  -2  10    2.86    0.39 
  -5   2 -10    3.79    0.45 
   5  -2  10    3.37    0.47 
  -6   2 -10    0.78    0.27 
  -6  -1  10    0.40    0.27 
  -5  -1  10    3.43    0.48 
  -4  -1  10   33.39    1.43 
  -3  -1  10   12.88    0.70 
  -2  -1  10   28.00    1.11 
  -1  -1  10   94.49    3.02 
   0   1 -10    3.98    0.24 
   0   1 -10    4.64    0.30 
   0  -1  10    4.75    0.30 
  -1   1 -10   97.91    2.86 
  -1   1 -10   93.89    2.97 
   1  -1  10   99.36    3.07 
  -2   1 -10   27.01    0.92 
  -2   1 -10   27.82    1.00 
   2  -1  10   28.46    1.06 
  -3   1 -10   13.57    0.54 
  -3   1 -10   13.98    0.66 
   3  -1  10   13.02    0.66 
  -4   1 -10   30.86    1.23 
  -5   1 -10    2.70    0.39 
  -6   1 -10    0.19    0.20 
  -6   0  10    0.86    0.31 
  -5   0  10    2.13    0.39 
  -4   0  10    9.11    0.63 
  -3   0  10   26.58    1.14 
  -2   0  10   19.02    0.84 
   1   0 -10   23.20    0.95 
  -1   0  10   23.96    0.91 
   0   0 -10   -0.06    0.05 
   0   0 -10    0.11    0.09 
   0   0  10   -0.08    0.06 
  -1   0 -10   23.53    0.82 
  -1   0 -10   23.15    0.84 
  -2   0 -10   18.10    0.74 
  -2   0 -10   19.30    0.70 
   2   0  10   18.65    0.74 
  -3   0 -10   26.56    1.03 
  -3   0 -10   25.47    0.95 
   3   0  10   25.94    1.00 
  -4   0 -10    7.67    0.54 
  -4   0 -10    8.99    0.49 
   4   0  10    8.97    0.53 
  -5   0 -10    2.39    0.39 
  -6   0 -10    1.15    0.32 
  -6   1  10    0.17    0.26 
  -5   1  10    2.61    0.43 
  -4   1  10   31.66    1.41 
  -3   1  10   14.85    0.79 
   2  -1 -10   25.71    1.11 
  -2   1  10   27.24    1.09 
   1  -1 -10   93.16    3.04 
  -1   1  10   95.11    3.00 
   0  -1 -10    4.45    0.30 
   0   1  10    4.43    0.27 
  -1  -1 -10   95.73    2.98 
  -1  -1 -10   96.75    2.81 
   1   1  10   95.10    2.94 
  -2  -1 -10   27.26    1.02 
  -2  -1 -10   27.36    1.01 
   2   1  10   28.79    0.96 
  -3  -1 -10   12.47    0.65 
  -3  -1 -10   14.08    0.62 
   3   1  10   13.04    0.56 
  -4  -1 -10   32.18    1.26 
  -4  -1 -10   28.37    1.16 
  -5  -1 -10    3.09    0.44 
  -6  -1 -10    0.14    0.21 
  -6   2  10    0.02    0.26 
   5  -2 -10    2.67    0.49 
   4  -2 -10    3.38    0.50 
   3  -2 -10   19.75    1.01 
   2  -2 -10   69.99    2.45 
   2  -2 -10   69.81    2.43 
   1  -2 -10  109.79    3.57 
   1  -2 -10  113.60    3.58 
   0  -2 -10   23.42    0.91 
   0  -2 -10   23.39    0.76 
  -1  -2 -10  114.48    3.34 
  -1  -2 -10  115.44    3.57 
   1   2  10  113.90    3.46 
  -2  -2 -10   65.96    2.17 
  -3  -2 -10   19.58    0.84 
  -4  -2 -10    2.67    0.33 
  -5  -2 -10    3.44    0.46 
  -5  -2 -10    2.92    0.38 
  -6  -2 -10    0.01    0.21 
   6  -3 -10    0.10    0.33 
   5  -3 -10    3.49    0.59 
   4  -3 -10    9.76    0.74 
   3  -3 -10    2.12    0.37 
   3  -3 -10    1.97    0.34 
   2  -3 -10   19.50    0.93 
   2  -3 -10   19.45    0.92 
   1  -3 -10   10.39    0.57 
   1  -3 -10    9.92    0.55 
   0  -3 -10  175.38    5.43 
   0  -3 -10  179.47    4.99 
   0  -3 -10  177.71    5.46 
  -1  -3 -10   10.83    0.55 
   1   3  10   10.94    0.41 
  -2  -3 -10   20.86    0.88 
  -3  -3 -10    2.07    0.29 
  -4  -3 -10    9.97    0.62 
  -5  -3 -10    2.17    0.36 
  -6  -3 -10   -0.09    0.23 
   6  -4 -10    1.03    0.44 
   5  -4 -10    0.68    0.32 
   4  -4 -10    0.87    0.33 
   3  -4 -10    6.31    0.55 
   3  -4 -10    6.66    0.61 
   2  -4 -10   11.07    0.66 
   2  -4 -10   11.49    0.68 
   1  -4 -10    0.02    0.11 
   1  -4 -10    0.15    0.13 
   0  -4 -10   -0.02    0.10 
   0  -4 -10    0.03    0.10 
  -1  -4 -10    0.19    0.13 
   1   4  10    0.12    0.08 
  -2  -4 -10   12.02    0.64 
  -3  -4 -10    5.64    0.47 
  -4  -4 -10    0.56    0.22 
  -5  -4 -10    0.90    0.29 
  -6  -4 -10    0.30    0.31 
   6  -5 -10    0.29    0.35 
   5  -5 -10    1.41    0.40 
   4  -5 -10    6.12    0.69 
   4  -5 -10    6.14    0.61 
   3  -5 -10    1.88    0.37 
   3  -5 -10    1.81    0.37 
   2  -5 -10   30.77    1.32 
   2  -5 -10   32.35    1.38 
   1  -5 -10    6.34    0.46 
   1  -5 -10    6.39    0.47 
   0  -5 -10    0.66    0.18 
   0  -5 -10    0.93    0.19 
  -1  -5 -10    4.77    0.42 
  -1  -5 -10    6.57    0.34 
  -2  -5 -10   30.74    1.26 
  -3  -5 -10    1.43    0.29 
  -4  -5 -10    5.98    0.55 
  -5  -5 -10    1.30    0.35 
  -6  -5 -10   -0.11    0.29 
   5  -6 -10    1.52    0.45 
   4  -6 -10    2.69    0.50 
   4  -6 -10    2.48    0.45 
   3  -6 -10   15.27    0.90 
   3  -6 -10   15.36    0.96 
   2  -6 -10    2.08    0.36 
   2  -6 -10    2.21    0.36 
   1  -6 -10    1.47    0.29 
   1  -6 -10    1.23    0.28 
   0  -6 -10    5.78    0.42 
   0  -6 -10    6.05    0.47 
  -1  -6 -10    1.14    0.26 
  -2  -6 -10    1.24    0.27 
  -3  -6 -10   17.15    0.91 
  -4  -6 -10    2.26    0.41 
  -5  -6 -10    1.29    0.34 
   5  -7 -10    1.34    0.45 
   4  -7 -10    0.41    0.30 
   4  -7 -10    0.26    0.29 
   3  -7 -10    2.12    0.39 
   3  -7 -10    3.02    0.49 
   2  -7 -10    7.90    0.64 
   2  -7 -10    7.83    0.68 
   1  -7 -10    2.57    0.38 
   1  -7 -10    3.25    0.41 
   0  -7 -10    0.19    0.15 
   0  -7 -10    0.21    0.17 
  -1  -7 -10    2.89    0.39 
  -2  -7 -10    9.36    0.65 
  -3  -7 -10    2.57    0.43 
  -4  -7 -10   -0.06    0.21 
  -5  -7 -10    1.12    0.34 
   5  -8 -10    0.32    0.35 
   4  -8 -10    0.86    0.36 
   3  -8 -10    4.39    0.55 
   3  -8 -10    3.64    0.57 
   2  -8 -10   11.99    0.84 
   2  -8 -10   11.39    0.79 
   1  -8 -10    8.15    0.62 
   1  -8 -10    6.00    0.59 
   0  -8 -10   19.85    1.02 
  -1  -8 -10    7.46    0.62 
  -2  -8 -10   11.74    0.78 
  -3  -8 -10    4.64    0.56 
  -4  -8 -10    0.57    0.31 
  -5  -8 -10    0.42    0.34 
   4  -9 -10    2.52    0.58 
   3  -9 -10    2.99    0.57 
   2  -9 -10    2.53    0.48 
   2  -9 -10    2.61    0.47 
   1  -9 -10    5.69    0.61 
   1  -9 -10    5.97    0.60 
   0  -9 -10    9.81    0.71 
  -1  -9 -10    5.22    0.56 
  -2  -9 -10    2.52    0.45 
  -3  -9 -10    4.08    0.57 
  -4  -9 -10    1.75    0.45 
   3 -10 -10    4.50    0.72 
   2 -10 -10    0.52    0.35 
   2 -10 -10    0.77    0.37 
   1 -10 -10    4.87    0.60 
   0 -10 -10    1.75    0.40 
  -1 -10 -10    4.25    0.56 
  -2 -10 -10    0.32    0.27 
  -3 -10 -10    4.49    0.63 
   1 -11 -10    4.60    0.63 
   0 -11 -10    2.32    0.49 
  -1 -11 -10    6.00    0.70 
  -2 -11 -10    4.84    0.66 
  -1 -11  11    2.23    0.52 
   0 -11  11    0.66    0.37 
   1 -11  11    1.99    0.52 
  -3 -10  11    0.58    0.36 
  -2 -10  11   -0.11    0.25 
  -2 -10  11    0.00    0.33 
  -1 -10  11    0.30    0.30 
   0 -10  11    3.03    0.56 
   1 -10  11    0.89    0.35 
   2 -10  11   -0.12    0.25 
   3 -10  11    0.67    0.39 
  -4  -9  11    0.85    0.40 
  -3  -9  11    4.55    0.60 
  -3  -9  11    4.46    0.61 
  -2  -9  11    0.35    0.28 
  -2  -9  11    0.91    0.32 
  -1  -9  11    2.66    0.48 
   0  -9  11    7.08    0.73 
   1  -9  11    3.25    0.55 
   2  -9  11    0.57    0.31 
   3  -9  11    4.19    0.66 
   4  -9  11    0.37    0.35 
  -4  -8  11    0.40    0.31 
  -3  -8  11    1.91    0.39 
  -3  -8  11    1.92    0.44 
  -2  -8  11    0.58    0.25 
  -2  -8  11    0.19    0.26 
  -1  -8  11    0.82    0.28 
  -1  -8  11    0.58    0.24 
   0  -8  11   17.09    1.01 
   1  -8  11    0.40    0.24 
   2  -8  11    0.56    0.29 
   3  -8  11    1.94    0.48 
   4  -8  11    0.42    0.30 
  -5  -7  11    0.39    0.34 
  -4  -7  11    0.06    0.28 
  -4  -7  11    0.55    0.27 
  -3  -7  11    5.59    0.57 
  -3  -7  11    5.41    0.60 
  -2  -7  11    1.05    0.29 
  -2  -7  11    1.04    0.29 
  -1  -7  11   12.65    0.78 
  -1  -7  11   13.10    0.73 
   0  -7  11    3.55    0.34 
   0  -7  11    4.21    0.49 
   1  -7  11   12.20    0.81 
   2  -7  11    1.27    0.34 
  -3   7 -11    6.09    0.53 
   3  -7  11    5.44    0.67 
  -4   7 -11    0.53    0.22 
   4  -7  11    0.64    0.32 
  -5   7 -11    0.52    0.27 
   5  -7  11    0.61    0.40 
  -5  -6  11    0.72    0.36 
  -4  -6  11    5.47    0.56 
  -4  -6  11    5.65    0.67 
  -3  -6  11    0.04    0.23 
  -3  -6  11    0.17    0.18 
  -2  -6  11    3.77    0.45 
  -2  -6  11    4.25    0.46 
  -1  -6  11    4.13    0.39 
  -1  -6  11    4.31    0.46 
   0  -6  11   13.14    0.79 
   0  -6  11   14.20    0.66 
   1  -6  11    3.81    0.46 
  -2   6 -11    3.88    0.40 
   2  -6  11    4.30    0.51 
  -3   6 -11   -0.06    0.11 
   3  -6  11    0.19    0.24 
  -4   6 -11    5.70    0.51 
   4  -6  11    5.60    0.66 
  -5   6 -11    1.31    0.31 
   5  -6  11    1.42    0.48 
  -6  -5  11    0.36    0.33 
  -5  -5  11    2.81    0.55 
  -5  -5  11    2.09    0.39 
  -4  -5  11    0.44    0.21 
  -3  -5  11    1.82    0.32 
  -2  -5  11   11.00    0.67 
  -1  -5  11   34.76    1.42 
   0  -5  11    1.66    0.30 
   0  -5  11    2.39    0.25 
   1  -5  11   33.90    1.42 
  -2   5 -11   10.62    0.58 
   2  -5  11   11.33    0.74 
  -3   5 -11    1.83    0.28 
   3  -5  11    0.93    0.30 
  -4   5 -11    0.07    0.15 
   4  -5  11    0.63    0.28 
  -5   5 -11    2.53    0.36 
   5  -5  11    2.39    0.51 
  -6   5 -11    0.47    0.25 
   6  -5  11    0.48    0.41 
  -6  -4  11    0.38    0.36 
  -5  -4  11    0.42    0.25 
  -4  -4  11   14.99    0.85 
  -3  -4  11    8.66    0.58 
  -2  -4  11   52.92    1.93 
  -1  -4  11    5.13    0.43 
   0  -4  11   71.64    2.48 
  -1   4 -11    4.47    0.33 
   1  -4  11    5.32    0.42 
   1  -4  11    4.66    0.25 
  -2   4 -11   50.86    1.74 
   2  -4  11   53.64    1.98 
  -3   4 -11    8.64    0.50 
   3  -4  11    9.09    0.65 
  -4   4 -11   14.02    0.73 
   4  -4  11   14.46    0.89 
  -5   4 -11    0.36    0.20 
   5  -4  11    0.59    0.31 
  -6   4 -11    0.94    0.29 
  -6  -3  11    2.81    0.47 
  -5  -3  11    3.24    0.45 
  -4  -3  11    0.88    0.26 
  -3  -3  11   61.25    2.21 
  -2  -3  11    3.63    0.36 
  -1  -3  11   14.85    0.71 
   0  -3  11    0.02    0.10 
  -1   3 -11   16.58    0.68 
   1  -3  11   15.32    0.76 
  -2   3 -11    4.44    0.34 
   2  -3  11    3.75    0.38 
  -3   3 -11   59.74    1.98 
   3  -3  11   59.53    2.20 
  -4   3 -11    0.72    0.20 
   4  -3  11    0.37    0.23 
  -5   3 -11    3.63    0.43 
   5  -3  11    3.90    0.54 
  -6   3 -11    3.43    0.47 
  -6  -2  11    0.86    0.33 
  -5  -2  11    1.60    0.35 
  -4  -2  11    2.67    0.40 
  -3  -2  11    3.50    0.38 
  -2  -2  11    2.08    0.28 
  -1  -2  11   22.82    0.93 
   0   2 -11   41.13    1.33 
   0  -2  11   39.76    1.45 
  -1   2 -11   23.17    0.83 
  -1   2 -11   23.57    0.86 
   1  -2  11   24.51    0.97 
  -2   2 -11    2.31    0.25 
  -2   2 -11    2.09    0.16 
   2  -2  11    2.15    0.27 
  -3   2 -11    3.42    0.34 
   3  -2  11    4.04    0.39 
  -4   2 -11    2.92    0.36 
   4  -2  11    3.74    0.43 
  -5   2 -11    1.23    0.30 
   5  -2  11    1.71    0.39 
  -6   2 -11    0.66    0.28 
  -6  -1  11    0.27    0.26 
  -5  -1  11    1.22    0.33 
  -4  -1  11   17.54    0.93 
  -3  -1  11    9.12    0.58 
  -2  -1  11   12.78    0.65 
  -1  -1  11   45.94    1.61 
   0   1 -11    4.40    0.26 
   0   1 -11    4.71    0.31 
   0  -1  11    4.50    0.31 
  -1   1 -11   46.79    1.48 
  -1   1 -11   46.28    1.52 
   1  -1  11   45.99    1.59 
  -2   1 -11   12.28    0.56 
  -2   1 -11   12.06    0.48 
   2  -1  11   11.16    0.57 
  -3   1 -11    9.26    0.40 
  -3   1 -11    8.97    0.50 
   3  -1  11    7.28    0.48 
  -5   1 -11    0.80    0.25 
  -6   1 -11    0.10    0.21 
  -6   0  11    0.22    0.29 
  -5   0  11    2.45    0.42 
  -4   0  11   11.99    0.75 
  -3   0  11    3.66    0.39 
  -2   0  11   16.24    0.78 
   1   0 -11  206.12    6.40 
  -1   0  11  211.67    6.39 
   0   0 -11   -0.01    0.07 
   0   0 -11   -0.05    0.05 
   0   0  11   -0.03    0.06 
  -1   0 -11  208.27    5.91 
  -1   0 -11  209.08    6.27 
  -2   0 -11   15.65    0.62 
  -2   0 -11   15.09    0.66 
   2   0  11   16.51    0.67 
  -3   0 -11    3.52    0.35 
  -3   0 -11    4.64    0.31 
   3   0  11    4.32    0.32 
  -4   0 -11   11.55    0.66 
  -4   0 -11   11.26    0.57 
  -5   0 -11    2.85    0.43 
  -6   0 -11    0.40    0.26 
  -6   1  11    0.53    0.29 
  -5   1  11    0.83    0.30 
  -4   1  11   16.75    0.94 
  -3   1  11    9.23    0.60 
   2  -1 -11   10.50    0.62 
  -2   1  11   11.13    0.60 
   1  -1 -11   47.95    1.69 
  -1   1  11   46.25    1.63 
   0  -1 -11    4.17    0.31 
   0  -1 -11    3.34    0.21 
   0   1  11    4.78    0.28 
  -1  -1 -11   43.49    1.51 
  -1  -1 -11   45.50    1.43 
   1   1  11   45.49    1.46 
  -2  -1 -11   11.55    0.53 
  -2  -1 -11   11.53    0.56 
   2   1  11   12.41    0.49 
  -3  -1 -11    7.89    0.51 
  -3  -1 -11    9.94    0.50 
   3   1  11    8.89    0.43 
  -4  -1 -11   14.82    0.72 
  -4  -1 -11   17.19    0.84 
  -5  -1 -11    0.91    0.28 
  -6  -1 -11   -0.02    0.21 
  -6   2  11    0.59    0.32 
  -5   2  11    1.41    0.35 
   4  -2 -11    2.73    0.46 
   3  -2 -11    4.15    0.49 
   3  -2 -11    3.56    0.43 
   2  -2 -11    2.34    0.33 
   2  -2 -11    2.15    0.32 
   1  -2 -11   22.50    0.97 
   1  -2 -11   23.06    0.70 
  -1   2  11   23.57    0.94 
   0  -2 -11   39.28    1.42 
   0  -2 -11   40.06    1.22 
  -1  -2 -11   22.18    0.89 
  -1  -2 -11   23.58    0.84 
   1   2  11   22.82    0.78 
  -2  -2 -11    2.01    0.26 
  -2  -2 -11    2.43    0.26 
   2   2  11    2.13    0.14 
  -3  -2 -11    3.87    0.34 
  -3  -2 -11    3.03    0.35 
  -4  -2 -11    2.57    0.37 
  -4  -2 -11    2.32    0.32 
  -5  -2 -11    1.55    0.31 
  -5  -2 -11    1.26    0.31 
  -6  -2 -11    0.44    0.24 
   6  -3 -11    2.97    0.62 
   5  -3 -11    3.45    0.58 
   4  -3 -11    0.77    0.31 
   3  -3 -11   59.11    2.29 
   3  -3 -11   61.36    2.27 
   2  -3 -11    4.37    0.42 
   2  -3 -11    3.47    0.40 
   1  -3 -11   15.58    0.76 
   1  -3 -11   15.37    0.74 
   1  -3 -11   15.79    0.48 
   0  -3 -11    0.16    0.12 
   0  -3 -11    0.01    0.06 
   0   3  11    0.06    0.08 
  -1  -3 -11   15.83    0.71 
   1   3  11   15.26    0.55 
  -2  -3 -11    3.51    0.33 
  -3  -3 -11   55.10    1.95 
  -4  -3 -11    0.34    0.21 
  -5  -3 -11    2.80    0.40 
  -6  -3 -11    2.04    0.44 
   6  -4 -11    0.77    0.43 
   5  -4 -11    0.84    0.36 
   4  -4 -11   13.92    0.92 
   3  -4 -11    9.57    0.68 
   3  -4 -11    8.84    0.67 
   2  -4 -11   54.54    2.07 
   2  -4 -11   55.83    2.06 
   1  -4 -11    4.76    0.41 
   1  -4 -11    5.06    0.39 
   0  -4 -11   70.20    2.38 
   0  -4 -11   70.10    2.32 
  -1  -4 -11    5.07    0.39 
   1   4  11    5.07    0.26 
  -2  -4 -11   48.64    1.77 
  -3  -4 -11    8.15    0.55 
  -4  -4 -11   15.45    0.83 
  -5  -4 -11    0.58    0.27 
  -6  -4 -11    0.53    0.33 
   6  -5 -11    0.75    0.40 
   5  -5 -11    2.74    0.58 
   4  -5 -11    0.27    0.25 
   4  -5 -11    0.21    0.25 
   3  -5 -11    1.81    0.38 
   3  -5 -11    2.52    0.44 
   2  -5 -11   11.39    0.71 
   2  -5 -11   11.29    0.71 
   1  -5 -11   31.27    1.32 
   1  -5 -11   33.93    1.34 
   0  -5 -11    2.55    0.28 
   0  -5 -11    1.83    0.28 
  -1  -5 -11   37.51    1.41 
  -1  -5 -11   34.35    1.22 
  -2  -5 -11   12.05    0.68 
  -3  -5 -11    2.08    0.34 
  -4  -5 -11    0.32    0.23 
  -5  -5 -11    2.66    0.45 
  -6  -5 -11    0.55    0.31 
   5  -6 -11    0.72    0.37 
   4  -6 -11    5.28    0.69 
   4  -6 -11    5.55    0.62 
   3  -6 -11   -0.02    0.18 
   3  -6 -11   -0.03    0.21 
   2  -6 -11    3.59    0.47 
   2  -6 -11    4.61    0.48 
   1  -6 -11    3.96    0.43 
   1  -6 -11    4.84    0.45 
   0  -6 -11   15.15    0.74 
   0  -6 -11   15.53    0.81 
  -1  -6 -11    3.66    0.40 
  -2  -6 -11    3.42    0.42 
  -3  -6 -11    0.01    0.18 
  -4  -6 -11    6.11    0.59 
  -5  -6 -11    1.39    0.38 
   5  -7 -11    0.41    0.32 
   4  -7 -11    0.33    0.30 
   4  -7 -11    0.56    0.33 
   3  -7 -11    5.42    0.59 
   3  -7 -11    6.92    0.72 
   2  -7 -11    1.28    0.32 
   2  -7 -11    1.36    0.34 
   1  -7 -11   13.67    0.79 
   1  -7 -11   12.71    0.76 
   0  -7 -11    4.34    0.40 
   0  -7 -11    3.31    0.41 
  -1  -7 -11   13.07    0.77 
  -2  -7 -11    0.92    0.28 
  -3  -7 -11    5.62    0.57 
  -4  -7 -11    0.42    0.28 
  -5  -7 -11    0.07    0.27 
   4  -8 -11   -0.22    0.26 
   3  -8 -11    1.45    0.37 
   3  -8 -11    0.76    0.34 
   2  -8 -11    0.25    0.25 
   2  -8 -11    0.41    0.25 
   1  -8 -11    0.08    0.20 
   1  -8 -11    1.09    0.31 
   0  -8 -11   17.20    0.95 
  -1  -8 -11    0.54    0.24 
  -2  -8 -11    0.09    0.23 
  -3  -8 -11    1.41    0.37 
  -4  -8 -11    0.08    0.25 
   4  -9 -11    0.78    0.40 
   3  -9 -11    5.18    0.73 
   3  -9 -11    5.98    0.70 
   2  -9 -11    1.28    0.40 
   2  -9 -11    1.22    0.39 
   1  -9 -11    3.15    0.49 
   0  -9 -11    8.09    0.70 
  -1  -9 -11    2.57    0.45 
  -2  -9 -11    1.35    0.35 
  -3  -9 -11    4.68    0.60 
  -4  -9 -11    0.45    0.33 
   3 -10 -11    0.52    0.36 
   2 -10 -11    0.51    0.33 
   2 -10 -11    0.07    0.28 
   1 -10 -11    0.04    0.27 
   0 -10 -11    2.70    0.49 
  -1 -10 -11    0.56    0.33 
  -2 -10 -11    0.15    0.28 
  -3 -10 -11    1.16    0.40 
   1 -11 -11    2.09    0.49 
   0 -11 -11    0.60    0.36 
  -1 -11 -11    1.76    0.45 
  -2 -11 -11    1.00    0.39 
  -1 -11  12    0.51    0.33 
   0 -11  12    2.98    0.61 
   1 -11  12    0.27    0.35 
  -3 -10  12    2.82    0.53 
  -2 -10  12    2.24    0.49 
  -1 -10  12    6.81    0.76 
   0 -10  12   -0.02    0.26 
   1 -10  12    7.22    0.81 
   2 -10  12    1.90    0.48 
   3 -10  12    3.29    0.65 
  -4  -9  12    0.44    0.36 
  -3  -9  12   -0.12    0.28 
  -3  -9  12    0.16    0.28 
  -2  -9  12    7.48    0.75 
  -2  -9  12    7.96    0.70 
  -1  -9  12    0.43    0.26 
   0  -9  12    1.40    0.37 
   1  -9  12    0.79    0.31 
   2  -9  12    7.32    0.80 
   3  -9  12    0.38    0.31 
   4  -9  12    0.52    0.37 
  -4  -8  12    0.13    0.29 
  -3  -8  12    5.81    0.63 
  -2  -8  12    1.56    0.37 
  -2  -8  12    1.16    0.34 
  -1  -8  12    5.42    0.60 
  -1  -8  12    5.07    0.48 
   0  -8  12    0.11    0.21 
   1  -8  12    7.04    0.71 
   2  -8  12    1.11    0.34 
   3  -8  12    6.65    0.77 
  -4   8 -12   -0.25    0.20 
   4  -8  12    0.20    0.31 
  -5  -7  12    0.11    0.32 
  -4  -7  12    5.80    0.63 
  -4  -7  12    6.03    0.70 
  -3  -7  12    0.67    0.25 
  -3  -7  12    0.12    0.24 
  -2  -7  12    9.23    0.68 
  -2  -7  12   10.37    0.71 
  -1  -7  12    3.56    0.46 
  -1  -7  12    3.22    0.39 
   0  -7  12    0.06    0.18 
   1  -7  12    3.55    0.50 
   2  -7  12    9.92    0.77 
  -3   7 -12    0.53    0.21 
   3  -7  12    0.17    0.24 
  -4   7 -12    5.22    0.52 
   4  -7  12    5.56    0.72 
  -5   7 -12    0.44    0.27 
   5  -7  12    0.08    0.34 
  -5  -6  12    2.66    0.57 
  -5  -6  12    3.35    0.52 
  -4  -6  12    0.93    0.35 
  -4  -6  12    0.57    0.27 
  -3  -6  12    0.06    0.23 
  -3  -6  12    0.02    0.19 
  -2  -6  12    5.21    0.52 
  -2  -6  12    4.30    0.49 
  -1  -6  12    1.18    0.29 
  -1  -6  12    0.83    0.22 
   0  -6  12   13.09    0.78 
   0  -6  12   11.26    0.60 
   1  -6  12    1.13    0.29 
  -2   6 -12    6.07    0.49 
   2  -6  12    4.88    0.56 
  -3   6 -12    0.19    0.15 
   3  -6  12    0.48    0.26 
  -4   6 -12    0.64    0.22 
   4  -6  12    0.66    0.32 
  -5   6 -12    3.76    0.46 
   5  -6  12    3.62    0.64 
  -6  -5  12   -0.36    0.27 
  -5  -5  12    0.55    0.28 
  -4  -5  12    0.74    0.26 
  -3  -5  12    4.83    0.49 
  -2  -5  12   20.79    1.01 
  -1  -5  12    1.56    0.29 
   0  -5  12    0.74    0.17 
   0  -5  12    1.25    0.27 
   1  -5  12    1.60    0.32 
  -2   5 -12   20.25    0.88 
   2  -5  12   19.46    1.03 
  -3   5 -12    6.23    0.44 
   3  -5  12    5.64    0.58 
  -4   5 -12    0.35    0.18 
   4  -5  12    0.44    0.28 
  -5   5 -12    0.25    0.20 
   5  -5  12    0.18    0.31 
  -6   5 -12    0.27    0.25 
   6  -5  12    0.06    0.41 
  -6  -4  12    0.33    0.30 
  -5  -4  12    0.99    0.31 
  -4  -4  12    0.53    0.25 
  -3  -4  12    4.41    0.46 
  -2  -4  12    2.30    0.32 
  -1  -4  12    1.02    0.23 
   0  -4  12    0.21    0.15 
  -1   4 -12    0.87    0.18 
   1  -4  12    0.62    0.20 
  -2   4 -12    2.11    0.27 
   2  -4  12    1.90    0.34 
  -3   4 -12    3.49    0.35 
   3  -4  12    3.92    0.46 
  -4   4 -12    0.59    0.20 
   4  -4  12    0.53    0.26 
  -5   4 -12    0.99    0.27 
   5  -4  12    1.47    0.42 
  -6   4 -12    0.29    0.23 
  -6  -3  12    0.07    0.23 
  -5  -3  12    1.64    0.34 
  -4  -3  12   28.75    1.30 
  -3  -3  12    5.06    0.47 
  -2  -3  12    7.52    0.50 
  -1  -3  12    4.39    0.38 
   0  -3  12   38.67    1.47 
  -1   3 -12    4.57    0.35 
   1  -3  12    4.37    0.39 
  -2   3 -12    7.26    0.42 
   2  -3  12    6.04    0.46 
  -3   3 -12    4.60    0.40 
   3  -3  12    4.36    0.45 
  -4   3 -12   26.53    1.13 
   4  -3  12   28.21    1.29 
  -5   3 -12    1.41    0.31 
   5  -3  12    1.96    0.43 
  -6   3 -12   -0.01    0.18 
  -6  -2  12   -0.13    0.23 
  -5  -2  12    3.24    0.48 
  -4  -2  12    5.17    0.53 
  -3  -2  12   57.92    2.11 
  -2  -2  12    4.29    0.39 
  -1  -2  12    1.07    0.20 
   0   2 -12    2.61    0.24 
   0  -2  12    3.34    0.31 
  -1   2 -12    1.10    0.14 
  -1   2 -12    0.78    0.15 
   1  -2  12    1.16    0.20 
  -2   2 -12    5.03    0.26 
  -2   2 -12    5.31    0.36 
   2  -2  12    5.04    0.39 
  -3   2 -12   54.53    1.82 
   3  -2  12   52.87    1.96 
  -4   2 -12    3.79    0.41 
   4  -2  12    4.14    0.44 
  -5   2 -12    2.84    0.41 
  -6   2 -12    0.05    0.19 
  -6  -1  12    0.39    0.28 
  -5  -1  12    5.29    0.58 
  -4  -1  12    7.48    0.58 
  -3  -1  12    7.89    0.55 
  -2  -1  12   14.19    0.71 
  -1  -1  12   18.62    0.80 
   0   1 -12   10.56    0.46 
   0   1 -12   11.15    0.53 
   0  -1  12   10.95    0.53 
  -1   1 -12   17.43    0.70 
  -1   1 -12   18.73    0.71 
   1  -1  12   17.56    0.75 
  -2   1 -12   13.37    0.55 
  -2   1 -12   13.47    0.61 
   2  -1  12   14.67    0.67 
  -3   1 -12    8.79    0.50 
  -3   1 -12    7.75    0.38 
  -4   1 -12    7.35    0.51 
  -5   1 -12    4.14    0.47 
  -6   1 -12    1.00    0.29 
  -6   0  12    0.08    0.25 
  -5   0  12    0.12    0.25 
  -4   0  12   -0.06    0.17 
  -3   0  12   18.44    0.91 
  -2   0  12    8.22    0.51 
   1   0 -12   69.81    2.37 
  -1   0  12   69.53    2.32 
   0   0 -12   27.93    0.93 
   0   0 -12   27.95    1.07 
   0   0  12   27.77    1.03 
  -1   0 -12   67.07    2.11 
  -1   0 -12   68.20    2.00 
   1   0  12   59.89    2.10 
  -2   0 -12    8.15    0.41 
  -2   0 -12    9.04    0.46 
   2   0  12    8.36    0.44 
  -3   0 -12   18.44    0.73 
  -3   0 -12   17.20    0.80 
   3   0  12   18.41    0.78 
  -4   0 -12    0.07    0.16 
  -5   0 -12    0.31    0.20 
  -6   0 -12    0.22    0.24 
  -6   1  12    1.09    0.39 
  -5   1  12    4.40    0.55 
  -4   1  12    7.06    0.62 
  -3   1  12    7.02    0.53 
   2  -1 -12   13.51    0.74 
  -2   1  12   13.18    0.69 
   1  -1 -12   16.22    0.78 
  -1   1  12   16.93    0.74 
   0  -1 -12    9.75    0.42 
   0  -1 -12   11.42    0.55 
   0   1  12   10.72    0.48 
  -1  -1 -12   17.66    0.72 
  -1  -1 -12   17.26    0.67 
   1   1  12   16.98    0.66 
  -2  -1 -12   14.29    0.62 
  -2  -1 -12   13.50    0.63 
   2   1  12   14.39    0.58 
  -3  -1 -12    8.73    0.47 
  -3  -1 -12    7.31    0.49 
   3   1  12    8.45    0.44 
  -4  -1 -12    7.30    0.47 
  -4  -1 -12    7.39    0.53 
  -5  -1 -12    5.30    0.54 
  -6  -1 -12    0.56    0.25 
  -6   2  12   -0.22    0.26 
  -5   2  12    3.22    0.53 
  -4   2  12    3.54    0.46 
   3  -2 -12   56.27    2.13 
   3  -2 -12   53.05    2.07 
   2  -2 -12    5.79    0.49 
  -2   2  12    4.24    0.40 
   1  -2 -12    1.24    0.24 
   1  -2 -12    1.03    0.10 
  -1   2  12    1.19    0.20 
   0  -2 -12    3.76    0.32 
   0  -2 -12    3.63    0.21 
   0   2  12    2.45    0.23 
  -1  -2 -12    1.28    0.18 
  -1  -2 -12    1.20    0.19 
   1   2  12    0.89    0.12 
  -2  -2 -12    4.95    0.35 
  -2  -2 -12    4.79    0.35 
   2   2  12    5.00    0.24 
  -3  -2 -12   52.65    1.86 
  -3  -2 -12   54.67    1.87 
  -4  -2 -12    4.94    0.43 
  -4  -2 -12    4.68    0.49 
  -5  -2 -12    2.99    0.39 
  -5  -2 -12    3.01    0.45 
  -6  -2 -12    0.23    0.23 
  -6   3  12    0.10    0.30 
   5  -3 -12    1.39    0.43 
   4  -3 -12   27.03    1.39 
   3  -3 -12    4.16    0.48 
   3  -3 -12    4.86    0.54 
   2  -3 -12    7.67    0.54 
   2  -3 -12    6.94    0.53 
   1  -3 -12    4.34    0.40 
   1  -3 -12    4.30    0.18 
   1  -3 -12    5.03    0.39 
   0  -3 -12   38.86    1.47 
   0  -3 -12   40.96    1.25 
  -1  -3 -12    4.66    0.36 
  -1  -3 -12    4.37    0.30 
   1   3  12    4.76    0.25 
  -2  -3 -12    7.37    0.47 
  -3  -3 -12    4.58    0.42 
  -4  -3 -12   27.46    1.19 
  -5  -3 -12    2.23    0.38 
  -5  -3 -12    1.85    0.37 
  -6  -3 -12   -0.06    0.21 
   6  -4 -12    0.12    0.33 
   5  -4 -12    0.89    0.36 
   4  -4 -12    0.42    0.27 
   3  -4 -12    4.37    0.51 
   3  -4 -12    4.68    0.55 
   2  -4 -12    2.43    0.37 
   2  -4 -12    2.49    0.38 
   1  -4 -12    0.98    0.21 
   1  -4 -12    0.72    0.21 
   0  -4 -12    0.20    0.10 
   0  -4 -12    0.28    0.14 
   0  -4 -12    0.23    0.16 
  -1  -4 -12    0.56    0.17 
   1   4  12    0.81    0.12 
  -2  -4 -12    2.51    0.32 
  -3  -4 -12    4.20    0.43 
  -4  -4 -12    0.73    0.25 
  -5  -4 -12    0.92    0.30 
  -6  -4 -12   -0.08    0.25 
   6  -5 -12    0.29    0.39 
   5  -5 -12    0.52    0.33 
   4  -5 -12    0.19    0.25 
   4  -5 -12    0.85    0.32 
   3  -5 -12    6.16    0.60 
   3  -5 -12    6.21    0.63 
   2  -5 -12   19.45    1.02 
   2  -5 -12   21.45    1.05 
   1  -5 -12    2.12    0.32 
   1  -5 -12    1.42    0.29 
   0  -5 -12    0.72    0.20 
   0  -5 -12    1.15    0.21 
  -1  -5 -12    1.79    0.30 
  -2  -5 -12   20.58    0.97 
  -3  -5 -12    6.64    0.55 
  -4  -5 -12    0.54    0.25 
  -5  -5 -12    0.56    0.29 
  -6  -5 -12    0.03    0.31 
   5  -6 -12    4.51    0.71 
   4  -6 -12    1.32    0.40 
   4  -6 -12    0.66    0.30 
   3  -6 -12    0.20    0.21 
   3  -6 -12    0.19    0.25 
   2  -6 -12    4.79    0.52 
   2  -6 -12    5.77    0.57 
   1  -6 -12    1.36    0.27 
   1  -6 -12    1.30    0.29 
   0  -6 -12   12.21    0.71 
   0  -6 -12   12.20    0.65 
  -1  -6 -12    1.01    0.25 
  -2  -6 -12    4.80    0.48 
  -3  -6 -12    0.66    0.25 
  -4  -6 -12    0.57    0.26 
  -5  -6 -12    3.97    0.55 
   5  -7 -12    0.33    0.37 
   4  -7 -12    5.17    0.71 
   4  -7 -12    7.00    0.71 
   3  -7 -12    0.73    0.32 
   3  -7 -12    0.47    0.25 
   2  -7 -12   10.06    0.73 
   2  -7 -12    9.35    0.70 
   1  -7 -12    4.50    0.50 
   1  -7 -12    3.57    0.44 
   0  -7 -12    0.20    0.19 
  -1  -7 -12    3.36    0.43 
  -2  -7 -12    9.48    0.66 
  -3  -7 -12    0.21    0.22 
  -4  -7 -12    6.11    0.64 
  -5  -7 -12    0.53    0.32 
   4  -8 -12   -0.08    0.26 
   3  -8 -12    5.71    0.71 
   3  -8 -12    6.74    0.68 
   2  -8 -12    1.58    0.38 
   2  -8 -12    1.11    0.34 
   1  -8 -12    5.76    0.56 
   1  -8 -12    4.99    0.55 
   0  -8 -12    0.29    0.24 
  -1  -8 -12    6.14    0.59 
  -2  -8 -12    1.41    0.35 
  -3  -8 -12    6.54    0.67 
  -4  -8 -12   -0.19    0.26 
   4  -9 -12    0.52    0.38 
   3  -9 -12    0.27    0.30 
   3  -9 -12    0.15    0.34 
   2  -9 -12    6.92    0.71 
   2  -9 -12    7.93    0.77 
   1  -9 -12    0.83    0.32 
   0  -9 -12    1.24    0.35 
  -1  -9 -12    0.67    0.31 
  -2  -9 -12    6.46    0.66 
  -3  -9 -12    0.09    0.28 
  -4  -9 -12    0.13    0.29 
   3 -10 -12    2.81    0.59 
   2 -10 -12    2.74    0.55 
   2 -10 -12    2.21    0.49 
   1 -10 -12    7.62    0.74 
   0 -10 -12    0.01    0.29 
  -1 -10 -12    6.48    0.69 
  -2 -10 -12    2.52    0.48 
  -3 -10 -12    3.64    0.59 
   1 -11 -12   -0.02    0.32 
   0 -11 -12    3.48    0.58 
  -1 -11 -12    0.13    0.32 
  -1 -11  13    1.40    0.47 
   0 -11  13   -0.01    0.32 
   1 -11  13    1.02    0.41 
  -3 -10  13    1.07    0.42 
  -2 -10  13    1.69    0.46 
  -1 -10  13    0.60    0.34 
   0 -10  13    2.85    0.54 
   1 -10  13    0.10    0.27 
   2 -10  13    1.54    0.45 
  -3  -9  13    2.12    0.49 
  -3  -9  13    2.03    0.47 
  -2  -9  13    0.63    0.33 
  -2  -9  13    1.04    0.35 
  -1  -9  13    0.24    0.26 
   0  -9  13    0.31    0.26 
   1  -9  13   -0.17    0.23 
   2  -9  13    0.89    0.36 
   3  -9  13    1.26    0.43 
  -4  -8  13    0.48    0.33 
  -4  -8  13    0.13    0.31 
  -3  -8  13    0.17    0.27 
  -3  -8  13    0.38    0.30 
  -2  -8  13    4.79    0.60 
  -2  -8  13    5.45    0.57 
  -1  -8  13    3.17    0.42 
  -1  -8  13    3.39    0.51 
   0  -8  13    2.28    0.43 
   1  -8  13    4.37    0.60 
   2  -8  13    4.32    0.61 
   3  -8  13    0.49    0.31 
  -4   8 -13    0.14    0.24 
   4  -8  13   -0.39    0.24 
  -5  -7  13   -0.49    0.27 
  -4  -7  13   -0.11    0.25 
  -4  -7  13    0.12    0.24 
  -3  -7  13    4.43    0.55 
  -3  -7  13    3.52    0.53 
  -2  -7  13    2.53    0.43 
  -2  -7  13    2.07    0.40 
  -1  -7  13    6.92    0.53 
  -1  -7  13    6.27    0.61 
   0  -7  13   12.72    0.82 
   1  -7  13    6.16    0.63 
   2  -7  13    1.89    0.43 
  -3   7 -13    4.08    0.46 
   3  -7  13    4.34    0.60 
  -4   7 -13    0.19    0.20 
   4  -7  13    0.40    0.30 
  -5   7 -13    0.32    0.27 
   5  -7  13    0.13    0.37 
  -5  -6  13    0.60    0.32 
  -5  -6  13    0.29    0.34 
  -4  -6  13    5.70    0.67 
  -4  -6  13    4.77    0.57 
  -3  -6  13    0.73    0.31 
  -3  -6  13    0.18    0.21 
  -2  -6  13    0.53    0.24 
  -2  -6  13    0.77    0.26 
  -1  -6  13    2.05    0.37 
  -1  -6  13    2.32    0.33 
   0  -6  13   11.29    0.58 
   0  -6  13   10.71    0.71 
   1  -6  13    1.60    0.34 
  -2   6 -13    0.48    0.19 
   2  -6  13    0.37    0.25 
  -3   6 -13    0.35    0.18 
   3  -6  13    0.36    0.25 
  -4   6 -13    5.69    0.52 
   4  -6  13    4.34    0.62 
  -5   6 -13    0.85    0.28 
   5  -6  13    0.40    0.37 
  -5  -5  13    2.03    0.42 
  -4  -5  13    0.44    0.25 
  -3  -5  13    2.19    0.36 
  -2  -5  13   17.66    0.92 
  -1  -5  13   47.43    1.85 
   0  -5  13   12.71    0.76 
   1  -5  13   46.38    1.83 
  -2   5 -13   18.20    0.84 
   2  -5  13   19.00    1.00 
  -3   5 -13    2.01    0.31 
   3  -5  13    1.71    0.37 
  -4   5 -13    0.42    0.20 
   4  -5  13    0.48    0.28 
  -5   5 -13    2.02    0.37 
   5  -5  13    2.81    0.56 
  -6  -4  13    0.30    0.31 
  -5  -4  13    1.49    0.37 
  -4  -4  13    5.38    0.55 
  -3  -4  13    3.94    0.44 
  -2  -4  13   36.94    1.49 
  -1  -4  13   16.93    0.85 
   0  -4  13  161.37    5.16 
  -1   4 -13   16.53    0.75 
   1  -4  13   16.83    0.86 
  -2   4 -13   34.41    1.28 
   2  -4  13   34.88    1.46 
  -3   4 -13    3.73    0.38 
   3  -4  13    4.22    0.48 
  -4   4 -13    4.85    0.46 
   4  -4  13    4.59    0.55 
  -5   4 -13    1.54    0.31 
   5  -4  13    1.12    0.39 
  -6   4 -13    0.36    0.25 
  -6  -3  13    1.48    0.39 
  -5  -3  13    0.25    0.20 
  -4  -3  13    1.22    0.29 
  -3  -3  13   31.20    1.34 
  -2  -3  13    8.21    0.55 
  -1  -3  13   45.66    1.70 
   0  -3  13    5.59    0.42 
  -1   3 -13   43.19    1.47 
   1  -3  13   43.64    1.63 
  -2   3 -13    7.95    0.46 
   2  -3  13    7.82    0.53 
  -3   3 -13   29.17    1.14 
   3  -3  13   27.64    1.25 
  -4   3 -13    1.57    0.29 
   4  -3  13    1.52    0.35 
  -5   3 -13    0.00    0.15 
   5  -3  13    0.00    0.28 
  -6   3 -13    0.94    0.29 
  -6  -2  13    0.37    0.29 
  -5  -2  13    1.00    0.30 
  -4  -2  13    6.85    0.61 
  -3  -2  13   33.08    1.38 
  -2  -2  13   10.52    0.61 
  -1  -2  13    1.39    0.23 
   0   2 -13    5.78    0.35 
   0  -2  13    6.42    0.41 
  -1   2 -13    1.60    0.21 
  -1   2 -13    1.46    0.17 
   1  -2  13    1.43    0.23 
  -2   2 -13    9.79    0.52 
  -2   2 -13   10.58    0.44 
   2  -2  13   10.15    0.59 
  -3   2 -13   33.71    1.27 
   3  -2  13   33.28    1.36 
  -4   2 -13    7.49    0.52 
   4  -2  13    7.05    0.56 
  -5   2 -13    1.20    0.28 
  -6   2 -13    0.97    0.31 
  -6  -1  13    1.13    0.37 
  -5  -1  13    3.21    0.47 
  -4  -1  13    6.20    0.57 
  -3  -1  13    7.37    0.53 
  -2  -1  13   13.13    0.69 
  -1  -1  13   42.92    1.55 
   0   1 -13   52.98    1.71 
   0   1 -13   55.71    1.88 
   0  -1  13   56.97    1.89 
  -1   1 -13   44.57    1.44 
  -1   1 -13   43.21    1.48 
   1  -1  13   43.24    1.55 
  -2   1 -13   15.02    0.59 
  -2   1 -13   13.55    0.63 
   2  -1  13   13.48    0.66 
  -3   1 -13    6.26    0.44 
  -4   1 -13    6.07    0.51 
   4  -1  13    5.89    0.49 
  -5   1 -13    4.15    0.48 
  -6   1 -13    1.57    0.35 
  -6   0  13   -0.02    0.26 
  -5   0  13    0.23    0.24 
  -4   0  13    0.30    0.22 
  -3   0  13    8.47    0.60 
  -2   0  13   11.80    0.64 
   1   0 -13    0.06    0.12 
  -1   0  13    0.02    0.10 
   0   0 -13    0.05    0.06 
   0   0 -13    0.00    0.09 
   0   0  13   -0.05    0.07 
  -1   0 -13    0.17    0.09 
  -1   0 -13    0.02    0.08 
   1   0  13    0.01    0.08 
  -2   0 -13   11.52    0.52 
  -2   0 -13   11.58    0.56 
   2   0  13   11.89    0.55 
  -3   0 -13    8.01    0.42 
  -3   0 -13    6.94    0.47 
   3   0  13    7.80    0.46 
  -4   0 -13    0.05    0.14 
  -5   0 -13    0.31    0.23 
  -6   0 -13    0.42    0.26 
  -6   1  13    0.40    0.29 
  -5   1  13    3.58    0.53 
  -4   1  13    5.96    0.58 
  -3   1  13    7.88    0.56 
   2  -1 -13   13.69    0.77 
  -2   1  13   14.49    0.72 
   1  -1 -13   43.93    1.62 
  -1   1  13   42.57    1.54 
   0  -1 -13   56.94    1.93 
   0  -1 -13   56.17    1.70 
   0   1  13   55.10    1.85 
  -1  -1 -13   42.45    1.40 
  -1  -1 -13   43.15    1.51 
   1   1  13   43.78    1.45 
  -2  -1 -13   13.55    0.63 
  -2  -1 -13   14.02    0.65 
   2   1  13   14.85    0.59 
  -3  -1 -13    7.35    0.44 
  -3  -1 -13    8.38    0.52 
  -4  -1 -13    6.10    0.53 
  -4  -1 -13    6.80    0.45 
  -5  -1 -13    2.82    0.42 
  -6  -1 -13    1.33    0.35 
  -6   2  13    0.56    0.35 
  -5   2  13    1.30    0.36 
  -4   2  13    7.05    0.65 
   3  -2 -13   31.59    1.41 
  -3   2  13   31.40    1.37 
   2  -2 -13    9.20    0.62 
  -2   2  13   10.35    0.61 
   1  -2 -13    1.27    0.11 
   1  -2 -13    1.56    0.26 
  -1   2  13    1.43    0.22 
   0  -2 -13    6.69    0.31 
   0  -2 -13    6.98    0.44 
   0   2  13    6.43    0.37 
  -1  -2 -13    1.32    0.22 
  -1  -2 -13    1.30    0.19 
   1   2  13    1.42    0.15 
  -2  -2 -13    8.98    0.51 
  -2  -2 -13   11.01    0.56 
   2   2  13   10.84    0.43 
  -3  -2 -13   33.96    1.30 
  -3  -2 -13   32.03    1.26 
  -4  -2 -13    7.03    0.59 
  -4  -2 -13    7.85    0.52 
  -5  -2 -13    1.00    0.30 
  -6  -2 -13    0.60    0.30 
  -6   3  13    0.67    0.37 
   5  -3 -13    0.37    0.30 
  -5   3  13   -0.10    0.22 
   4  -3 -13    1.74    0.41 
   3  -3 -13   29.31    1.39 
   3  -3 -13   29.84    1.37 
   2  -3 -13    7.81    0.58 
   2  -3 -13    8.56    0.60 
   1  -3 -13   44.63    1.32 
   1  -3 -13   46.62    1.73 
  -1   3  13   46.30    1.66 
   0  -3 -13    5.52    0.42 
   0  -3 -13    5.97    0.30 
  -1  -3 -13   44.91    1.65 
  -1  -3 -13   45.97    1.51 
   1   3  13   47.02    1.49 
  -2  -3 -13    8.05    0.49 
  -2  -3 -13    7.09    0.46 
  -3  -3 -13   29.41    1.20 
  -3  -3 -13   28.17    1.18 
  -4  -3 -13    1.67    0.31 
  -4  -3 -13    1.54    0.33 
  -5  -3 -13    0.21    0.23 
  -5  -3 -13    0.16    0.21 
  -6  -3 -13    1.29    0.37 
   6  -4 -13    0.04    0.34 
   5  -4 -13    1.01    0.40 
   4  -4 -13    4.41    0.61 
   3  -4 -13    3.44    0.48 
   3  -4 -13    3.66    0.49 
   2  -4 -13   37.26    1.54 
   2  -4 -13   35.85    1.53 
   1  -4 -13   18.39    0.85 
   1  -4 -13   15.59    0.84 
   0  -4 -13  162.40    5.22 
   0  -4 -13  169.37    4.72 
   0   4  13  165.87    5.13 
  -1  -4 -13   17.12    0.84 
   1   4  13   18.38    0.66 
  -2  -4 -13   34.85    1.37 
  -3  -4 -13    4.24    0.43 
  -4  -4 -13    5.37    0.50 
  -5  -4 -13    0.75    0.30 
  -5  -4 -13    1.12    0.32 
  -6  -4 -13    0.11    0.30 
   5  -5 -13    1.98    0.50 
   4  -5 -13    0.41    0.28 
   4  -5 -13    0.53    0.30 
   3  -5 -13    2.25    0.42 
   3  -5 -13    1.86    0.40 
   2  -5 -13   18.73    1.00 
   2  -5 -13   18.88    1.00 
   1  -5 -13   42.14    1.66 
   1  -5 -13   43.38    1.69 
   0  -5 -13   13.34    0.67 
   0  -5 -13   13.56    0.74 
  -1  -5 -13   49.50    1.85 
  -2  -5 -13   18.55    0.92 
  -3  -5 -13    1.76    0.32 
  -4  -5 -13    0.55    0.25 
  -5  -5 -13    2.30    0.44 
   5  -6 -13    0.70    0.42 
   4  -6 -13    4.89    0.62 
   4  -6 -13    5.46    0.70 
   3  -6 -13    0.42    0.27 
   3  -6 -13    0.49    0.28 
   2  -6 -13    0.81    0.28 
   2  -6 -13    0.87    0.28 
   1  -6 -13    1.83    0.34 
   1  -6 -13    2.53    0.36 
   0  -6 -13   11.98    0.66 
   0  -6 -13   12.42    0.74 
  -1  -6 -13    2.23    0.35 
  -2  -6 -13    0.84    0.26 
  -3  -6 -13    0.80    0.28 
  -4  -6 -13    4.52    0.54 
  -5  -6 -13    0.44    0.30 
   5  -7 -13    0.08    0.31 
   4  -7 -13    0.22    0.33 
   4  -7 -13    0.35    0.31 
   3  -7 -13    5.04    0.60 
   3  -7 -13    3.98    0.58 
   2  -7 -13    2.57    0.44 
   2  -7 -13    2.19    0.42 
   1  -7 -13    5.97    0.56 
   1  -7 -13    7.66    0.64 
   0  -7 -13   14.11    0.84 
  -1  -7 -13    9.78    0.68 
  -2  -7 -13    2.08    0.37 
  -3  -7 -13    4.31    0.54 
  -4  -7 -13    0.01    0.23 
  -5  -7 -13    0.41    0.33 
   4  -8 -13   -0.09    0.29 
   3  -8 -13    0.25    0.28 
   3  -8 -13    0.22    0.30 
   2  -8 -13    4.86    0.61 
   2  -8 -13    5.91    0.63 
   1  -8 -13    3.08    0.45 
   1  -8 -13    4.48    0.55 
   0  -8 -13    2.19    0.41 
  -1  -8 -13    4.15    0.51 
  -2  -8 -13    5.38    0.59 
  -3  -8 -13    0.11    0.26 
  -4  -8 -13    0.10    0.28 
   3  -9 -13    2.34    0.52 
   3  -9 -13    1.93    0.50 
   2  -9 -13    0.46    0.32 
   2  -9 -13    0.55    0.30 
   1  -9 -13    0.13    0.25 
   0  -9 -13    0.23    0.26 
  -1  -9 -13   -0.05    0.21 
  -2  -9 -13    1.21    0.37 
  -3  -9 -13    1.46    0.42 
   2 -10 -13    1.43    0.45 
   1 -10 -13    0.40    0.31 
   0 -10 -13    3.36    0.56 
  -1 -10 -13    0.64    0.33 
  -2 -10 -13    1.61    0.43 
  -3 -10 -13    0.83    0.39 
   1 -11 -13    1.00    0.41 
   0 -11 -13    0.10    0.33 
  -1 -11 -13    1.26    0.42 
  -2 -10  14    2.65    0.54 
  -1 -10  14    2.02    0.50 
   0 -10  14    4.16    0.67 
   1 -10  14    3.14    0.64 
   2 -10  14    2.02    0.51 
  -3  -9  14    2.28    0.49 
  -3  -9  14    2.29    0.51 
  -2  -9  14    2.81    0.50 
  -2  -9  14    3.81    0.59 
  -1  -9  14    4.63    0.64 
   0  -9  14    1.11    0.38 
   1  -9  14    4.95    0.69 
   2  -9  14    2.81    0.56 
   3  -9  14    2.72    0.58 
  -4  -8  14    4.48    0.63 
  -3  -8  14    1.66    0.41 
  -3  -8  14    1.21    0.39 
  -2  -8  14    2.78    0.45 
  -2  -8  14    3.66    0.54 
  -1  -8  14    4.39    0.59 
   0  -8  14    3.16    0.51 
   1  -8  14    4.97    0.63 
   2  -8  14    3.87    0.58 
   3  -8  14    1.35    0.42 
  -4   8 -14    5.55    0.60 
   4  -8  14    4.00    0.67 
  -5  -7  14    0.20    0.37 
  -4  -7  14    0.53    0.29 
  -4  -7  14    0.73    0.35 
  -3  -7  14    3.27    0.52 
  -3  -7  14    3.75    0.53 
  -2  -7  14    0.75    0.28 
  -2  -7  14    0.65    0.26 
  -1  -7  14    1.03    0.28 
  -1  -7  14    1.77    0.37 
   0  -7  14    1.26    0.31 
   1  -7  14    1.59    0.37 
   2  -7  14    0.47    0.26 
  -3   7 -14    3.38    0.44 
   3  -7  14    2.85    0.53 
  -4   7 -14    0.44    0.22 
   4  -7  14    0.41    0.31 
  -5   7 -14    0.34    0.25 
   5  -7  14   -0.14    0.33 
  -5  -6  14    1.53    0.47 
  -5  -6  14    1.83    0.45 
  -4  -6  14    0.93    0.34 
  -4  -6  14    0.84    0.33 
  -3  -6  14    0.47    0.26 
  -2  -6  14    3.04    0.46 
  -1  -6  14    4.69    0.45 
  -1  -6  14    5.78    0.57 
   0  -6  14    2.73    0.30 
   0  -6  14    2.53    0.40 
   1  -6  14    4.15    0.51 
  -2   6 -14    2.86    0.38 
   2  -6  14    3.84    0.53 
  -3   6 -14    0.74    0.22 
   3  -6  14    0.57    0.30 
  -4   6 -14    0.33    0.21 
   4  -6  14    0.91    0.35 
  -5   6 -14    1.90    0.37 
   5  -6  14    2.01    0.54 
  -5  -5  14    2.33    0.46 
  -4  -5  14   -0.09    0.19 
  -3  -5  14    9.69    0.68 
  -2  -5  14   36.56    1.54 
  -1  -5  14    5.59    0.54 
   0  -5  14    2.21    0.36 
   1  -5  14    4.05    0.47 
  -2   5 -14   35.08    1.33 
   2  -5  14   33.74    1.51 
  -3   5 -14    9.37    0.58 
   3  -5  14    9.94    0.73 
  -4   5 -14    0.14    0.16 
   4  -5  14   -0.09    0.24 
  -5   5 -14    1.48    0.31 
   5  -5  14    1.69    0.48 
  -6  -4  14    0.14    0.31 
  -5  -4  14    0.23    0.24 
  -4  -4  14    3.29    0.47 
  -3  -4  14    3.64    0.44 
  -2  -4  14    5.56    0.50 
  -1  -4  14    0.03    0.14 
   0  -4  14    0.76    0.24 
  -1   4 -14    0.06    0.12 
   1  -4  14   -0.03    0.15 
  -2   4 -14    4.90    0.41 
   2  -4  14    5.48    0.51 
  -3   4 -14    3.34    0.37 
   3  -4  14    3.98    0.47 
  -4   4 -14    2.99    0.39 
   4  -4  14    3.81    0.52 
  -5   4 -14    0.76    0.23 
   5  -4  14    1.17    0.39 
  -6   4 -14    0.34    0.23 
  -6  -3  14    0.26    0.29 
  -5  -3  14    1.46    0.35 
  -4  -3  14    2.76    0.42 
  -3  -3  14   11.35    0.72 
  -2  -3  14   17.62    0.88 
  -1  -3  14    5.83    0.45 
   0  -3  14    5.26    0.45 
  -1   3 -14    6.32    0.40 
   1  -3  14    5.83    0.44 
  -2   3 -14   18.37    0.80 
   2  -3  14   18.25    0.91 
  -3   3 -14   11.40    0.63 
   3  -3  14   10.62    0.68 
  -4   3 -14    2.54    0.35 
   4  -3  14    2.39    0.40 
  -5   3 -14    1.92    0.36 
  -6   3 -14    0.41    0.24 
  -6  -2  14    1.74    0.43 
  -5  -2  14    0.53    0.27 
  -4  -2  14    3.91    0.48 
  -3  -2  14   16.13    0.86 
  -2  -2  14   47.66    1.78 
  -1  -2  14   12.89    0.66 
   0   2 -14    5.55    0.35 
   0  -2  14    6.05    0.41 
  -1   2 -14   12.60    0.59 
  -1   2 -14   13.59    0.58 
   1  -2  14   13.72    0.68 
  -2   2 -14   46.95    1.52 
  -2   2 -14   44.54    1.58 
   2  -2  14   48.25    1.74 
  -3   2 -14   16.43    0.76 
   3  -2  14   13.85    0.77 
  -4   2 -14    4.35    0.44 
   4  -2  14    3.86    0.45 
  -5   2 -14    0.29    0.19 
  -6   2 -14    1.59    0.36 
  -6  -1  14    0.77    0.32 
  -5  -1  14    2.94    0.47 
  -4  -1  14    3.67    0.47 
  -3  -1  14    5.26    0.49 
  -2  -1  14    7.07    0.48 
  -1  -1  14   34.14    1.31 
   0   1 -14    7.51    0.40 
   0   1 -14    8.91    0.48 
   0  -1  14    8.45    0.48 
  -1   1 -14   34.23    1.24 
  -1   1 -14   34.13    1.18 
   1  -1  14   35.05    1.30 
  -2   1 -14    7.54    0.44 
  -2   1 -14    8.14    0.41 
   2  -1  14    8.39    0.49 
  -3   1 -14    5.67    0.41 
  -4   1 -14    4.16    0.45 
  -5   1 -14    3.15    0.45 
  -6   1 -14    0.70    0.28 
  -6   0  14    1.01    0.35 
  -5   0  14    3.83    0.57 
  -4   0  14    8.17    0.64 
  -3   0  14    1.47    0.29 
  -2   0  14   11.20    0.62 
   1   0 -14   -0.01    0.09 
  -1   0  14    0.14    0.11 
   0   0 -14    9.66    0.42 
   0   0 -14    8.40    0.50 
   0   0  14    8.92    0.48 
  -1   0 -14   -0.02    0.07 
  -1   0 -14    0.12    0.09 
   1   0  14   -0.04    0.07 
  -2   0 -14   12.69    0.58 
  -2   0 -14   12.42    0.61 
   2   0  14   12.83    0.60 
  -3   0 -14    1.60    0.27 
  -3   0 -14    1.42    0.21 
   3   0  14    1.96    0.25 
  -4   0 -14    7.20    0.53 
  -5   0 -14    2.68    0.42 
  -6   0 -14    1.06    0.34 
  -6   1  14    0.22    0.32 
  -5   1  14    2.67    0.45 
  -4   1  14    4.10    0.51 
  -3   1  14    6.82    0.52 
   2  -1 -14    8.27    0.59 
  -2   1  14    7.54    0.51 
   1  -1 -14   33.66    1.36 
  -1   1  14   34.65    1.29 
   0  -1 -14    8.57    0.38 
   0  -1 -14    8.44    0.50 
   0   1  14    7.71    0.44 
  -1  -1 -14   33.36    1.16 
  -1  -1 -14   34.35    1.27 
   1   1  14   34.59    1.20 
  -2  -1 -14    8.26    0.45 
  -2  -1 -14    8.39    0.47 
   2   1  14    7.78    0.41 
  -3  -1 -14    7.32    0.49 
  -3  -1 -14    6.68    0.43 
  -4  -1 -14    4.32    0.37 
  -4  -1 -14    4.07    0.46 
  -5  -1 -14    2.01    0.37 
  -6  -1 -14    0.34    0.25 
  -6   2  14    1.15    0.40 
  -5   2  14    0.33    0.26 
  -4   2  14    4.14    0.52 
   3  -2 -14   15.81    0.91 
  -3   2  14   14.21    0.83 
   2  -2 -14   45.12    1.81 
  -2   2  14   47.43    1.76 
   1  -2 -14   14.09    0.50 
   1  -2 -14   14.25    0.75 
  -1   2  14   13.93    0.68 
   0  -2 -14    5.53    0.40 
   0  -2 -14    5.66    0.29 
   0   2  14    5.67    0.35 
  -1  -2 -14   14.29    0.61 
  -1  -2 -14   13.84    0.68 
   1   2  14   14.34    0.58 
  -2  -2 -14   46.47    1.63 
  -2  -2 -14   48.00    1.70 
   2   2  14   48.85    1.55 
  -3  -2 -14   15.76    0.78 
  -3  -2 -14   15.01    0.74 
  -4  -2 -14    4.29    0.41 
  -4  -2 -14    3.96    0.47 
  -5  -2 -14    0.33    0.24 
  -6  -2 -14    1.65    0.41 
  -6   3  14    0.47    0.37 
  -5   3  14    0.95    0.36 
   4  -3 -14    2.36    0.45 
  -4   3  14    2.12    0.40 
   3  -3 -14   11.59    0.79 
   3  -3 -14   11.66    0.79 
   2  -3 -14   16.46    0.89 
  -2   3  14   16.48    0.85 
   1  -3 -14    6.51    0.50 
   1  -3 -14    6.25    0.25 
  -1   3  14    5.94    0.43 
   0  -3 -14    4.25    0.40 
   0  -3 -14    4.54    0.26 
  -1  -3 -14    6.20    0.37 
  -1  -3 -14    5.92    0.42 
   1   3  14    6.39    0.32 
  -2  -3 -14   17.43    0.79 
  -2  -3 -14   17.55    0.82 
  -3  -3 -14    9.65    0.59 
  -3  -3 -14   10.09    0.61 
  -4  -3 -14    2.78    0.36 
  -4  -3 -14    1.98    0.35 
  -5  -3 -14    1.87    0.36 
  -5  -3 -14    1.69    0.36 
  -6  -3 -14    0.35    0.27 
  -6   4  14    0.48    0.35 
   5  -4 -14    0.68    0.35 
   4  -4 -14    2.34    0.46 
   3  -4 -14    3.53    0.50 
   3  -4 -14    3.34    0.49 
   2  -4 -14    5.49    0.54 
   2  -4 -14    5.40    0.53 
   1  -4 -14    0.17    0.16 
   1  -4 -14    0.08    0.14 
   0  -4 -14    0.81    0.22 
   0  -4 -14    0.78    0.15 
   0   4  14    0.31    0.15 
  -1  -4 -14    0.17    0.13 
  -1  -4 -14    0.20    0.16 
   1   4  14   -0.05    0.09 
  -2  -4 -14    6.39    0.48 
  -3  -4 -14    3.35    0.40 
  -4  -4 -14    3.37    0.42 
  -5  -4 -14    0.60    0.28 
  -5  -4 -14    0.35    0.26 
  -6  -4 -14    0.10    0.29 
   5  -5 -14    1.72    0.49 
   4  -5 -14   -0.25    0.21 
   4  -5 -14   -0.17    0.23 
   3  -5 -14    9.50    0.75 
   3  -5 -14    9.74    0.75 
   2  -5 -14   35.91    1.58 
   2  -5 -14   37.37    1.59 
   1  -5 -14    4.49    0.45 
   1  -5 -14    4.73    0.49 
   0  -5 -14    3.21    0.40 
   0  -5 -14    3.56    0.34 
   0  -5 -14    2.92    0.24 
  -1  -5 -14    3.91    0.41 
  -2  -5 -14   38.55    1.54 
  -3  -5 -14   11.43    0.71 
  -4  -5 -14   -0.02    0.18 
  -5  -5 -14    2.60    0.47 
   5  -6 -14    0.92    0.40 
   4  -6 -14    0.81    0.34 
   4  -6 -14    0.65    0.31 
   3  -6 -14    0.68    0.32 
   3  -6 -14    0.55    0.28 
   2  -6 -14    3.08    0.45 
   2  -6 -14    3.44    0.47 
   1  -6 -14    6.06    0.56 
   1  -6 -14    5.39    0.51 
   0  -6 -14    2.71    0.41 
   0  -6 -14    2.89    0.34 
  -1  -6 -14    6.11    0.55 
  -2  -6 -14    3.19    0.42 
  -3  -6 -14    0.85    0.27 
  -4  -6 -14    0.59    0.27 
  -5  -6 -14    1.36    0.38 
   5  -7 -14   -0.03    0.31 
   4  -7 -14    0.20    0.32 
   4  -7 -14    0.35    0.33 
   3  -7 -14    3.47    0.55 
   3  -7 -14    2.68    0.51 
   2  -7 -14    0.73    0.31 
   2  -7 -14    0.64    0.27 
   1  -7 -14    1.99    0.36 
   1  -7 -14    1.85    0.38 
   0  -7 -14    2.22    0.39 
  -1  -7 -14    1.82    0.36 
  -2  -7 -14    0.61    0.27 
  -3  -7 -14    3.30    0.48 
  -4  -7 -14    0.17    0.27 
  -5  -7 -14    0.17    0.32 
   4  -8 -14    4.12    0.70 
   4  -8 -14    4.99    0.71 
   3  -8 -14    1.23    0.40 
   3  -8 -14    0.64    0.34 
   2  -8 -14    3.97    0.57 
   2  -8 -14    3.85    0.55 
   1  -8 -14    4.88    0.59 
   0  -8 -14    3.15    0.48 
  -1  -8 -14    5.73    0.60 
  -2  -8 -14    3.22    0.49 
  -3  -8 -14    0.98    0.33 
  -4  -8 -14    3.83    0.59 
   3  -9 -14    1.77    0.49 
   3  -9 -14    3.20    0.59 
   2  -9 -14    3.68    0.58 
   2  -9 -14    3.74    0.58 
   1  -9 -14    6.35    0.68 
   0  -9 -14    0.87    0.32 
  -1  -9 -14    5.29    0.61 
  -2  -9 -14    3.14    0.50 
  -3  -9 -14    2.35    0.48 
   2 -10 -14    3.01    0.57 
   1 -10 -14    1.88    0.46 
   0 -10 -14    3.23    0.56 
  -1 -10 -14    2.06    0.45 
  -2 -10 -14    2.12    0.46 
   0 -11 -14    0.74    0.39 
  -2 -10  15    1.33    0.45 
  -1 -10  15    1.28    0.43 
   0 -10  15    0.12    0.29 
   1 -10  15    1.27    0.46 
   2 -10  15    1.02    0.42 
  -3  -9  15   -0.17    0.28 
  -3  -9  15    0.35    0.32 
  -2  -9  15    1.07    0.38 
  -1  -9  15    0.29    0.27 
   0  -9  15   -0.41    0.20 
   1  -9  15    0.25    0.28 
   2  -9  15    1.22    0.43 
   3  -9  15    0.44    0.37 
  -4  -8  15   -0.29    0.29 
  -4  -8  15    0.32    0.31 
  -3  -8  15    0.82    0.32 
  -3  -8  15    0.23    0.28 
  -2  -8  15    0.15    0.28 
  -2  -8  15    0.50    0.28 
  -1  -8  15    5.21    0.64 
   0  -8  15    0.15    0.22 
   1  -8  15    5.46    0.67 
   2  -8  15    0.33    0.28 
   3  -8  15    0.23    0.28 
  -4   8 -15    0.16    0.24 
   4  -8  15    0.01    0.30 
  -4  -7  15    0.19    0.29 
  -4  -7  15   -0.09    0.24 
  -3  -7  15    0.16    0.26 
  -3  -7  15   -0.03    0.23 
  -2  -7  15    7.71    0.71 
  -2  -7  15    5.98    0.59 
  -1  -7  15    0.13    0.21 
  -1  -7  15   -0.05    0.20 
   0  -7  15    6.89    0.66 
   1  -7  15   -0.16    0.19 
   2  -7  15    7.17    0.73 
  -3   7 -15    0.14    0.19 
   3  -7  15    0.23    0.28 
  -4   7 -15   -0.09    0.17 
   4  -7  15    0.19    0.31 
  -5  -6  15    3.84    0.66 
  -5  -6  15    3.20    0.54 
  -4  -6  15    3.54    0.54 
  -3  -6  15    4.97    0.57 
  -2  -6  15    2.33    0.42 
  -1  -6  15   12.97    0.83 
   0  -6  15    0.13    0.19 
   1  -6  15   12.10    0.81 
  -2   6 -15    2.30    0.35 
   2  -6  15    2.48    0.45 
  -3   6 -15    4.81    0.48 
   3  -6  15    4.87    0.61 
  -4   6 -15    3.93    0.48 
   4  -6  15    3.57    0.60 
  -5   6 -15    3.63    0.49 
   5  -6  15    4.27    0.70 
  -5  -5  15    1.53    0.40 
  -4  -5  15    3.37    0.49 
  -3  -5  15    1.13    0.31 
  -2  -5  15    1.05    0.28 
  -1  -5  15    7.50    0.59 
   0  -5  15   41.73    1.71 
   1  -5  15    6.44    0.58 
  -2   5 -15    1.43    0.28 
   2  -5  15    1.35    0.32 
  -3   5 -15    1.58    0.29 
   3  -5  15    1.71    0.38 
  -4   5 -15    3.54    0.43 
   4  -5  15    3.69    0.57 
  -5   5 -15    1.46    0.32 
   5  -5  15    1.60    0.47 
  -5  -4  15    3.62    0.55 
  -4  -4  15    1.50    0.36 
  -3  -4  15   16.17    0.91 
  -2  -4  15    6.84    0.58 
  -1  -4  15   49.55    1.90 
   0  -4  15    4.02    0.45 
  -1   4 -15   49.17    1.70 
   1  -4  15   48.74    1.90 
  -2   4 -15    5.81    0.46 
   2  -4  15    5.82    0.54 
  -3   4 -15   18.23    0.84 
   3  -4  15   15.84    0.93 
  -4   4 -15    1.71    0.31 
   4  -4  15    1.99    0.42 
  -5   4 -15    3.25    0.44 
   5  -4  15    2.95    0.54 
  -6   4 -15    1.27    0.35 
  -6  -3  15    1.13    0.39 
  -5  -3  15    2.95    0.48 
  -4  -3  15    5.00    0.55 
  -3  -3  15    2.50    0.39 
  -2  -3  15   22.93    1.07 
  -1  -3  15   17.23    0.86 
   0  -3  15    4.11    0.42 
  -1   3 -15   18.35    0.76 
   1  -3  15   15.48    0.83 
  -2   3 -15   23.28    0.93 
   2  -3  15   20.91    1.03 
  -3   3 -15    1.76    0.28 
   3  -3  15    2.80    0.39 
  -4   3 -15    6.37    0.54 
   4  -3  15    6.38    0.60 
  -5   3 -15    2.48    0.38 
  -6   3 -15    0.76    0.26 
  -6  -2  15    0.74    0.34 
  -5  -2  15    3.52    0.52 
  -4  -2  15    1.74    0.35 
  -3  -2  15    5.78    0.52 
  -2  -2  15    4.36    0.43 
  -1  -2  15   16.93    0.81 
   0   2 -15   22.06    0.87 
   0  -2  15   22.08    0.96 
  -1   2 -15   16.99    0.71 
  -1   2 -15   17.11    0.72 
   1  -2  15   17.01    0.81 
  -2   2 -15    3.71    0.35 
   2  -2  15    4.24    0.40 
  -3   2 -15    7.41    0.49 
   3  -2  15    6.97    0.52 
  -4   2 -15    1.76    0.32 
   4  -2  15    1.74    0.34 
  -5   2 -15    3.57    0.46 
  -6   2 -15    0.61    0.24 
  -6  -1  15    0.74    0.33 
  -5  -1  15    0.27    0.25 
  -4  -1  15    0.07    0.20 
  -3  -1  15    0.25    0.19 
  -2  -1  15    3.75    0.39 
  -1  -1  15    0.68    0.19 
   0   1 -15    9.30    0.52 
   0   1 -15    9.20    0.45 
   0  -1  15    9.19    0.52 
  -1   1 -15    0.68    0.15 
  -1   1 -15    0.71    0.16 
   1  -1  15    0.72    0.18 
  -2   1 -15    4.28    0.37 
  -2   1 -15    4.52    0.30 
   2  -1  15    3.51    0.34 
  -3   1 -15    0.40    0.15 
   3  -1  15   -0.03    0.09 
  -4   1 -15   -0.06    0.15 
  -5   1 -15    0.66    0.26 
  -6   1 -15    0.60    0.29 
  -6   0  15    1.62    0.45 
  -5   0  15    0.17    0.25 
  -4   0  15    0.07    0.19 
  -3   0  15    0.61    0.23 
  -2   0  15    6.91    0.49 
   1   0 -15    2.87    0.34 
  -1   0  15    2.44    0.28 
   0   0 -15    0.01    0.07 
   0   0 -15    0.03    0.10 
   0   0  15    0.12    0.10 
  -1   0 -15    3.59    0.30 
  -1   0 -15    3.12    0.29 
   1   0  15    3.17    0.28 
  -2   0 -15    7.67    0.46 
  -2   0 -15    8.18    0.44 
   2   0  15    7.81    0.45 
  -3   0 -15    0.50    0.19 
  -3   0 -15    0.72    0.17 
   3   0  15    0.95    0.20 
  -4   0 -15    0.13    0.16 
  -5   0 -15    0.41    0.25 
  -6   0 -15    1.18    0.34 
  -6   1  15    0.40    0.34 
  -5   1  15    0.31    0.26 
  -4   1  15    0.10    0.21 
  -3   1  15    0.10    0.16 
   2  -1 -15    3.50    0.43 
  -2   1  15    3.58    0.39 
   1  -1 -15    0.74    0.21 
  -1   1  15    0.61    0.17 
   0  -1 -15    8.84    0.53 
   0  -1 -15    8.53    0.40 
   0   1  15    8.92    0.47 
  -1  -1 -15    0.96    0.19 
  -1  -1 -15    0.67    0.14 
   1   1  15    0.65    0.14 
  -2  -1 -15    4.20    0.33 
  -2  -1 -15    4.07    0.36 
   2   1  15    4.04    0.29 
  -3  -1 -15    0.38    0.16 
  -3  -1 -15    0.26    0.17 
  -4  -1 -15   -0.12    0.15 
  -5  -1 -15    0.45    0.24 
  -6  -1 -15    0.71    0.32 
  -6   2  15    1.47    0.44 
  -5   2  15    2.92    0.50 
  -4   2  15    2.07    0.41 
   3  -2 -15    6.08    0.61 
  -3   2  15    6.77    0.58 
   2  -2 -15    4.20    0.47 
  -2   2  15    3.99    0.42 
   1  -2 -15   17.54    0.62 
   1  -2 -15   19.03    0.91 
  -1   2  15   17.85    0.82 
   0  -2 -15   24.28    1.01 
   0  -2 -15   21.18    0.78 
   0   2  15   22.26    0.89 
  -1  -2 -15   17.65    0.70 
  -1  -2 -15   16.67    0.79 
   1   2  15   16.72    0.67 
  -2  -2 -15    4.16    0.37 
  -2  -2 -15    4.03    0.37 
  -3  -2 -15    6.74    0.48 
  -3  -2 -15    6.01    0.44 
  -4  -2 -15    2.21    0.32 
  -4  -2 -15    2.19    0.38 
  -5  -2 -15    3.23    0.47 
  -6  -2 -15    0.88    0.31 
  -6   3  15    0.78    0.39 
  -5   3  15    3.10    0.54 
  -4   3  15    4.71    0.57 
   3  -3 -15    2.84    0.46 
  -3   3  15    2.89    0.42 
   2  -3 -15   22.33    1.11 
  -2   3  15   21.59    1.03 
   1  -3 -15   17.80    0.59 
   1  -3 -15   19.59    0.94 
  -1   3  15   17.27    0.82 
   0  -3 -15    4.26    0.26 
   0  -3 -15    3.72    0.38 
  -1  -3 -15   19.39    0.86 
  -1  -3 -15   15.38    0.70 
   1   3  15   17.91    0.68 
  -2  -3 -15   21.12    0.91 
  -2  -3 -15   23.00    0.99 
  -3  -3 -15    2.60    0.36 
  -3  -3 -15    3.31    0.37 
  -4  -3 -15    5.62    0.56 
  -4  -3 -15    5.65    0.49 
  -5  -3 -15    3.45    0.50 
  -6  -3 -15    0.70    0.30 
  -5   4  15    2.19    0.45 
   4  -4 -15    1.59    0.40 
   3  -4 -15   16.35    1.01 
   3  -4 -15   18.47    1.05 
   2  -4 -15    5.69    0.56 
   2  -4 -15    5.82    0.57 
   1  -4 -15   46.92    1.82 
  -1   4  15   46.13    1.73 
   0  -4 -15    3.95    0.26 
   0  -4 -15    3.43    0.40 
   0   4  15    4.40    0.33 
  -1  -4 -15   49.19    1.81 
  -1  -4 -15   47.57    1.60 
  -2  -4 -15    5.41    0.45 
  -2  -4 -15    6.19    0.47 
  -3  -4 -15   17.53    0.90 
  -3  -4 -15   18.58    0.91 
  -4  -4 -15    1.93    0.36 
  -4  -4 -15    1.02    0.29 
  -5  -4 -15    3.21    0.51 
  -5  -4 -15    3.92    0.50 
  -6  -4 -15    0.75    0.32 
   5  -5 -15    0.95    0.42 
   4  -5 -15    4.10    0.60 
   4  -5 -15    3.86    0.62 
   3  -5 -15    1.59    0.38 
   3  -5 -15    1.75    0.39 
   2  -5 -15    1.49    0.35 
   2  -5 -15    1.30    0.32 
   1  -5 -15    7.56    0.55 
   1  -5 -15    7.31    0.61 
   0  -5 -15   41.28    1.63 
   0   5  15   39.63    1.48 
  -1  -5 -15    7.64    0.46 
  -1  -5 -15    7.93    0.57 
  -2  -5 -15    1.50    0.30 
  -3  -5 -15    1.13    0.30 
  -4  -5 -15    4.59    0.52 
  -5  -5 -15    1.66    0.41 
  -5  -5 -15    1.09    0.35 
   5  -6 -15    3.95    0.72 
   4  -6 -15    3.51    0.58 
   4  -6 -15    3.19    0.58 
   3  -6 -15    4.65    0.62 
   3  -6 -15    5.22    0.64 
   2  -6 -15    2.64    0.43 
   2  -6 -15    1.67    0.38 
   1  -6 -15   10.92    0.75 
   1  -6 -15   10.97    0.70 
   0  -6 -15    0.23    0.22 
  -1  -6 -15   11.34    0.73 
  -2  -6 -15    2.05    0.37 
  -3  -6 -15    4.92    0.54 
  -4  -6 -15    3.09    0.46 
  -5  -6 -15    2.72    0.49 
   4  -7 -15   -0.31    0.27 
   4  -7 -15    0.44    0.34 
   3  -7 -15   -0.04    0.24 
   3  -7 -15    0.37    0.27 
   2  -7 -15    6.49    0.66 
   2  -7 -15    7.58    0.71 
   1  -7 -15    0.14    0.21 
   1  -7 -15    0.31    0.24 
   0  -7 -15    6.76    0.63 
  -1  -7 -15    0.35    0.23 
  -2  -7 -15    6.92    0.64 
  -3  -7 -15    0.03    0.22 
  -4  -7 -15    0.22    0.27 
   4  -8 -15    0.07    0.36 
   4  -8 -15    0.45    0.35 
   3  -8 -15    0.51    0.34 
   3  -8 -15    0.42    0.32 
   2  -8 -15    0.28    0.27 
   2  -8 -15    0.23    0.29 
   1  -8 -15    7.04    0.69 
   0  -8 -15    0.12    0.24 
  -1  -8 -15    4.57    0.57 
  -2  -8 -15    0.11    0.25 
  -3  -8 -15    0.14    0.24 
  -4  -8 -15    0.28    0.31 
   3  -9 -15    0.15    0.34 
   3  -9 -15    0.59    0.36 
   2  -9 -15    2.34    0.50 
   2  -9 -15    1.17    0.42 
   1  -9 -15   -0.06    0.24 
   0  -9 -15   -0.03    0.22 
  -1  -9 -15    0.65    0.28 
  -2  -9 -15    1.99    0.44 
  -3  -9 -15    0.39    0.30 
   2 -10 -15    0.97    0.43 
   1 -10 -15    0.94    0.38 
   0 -10 -15    0.17    0.30 
  -1 -10 -15    1.12    0.39 
  -2 -10 -15    1.05    0.37 
  -2 -10  16    8.87    0.92 
  -1 -10  16    0.95    0.40 
   0 -10  16    1.92    0.51 
   1 -10  16    0.91    0.44 
   2 -10  16    5.00    0.76 
  -3  -9  16    4.77    0.70 
  -3  -9  16    2.81    0.56 
  -2  -9  16    0.30    0.30 
  -1  -9  16    1.91    0.48 
   0  -9  16    0.00    0.22 
   1  -9  16    1.73    0.45 
   2  -9  16    0.64    0.35 
   3  -9  16    3.93    0.70 
  -4  -8  16    0.44    0.35 
  -4  -8  16    1.10    0.41 
  -3  -8  16    0.82    0.37 
  -3  -8  16    1.16    0.38 
  -2  -8  16    5.36    0.66 
  -1  -8  16    0.60    0.30 
   0  -8  16    2.95    0.53 
   1  -8  16    0.10    0.23 
   2  -8  16    5.45    0.71 
   3  -8  16    0.64    0.34 
  -4   8 -16    0.45    0.29 
   4  -8  16    0.48    0.39 
  -4  -7  16    0.13    0.28 
  -4  -7  16    0.10    0.27 
  -3  -7  16    0.89    0.35 
  -3  -7  16    1.41    0.39 
  -2  -7  16    2.48    0.46 
  -2  -7  16    2.23    0.41 
  -1  -7  16    4.51    0.58 
  -1  -7  16    3.35    0.43 
   0  -7  16    1.92    0.42 
   1  -7  16    4.09    0.56 
   2  -7  16    2.24    0.48 
  -3   7 -16    1.38    0.33 
   3  -7  16    1.33    0.40 
  -4   7 -16    0.11    0.19 
   4  -7  16    0.19    0.32 
  -5  -6  16    1.62    0.45 
  -5  -6  16    2.07    0.55 
  -4  -6  16    1.88    0.43 
  -3  -6  16   -0.02    0.21 
  -2  -6  16    0.60    0.28 
  -1  -6  16    1.17    0.32 
   0  -6  16   20.14    1.09 
   1  -6  16    1.15    0.32 
  -2   6 -16    0.52    0.21 
   2  -6  16    1.00    0.31 
  -3   6 -16   -0.02    0.16 
   3  -6  16   -0.06    0.22 
  -4   6 -16    0.99    0.29 
   4  -6  16    1.32    0.45 
  -5   6 -16    1.34    0.34 
   5  -6  16    2.48    0.61 
  -5  -5  16   -0.03    0.25 
  -4  -5  16    1.64    0.38 
  -3  -5  16    0.04    0.20 
  -2  -5  16    2.85    0.44 
  -1  -5  16   16.96    0.96 
   0  -5  16   19.96    1.05 
   1  -5  16   17.03    0.96 
  -2   5 -16    2.87    0.37 
   2  -5  16    2.65    0.44 
  -3   5 -16    0.10    0.17 
   3  -5  16    0.39    0.24 
  -4   5 -16    0.96    0.26 
   4  -5  16    2.18    0.47 
  -5   5 -16    0.08    0.20 
   5  -5  16    0.11    0.33 
  -5  -4  16    0.14    0.25 
  -4  -4  16    0.82    0.29 
  -3  -4  16    1.89    0.36 
  -2  -4  16    3.77    0.46 
  -1  -4  16    6.30    0.55 
   0  -4  16    0.10    0.17 
  -1   4 -16    7.44    0.49 
   1  -4  16    7.41    0.57 
  -2   4 -16    3.52    0.38 
   2  -4  16    3.85    0.47 
  -3   4 -16    1.75    0.29 
   3  -4  16    2.41    0.41 
  -4   4 -16    1.00    0.26 
   4  -4  16    1.32    0.37 
  -5   4 -16    0.25    0.19 
  -6  -3  16    0.98    0.40 
  -5  -3  16    1.04    0.34 
  -4  -3  16    0.81    0.28 
  -3  -3  16   13.11    0.80 
  -2  -3  16   20.79    1.01 
  -1  -3  16   55.93    2.07 
   0  -3  16    2.51    0.35 
  -1   3 -16   58.12    1.85 
   1  -3  16   51.68    2.03 
  -2   3 -16   18.90    0.85 
   2  -3  16   19.94    0.97 
  -3   3 -16   10.66    0.62 
   3  -3  16   11.76    0.73 
  -4   3 -16    0.88    0.24 
   4  -3  16    1.09    0.33 
  -5   3 -16    1.18    0.29 
  -6   3 -16    0.26    0.24 
  -6  -2  16    0.44    0.31 
  -5  -2  16    0.28    0.24 
  -4  -2  16    4.66    0.53 
  -3  -2  16    0.48    0.22 
  -2  -2  16   52.90    1.98 
  -1  -2  16   15.06    0.77 
   0   2 -16    8.85    0.48 
   0  -2  16    8.30    0.54 
  -1   2 -16   16.66    0.72 
  -1   2 -16   16.84    0.73 
   1  -2  16   17.06    0.83 
  -2   2 -16   53.06    1.77 
   2  -2  16   51.47    1.92 
  -3   2 -16    0.99    0.23 
   3  -2  16    1.38    0.28 
  -4   2 -16    4.92    0.50 
   4  -2  16    4.91    0.51 
  -5   2 -16    1.03    0.29 
  -6   2 -16   -0.25    0.18 
  -6  -1  16    1.25    0.40 
  -5  -1  16    1.39    0.37 
  -4  -1  16    4.00    0.51 
  -3  -1  16   10.89    0.70 
  -2  -1  16    4.14    0.41 
  -1  -1  16    9.69    0.57 
   0   1 -16    8.02    0.50 
   0   1 -16    8.93    0.45 
   0  -1  16    8.28    0.51 
  -1   1 -16   10.42    0.55 
  -1   1 -16   10.15    0.51 
   1  -1  16   11.84    0.61 
  -2   1 -16    4.46    0.38 
  -2   1 -16    3.97    0.31 
   2  -1  16    4.51    0.38 
  -4   1 -16    3.82    0.44 
  -5   1 -16    1.42    0.34 
  -6   1 -16    1.08    0.33 
  -6   0  16    2.01    0.48 
  -5   0  16    2.84    0.50 
  -4   0  16    3.47    0.47 
  -3   0  16    0.73    0.23 
  -2   0  16    7.80    0.53 
   1   0 -16    1.15    0.25 
  -1   0  16    0.69    0.17 
   0   0 -16   17.39    0.69 
   0   0 -16   17.39    0.82 
   0   0  16   17.75    0.78 
  -1   0 -16    0.85    0.17 
  -1   0 -16    1.31    0.22 
   1   0  16    1.01    0.20 
  -2   0 -16    6.85    0.43 
  -2   0 -16    7.38    0.45 
   2   0  16    8.26    0.46 
  -3   0 -16    0.82    0.21 
  -3   0 -16    0.99    0.19 
  -4   0 -16    3.61    0.43 
  -5   0 -16    3.10    0.44 
  -6   0 -16    2.90    0.49 
  -6   1  16    1.03    0.42 
  -5   1  16    1.69    0.42 
  -4   1  16    3.34    0.49 
  -3   1  16   11.18    0.72 
   2  -1 -16    4.05    0.46 
  -2   1  16    4.65    0.44 
   1  -1 -16    9.92    0.63 
  -1   1  16   10.47    0.57 
   0  -1 -16    8.53    0.41 
   0  -1 -16    8.47    0.53 
   0   1  16    8.58    0.48 
  -1  -1 -16   10.03    0.55 
  -1  -1 -16   10.25    0.49 
   1   1  16    9.65    0.49 
  -2  -1 -16    4.64    0.38 
  -2  -1 -16    4.57    0.37 
   2   1  16    4.06    0.31 
  -3  -1 -16   11.78    0.67 
  -3  -1 -16   13.22    0.65 
  -4  -1 -16    3.30    0.43 
  -5  -1 -16    1.48    0.34 
  -6  -1 -16    1.63    0.38 
  -6   2  16   -0.13    0.26 
  -5   2  16    1.08    0.37 
  -4   2  16    3.85    0.50 
   3  -2 -16    1.09    0.33 
  -3   2  16    0.62    0.24 
   2  -2 -16   51.50    2.02 
  -2   2  16   51.52    1.92 
   1  -2 -16   12.90    0.79 
   1  -2 -16   16.58    0.58 
  -1   2  16   17.54    0.78 
   0  -2 -16    8.24    0.55 
   0  -2 -16    7.77    0.39 
   0   2  16    8.63    0.47 
  -1  -2 -16   16.91    0.70 
  -1  -2 -16   16.43    0.79 
   1   2  16   16.19    0.67 
  -2  -2 -16   51.13    1.83 
  -2  -2 -16   50.75    1.74 
  -3  -2 -16    0.92    0.24 
  -3  -2 -16    0.89    0.23 
  -4  -2 -16    4.99    0.52 
  -4  -2 -16    5.76    0.47 
  -5  -2 -16    0.61    0.26 
  -6  -2 -16    0.12    0.23 
  -6   3  16    0.17    0.32 
  -5   3  16    0.58    0.34 
  -4   3  16    0.81    0.29 
   3  -3 -16    9.63    0.74 
  -3   3  16   10.12    0.70 
   2  -3 -16   20.26    1.06 
  -2   3  16   19.43    0.97 
   1  -3 -16   59.51    2.20 
  -1   3  16   58.86    2.07 
   0  -3 -16    3.10    0.37 
   0  -3 -16    3.39    0.25 
  -1  -3 -16   61.04    1.94 
  -1  -3 -16   61.49    2.17 
   1   3  16   60.35    1.97 
  -2  -3 -16   22.01    0.99 
  -2  -3 -16   21.53    0.92 
  -3  -3 -16    9.18    0.60 
  -3  -3 -16   10.00    0.61 
  -4  -3 -16    1.16    0.29 
  -4  -3 -16    1.11    0.30 
  -5  -3 -16    0.68    0.28 
  -6  -3 -16    0.15    0.30 
  -5   4  16   -0.06    0.24 
  -4   4  16    1.39    0.36 
   3  -4 -16    2.63    0.47 
   3  -4 -16    2.55    0.45 
   2  -4 -16    3.54    0.48 
  -2   4  16    2.99    0.41 
   1  -4 -16    7.43    0.58 
  -1   4  16    7.67    0.52 
   0  -4 -16   -0.03    0.14 
   0  -4 -16    0.28    0.12 
   0   4  16    0.05    0.13 
  -1  -4 -16    6.83    0.42 
  -1  -4 -16    6.69    0.51 
  -2  -4 -16    3.90    0.39 
  -2  -4 -16    3.36    0.40 
  -3  -4 -16    2.30    0.36 
  -3  -4 -16    2.24    0.36 
  -4  -4 -16    1.58    0.32 
  -4  -4 -16    1.83    0.36 
  -5  -4 -16    0.51    0.28 
  -5  -4 -16    0.16    0.26 
   5  -5 -16    0.09    0.33 
   4  -5 -16    1.12    0.37 
   4  -5 -16    1.35    0.43 
   3  -5 -16    0.73    0.30 
   3  -5 -16    0.44    0.28 
   2  -5 -16    3.17    0.46 
   2  -5 -16    2.93    0.48 
   1  -5 -16   15.53    0.91 
  -1   5  16   17.26    0.85 
   0  -5 -16   20.60    1.04 
   0   5  16   21.19    0.90 
  -1  -5 -16   16.45    0.86 
  -1  -5 -16   14.07    0.67 
  -2  -5 -16    2.64    0.35 
  -2  -5 -16    2.82    0.40 
  -3  -5 -16    0.63    0.25 
  -3  -5 -16    0.64    0.24 
  -4  -5 -16    1.51    0.34 
  -4  -5 -16    1.84    0.36 
  -5  -5 -16   -0.26    0.24 
  -5  -5 -16    0.23    0.28 
   5  -6 -16    1.40    0.48 
   4  -6 -16    1.40    0.42 
   4  -6 -16    2.41    0.52 
   3  -6 -16    0.49    0.29 
   3  -6 -16    0.24    0.28 
   2  -6 -16    1.28    0.34 
   2  -6 -16    0.84    0.32 
   1  -6 -16    1.00    0.29 
   1  -6 -16    0.85    0.26 
   0  -6 -16   18.46    0.99 
  -1  -6 -16    0.14    0.13 
  -1  -6 -16    0.85    0.28 
  -2  -6 -16    1.12    0.30 
  -3  -6 -16    0.23    0.21 
  -4  -6 -16    1.75    0.39 
  -5  -6 -16    1.07    0.37 
  -5  -6 -16    1.83    0.43 
   4  -7 -16    0.08    0.34 
   4  -7 -16    0.08    0.28 
   3  -7 -16    1.31    0.41 
   3  -7 -16    1.43    0.41 
   2  -7 -16    3.27    0.51 
   2  -7 -16    2.40    0.46 
   1  -7 -16    4.41    0.52 
   1  -7 -16    4.45    0.56 
   0  -7 -16    1.92    0.41 
  -1  -7 -16    4.46    0.52 
  -2  -7 -16    2.79    0.45 
  -3  -7 -16    1.43    0.36 
  -4  -7 -16    0.28    0.27 
   4  -8 -16    0.34    0.36 
   4  -8 -16    0.93    0.44 
   3  -8 -16    0.58    0.34 
   3  -8 -16    0.59    0.34 
   2  -8 -16    5.73    0.68 
   2  -8 -16    5.27    0.65 
   1  -8 -16    0.52    0.29 
   0  -8 -16    1.91    0.41 
  -1  -8 -16    0.30    0.26 
  -2  -8 -16    5.26    0.63 
  -3  -8 -16    1.13    0.34 
  -4  -8 -16    0.62    0.33 
   3  -9 -16    4.38    0.71 
   3  -9 -16    4.95    0.71 
   2  -9 -16   -0.01    0.31 
   1  -9 -16    1.85    0.44 
   0  -9 -16    0.40    0.31 
  -1  -9 -16    1.60    0.41 
  -2  -9 -16    0.31    0.28 
  -3  -9 -16    4.72    0.65 
   2 -10 -16    8.26    0.87 
   1 -10 -16    0.98    0.39 
   0 -10 -16    1.34    0.45 
  -1 -10 -16    1.07    0.38 
  -2 -10 -16    7.05    0.78 
  -1 -10  17    0.16    0.31 
   0 -10  17    1.49    0.47 
   1 -10  17    0.09    0.32 
  -3  -9  17    1.74    0.50 
  -3  -9  17    2.67    0.56 
  -2  -9  17    0.75    0.35 
  -1  -9  17    0.32    0.30 
   0  -9  17    0.05    0.25 
   1  -9  17    0.18    0.30 
   2  -9  17    0.12    0.29 
   3  -9  17    2.44    0.60 
  -3  -8  17    0.99    0.39 
  -3  -8  17    1.77    0.45 
  -2  -8  17    0.82    0.35 
  -2  -8  17    0.47    0.32 
  -1  -8  17    1.74    0.41 
   0  -8  17    4.89    0.64 
   1  -8  17    1.22    0.41 
   2  -8  17    0.37    0.31 
   3  -8  17    1.58    0.47 
  -4  -7  17    0.54    0.36 
  -4  -7  17    0.86    0.39 
  -3  -7  17    0.36    0.28 
  -3  -7  17    0.72    0.32 
  -2  -7  17    1.12    0.37 
  -2  -7  17    0.77    0.33 
  -1  -7  17    2.45    0.46 
   0  -7  17    9.18    0.80 
   1  -7  17    1.68    0.40 
   2  -7  17    0.66    0.32 
  -3   7 -17    1.06    0.29 
   3  -7  17    0.77    0.35 
  -4   7 -17    0.98    0.33 
   4  -7  17    0.76    0.40 
  -5  -6  17    0.30    0.35 
  -5  -6  17   -0.22    0.29 
  -4  -6  17    3.40    0.56 
  -3  -6  17    1.61    0.39 
  -2  -6  17    1.31    0.37 
  -1  -6  17   33.01    1.53 
   0  -6  17    3.53    0.50 
   1  -6  17   28.63    1.40 
  -2   6 -17    0.91    0.25 
   2  -6  17    0.77    0.31 
  -3   6 -17    1.05    0.28 
   3  -6  17    1.39    0.38 
  -4   6 -17    3.25    0.45 
   4  -6  17    2.97    0.58 
  -5   6 -17    0.17    0.24 
   5  -6  17    0.07    0.34 
  -5  -5  17    0.89    0.36 
  -4  -5  17    1.10    0.35 
  -3  -5  17    4.45    0.56 
  -2  -5  17    8.42    0.65 
  -1  -5  17   18.81    1.04 
   0  -5  17   33.18    1.49 
   1  -5  17   17.02    0.98 
  -2   5 -17    7.86    0.54 
   2  -5  17    8.55    0.72 
  -3   5 -17    3.77    0.44 
   3  -5  17    4.19    0.55 
  -4   5 -17    0.61    0.23 
   4  -5  17    0.61    0.33 
  -5   5 -17    1.26    0.32 
   5  -5  17    0.74    0.45 
  -5  -4  17    3.19    0.53 
  -4  -4  17    2.97    0.49 
  -3  -4  17    6.80    0.62 
  -2  -4  17    6.83    0.61 
  -1  -4  17   46.93    1.87 
   0  -4  17    0.63    0.23 
  -1   4 -17   42.17    1.57 
   1  -4  17   44.59    1.76 
  -2   4 -17    6.16    0.45 
   2  -4  17    6.03    0.58 
  -3   4 -17    6.55    0.53 
   3  -4  17    7.61    0.65 
  -4   4 -17    3.04    0.42 
   4  -4  17    2.84    0.49 
  -5   4 -17    3.65    0.48 
  -5  -3  17    0.57    0.29 
  -4  -3  17    4.55    0.56 
  -3  -3  17    8.10    0.64 
  -2  -3  17    6.64    0.56 
  -1  -3  17    2.23    0.36 
   0  -3  17   34.02    1.42 
  -1   3 -17    1.82    0.27 
   1  -3  17    2.48    0.36 
  -2   3 -17    5.68    0.44 
   2  -3  17    4.73    0.48 
  -3   3 -17    6.24    0.46 
   3  -3  17    6.36    0.57 
  -4   3 -17    4.42    0.48 
   4  -3  17    3.58    0.50 
  -5   3 -17    0.19    0.19 
  -6  -2  17    0.81    0.36 
  -5  -2  17    1.46    0.39 
  -4  -2  17    0.05    0.19 
  -3  -2  17    3.44    0.45 
  -2  -2  17    1.35    0.28 
  -1  -2  17   12.96    0.72 
   0   2 -17  118.36    3.54 
   0  -2  17  116.21    3.85 
  -1   2 -17   13.49    0.64 
  -1   2 -17   13.94    0.64 
   1  -2  17   12.76    0.72 
  -2   2 -17    1.77    0.26 
   2  -2  17    0.60    0.21 
  -3   2 -17    4.38    0.43 
   3  -2  17    4.07    0.43 
  -4   2 -17    0.20    0.17 
  -5   2 -17    1.16    0.31 
  -6   2 -17    0.42    0.25 
  -6  -1  17    0.64    0.34 
  -5  -1  17    1.47    0.38 
  -4  -1  17    0.90    0.29 
  -3  -1  17    5.76    0.55 
  -2  -1  17    2.49    0.35 
  -1  -1  17    0.26    0.15 
   0   1 -17   26.23    0.97 
   0   1 -17   25.80    1.09 
   0  -1  17   26.20    1.09 
  -1   1 -17    0.82    0.19 
  -1   1 -17    0.80    0.17 
   1  -1  17    0.56    0.18 
  -2   1 -17    3.04    0.33 
  -2   1 -17    3.29    0.29 
   2  -1  17    2.44    0.31 
  -3   1 -17    5.88    0.49 
  -4   1 -17    1.04    0.25 
  -5   1 -17    1.30    0.33 
  -6   1 -17    0.12    0.26 
  -6   0  17    0.49    0.33 
  -5   0  17    0.91    0.32 
  -4   0  17    0.09    0.19 
  -3   0  17    1.17    0.29 
  -2   0  17    1.85    0.31 
   1   0 -17    7.89    0.56 
  -1   0  17    7.55    0.50 
   0   0 -17    0.39    0.17 
   0   0 -17    0.12    0.09 
   0   0  17    0.05    0.12 
  -1   0 -17    7.70    0.48 
  -1   0 -17    7.94    0.45 
   1   0  17    8.77    0.49 
  -2   0 -17    2.33    0.27 
  -2   0 -17    1.99    0.27 
   2   0  17    1.81    0.25 
  -3   0 -17    1.50    0.28 
  -4   0 -17    0.36    0.22 
  -5   0 -17    0.29    0.22 
  -6   0 -17    0.72    0.33 
  -6   1  17    0.06    0.33 
  -5   1  17    1.26    0.38 
  -4   1  17    0.80    0.32 
  -3   1  17    5.73    0.56 
   2  -1 -17    2.56    0.39 
  -2   1  17    2.76    0.37 
   1  -1 -17    0.46    0.20 
  -1   1  17    0.64    0.18 
   0  -1 -17   28.49    1.19 
   0  -1 -17   26.93    0.97 
   0   1  17   28.63    1.10 
  -1  -1 -17    0.58    0.18 
  -1  -1 -17    0.66    0.16 
   1   1  17    0.68    0.16 
  -2  -1 -17    2.62    0.32 
  -2  -1 -17    3.37    0.33 
   2   1  17    2.06    0.24 
  -3  -1 -17    5.59    0.40 
  -3  -1 -17    4.09    0.43 
  -4  -1 -17    1.10    0.29 
  -5  -1 -17    0.86    0.29 
  -6  -1 -17    0.24    0.26 
  -6   2  17    0.24    0.34 
  -5   2  17    0.90    0.36 
  -4   2  17    0.16    0.20 
   3  -2 -17    4.32    0.55 
  -3   2  17    3.86    0.47 
   2  -2 -17    1.47    0.34 
  -2   2  17    1.21    0.26 
   1  -2 -17   13.48    0.52 
   1  -2 -17   12.99    0.77 
  -1   2  17   13.34    0.69 
   0  -2 -17  108.13    3.63 
   0   2  17  111.68    3.50 
  -1  -2 -17   13.36    0.61 
  -1  -2 -17   12.92    0.70 
   1   2  17   13.78    0.60 
  -2  -2 -17    0.98    0.24 
  -2  -2 -17    1.50    0.25 
  -3  -2 -17    4.54    0.41 
  -3  -2 -17    4.23    0.44 
  -4  -2 -17   -0.10    0.15 
  -4  -2 -17   -0.08    0.18 
  -5  -2 -17    0.80    0.29 
  -6  -2 -17    0.60    0.33 
  -5   3  17    0.09    0.27 
  -4   3  17    3.63    0.52 
   3  -3 -17    6.73    0.68 
  -3   3  17    6.97    0.63 
   2  -3 -17    4.44    0.53 
  -2   3  17    4.80    0.46 
   1  -3 -17    1.84    0.34 
  -1   3  17    2.46    0.34 
   0  -3 -17   34.35    1.13 
   0  -3 -17   33.06    1.39 
  -1  -3 -17    2.35    0.34 
  -1  -3 -17    2.06    0.26 
   1   3  17    2.16    0.22 
  -2  -3 -17    4.63    0.44 
  -2  -3 -17    6.34    0.44 
  -3  -3 -17    6.88    0.51 
  -3  -3 -17    6.55    0.54 
  -4  -3 -17    3.79    0.44 
  -4  -3 -17    5.04    0.53 
  -5  -3 -17    0.23    0.23 
  -5   4  17    2.57    0.53 
  -4   4  17    2.06    0.44 
   3  -4 -17    8.41    0.76 
  -3   4  17    6.96    0.66 
   2  -4 -17    5.26    0.59 
  -2   4  17    6.49    0.56 
   1  -4 -17   44.28    1.78 
  -1   4  17   42.94    1.65 
   0  -4 -17    0.71    0.15 
   0  -4 -17    0.79    0.24 
   0   4  17    0.51    0.17 
  -1  -4 -17   45.75    1.78 
  -1  -4 -17   46.15    1.55 
  -2  -4 -17    5.60    0.51 
  -2  -4 -17    5.56    0.46 
  -3  -4 -17    8.57    0.60 
  -3  -4 -17    8.11    0.59 
  -4  -4 -17    2.81    0.44 
  -4  -4 -17    3.16    0.43 
  -5  -4 -17    3.72    0.55 
  -5   5  17    0.81    0.33 
   4  -5 -17    0.42    0.29 
   4  -5 -17    0.90    0.38 
   3  -5 -17    4.76    0.63 
   3  -5 -17    4.60    0.61 
   2  -5 -17    8.39    0.73 
   2  -5 -17    7.58    0.67 
   1  -5 -17   18.05    1.00 
  -1   5  17   17.39    0.89 
   0  -5 -17   31.91    1.44 
   0   5  17   34.77    1.30 
  -1  -5 -17   11.25    0.57 
  -2  -5 -17    7.94    0.61 
  -2  -5 -17    9.29    0.58 
  -3  -5 -17    4.14    0.48 
  -3  -5 -17    3.91    0.48 
  -4  -5 -17    0.76    0.29 
  -4  -5 -17    1.48    0.36 
  -5  -5 -17    0.42    0.31 
  -5  -5 -17    1.06    0.36 
   5  -6 -17    0.14    0.36 
   4  -6 -17    3.23    0.60 
   4  -6 -17    3.98    0.64 
   3  -6 -17    1.01    0.36 
   3  -6 -17    1.00    0.36 
   2  -6 -17    0.65    0.32 
   2  -6 -17    1.25    0.32 
   1  -6 -17   32.18    1.42 
   1  -6 -17   32.23    1.50 
   0  -6 -17    4.00    0.50 
  -1  -6 -17   31.65    1.43 
  -2  -6 -17    0.81    0.27 
  -2  -6 -17    0.94    0.26 
  -3  -6 -17    1.35    0.35 
  -3  -6 -17    0.69    0.29 
  -4  -6 -17    2.30    0.44 
  -4  -6 -17    3.00    0.47 
  -5  -6 -17    0.37    0.31 
  -5  -6 -17   -0.09    0.30 
   4  -7 -17    1.08    0.44 
   4  -7 -17    0.56    0.41 
   3  -7 -17    0.75    0.34 
   3  -7 -17    0.89    0.37 
   2  -7 -17    1.36    0.39 
   2  -7 -17    1.02    0.35 
   1  -7 -17    1.73    0.41 
   0  -7 -17    8.41    0.73 
  -1  -7 -17    1.59    0.36 
  -2  -7 -17    1.04    0.31 
  -3  -7 -17    1.01    0.32 
  -4  -7 -17    1.31    0.35 
   3  -8 -17    1.98    0.49 
   3  -8 -17    1.59    0.48 
   2  -8 -17    0.63    0.33 
   2  -8 -17    0.95    0.36 
   1  -8 -17    2.03    0.47 
   0  -8 -17    6.32    0.68 
  -1  -8 -17    0.89    0.34 
  -2  -8 -17    0.70    0.30 
  -3  -8 -17    1.50    0.41 
   3  -9 -17    1.19    0.48 
   3  -9 -17    1.32    0.48 
   2  -9 -17    0.60    0.35 
   1  -9 -17    0.09    0.29 
   0  -9 -17    0.23    0.28 
  -1  -9 -17   -0.12    0.26 
  -2  -9 -17    0.68    0.34 
  -3  -9 -17    1.71    0.45 
   1 -10 -17   -0.01    0.32 
   0 -10 -17    1.61    0.46 
  -1 -10 -17    0.29    0.34 
   0 -10  18    0.64    0.37 
  -2  -9  18    4.65    0.71 
  -1  -9  18    0.66    0.35 
   0  -9  18    0.35    0.29 
   1  -9  18    0.97    0.39 
   2  -9  18    4.52    0.70 
  -3  -8  18    0.89    0.38 
  -3  -8  18    0.86    0.40 
  -2  -8  18    0.86    0.37 
  -1  -8  18    4.07    0.60 
   0  -8  18    0.24    0.24 
   1  -8  18    3.96    0.63 
   2  -8  18    1.11    0.40 
   3  -8  18    1.42    0.46 
  -4  -7  18    0.60    0.37 
  -4  -7  18    0.79    0.41 
  -3  -7  18    0.50    0.31 
  -3  -7  18    0.59    0.31 
  -2  -7  18    1.78    0.39 
  -2  -7  18    2.50    0.49 
  -1  -7  18    1.19    0.37 
   0  -7  18    0.63    0.30 
   1  -7  18    1.21    0.36 
   2  -7  18    2.26    0.48 
  -3   7 -18    0.75    0.28 
   3  -7  18    0.92    0.38 
  -4   7 -18    0.55    0.28 
   4  -7  18    1.15    0.46 
  -4  -6  18    0.93    0.37 
  -3  -6  18    1.14    0.35 
  -2  -6  18    4.37    0.60 
  -1  -6  18    0.36    0.25 
   0  -6  18   -0.05    0.19 
   1  -6  18    0.03    0.21 
  -2   6 -18    4.13    0.49 
   2  -6  18    4.27    0.58 
  -3   6 -18    0.82    0.25 
   3  -6  18    1.15    0.38 
  -4   6 -18    1.17    0.31 
   4  -6  18    1.34    0.45 
  -5  -5  18    2.54    0.52 
  -4  -5  18    0.74    0.31 
  -3  -5  18    0.69    0.30 
  -2  -5  18    9.11    0.71 
  -1  -5  18   10.17    0.75 
   0  -5  18    1.73    0.36 
   1  -5  18    9.60    0.72 
  -2   5 -18    8.11    0.56 
   2  -5  18    8.36    0.72 
  -3   5 -18    0.51    0.20 
   3  -5  18    1.28    0.37 
  -4   5 -18    1.39    0.31 
   4  -5  18    1.10    0.40 
  -5   5 -18    2.61    0.44 
  -5  -4  18    0.24    0.29 
  -4  -4  18    0.54    0.29 
  -3  -4  18    2.79    0.45 
  -2  -4  18    3.74    0.48 
  -1  -4  18    4.05    0.48 
   0  -4  18    7.82    0.61 
  -1   4 -18    3.98    0.41 
   1  -4  18    4.14    0.47 
  -2   4 -18    4.55    0.44 
   2  -4  18    5.81    0.57 
  -3   4 -18    1.94    0.33 
   3  -4  18    2.76    0.44 
  -4   4 -18    0.00    0.17 
   4  -4  18    0.27    0.26 
  -5   4 -18   -0.06    0.19 
  -5  -3  18    0.51    0.28 
  -4  -3  18    4.23    0.56 
  -3  -3  18   13.32    0.84 
  -2  -3  18    1.42    0.31 
  -1  -3  18    2.75    0.40 
   0  -3  18    1.83    0.34 
  -1   3 -18    2.38    0.31 
   1  -3  18    2.33    0.37 
  -2   3 -18    1.02    0.22 
   2  -3  18    1.39    0.31 
  -3   3 -18   11.11    0.65 
   3  -3  18   12.41    0.78 
  -4   3 -18    4.63    0.50 
   4  -3  18    4.28    0.55 
  -5   3 -18    0.21    0.21 
  -5  -2  18    0.47    0.30 
  -4  -2  18    5.16    0.58 
  -3  -2  18    1.64    0.34 
  -2  -2  18   14.16    0.81 
  -1  -2  18   10.86    0.67 
   0   2 -18    3.35    0.33 
   0  -2  18    4.26    0.43 
  -1   2 -18    9.94    0.54 
  -1   2 -18   10.28    0.55 
   1  -2  18   10.21    0.63 
  -2   2 -18   13.48    0.66 
   2  -2  18   11.08    0.69 
  -3   2 -18    1.98    0.30 
   3  -2  18    1.96    0.34 
  -4   2 -18    6.15    0.56 
  -5   2 -18    0.24    0.19 
  -6  -1  18    1.85    0.46 
  -5  -1  18    0.32    0.29 
  -4  -1  18    1.39    0.35 
  -3  -1  18    5.91    0.56 
  -2  -1  18    3.14    0.40 
  -1  -1  18    1.21    0.26 
   0   1 -18   40.24    1.39 
   0   1 -18   39.75    1.55 
   0  -1  18   42.31    1.57 
  -1   1 -18    1.35    0.24 
  -1   1 -18    1.05    0.19 
   1  -1  18    0.91    0.22 
  -2   1 -18    3.98    0.33 
  -2   1 -18    2.97    0.34 
   2  -1  18    3.47    0.36 
  -3   1 -18    7.62    0.52 
  -4   1 -18    1.71    0.32 
  -5   1 -18    0.35    0.22 
  -6   1 -18    0.53    0.27 
  -6   0  18    0.06    0.27 
  -5   0  18    1.52    0.40 
  -4   0  18    0.19    0.23 
  -3   0  18    5.36    0.53 
  -2   0  18    2.15    0.34 
   1   0 -18   10.67    0.66 
  -1   0  18    9.11    0.58 
   0   0 -18    0.11    0.10 
   0   0 -18    0.44    0.17 
   0   0  18    0.27    0.13 
  -1   0 -18   12.16    0.65 
  -1   0 -18   12.61    0.59 
   1   0  18   11.32    0.61 
  -2   0 -18    2.23    0.29 
  -2   0 -18    2.89    0.31 
   2   0  18    1.64    0.25 
  -3   0 -18    4.87    0.46 
  -4   0 -18    0.19    0.19 
  -5   0 -18    1.25    0.35 
  -6   0 -18    0.50    0.29 
  -6   1  18    1.59    0.45 
  -5   1  18    0.10    0.27 
  -4   1  18    2.00    0.43 
  -3   1  18    6.58    0.60 
   2  -1 -18    3.60    0.47 
  -2   1  18    2.69    0.37 
   1  -1 -18    1.58    0.32 
  -1   1  18    0.96    0.22 
   0  -1 -18   40.10    1.59 
   0  -1 -18   41.46    1.34 
   0   1  18   39.58    1.49 
  -1  -1 -18    0.97    0.22 
  -1  -1 -18    1.03    0.19 
   1   1  18    0.41    0.14 
  -2  -1 -18    3.45    0.35 
  -2  -1 -18    2.89    0.33 
   2   1  18    2.82    0.28 
  -3  -1 -18    6.80    0.50 
  -3  -1 -18    6.39    0.46 
  -4  -1 -18    1.79    0.34 
  -5  -1 -18    0.01    0.20 
  -6  -1 -18    1.23    0.36 
  -5   2  18   -0.14    0.26 
  -4   2  18    7.00    0.69 
   3  -2 -18    2.54    0.46 
  -3   2  18    2.20    0.39 
   2  -2 -18   12.48    0.83 
  -2   2  18   14.02    0.78 
   1  -2 -18   10.39    0.69 
   1  -2 -18   10.88    0.46 
  -1   2  18   11.01    0.62 
   0  -2 -18    3.70    0.41 
   0  -2 -18    2.16    0.22 
   0   2  18    3.98    0.34 
  -1  -2 -18   10.90    0.53 
  -1  -2 -18    8.77    0.59 
   1   2  18   10.59    0.52 
  -2  -2 -18   13.36    0.73 
  -2  -2 -18   14.34    0.69 
  -3  -2 -18    2.85    0.39 
  -3  -2 -18    2.52    0.34 
  -4  -2 -18    5.84    0.57 
  -5  -2 -18    0.27    0.25 
  -5   3  18    0.02    0.26 
  -4   3  18    3.73    0.54 
   3  -3 -18   10.27    0.80 
  -3   3  18   12.51    0.78 
   2  -3 -18    1.17    0.32 
  -2   3  18    1.42    0.29 
   1  -3 -18    2.13    0.37 
  -1   3  18    2.83    0.35 
   0  -3 -18    1.75    0.21 
   0  -3 -18    1.47    0.30 
   0   3  18    1.17    0.21 
  -1  -3 -18    2.63    0.37 
  -1  -3 -18    2.80    0.29 
  -2  -3 -18    1.34    0.27 
  -2  -3 -18    1.32    0.27 
  -3  -3 -18   11.38    0.70 
  -3  -3 -18   11.73    0.69 
  -4  -3 -18    4.42    0.52 
  -4  -3 -18    5.33    0.51 
  -5  -3 -18    0.40    0.26 
  -5   4  18    0.22    0.27 
  -4   4  18    0.26    0.26 
   3  -4 -18    3.76    0.57 
  -3   4  18    2.81    0.46 
   2  -4 -18    4.29    0.54 
  -2   4  18    4.57    0.49 
   1  -4 -18    4.57    0.52 
  -1   4  18    4.08    0.42 
   0  -4 -18    6.56    0.58 
   0   4  18    6.84    0.45 
  -1  -4 -18    3.82    0.34 
  -1  -4 -18    4.00    0.46 
  -2  -4 -18    4.12    0.41 
  -2  -4 -18    4.72    0.48 
  -3  -4 -18    2.93    0.42 
  -3  -4 -18    3.07    0.41 
  -4  -4 -18    0.53    0.27 
  -4  -4 -18    0.41    0.25 
  -5  -4 -18   -0.03    0.23 
  -5   5  18    2.29    0.53 
   4  -5 -18    0.90    0.39 
  -4   5  18    1.00    0.35 
   3  -5 -18    0.69    0.34 
  -3   5  18    0.84    0.30 
   2  -5 -18    9.14    0.78 
  -2   5  18    7.29    0.64 
   1  -5 -18    9.49    0.72 
  -1   5  18   10.29    0.64 
   0  -5 -18    1.66    0.35 
  -1  -5 -18    9.15    0.66 
  -2  -5 -18   10.03    0.60 
  -2  -5 -18    8.08    0.63 
  -3  -5 -18    0.49    0.24 
  -3  -5 -18    0.75    0.28 
  -4  -5 -18    0.83    0.32 
  -4  -5 -18    1.02    0.33 
  -5  -5 -18    3.44    0.52 
  -5  -5 -18    2.59    0.48 
   4  -6 -18    0.92    0.38 
   4  -6 -18    0.83    0.42 
   3  -6 -18    1.70    0.47 
   3  -6 -18    1.04    0.38 
   2  -6 -18    5.21    0.64 
   2  -6 -18    5.64    0.63 
   1  -6 -18    0.09    0.21 
  -1   6  18    0.34    0.25 
   0  -6 -18    0.09    0.19 
  -1  -6 -18    0.26    0.23 
  -2  -6 -18    4.89    0.47 
  -2  -6 -18    4.34    0.53 
  -3  -6 -18    0.86    0.28 
  -3  -6 -18    1.12    0.31 
  -4  -6 -18    0.99    0.34 
  -4  -6 -18    0.97    0.33 
   4  -7 -18    1.08    0.44 
   4  -7 -18    0.64    0.43 
   3  -7 -18    1.19    0.42 
   3  -7 -18    0.61    0.38 
   2  -7 -18    2.32    0.47 
   2  -7 -18    2.15    0.47 
   1  -7 -18    0.94    0.34 
   0  -7 -18    0.09    0.25 
  -1  -7 -18    0.83    0.29 
  -2  -7 -18    2.29    0.43 
  -3  -7 -18    0.75    0.30 
  -3  -7 -18    1.34    0.36 
  -4  -7 -18    0.59    0.34 
  -4  -7 -18    1.11    0.37 
   3  -8 -18    1.19    0.44 
   3  -8 -18    0.81    0.41 
   2  -8 -18    0.95    0.37 
   2  -8 -18    0.34    0.33 
   1  -8 -18    4.86    0.65 
   0  -8 -18   -0.07    0.23 
  -1  -8 -18    4.13    0.59 
  -2  -8 -18    0.55    0.31 
  -3  -8 -18    1.11    0.38 
   2  -9 -18    4.90    0.73 
   1  -9 -18    0.93    0.39 
   0  -9 -18    1.05    0.41 
  -1  -9 -18    0.90    0.36 
  -2  -9 -18    4.70    0.65 
   1 -10 -18    0.79    0.43 
   0 -10 -18    0.73    0.39 
  -1 -10 -18    1.06    0.43 
  -2  -9  19    0.35    0.31 
  -1  -9  19    1.61    0.48 
   0  -9  19    0.55    0.34 
   1  -9  19    1.49    0.46 
   2  -9  19    0.72    0.38 
  -3  -8  19   -0.13    0.32 
  -3  -8  19    0.11    0.31 
  -2  -8  19    0.86    0.37 
  -1  -8  19    0.89    0.35 
   0  -8  19    0.66    0.32 
   1  -8  19    0.41    0.30 
   2  -8  19    2.32    0.54 
   3  -8  19    0.32    0.33 
  -4  -7  19    0.32    0.36 
  -4  -7  19    0.05    0.31 
  -3  -7  19    1.72    0.47 
  -3  -7  19    0.91    0.37 
  -2  -7  19    0.07    0.27 
  -2  -7  19    0.35    0.29 
  -1  -7  19    5.14    0.66 
   0  -7  19    5.35    0.68 
   1  -7  19    3.98    0.59 
   2  -7  19   -0.06    0.25 
  -3   7 -19    1.81    0.36 
   3  -7  19    1.99    0.48 
  -4   7 -19    0.44    0.27 
   4  -7  19    0.28    0.34 
  -4  -6  19    5.48    0.70 
  -3  -6  19    0.23    0.24 
  -2  -6  19    5.17    0.64 
  -1  -6  19    1.43    0.38 
   0  -6  19    4.17    0.57 
   1  -6  19    1.28    0.36 
  -2   6 -19    4.83    0.53 
   2  -6  19    5.70    0.65 
  -3   6 -19    0.72    0.26 
   3  -6  19    0.58    0.32 
  -4   6 -19    4.41    0.53 
   4  -6  19    3.66    0.61 
  -5  -5  19    2.04    0.51 
  -4  -5  19    2.71    0.50 
  -3  -5  19    1.24    0.36 
  -2  -5  19    1.24    0.35 
  -1  -5  19    9.72    0.74 
   0  -5  19    0.30    0.24 
   1  -5  19   12.88    0.86 
  -2   5 -19    1.01    0.26 
   2  -5  19    1.50    0.38 
  -3   5 -19    1.50    0.31 
   3  -5  19    1.56    0.40 
  -4   5 -19    3.26    0.46 
   4  -5  19    2.54    0.52 
  -5   5 -19    1.40    0.35 
  -5  -4  19    0.64    0.34 
  -4  -4  19    1.73    0.40 
  -3  -4  19    1.77    0.38 
  -2  -4  19    8.01    0.68 
  -1  -4  19   21.83    1.12 
   0  -4  19   89.49    3.19 
  -1   4 -19   19.26    0.92 
   1  -4  19   20.35    1.05 
  -2   4 -19    7.70    0.53 
   2  -4  19    7.86    0.67 
  -3   4 -19    1.80    0.33 
   3  -4  19    1.80    0.40 
  -4   4 -19    2.53    0.38 
   4  -4  19    1.76    0.43 
  -5   4 -19    0.70    0.26 
  -5  -3  19    1.25    0.39 
  -4  -3  19    0.18    0.23 
  -3  -3  19    4.17    0.53 
  -2  -3  19    0.09    0.20 
  -1  -3  19   16.50    0.92 
   0  -3  19   57.24    2.18 
  -1   3 -19   19.90    0.86 
   1  -3  19   16.72    0.94 
  -2   3 -19    0.17    0.14 
   2  -3  19    0.38    0.21 
  -3   3 -19    3.30    0.41 
   3  -3  19    3.85    0.48 
  -4   3 -19    0.25    0.17 
  -5   3 -19    0.71    0.28 
  -5  -2  19    0.11    0.25 
  -4  -2  19    0.86    0.30 
  -3  -2  19    2.25    0.39 
  -2  -2  19    1.60    0.32 
  -1  -2  19    0.50    0.20 
   0   2 -19    0.22    0.14 
   0  -2  19    0.41    0.20 
  -1   2 -19    0.72    0.18 
  -1   2 -19    0.81    0.20 
   1  -2  19    0.64    0.23 
  -2   2 -19    1.56    0.27 
   2  -2  19    1.82    0.33 
  -3   2 -19    1.92    0.31 
   3  -2  19    2.61    0.39 
  -4   2 -19    1.20    0.30 
  -5   2 -19    0.09    0.21 
  -5  -1  19    2.84    0.53 
  -4  -1  19    0.52    0.27 
  -3  -1  19    1.20    0.30 
  -2  -1  19    1.41    0.30 
  -1  -1  19    1.10    0.26 
   0   1 -19    7.98    0.54 
   0   1 -19    8.71    0.47 
   0  -1  19    6.81    0.50 
  -1   1 -19    1.26    0.23 
  -1   1 -19    1.32    0.26 
   1  -1  19    1.27    0.26 
  -2   1 -19    1.73    0.28 
   2  -1  19    1.26    0.26 
  -3   1 -19    1.71    0.30 
  -4   1 -19    0.97    0.26 
  -5   1 -19    1.94    0.39 
  -5   0  19    0.23    0.28 
  -4   0  19    0.06    0.20 
  -3   0  19   -0.14    0.17 
  -2   0  19    0.02    0.15 
   1   0 -19    6.34    0.55 
  -1   0  19    6.10    0.47 
   0   0 -19    0.00    0.10 
   0   0 -19   -0.01    0.14 
   0   0  19    0.08    0.12 
  -1   0 -19    6.42    0.40 
  -1   0 -19    6.68    0.47 
   1   0  19    6.19    0.45 
  -2   0 -19    0.01    0.13 
  -2   0 -19    0.16    0.14 
   2   0  19   -0.05    0.13 
  -3   0 -19    0.24    0.15 
  -4   0 -19    0.08    0.19 
  -5   0 -19    0.57    0.26 
  -5   1  19    1.44    0.43 
  -4   1  19    0.60    0.27 
  -3   1  19    1.30    0.30 
   2  -1 -19    1.94    0.38 
  -2   1  19    1.39    0.28 
   1  -1 -19    0.83    0.25 
  -1   1  19    1.38    0.26 
   0  -1 -19    8.71    0.60 
   0  -1 -19    8.95    0.46 
   0   1  19    8.90    0.53 
  -1  -1 -19    1.64    0.29 
  -1  -1 -19    1.12    0.20 
  -2  -1 -19    1.93    0.29 
  -2  -1 -19    1.70    0.28 
  -3  -1 -19    1.76    0.29 
  -3  -1 -19    1.82    0.33 
  -4  -1 -19    0.25    0.19 
  -5  -1 -19    1.05    0.29 
  -5   2  19    0.30    0.34 
  -4   2  19    1.22    0.35 
   3  -2 -19    2.17    0.44 
  -3   2  19    3.50    0.48 
   2  -2 -19    1.03    0.31 
  -2   2  19    1.18    0.27 
   1  -2 -19    0.52    0.23 
  -1   2  19    0.42    0.19 
   0  -2 -19    0.20    0.10 
   0  -2 -19    0.57    0.21 
   0   2  19    0.58    0.18 
  -1  -2 -19    0.54    0.20 
  -1  -2 -19    0.33    0.13 
   1   2  19    0.49    0.16 
  -2  -2 -19    1.31    0.25 
  -2  -2 -19    1.23    0.27 
  -3  -2 -19    2.93    0.38 
  -3  -2 -19    2.26    0.34 
  -4  -2 -19    1.24    0.32 
  -5  -2 -19    0.97    0.31 
  -5   3  19    1.68    0.40 
  -4   3  19    0.26    0.23 
   3  -3 -19    3.29    0.54 
  -3   3  19    4.03    0.51 
   2  -3 -19    0.26    0.22 
  -2   3  19    0.28    0.20 
   1  -3 -19   16.71    0.96 
  -1   3  19   18.73    0.88 
   0  -3 -19   59.31    1.83 
   0  -3 -19   56.99    2.19 
  -1  -3 -19   16.24    0.89 
  -1  -3 -19   18.20    0.76 
  -2  -3 -19    0.18    0.18 
  -2  -3 -19    0.22    0.17 
  -3  -3 -19    3.68    0.44 
  -3  -3 -19    3.71    0.44 
  -4  -3 -19    0.27    0.24 
  -4  -3 -19    0.63    0.28 
  -5  -3 -19    0.89    0.31 
  -5   4  19    0.18    0.27 
  -4   4  19    2.72    0.50 
   3  -4 -19    2.29    0.46 
  -3   4  19    1.91    0.39 
   2  -4 -19    6.61    0.67 
  -2   4  19    7.05    0.60 
   1  -4 -19   22.36    1.16 
  -1   4  19   22.32    1.04 
   0  -4 -19   89.79    3.13 
   0   4  19   87.52    2.91 
  -1  -4 -19   21.42    1.07 
  -1  -4 -19   21.69    0.88 
  -2  -4 -19    7.60    0.52 
  -2  -4 -19    7.43    0.57 
  -3  -4 -19    1.64    0.34 
  -3  -4 -19    1.63    0.33 
  -4  -4 -19    1.81    0.38 
  -4  -4 -19    2.53    0.41 
  -5  -4 -19    0.37    0.30 
  -5   5  19    1.07    0.40 
   4  -5 -19    4.12    0.67 
  -4   5  19    2.33    0.48 
   3  -5 -19    1.95    0.47 
  -3   5  19    0.79    0.31 
   2  -5 -19    1.97    0.42 
  -2   5  19    1.29    0.33 
   1  -5 -19   10.11    0.78 
  -1   5  19   13.02    0.72 
   0  -5 -19    0.29    0.23 
  -1  -5 -19   12.21    0.79 
  -2  -5 -19    1.12    0.27 
  -2  -5 -19    1.53    0.33 
  -3  -5 -19    1.48    0.33 
  -3  -5 -19    1.38    0.35 
  -4  -5 -19    3.66    0.51 
  -4  -5 -19    3.24    0.49 
  -5  -5 -19    0.88    0.37 
   4  -6 -19    3.67    0.66 
   3  -6 -19    0.34    0.34 
  -3   6  19    0.53    0.29 
   2  -6 -19    4.35    0.61 
  -2   6  19    4.24    0.53 
   1  -6 -19    1.53    0.40 
  -1   6  19    0.75    0.29 
   0  -6 -19    4.60    0.56 
  -1  -6 -19    1.04    0.30 
  -2  -6 -19    5.30    0.58 
  -2  -6 -19    4.89    0.49 
  -3  -6 -19    0.38    0.27 
  -3  -6 -19    0.56    0.28 
  -4  -6 -19    4.34    0.58 
  -4  -6 -19    4.60    0.59 
   4  -7 -19    0.11    0.36 
   4  -7 -19    0.46    0.37 
   3  -7 -19    1.65    0.46 
   3  -7 -19    2.20    0.51 
   2  -7 -19    0.44    0.30 
   2  -7 -19    0.38    0.30 
   1  -7 -19    5.31    0.66 
   0  -7 -19    5.17    0.63 
  -1  -7 -19    5.53    0.64 
  -2  -7 -19    0.55    0.29 
  -3  -7 -19    1.51    0.39 
  -3  -7 -19    1.95    0.45 
  -4  -7 -19    0.63    0.34 
  -4  -7 -19    0.58    0.33 
   3  -8 -19   -0.33    0.30 
   3  -8 -19    0.01    0.30 
   2  -8 -19    1.49    0.47 
   1  -8 -19    1.03    0.38 
   0  -8 -19    1.04    0.36 
  -1  -8 -19    1.27    0.39 
  -2  -8 -19    1.61    0.41 
  -3  -8 -19    0.90    0.36 
   2  -9 -19   -0.16    0.32 
   1  -9 -19    1.62    0.46 
   0  -9 -19    0.99    0.40 
  -1  -9 -19    1.03    0.40 
  -2  -9 -19    0.10    0.31 
  -1  -9  20    1.19    0.44 
   0  -9  20    4.53    0.72 
   1  -9  20    0.77    0.43 
  -3  -8  20    2.97    0.60 
  -2  -8  20   -0.04    0.29 
  -1  -8  20    5.58    0.72 
   0  -8  20    0.04    0.25 
   1  -8  20    4.32    0.67 
   2  -8  20    0.27    0.34 
   3  -8  20    2.87    0.60 
  -3  -7  20    0.61    0.35 
  -3  -7  20    0.54    0.35 
  -2  -7  20    4.69    0.67 
  -1  -7  20    2.04    0.47 
   0  -7  20    7.79    0.79 
   1  -7  20    2.64    0.51 
   2  -7  20    5.11    0.69 
  -3   7 -20    0.57    0.28 
   3  -7  20    0.59    0.36 
  -4  -6  20    5.64    0.73 
  -3  -6  20    0.70    0.32 
  -2  -6  20    1.58    0.41 
  -1  -6  20    1.29    0.38 
   0  -6  20    2.20    0.45 
   1  -6  20    1.63    0.41 
  -2   6 -20    1.65    0.35 
   2  -6  20    1.70    0.41 
  -3   6 -20    0.49    0.23 
   3  -6  20    0.45    0.32 
  -4   6 -20    4.42    0.56 
   4  -6  20    5.70    0.75 
  -4  -5  20    0.54    0.34 
  -3  -5  20    1.33    0.37 
  -2  -5  20    5.09    0.61 
  -1  -5  20    2.40    0.45 
   0  -5  20    5.40    0.61 
   1  -5  20    1.84    0.40 
  -2   5 -20    5.24    0.52 
   2  -5  20    5.27    0.63 
  -3   5 -20    1.41    0.31 
   3  -5  20    1.28    0.37 
  -4   5 -20    0.40    0.23 
   4  -5  20    0.40    0.37 
  -5  -4  20    0.02    0.31 
  -4  -4  20   -0.02    0.20 
  -3  -4  20    1.35    0.35 
  -2  -4  20    3.04    0.49 
  -1  -4  20    0.43    0.25 
   0  -4  20    1.57    0.35 
  -1   4 -20    0.87    0.23 
   1  -4  20    0.99    0.31 
  -2   4 -20    2.51    0.36 
   2  -4  20    2.52    0.42 
  -3   4 -20    0.88    0.25 
   3  -4  20    1.16    0.34 
  -4   4 -20    0.02    0.19 
   4  -4  20    0.22    0.30 
  -5   4 -20    0.49    0.28 
  -5  -3  20   -0.32    0.27 
  -4  -3  20    0.22    0.26 
  -3  -3  20    0.99    0.31 
  -2  -3  20    9.67    0.70 
  -1  -3  20   11.80    0.76 
   0  -3  20   13.32    0.82 
  -1   3 -20   11.66    0.65 
   1  -3  20   13.57    0.81 
  -2   3 -20    9.44    0.59 
   2  -3  20    9.67    0.68 
  -3   3 -20    0.67    0.22 
   3  -3  20    1.06    0.32 
  -4   3 -20    0.40    0.21 
  -5   3 -20   -0.05    0.21 
  -5  -2  20    3.29    0.54 
  -4  -2  20    1.08    0.34 
  -3  -2  20    8.62    0.68 
  -2  -2  20    2.52    0.41 
  -1  -2  20    4.88    0.49 
   0   2 -20    0.14    0.12 
   0  -2  20    0.07    0.16 
  -1   2 -20    3.44    0.36 
  -1   2 -20    3.75    0.38 
   1  -2  20    4.04    0.45 
  -2   2 -20    2.48    0.33 
   2  -2  20    2.27    0.36 
  -3   2 -20    8.08    0.56 
   3  -2  20    6.93    0.60 
  -4   2 -20    1.57    0.32 
  -5   2 -20    3.81    0.53 
  -5  -1  20    1.15    0.37 
  -4  -1  20    2.26    0.44 
  -3  -1  20    4.61    0.52 
  -2  -1  20   24.24    1.15 
  -1  -1  20   14.52    0.80 
   0   1 -20    6.24    0.41 
   0   1 -20    6.45    0.49 
   0  -1  20    5.91    0.50 
  -1   1 -20   14.99    0.76 
  -1   1 -20   15.32    0.70 
   1  -1  20   13.02    0.75 
  -2   1 -20   23.68    1.01 
   2  -1  20   24.43    1.09 
  -3   1 -20    5.77    0.53 
  -4   1 -20    1.85    0.34 
  -5   1 -20    1.56    0.38 
  -5   0  20    0.10    0.29 
  -4   0  20    0.17    0.23 
  -3   0  20    2.21    0.39 
  -2   0  20    2.54    0.38 
   1   0 -20   67.90    2.50 
  -1   0  20   67.69    2.41 
   0   0 -20   37.75    1.62 
   0   0 -20   45.21    1.44 
   0   0  20   41.35    1.58 
  -1   0 -20   69.07    2.19 
  -1   0 -20   66.68    2.40 
   1   0  20   69.27    2.38 
  -2   0 -20    2.64    0.34 
  -2   0 -20    2.81    0.33 
   2   0  20    2.67    0.32 
  -3   0 -20    3.01    0.38 
  -4   0 -20    0.05    0.18 
  -5   0 -20    0.07    0.17 
  -5   1  20    0.97    0.39 
  -4   1  20    2.00    0.40 
  -3   1  20    5.17    0.56 
   2  -1 -20   25.24    1.27 
  -2   1  20   24.56    1.15 
   1  -1 -20   14.93    0.87 
  -1   1  20   14.38    0.76 
   0  -1 -20    6.17    0.54 
   0  -1 -20    6.21    0.38 
   0   1  20    5.97    0.43 
  -1  -1 -20   15.93    0.69 
  -1  -1 -20   12.14    0.73 
  -2  -1 -20   24.85    1.01 
  -2  -1 -20   22.35    1.04 
  -3  -1 -20    5.70    0.51 
  -4  -1 -20    1.48    0.35 
  -5  -1 -20    0.80    0.27 
  -5   2  20    4.39    0.67 
  -4   2  20    1.64    0.42 
   3  -2 -20    8.28    0.78 
  -3   2  20    8.30    0.70 
   2  -2 -20    2.76    0.45 
  -2   2  20    2.39    0.38 
   1  -2 -20    3.45    0.47 
  -1   2  20    3.63    0.40 
   0  -2 -20    0.09    0.09 
   0  -2 -20    0.07    0.17 
   0   2  20    0.15    0.14 
  -1  -2 -20    4.21    0.45 
  -1  -2 -20    3.36    0.34 
   1   2  20    4.04    0.34 
  -2  -2 -20    3.03    0.36 
  -2  -2 -20    2.51    0.37 
  -3  -2 -20    8.59    0.58 
  -3  -2 -20    7.87    0.57 
  -4  -2 -20    1.38    0.32 
  -5  -2 -20    3.52    0.50 
  -5   3  20    0.30    0.30 
  -4   3  20    0.84    0.32 
   3  -3 -20    0.40    0.28 
  -3   3  20    0.20    0.25 
   2  -3 -20    9.78    0.77 
  -2   3  20   11.83    0.74 
   1  -3 -20   11.53    0.79 
  -1   3  20   12.26    0.70 
   0  -3 -20   10.78    0.70 
   0   3  20    8.01    0.51 
  -1  -3 -20   12.65    0.61 
  -1  -3 -20   12.45    0.76 
  -2  -3 -20    9.51    0.57 
  -2  -3 -20    9.47    0.65 
  -3  -3 -20    0.72    0.25 
  -3  -3 -20    0.55    0.23 
  -4  -3 -20    0.40    0.24 
  -5  -3 -20    0.34    0.28 
  -5   4  20   -0.33    0.29 
  -4   4  20   -0.03    0.24 
   3  -4 -20    0.81    0.34 
  -3   4  20    0.24    0.25 
   2  -4 -20    2.43    0.45 
  -2   4  20    2.88    0.43 
   1  -4 -20    0.69    0.28 
  -1   4  20    0.73    0.25 
   0  -4 -20    1.35    0.34 
   0   4  20    1.53    0.27 
  -1  -4 -20    0.36    0.16 
  -1  -4 -20    0.63    0.26 
  -2  -4 -20    3.11    0.38 
  -2  -4 -20    2.93    0.43 
  -3  -4 -20    1.15    0.30 
  -3  -4 -20    0.68    0.26 
  -4  -4 -20   -0.05    0.18 
  -4  -4 -20    0.20    0.27 
  -5  -4 -20    0.93    0.32 
   4  -5 -20    0.26    0.34 
  -4   5  20    0.14    0.27 
   3  -5 -20    1.52    0.45 
  -3   5  20    2.07    0.42 
   2  -5 -20    5.06    0.64 
  -2   5  20    3.75    0.48 
   1  -5 -20    2.19    0.44 
  -1   5  20    3.01    0.40 
   0  -5 -20    6.03    0.62 
  -1  -5 -20    2.26    0.40 
  -2  -5 -20    5.70    0.58 
  -2  -5 -20    4.20    0.44 
  -3  -5 -20    1.02    0.32 
  -3  -5 -20    1.80    0.36 
  -4  -5 -20    0.39    0.28 
  -4  -5 -20   -0.13    0.24 
   4  -6 -20    6.15    0.81 
  -4   6  20    5.34    0.70 
   3  -6 -20    0.44    0.33 
  -3   6  20    0.60    0.31 
   2  -6 -20    2.25    0.49 
  -2   6  20    1.30    0.36 
   1  -6 -20    0.50    0.30 
   0  -6 -20    2.11    0.43 
  -1  -6 -20    0.91    0.31 
  -2  -6 -20    1.63    0.38 
  -3  -6 -20    1.35    0.35 
  -3  -6 -20    0.66    0.28 
  -4  -6 -20    6.56    0.70 
  -4  -6 -20    5.85    0.66 
   3  -7 -20    1.15    0.41 
  -3   7  20    0.75    0.33 
   2  -7 -20    5.39    0.72 
  -2   7  20    3.68    0.55 
   1  -7 -20    2.10    0.45 
   0  -7 -20    7.66    0.76 
  -1  -7 -20    3.08    0.50 
  -2  -7 -20    5.14    0.63 
  -3  -7 -20    0.51    0.33 
  -3  -7 -20    0.83    0.35 
   3  -8 -20    3.06    0.63 
   3  -8 -20    3.44    0.66 
   2  -8 -20    0.18    0.34 
   1  -8 -20    6.31    0.76 
   0  -8 -20    0.03    0.25 
  -1  -8 -20    5.08    0.68 
  -2  -8 -20    0.09    0.27 
  -3  -8 -20    3.33    0.59 
   2  -9 -20    2.81    0.62 
   1  -9 -20    0.76    0.38 
   0  -9 -20    4.34    0.66 
  -1  -9 -20    1.02    0.41 
  -2  -9 -20    2.57    0.50 
  -1  -9  21    2.15    0.54 
   0  -9  21    5.64    0.79 
   1  -9  21    2.79    0.64 
  -2  -8  21    0.04    0.28 
  -1  -8  21    1.89    0.47 
   0  -8  21    4.00    0.68 
   1  -8  21    1.51    0.45 
   2  -8  21    0.42    0.37 
  -3  -7  21    0.78    0.44 
  -2  -7  21    2.47    0.54 
  -1  -7  21    1.22    0.40 
   0  -7  21    3.79    0.60 
   1  -7  21    1.78    0.47 
   2  -7  21    1.96    0.48 
  -3   7 -21    0.42    0.28 
   3  -7  21    0.59    0.37 
  -4  -6  21    1.14    0.40 
  -3  -6  21    5.01    0.67 
  -2  -6  21    5.27    0.69 
  -1  -6  21    1.52    0.39 
   0  -6  21    0.46    0.27 
   1  -6  21    1.30    0.37 
  -2   6 -21    4.92    0.55 
   2  -6  21    4.09    0.62 
  -3   6 -21    4.72    0.54 
   3  -6  21    4.37    0.65 
  -4   6 -21    1.05    0.33 
   4  -6  21    1.11    0.47 
  -4  -5  21    1.72    0.45 
  -3  -5  21    3.01    0.53 
  -2  -5  21    2.55    0.46 
  -1  -5  21    4.58    0.59 
   0  -5  21    5.07    0.61 
   1  -5  21    4.19    0.57 
  -2   5 -21    2.83    0.40 
   2  -5  21    2.97    0.51 
  -3   5 -21    2.70    0.40 
   3  -5  21    2.62    0.50 
  -4   5 -21    1.07    0.32 
   4  -5  21    1.89    0.50 
  -5  -4  21    1.51    0.42 
  -4  -4  21    1.82    0.44 
  -3  -4  21    0.18    0.22 
  -2  -4  21    9.44    0.73 
  -1  -4  21    1.74    0.38 
   0  -4  21   10.68    0.77 
  -1   4 -21    1.12    0.27 
   1  -4  21    0.90    0.29 
  -2   4 -21    8.58    0.58 
   2  -4  21    9.01    0.70 
  -3   4 -21    0.09    0.17 
   3  -4  21    0.12    0.26 
  -4   4 -21    0.88    0.28 
  -5   4 -21    1.80    0.38 
  -5  -3  21    2.34    0.50 
  -4  -3  21    0.02    0.23 
  -3  -3  21    3.05    0.49 
  -2  -3  21    0.40    0.24 
  -1  -3  21    7.64    0.66 
   0  -3  21    7.83    0.66 
  -1   3 -21    6.50    0.47 
   1  -3  21    7.32    0.63 
  -2   3 -21    0.87    0.23 
   2  -3  21    0.46    0.23 
  -3   3 -21    1.64    0.30 
   3  -3  21    2.29    0.42 
  -4   3 -21   -0.06    0.17 
  -5   3 -21    1.92    0.40 
  -5  -2  21    1.18    0.39 
  -4  -2  21    2.06    0.43 
  -3  -2  21    0.32    0.23 
  -2  -2  21    2.02    0.37 
  -1  -2  21   29.84    1.33 
   0   2 -21    6.49    0.46 
   0  -2  21    6.47    0.56 
  -1   2 -21   26.98    1.09 
   1  -2  21   26.80    1.23 
  -2   2 -21    2.18    0.32 
   2  -2  21    3.11    0.41 
  -3   2 -21    0.19    0.18 
   3  -2  21    0.74    0.29 
  -4   2 -21    1.85    0.35 
  -5   2 -21    1.57    0.39 
  -5  -1  21    0.55    0.32 
  -4  -1  21    1.87    0.43 
  -3  -1  21    2.34    0.41 
  -2  -1  21    1.82    0.36 
  -1  -1  21    5.88    0.52 
   0   1 -21    1.13    0.28 
   0   1 -21    1.16    0.22 
   0  -1  21    1.60    0.31 
  -1   1 -21    6.57    0.50 
  -1   1 -21    6.66    0.45 
   1  -1  21    6.28    0.53 
  -2   1 -21    1.60    0.28 
   2  -1  21    2.42    0.35 
  -3   1 -21    2.10    0.34 
  -4   1 -21    2.48    0.40 
  -5   1 -21    0.72    0.26 
  -5   0  21    0.07    0.27 
  -4   0  21    1.08    0.33 
  -3   0  21    0.11    0.20 
  -2   0  21    1.85    0.34 
   1   0 -21    6.04    0.58 
  -1   0  21    7.18    0.53 
   0   0 -21    0.40    0.19 
   0   0 -21    0.28    0.13 
   0   0  21    0.45    0.18 
  -1   0 -21    6.94    0.53 
  -1   0 -21    6.41    0.43 
   1   0  21    6.50    0.48 
  -2   0 -21    2.44    0.33 
  -2   0 -21    2.43    0.33 
   2   0  21    1.73    0.30 
  -3   0 -21   -0.15    0.14 
  -4   0 -21    1.15    0.28 
  -5   0 -21    0.29    0.21 
  -5   1  21    0.62    0.35 
  -4   1  21    2.69    0.47 
  -3   1  21    2.12    0.41 
   2  -1 -21    2.75    0.47 
  -2   1  21    2.34    0.39 
   1  -1 -21    6.21    0.60 
  -1   1  21    6.78    0.50 
   0  -1 -21    1.78    0.24 
   0  -1 -21    1.22    0.30 
   0   1  21    1.06    0.25 
  -1  -1 -21    5.76    0.41 
  -1  -1 -21    6.73    0.55 
  -2  -1 -21    2.49    0.36 
  -2  -1 -21    2.06    0.31 
  -3  -1 -21    1.92    0.35 
  -4  -1 -21    2.32    0.40 
  -5  -1 -21    0.29    0.27 
  -5   2  21    1.87    0.45 
  -4   2  21    1.43    0.38 
   3  -2 -21    0.58    0.32 
  -3   2  21    0.34    0.23 
   2  -2 -21    2.22    0.42 
  -2   2  21    2.47    0.38 
   1  -2 -21   28.67    1.36 
  -1   2  21   27.96    1.21 
   0  -2 -21    5.67    0.56 
   0   2  21    5.96    0.44 
  -1  -2 -21   30.72    1.17 
  -1  -2 -21   31.59    1.37 
  -2  -2 -21    3.09    0.37 
  -2  -2 -21    2.62    0.39 
  -3  -2 -21    0.20    0.20 
  -3  -2 -21    0.82    0.26 
  -4  -2 -21    1.09    0.29 
  -5  -2 -21    1.16    0.31 
  -5   3  21    2.56    0.56 
  -4   3  21    0.24    0.26 
   3  -3 -21    1.62    0.45 
  -3   3  21    2.95    0.50 
   2  -3 -21    0.47    0.27 
  -2   3  21    0.70    0.25 
   1  -3 -21    6.63    0.66 
  -1   3  21    7.17    0.53 
   0  -3 -21    7.69    0.65 
   0   3  21    6.97    0.48 
  -1  -3 -21    8.01    0.47 
  -1  -3 -21    6.97    0.61 
  -2  -3 -21    0.54    0.21 
  -2  -3 -21    0.67    0.25 
  -3  -3 -21    2.00    0.35 
  -3  -3 -21    1.82    0.38 
  -4  -3 -21    0.20    0.21 
  -5  -3 -21    2.37    0.43 
  -5   4  21    0.80    0.37 
  -4   4  21    1.68    0.43 
   3  -4 -21    0.32    0.28 
  -3   4  21   -0.19    0.22 
   2  -4 -21    8.43    0.81 
  -2   4  21    9.24    0.67 
   1  -4 -21    1.58    0.38 
  -1   4  21    1.47    0.30 
   0  -4 -21   10.25    0.74 
  -1  -4 -21    1.30    0.32 
  -1  -4 -21    1.25    0.24 
  -2  -4 -21    9.64    0.59 
  -2  -4 -21    8.65    0.66 
  -3  -4 -21    0.41    0.24 
  -3  -4 -21    0.27    0.25 
  -4  -4 -21    1.75    0.39 
  -4  -4 -21    0.98    0.32 
  -5  -4 -21    0.20    0.32 
   4  -5 -21    1.39    0.48 
  -4   5  21    0.89    0.36 
   3  -5 -21    3.01    0.59 
  -3   5  21    2.50    0.46 
   2  -5 -21    2.50    0.49 
  -2   5  21    2.87    0.44 
   1  -5 -21    4.79    0.60 
  -1   5  21    5.33    0.53 
   0  -5 -21    4.23    0.56 
  -1  -5 -21    5.66    0.61 
  -2  -5 -21    2.33    0.37 
  -2  -5 -21    2.76    0.46 
  -3  -5 -21    2.98    0.44 
  -3  -5 -21    3.48    0.50 
  -4  -5 -21    1.82    0.41 
  -4  -5 -21    1.61    0.38 
   4  -6 -21    2.17    0.56 
  -4   6  21    1.42    0.45 
   3  -6 -21    5.14    0.74 
  -3   6  21    3.99    0.59 
   2  -6 -21    5.74    0.71 
  -2   6  21    4.74    0.57 
   1  -6 -21    0.42    0.31 
   0  -6 -21    0.30    0.25 
  -1  -6 -21    0.99    0.35 
  -2  -6 -21    3.94    0.55 
  -3  -6 -21    5.42    0.63 
  -3  -6 -21    4.04    0.51 
  -4  -6 -21    0.73    0.35 
  -4  -6 -21    1.18    0.37 
   3  -7 -21    0.57    0.37 
  -3   7  21    0.54    0.34 
   2  -7 -21    2.76    0.58 
   1  -7 -21    2.09    0.47 
   0  -7 -21    3.99    0.59 
  -1  -7 -21    1.55    0.39 
  -2  -7 -21    1.62    0.40 
  -3  -7 -21    0.86    0.36 
   2  -8 -21    0.31    0.33 
   1  -8 -21    1.08    0.40 
   0  -8 -21    3.90    0.61 
  -1  -8 -21    1.15    0.41 
  -2  -8 -21   -0.17    0.26 
   1  -9 -21    4.36    0.70 
   0  -9 -21    5.41    0.74 
  -1  -9 -21    3.07    0.57 
  -2  -8  22    2.00    0.53 
  -1  -8  22    1.15    0.42 
   0  -8  22    2.22    0.53 
   1  -8  22    1.30    0.43 
   2  -8  22    1.53    0.52 
  -3  -7  22    0.84    0.41 
  -2  -7  22    0.81    0.35 
  -1  -7  22    3.23    0.59 
   0  -7  22    0.86    0.37 
   1  -7  22    3.97    0.63 
   2  -7  22    0.34    0.34 
  -3   7 -22    0.18    0.28 
   3  -7  22    0.09    0.34 
  -3  -6  22    2.81    0.57 
  -2  -6  22    1.18    0.40 
  -1  -6  22    6.05    0.72 
   0  -6  22   -0.07    0.21 
   1  -6  22    5.25    0.68 
   2  -6  22    1.32    0.42 
  -3   6 -22    2.99    0.47 
   3  -6  22    2.84    0.57 
  -4  -5  22    0.93    0.40 
  -3  -5  22    1.05    0.39 
  -2  -5  22    0.01    0.22 
  -1  -5  22    0.90    0.35 
   0  -5  22    4.00    0.56 
   1  -5  22    0.67    0.29 
  -2   5 -22    0.18    0.16 
   2  -5  22    0.23    0.29 
  -3   5 -22    0.61    0.23 
   3  -5  22    1.05    0.38 
  -4   5 -22    0.58    0.28 
   4  -5  22    1.24    0.45 
  -4  -4  22    0.91    0.34 
  -3  -4  22    0.44    0.28 
  -2  -4  22    1.84    0.41 
  -1  -4  22    0.24    0.25 
   0  -4  22    0.05    0.21 
  -1   4 -22    0.42    0.20 
   1  -4  22    0.32    0.25 
  -2   4 -22    1.53    0.30 
   2  -4  22    1.93    0.42 
  -3   4 -22    0.67    0.23 
   3  -4  22    0.38    0.29 
  -4   4 -22    0.93    0.32 
  -5  -3  22    0.34    0.33 
  -4  -3  22    0.08    0.27 
  -3  -3  22    1.50    0.38 
  -2  -3  22    9.45    0.72 
  -1  -3  22    7.48    0.66 
   0  -3  22    0.17    0.22 
  -1   3 -22    8.81    0.56 
   1  -3  22    8.05    0.69 
  -2   3 -22    9.57    0.61 
   2  -3  22    9.11    0.69 
  -3   3 -22    0.99    0.26 
   3  -3  22    1.30    0.38 
  -4   3 -22    0.40    0.21 
  -5   3 -22    0.59    0.26 
  -5  -2  22    0.42    0.33 
  -4  -2  22    1.46    0.39 
  -3  -2  22    2.13    0.41 
  -2  -2  22    0.37    0.24 
  -1  -2  22   10.85    0.73 
   0   2 -22   24.69    1.03 
   0  -2  22   23.66    1.16 
  -1   2 -22   10.18    0.60 
   1  -2  22   11.43    0.73 
  -2   2 -22    0.58    0.20 
   2  -2  22    0.46    0.24 
  -3   2 -22    2.32    0.37 
  -4   2 -22    1.44    0.32 
  -5   2 -22    1.03    0.31 
  -5  -1  22    1.10    0.39 
  -4  -1  22    1.43    0.37 
  -3  -1  22    3.87    0.51 
  -2  -1  22   12.01    0.78 
  -1  -1  22    4.70    0.49 
   0   1 -22    1.17    0.22 
   0   1 -22    1.06    0.28 
   0  -1  22    1.09    0.27 
  -1   1 -22    4.69    0.41 
  -1   1 -22    4.64    0.46 
   1  -1  22    4.39    0.47 
  -2   1 -22   11.09    0.63 
   2  -1  22   11.26    0.70 
  -3   1 -22    3.83    0.45 
  -4   1 -22    1.72    0.35 
  -5   1 -22    0.68    0.28 
  -5   0  22   -0.01    0.30 
  -4   0  22    2.36    0.47 
  -3   0  22    7.33    0.67 
  -2   0  22    7.81    0.60 
   1   0 -22    0.29    0.20 
  -1   0  22    0.22    0.19 
   0   0 -22    7.45    0.45 
   0   0 -22    7.60    0.58 
   0   0  22    7.79    0.55 
  -1   0 -22    0.41    0.21 
  -1   0 -22    0.58    0.17 
   1   0  22    0.35    0.21 
  -2   0 -22    8.53    0.55 
  -3   0 -22    7.82    0.57 
  -4   0 -22    2.85    0.41 
  -5   0 -22    0.22    0.20 
  -5   1  22    1.91    0.47 
  -4   1  22    1.48    0.37 
  -3   1  22    3.75    0.53 
   2  -1 -22   12.74    0.88 
  -2   1  22   11.87    0.76 
   1  -1 -22    4.44    0.54 
  -1   1  22    4.79    0.47 
   0  -1 -22    0.92    0.20 
   0  -1 -22    1.12    0.28 
   0   1  22    1.19    0.26 
  -1  -1 -22    4.31    0.47 
  -1  -1 -22    4.15    0.37 
  -2  -1 -22   10.54    0.69 
  -2  -1 -22   12.49    0.68 
  -3  -1 -22    4.29    0.47 
  -4  -1 -22    1.87    0.37 
  -5  -1 -22    1.16    0.33 
  -5   2  22    1.10    0.42 
  -4   2  22    1.53    0.37 
   3  -2 -22    2.15    0.47 
  -3   2  22    2.12    0.40 
   2  -2 -22    0.60    0.27 
  -2   2  22    0.10    0.19 
   1  -2 -22   10.69    0.76 
  -1   2  22   10.48    0.64 
   0  -2 -22   24.36    1.21 
   0   2  22   25.05    1.07 
  -1  -2 -22   11.10    0.58 
  -1  -2 -22   10.48    0.71 
  -2  -2 -22    0.64    0.21 
  -2  -2 -22    0.54    0.24 
  -3  -2 -22    1.87    0.33 
  -3  -2 -22    2.63    0.40 
  -4  -2 -22    1.96    0.38 
  -5  -2 -22    0.45    0.26 
  -5   3  22    1.15    0.45 
  -4   3  22   -0.02    0.25 
   3  -3 -22    0.80    0.33 
  -3   3  22    1.01    0.35 
   2  -3 -22   11.01    0.83 
  -2   3  22    9.08    0.67 
   1  -3 -22    9.03    0.76 
  -1   3  22    7.63    0.56 
   0  -3 -22    0.10    0.20 
   0   3  22   -0.12    0.12 
  -1  -3 -22    8.40    0.52 
  -1  -3 -22    7.49    0.66 
  -2  -3 -22    9.95    0.61 
  -2  -3 -22    9.45    0.68 
  -3  -3 -22    1.08    0.29 
  -3  -3 -22    1.12    0.29 
  -4  -3 -22   -0.04    0.18 
  -5  -3 -22    0.63    0.30 
  -4   4  22    1.61    0.44 
   3  -4 -22    0.45    0.33 
  -3   4  22    1.07    0.35 
   2  -4 -22    2.02    0.46 
  -2   4  22    2.51    0.44 
   1  -4 -22    0.03    0.23 
  -1   4  22    0.13    0.20 
   0  -4 -22    0.28    0.23 
  -1  -4 -22   -0.07    0.19 
  -2  -4 -22    2.00    0.40 
  -2  -4 -22    1.63    0.30 
  -3  -4 -22    0.65    0.26 
  -3  -4 -22    0.13    0.24 
  -4  -4 -22    1.44    0.37 
   4  -5 -22    1.07    0.44 
  -4   5  22    0.69    0.38 
   3  -5 -22    0.68    0.36 
  -3   5  22    1.20    0.36 
   2  -5 -22    0.40    0.29 
  -2   5  22    0.22    0.26 
   1  -5 -22    0.29    0.26 
  -1   5  22    0.03    0.24 
   0  -5 -22    5.04    0.63 
  -1  -5 -22    1.04    0.34 
  -2  -5 -22    0.41    0.28 
  -2  -5 -22    0.31    0.22 
  -3  -5 -22    0.96    0.33 
  -3  -5 -22    1.67    0.41 
  -4  -5 -22    1.16    0.37 
  -4  -5 -22    0.93    0.35 
   4  -6 -22    1.29    0.51 
   3  -6 -22    3.56    0.65 
  -3   6  22    1.91    0.47 
   2  -6 -22    1.85    0.47 
  -2   6  22    1.80    0.41 
   1  -6 -22    6.44    0.73 
   0  -6 -22   -0.13    0.23 
  -1  -6 -22    6.11    0.69 
  -2  -6 -22    1.13    0.36 
  -3  -6 -22    3.33    0.55 
  -3  -6 -22    2.84    0.47 
  -4  -6 -22    1.15    0.43 
   3  -7 -22    0.50    0.39 
  -3   7  22    0.15    0.32 
   2  -7 -22    0.69    0.39 
   1  -7 -22    3.82    0.61 
   0  -7 -22    0.35    0.31 
  -1  -7 -22    4.78    0.65 
  -2  -7 -22    0.58    0.35 
  -3  -7 -22    0.46    0.35 
   2  -8 -22    0.84    0.46 
   1  -8 -22    1.92    0.49 
   0  -8 -22    2.87    0.56 
  -1  -8 -22    2.09    0.50 
  -2  -8 -22    2.17    0.53 
   0  -9 -22    2.64    0.60 
  -1  -8  23    0.59    0.34 
   0  -8  23    0.40    0.36 
   1  -8  23    0.66    0.42 
  -2  -7  23    2.92    0.61 
  -1  -7  23    1.40    0.46 
   0  -7  23   14.21    1.05 
   1  -7  23    1.92    0.52 
   2  -7  23    2.41    0.54 
  -3  -6  23    6.20    0.79 
  -2  -6  23    0.54    0.36 
  -1  -6  23   10.36    0.92 
   0  -6  23    6.99    0.76 
   1  -6  23    9.88    0.90 
   2  -6  23    0.50    0.35 
  -3   6 -23    4.72    0.59 
   3  -6  23    5.82    0.76 
  -4  -5  23    3.30    0.64 
  -3  -5  23    4.18    0.64 
  -2  -5  23    3.83    0.60 
  -1  -5  23    0.88    0.33 
   0  -5  23    3.30    0.53 
   1  -5  23    0.68    0.33 
  -2   5 -23    4.39    0.51 
   2  -5  23    3.62    0.57 
  -3   5 -23    3.65    0.50 
   3  -5  23    2.97    0.58 
  -4   5 -23    2.99    0.50 
  -4  -4  23    0.80    0.37 
  -3  -4  23    1.39    0.41 
  -2  -4  23    1.73    0.39 
  -1  -4  23   10.80    0.81 
   0  -4  23    7.66    0.72 
  -1   4 -23   10.80    0.69 
   1  -4  23   10.33    0.78 
  -2   4 -23    1.81    0.33 
   2  -4  23    1.97    0.41 
  -3   4 -23    1.84    0.35 
   3  -4  23    1.42    0.42 
  -4   4 -23    0.97    0.32 
  -4  -3  23    2.25    0.48 
  -3  -3  23    0.55    0.29 
  -2  -3  23    3.28    0.51 
  -1  -3  23    4.07    0.52 
   0  -3  23    7.64    0.69 
  -1   3 -23    3.73    0.42 
   1  -3  23    3.92    0.52 
  -2   3 -23    2.01    0.33 
   2  -3  23    2.33    0.42 
  -3   3 -23    0.91    0.24 
   3  -3  23    1.42    0.40 
  -4   3 -23    2.01    0.38 
  -5  -2  23    2.01    0.48 
  -4  -2  23    0.87    0.37 
  -3  -2  23    2.62    0.47 
  -2  -2  23    3.86    0.50 
  -1  -2  23    6.97    0.63 
   0   2 -23   10.61    0.62 
   0  -2  23   10.95    0.73 
  -1   2 -23    6.29    0.51 
   1  -2  23    7.66    0.64 
  -2   2 -23    4.11    0.44 
   2  -2  23    3.42    0.46 
  -3   2 -23    2.12    0.35 
  -4   2 -23    1.08    0.27 
  -5   2 -23    1.98    0.40 
  -5  -1  23    0.64    0.36 
  -4  -1  23    1.87    0.42 
  -3  -1  23    1.89    0.40 
  -2  -1  23   11.88    0.78 
  -1  -1  23   -0.14    0.16 
   0   1 -23   19.37    1.03 
   0   1 -23   20.02    0.89 
   0  -1  23   20.74    1.02 
  -1   1 -23   -0.03    0.14 
  -1   1 -23    0.22    0.20 
   1  -1  23   -0.08    0.18 
  -2   1 -23   11.65    0.67 
   2  -1  23   11.33    0.73 
  -3   1 -23    1.60    0.31 
  -4   1 -23    2.81    0.44 
  -5   1 -23    0.57    0.26 
  -5   0  23    0.36    0.33 
  -4   0  23    1.42    0.38 
  -3   0  23    0.49    0.25 
  -2   0  23    9.55    0.69 
   1   0 -23    6.91    0.66 
  -1   0  23    7.92    0.58 
   0   0 -23    0.54    0.18 
   0   0 -23    0.24    0.20 
   0   0  23    0.25    0.18 
  -1   0 -23    7.47    0.58 
  -1   0 -23    7.67    0.49 
   1   0  23    7.65    0.58 
  -2   0 -23    9.96    0.60 
  -3   0 -23    0.50    0.23 
  -4   0 -23    1.33    0.29 
  -5   0 -23    0.99    0.29 
  -5   1  23    0.56    0.35 
  -4   1  23    1.95    0.43 
  -3   1  23    1.41    0.35 
   2  -1 -23   11.31    0.84 
  -2   1  23   11.18    0.72 
   1  -1 -23    0.08    0.19 
  -1   1  23    0.15    0.19 
   0  -1 -23   20.23    0.82 
   0  -1 -23   18.98    1.03 
   0   1  23   18.69    0.93 
  -1  -1 -23    0.10    0.20 
  -1  -1 -23   -0.01    0.12 
   1   1  23    0.12    0.15 
  -2  -1 -23   11.02    0.64 
  -2  -1 -23   10.50    0.70 
  -3  -1 -23    1.90    0.34 
  -4  -1 -23    2.11    0.37 
  -5  -1 -23    0.62    0.27 
  -5   2  23    2.32    0.52 
  -4   2  23    1.30    0.38 
  -3   2  23    2.61    0.46 
   2  -2 -23    3.54    0.55 
  -2   2  23    4.10    0.49 
   1  -2 -23    6.52    0.66 
  -1   2  23    4.74    0.48 
   0  -2 -23   11.30    0.78 
   0   2  23   11.04    0.65 
  -1  -2 -23    6.85    0.46 
  -1  -2 -23    6.65    0.61 
  -2  -2 -23    3.77    0.41 
  -2  -2 -23    3.88    0.48 
  -3  -2 -23    2.99    0.42 
  -4  -2 -23    0.49    0.24 
  -5  -2 -23    0.82    0.34 
  -4   3  23    2.87    0.51 
   3  -3 -23    0.66    0.36 
  -3   3  23    1.35    0.37 
   2  -3 -23    2.90    0.51 
  -2   3  23    2.72    0.44 
   1  -3 -23    3.71    0.54 
  -1   3  23    3.72    0.43 
   0  -3 -23    6.74    0.66 
  -1  -3 -23    4.08    0.39 
  -1  -3 -23    4.21    0.53 
  -2  -3 -23    2.26    0.33 
  -2  -3 -23    2.38    0.41 
  -3  -3 -23    0.46    0.25 
  -3  -3 -23    1.53    0.35 
  -4  -3 -23    1.77    0.37 
  -4   4  23    1.00    0.39 
   3  -4 -23    1.37    0.46 
  -3   4  23    1.66    0.41 
   2  -4 -23    1.72    0.43 
  -2   4  23    2.54    0.43 
   1  -4 -23   10.44    0.81 
  -1   4  23    9.63    0.66 
   0  -4 -23    8.40    0.75 
  -1  -4 -23   11.89    0.82 
  -2  -4 -23    1.54    0.38 
  -2  -4 -23    1.70    0.33 
  -3  -4 -23    1.51    0.34 
  -3  -4 -23    1.86    0.42 
  -4  -4 -23    0.52    0.28 
   4  -5 -23    2.16    0.54 
  -4   5  23    2.16    0.49 
   3  -5 -23    2.91    0.59 
  -3   5  23    4.06    0.58 
   2  -5 -23    3.23    0.60 
  -2   5  23    4.41    0.57 
   1  -5 -23    0.48    0.30 
   0  -5 -23    2.33    0.46 
  -1  -5 -23    0.43    0.27 
  -2  -5 -23    4.35    0.58 
  -3  -5 -23    3.81    0.50 
  -3  -5 -23    3.77    0.57 
  -4  -5 -23    2.34    0.49 
  -4  -5 -23    1.72    0.41 
   3  -6 -23    8.51    0.92 
  -3   6  23    7.89    0.79 
   2  -6 -23    0.29    0.32 
  -2   6  23    0.35    0.33 
   1  -6 -23   10.08    0.90 
   0  -6 -23    6.54    0.75 
  -1  -6 -23   11.36    0.85 
  -2  -6 -23    0.11    0.28 
  -3  -6 -23    7.28    0.76 
   3  -7 -23    3.19    0.64 
   2  -7 -23    1.68    0.48 
   1  -7 -23    1.46    0.46 
   0  -7 -23   13.81    1.03 
  -1  -7 -23    2.69    0.53 
  -2  -7 -23    1.72    0.46 
  -3  -7 -23    2.79    0.56 
   1  -8 -23    0.39    0.37 
   0  -8 -23    0.54    0.38 
  -1  -8 -23    0.56    0.39 
  -1  -8  24    1.71    0.48 
   0  -8  24    0.83    0.44 
   1  -8  24    1.23    0.45 
  -2  -7  24    1.78    0.49 
  -1  -7  24    1.44    0.44 
   0  -7  24    0.17    0.30 
   1  -7  24    1.71    0.47 
   2  -7  24    1.04    0.44 
  -3  -6  24    3.37    0.62 
  -2  -6  24    3.17    0.63 
  -1  -6  24    0.84    0.35 
   0  -6  24    2.05    0.49 
   1  -6  24    1.27    0.41 
   2  -6  24    1.71    0.48 
  -3   6 -24    1.86    0.40 
   3  -6  24    2.92    0.59 
  -3  -5  24    0.04    0.29 
  -2  -5  24    0.55    0.33 
  -1  -5  24    0.55    0.31 
   0  -5  24    0.43    0.29 
   1  -5  24    0.27    0.30 
  -2   5 -24    0.38    0.20 
   2  -5  24    0.55    0.33 
  -3   5 -24    0.08    0.23 
   3  -5  24    0.03    0.32 
  -4  -4  24    0.01    0.27 
  -3  -4  24    0.55    0.35 
  -2  -4  24   -0.20    0.20 
  -1  -4  24    0.45    0.28 
   0  -4  24    0.38    0.28 
  -1   4 -24    0.52    0.20 
   1  -4  24    0.88    0.36 
  -2   4 -24    0.04    0.17 
   2  -4  24    0.54    0.32 
  -3   4 -24    0.43    0.21 
   3  -4  24    1.08    0.39 
  -4   4 -24    0.30    0.25 
  -4  -3  24    0.24    0.29 
  -3  -3  24    2.23    0.46 
  -2  -3  24    1.90    0.41 
  -1  -3  24    5.38    0.61 
   0  -3  24    0.44    0.27 
  -1   3 -24    5.67    0.53 
   1  -3  24    6.05    0.63 
  -2   3 -24    1.70    0.30 
   2  -3  24    1.97    0.42 
  -3   3 -24    1.37    0.30 
  -4   3 -24    0.85    0.27 
  -4  -2  24    1.87    0.46 
  -3  -2  24    1.41    0.37 
  -2  -2  24    6.30    0.63 
  -1  -2  24    5.08    0.57 
   0  -2  24    2.59    0.43 
  -1   2 -24    5.65    0.49 
   1  -2  24    5.62    0.57 
  -2   2 -24    6.19    0.53 
   2  -2  24    5.68    0.58 
  -3   2 -24    2.10    0.35 
  -4   2 -24    2.36    0.39 
  -4  -1  24    0.83    0.33 
  -3  -1  24    6.86    0.68 
  -2  -1  24    3.28    0.48 
  -1  -1  24   11.24    0.74 
   0   1 -24   13.63    0.83 
   0   1 -24   13.22    0.69 
   0  -1  24   12.73    0.78 
  -1   1 -24   11.03    0.63 
   1  -1  24   11.77    0.75 
  -2   1 -24    3.27    0.40 
  -3   1 -24    7.32    0.61 
  -4   1 -24    1.01    0.29 
  -4   0  24    0.79    0.33 
  -3   0  24   -0.17    0.20 
  -2   0  24    6.78    0.63 
   1   0 -24    1.47    0.37 
  -1   0  24    1.42    0.31 
   0   0 -24   49.89    1.71 
   0   0 -24   51.03    2.01 
   0   0  24   47.70    1.91 
  -1   0 -24    2.11    0.38 
  -1   0 -24    0.98    0.24 
   1   0  24    1.33    0.29 
  -2   0 -24    7.21    0.51 
  -3   0 -24    0.37    0.21 
  -4   0 -24    1.81    0.38 
  -4   1  24    1.12    0.37 
  -3   1  24    6.95    0.68 
   2  -1 -24    3.12    0.53 
  -2   1  24    2.57    0.42 
   1  -1 -24   10.29    0.79 
  -1   1  24   12.16    0.73 
   0  -1 -24   14.28    0.88 
   0  -1 -24   12.32    0.63 
   0   1  24   13.42    0.76 
  -1  -1 -24   12.00    0.65 
  -1  -1 -24   13.61    0.82 
  -2  -1 -24    3.32    0.46 
  -2  -1 -24    3.37    0.41 
  -3  -1 -24    8.42    0.61 
  -4  -1 -24    0.38    0.21 
  -4   2  24    2.72    0.51 
  -3   2  24    1.67    0.39 
   2  -2 -24    6.13    0.71 
  -2   2  24    5.92    0.59 
   1  -2 -24    5.95    0.65 
  -1   2  24    4.59    0.49 
   0  -2 -24    1.66    0.38 
   0   2  24    1.73    0.30 
  -1  -2 -24    5.71    0.45 
  -1  -2 -24    6.02    0.60 
  -2  -2 -24    6.33    0.53 
  -2  -2 -24    5.87    0.59 
  -3  -2 -24    2.01    0.36 
  -4  -2 -24    2.34    0.40 
  -4   3  24    1.14    0.38 
   3  -3 -24    2.24    0.52 
  -3   3  24    1.53    0.38 
   2  -3 -24    2.55    0.50 
  -2   3  24    2.21    0.42 
   1  -3 -24    6.17    0.68 
  -1   3  24    5.03    0.50 
   0  -3 -24    0.18    0.25 
  -1  -3 -24    5.62    0.61 
  -2  -3 -24    2.02    0.32 
  -2  -3 -24    2.54    0.44 
  -3  -3 -24    2.11    0.42 
  -3  -3 -24    2.01    0.36 
  -4  -3 -24    0.47    0.28 
  -4   4  24    0.02    0.30 
   3  -4 -24    0.63    0.37 
  -3   4  24    0.34    0.29 
   2  -4 -24    0.24    0.29 
  -2   4  24    0.43    0.29 
   1  -4 -24    1.06    0.36 
  -1   4  24    0.68    0.29 
   0  -4 -24    0.37    0.26 
  -1  -4 -24    0.36    0.27 
  -2  -4 -24    0.17    0.22 
  -2  -4 -24    0.47    0.28 
  -3  -4 -24    0.53    0.25 
  -3  -4 -24    0.62    0.32 
  -4  -4 -24   -0.27    0.20 
   3  -5 -24    0.60    0.38 
  -3   5  24    0.40    0.32 
   2  -5 -24    0.80    0.40 
  -2   5  24    0.69    0.34 
   1  -5 -24    0.76    0.35 
   0  -5 -24    0.63    0.31 
  -1  -5 -24    0.37    0.27 
  -2  -5 -24    0.98    0.34 
  -3  -5 -24    0.12    0.24 
  -3  -5 -24    0.27    0.31 
   3  -6 -24    3.18    0.65 
  -3   6  24    3.65    0.59 
   2  -6 -24    1.70    0.46 
   1  -6 -24    0.52    0.36 
   0  -6 -24    1.87    0.46 
  -1  -6 -24    0.82    0.34 
  -2  -6 -24    2.86    0.54 
  -3  -6 -24    3.17    0.58 
   2  -7 -24    1.71    0.52 
   1  -7 -24    2.40    0.55 
   0  -7 -24   -0.15    0.30 
  -1  -7 -24    1.63    0.46 
  -2  -7 -24    1.42    0.46 
   1  -8 -24    1.10    0.48 
   0  -8 -24    1.05    0.44 
  -1  -8 -24    1.36    0.45 
  -2  -7  25    1.29    0.44 
  -1  -7  25    0.70    0.40 
   0  -7  25    2.49    0.54 
   1  -7  25    0.42    0.36 
   2  -7  25    0.05    0.33 
  -2  -6  25    5.00    0.73 
  -1  -6  25    3.44    0.61 
   0  -6  25    0.31    0.33 
   1  -6  25    4.43    0.68 
   2  -6  25    4.15    0.67 
  -3  -5  25    2.24    0.51 
  -2  -5  25    1.84    0.44 
  -1  -5  25    3.79    0.59 
   0  -5  25    3.49    0.58 
   1  -5  25    3.97    0.61 
  -2   5 -25    3.15    0.46 
   2  -5  25    2.29    0.48 
  -3   5 -25    2.44    0.43 
   3  -5  25    2.58    0.56 
  -3  -4  25    2.63    0.55 
  -2  -4  25    0.21    0.27 
  -1  -4  25    4.81    0.64 
   0  -4  25    0.87    0.33 
  -1   4 -25    4.13    0.49 
   1  -4  25    5.34    0.63 
  -2   4 -25    0.59    0.22 
   2  -4  25    0.56    0.32 
  -3   4 -25    3.11    0.45 
   3  -4  25    2.94    0.57 
  -4   4 -25    0.03    0.22 
  -4  -3  25    1.45    0.43 
  -3  -3  25    0.14    0.25 
  -2  -3  25    4.53    0.60 
  -1  -3  25    0.03    0.24 
   0  -3  25    1.02    0.34 
  -1   3 -25    0.16    0.18 
   1  -3  25    0.18    0.26 
  -2   3 -25    4.19    0.47 
   2  -3  25    4.40    0.57 
  -3   3 -25    0.58    0.22 
  -4   3 -25    1.48    0.34 
  -4  -2  25    1.18    0.41 
  -3  -2  25    4.40    0.60 
  -2  -2  25    4.86    0.59 
  -1  -2  25    0.78    0.30 
   0  -2  25   -0.09    0.20 
  -1   2 -25    0.90    0.24 
   1  -2  25    1.13    0.32 
  -2   2 -25    4.64    0.49 
   2  -2  25    4.79    0.55 
  -3   2 -25    4.41    0.50 
  -4   2 -25    1.28    0.32 
  -4  -1  25    0.82    0.34 
  -3  -1  25    3.33    0.52 
  -2  -1  25    0.27    0.24 
  -1  -1  25    0.07    0.22 
   0   1 -25    1.49    0.37 
   0   1 -25    1.63    0.29 
   0  -1  25    2.05    0.38 
  -1   1 -25    0.31    0.19 
   1  -1  25    0.00    0.21 
  -2   1 -25    0.17    0.17 
  -3   1 -25    3.10    0.43 
  -4   1 -25    0.09    0.20 
  -4   0  25    0.33    0.27 
  -3   0  25   -0.12    0.25 
  -2   0  25    0.17    0.22 
   1   0 -25    6.22    0.66 
  -1   0  25    5.18    0.54 
   0   0 -25    0.34    0.26 
   0   0 -25    0.47    0.19 
   0   0  25    0.39    0.24 
  -1   0 -25    6.58    0.61 
  -1   0 -25    6.13    0.49 
   1   0  25    6.76    0.57 
  -2   0 -25    0.27    0.20 
  -3   0 -25    0.53    0.23 
  -4   0 -25    0.70    0.29 
  -4   1  25    0.61    0.32 
  -3   1  25    3.47    0.51 
   2  -1 -25    0.07    0.26 
  -2   1  25    0.04    0.23 
   1  -1 -25    0.05    0.22 
  -1   1  25    0.30    0.24 
   0  -1 -25    2.03    0.41 
   0   1  25    2.00    0.35 
  -1  -1 -25    0.28    0.18 
  -1  -1 -25    0.12    0.24 
  -2  -1 -25    0.09    0.19 
  -3  -1 -25    4.11    0.50 
  -4  -1 -25    0.80    0.27 
  -4   2  25    1.22    0.41 
  -3   2  25    4.41    0.60 
   2  -2 -25    4.91    0.67 
  -2   2  25    4.39    0.52 
   1  -2 -25    1.28    0.36 
  -1   2  25    0.69    0.27 
   0  -2 -25    0.17    0.23 
   0   2  25    0.10    0.21 
  -1  -2 -25    1.70    0.28 
  -1  -2 -25    0.99    0.33 
  -2  -2 -25    4.41    0.47 
  -2  -2 -25    5.59    0.59 
  -3  -2 -25    5.36    0.54 
  -4  -2 -25    0.88    0.30 
  -4   3  25    1.55    0.42 
   3  -3 -25   -0.09    0.24 
  -3   3  25    0.26    0.26 
   2  -3 -25    4.40    0.63 
  -2   3  25    4.45    0.55 
   1  -3 -25    0.09    0.24 
  -1   3  25   -0.04    0.20 
   0  -3 -25    0.88    0.33 
  -1  -3 -25    0.42    0.27 
  -2  -3 -25    4.79    0.59 
  -2  -3 -25    4.20    0.46 
  -3  -3 -25    0.22    0.22 
  -4  -3 -25    1.06    0.32 
   3  -4 -25    2.57    0.58 
  -3   4  25    2.97    0.50 
   2  -4 -25    0.81    0.37 
  -2   4  25    0.36    0.28 
   1  -4 -25    4.59    0.65 
   0  -4 -25    1.18    0.37 
  -1  -4 -25    4.94    0.64 
  -2  -4 -25    0.26    0.27 
  -3  -4 -25    2.80    0.50 
  -3  -4 -25    2.75    0.45 
  -4  -4 -25   -0.26    0.20 
   3  -5 -25    2.47    0.57 
  -3   5  25    2.29    0.49 
   2  -5 -25    2.49    0.55 
  -2   5  25    2.99    0.50 
   1  -5 -25    4.18    0.65 
   0  -5 -25    2.93    0.56 
  -1  -5 -25    3.93    0.60 
  -2  -5 -25    2.46    0.50 
  -3  -5 -25    3.09    0.56 
   3  -6 -25    1.16    0.49 
   2  -6 -25    5.08    0.76 
   1  -6 -25    3.13    0.61 
   0  -6 -25    0.22    0.27 
  -1  -6 -25    3.74    0.62 
  -2  -6 -25    4.65    0.66 
   2  -7 -25    2.12    0.56 
   1  -7 -25    1.07    0.46 
   0  -7 -25    2.55    0.55 
  -1  -7 -25    0.40    0.34 
  -2  -7 -25    1.47    0.47 
  -1  -7  26    1.75    0.54 
   0  -7  26    3.79    0.70 
   1  -7  26    1.19    0.44 
  -2  -6  26    0.32    0.34 
  -1  -6  26    3.10    0.58 
   0  -6  26    1.26    0.43 
   1  -6  26    2.71    0.57 
   2  -6  26    0.41    0.37 
  -3  -5  26    0.80    0.37 
  -2  -5  26    1.41    0.42 
  -1  -5  26    0.43    0.32 
   0  -5  26    1.24    0.39 
   1  -5  26    0.39    0.32 
  -2   5 -26    1.86    0.36 
   2  -5  26    1.96    0.49 
  -3   5 -26    1.08    0.31 
   3  -5  26    1.03    0.44 
  -3  -4  26    1.34    0.41 
  -2  -4  26    0.15    0.28 
  -1  -4  26    0.25    0.28 
   0  -4  26    4.34    0.63 
   1  -4  26    0.41    0.31 
  -2   4 -26    0.11    0.18 
   2  -4  26   -0.03    0.27 
  -3   4 -26    1.27    0.31 
  -3  -3  26   -0.08    0.24 
  -2  -3  26    0.18    0.26 
  -1  -3  26    3.14    0.52 
   0  -3  26    2.74    0.49 
  -1   3 -26    2.74    0.40 
   1  -3  26    2.93    0.50 
  -2   3 -26    0.08    0.17 
   2  -3  26    0.18    0.26 
  -3   3 -26    0.45    0.22 
  -4  -2  26    0.51    0.33 
  -3  -2  26    0.89    0.34 
  -2  -2  26    4.16    0.57 
  -1  -2  26    0.44    0.29 
   0  -2  26   -0.03    0.22 
  -1   2 -26    0.85    0.25 
   1  -2  26    0.65    0.30 
  -2   2 -26    4.40    0.50 
  -3   2 -26    0.96    0.26 
  -4   2 -26    0.98    0.30 
  -4  -1  26    0.70    0.34 
  -3  -1  26    4.11    0.58 
  -2  -1  26   10.56    0.78 
  -1  -1  26    3.30    0.48 
   0   1 -26    1.19    0.34 
   0   1 -26    1.40    0.28 
   0  -1  26    1.20    0.32 
  -1   1 -26    3.84    0.42 
   1  -1  26    4.28    0.52 
  -2   1 -26    9.88    0.64 
  -3   1 -26    4.56    0.49 
  -4   1 -26    1.35    0.32 
  -4   0  26    0.45    0.30 
  -3   0  26    1.77    0.41 
  -2   0  26    7.09    0.68 
   1   0 -26   21.10    1.20 
  -1   0  26   21.86    1.11 
   0   0 -26    4.22    0.55 
   0   0 -26    4.01    0.40 
   0   0  26    3.13    0.43 
  -1   0 -26   24.44    1.06 
  -1   0 -26   23.85    1.22 
  -2   0 -26    7.22    0.58 
  -3   0 -26    1.69    0.34 
  -4   0 -26    0.43    0.24 
  -4   1  26    0.84    0.38 
  -3   1  26    4.04    0.55 
   2  -1 -26    9.53    0.88 
  -2   1  26   10.21    0.75 
   1  -1 -26    4.34    0.60 
  -1   1  26    3.77    0.48 
   0  -1 -26    1.31    0.36 
   0   1  26    0.66    0.26 
  -1  -1 -26    3.92    0.40 
  -1  -1 -26    4.65    0.58 
  -2  -1 -26   12.19    0.71 
  -3  -1 -26    3.52    0.48 
  -4  -1 -26    1.41    0.37 
  -4   2  26    0.47    0.34 
  -3   2  26    1.10    0.37 
   2  -2 -26    4.70    0.68 
  -2   2  26    3.20    0.48 
   1  -2 -26    1.22    0.36 
  -1   2  26    0.80    0.28 
   0  -2 -26   -0.04    0.21 
  -1  -2 -26    1.16    0.26 
  -1  -2 -26    0.65    0.31 
  -2  -2 -26    4.90    0.49 
  -2  -2 -26    4.92    0.59 
  -3  -2 -26    1.18    0.32 
  -4  -2 -26    0.69    0.27 
   3  -3 -26    0.21    0.35 
  -3   3  26   -0.56    0.23 
   2  -3 -26   -0.06    0.27 
  -2   3  26    0.16    0.25 
   1  -3 -26    2.64    0.52 
  -1   3  26    2.92    0.44 
   0  -3 -26    3.55    0.56 
  -1  -3 -26    1.83    0.44 
  -2  -3 -26   -0.07    0.25 
  -2  -3 -26    0.24    0.22 
  -3  -3 -26    0.22    0.21 
  -4  -3 -26    1.33    0.32 
   3  -4 -26    0.74    0.41 
  -3   4  26    1.20    0.41 
   2  -4 -26    0.17    0.32 
  -2   4  26   -0.23    0.25 
   1  -4 -26    0.22    0.29 
   0  -4 -26    4.40    0.65 
  -1  -4 -26    0.78    0.35 
  -2  -4 -26    0.09    0.28 
  -3  -4 -26    0.82    0.29 
  -3  -4 -26    0.89    0.43 
   3  -5 -26    1.60    0.53 
  -3   5  26    0.99    0.40 
   2  -5 -26    1.59    0.48 
   1  -5 -26    0.13    0.31 
   0  -5 -26    0.74    0.36 
  -1  -5 -26    0.71    0.35 
  -2  -5 -26    0.94    0.39 
  -3  -5 -26    0.61    0.39 
   2  -6 -26    0.21    0.35 
   1  -6 -26    2.85    0.60 
   0  -6 -26    0.52    0.37 
  -1  -6 -26    4.92    0.71 
  -2  -6 -26    0.48    0.35 
   1  -7 -26    1.57    0.53 
   0  -7 -26    6.39    0.82 
  -1  -7 -26    2.48    0.56 
  -1  -6  27    0.78    0.41 
   0  -6  27    4.36    0.69 
   1  -6  27    0.08    0.34 
  -2  -5  27    0.44    0.35 
  -1  -5  27    1.20    0.39 
   0  -5  27   -0.15    0.28 
   1  -5  27    1.20    0.43 
  -2   5 -27    1.35    0.30 
   2  -5  27    1.13    0.44 
  -3  -4  27    0.58    0.37 
  -2  -4  27    9.18    0.88 
  -1  -4  27    1.66    0.45 
   0  -4  27    1.62    0.45 
   1  -4  27    1.79    0.45 
  -2   4 -27    9.12    0.74 
   2  -4  27   10.86    0.91 
  -3   4 -27    0.93    0.31 
  -3  -3  27    3.17    0.57 
  -2  -3  27    3.42    0.60 
  -1  -3  27    2.94    0.53 
   0  -3  27    0.31    0.31 
  -1   3 -27    3.05    0.43 
   1  -3  27    2.58    0.51 
  -2   3 -27    3.35    0.46 
   2  -3  27    3.36    0.55 
  -3   3 -27    2.78    0.43 
  -3  -2  27    1.03    0.34 
  -2  -2  27    2.18    0.44 
  -1  -2  27    1.99    0.42 
   0  -2  27    0.43    0.30 
  -1   2 -27    2.23    0.37 
   1  -2  27    3.06    0.49 
  -2   2 -27    1.80    0.34 
  -3   2 -27    0.95    0.27 
  -4  -1  27    0.73    0.34 
  -3  -1  27    0.99    0.37 
  -2  -1  27    0.41    0.27 
  -1  -1  27    4.15    0.54 
   0   1 -27    0.56    0.29 
   0  -1  27    0.98    0.31 
  -1   1 -27    4.57    0.47 
   1  -1  27    4.97    0.56 
  -2   1 -27    0.14    0.18 
  -3   1 -27    1.23    0.31 
  -4   1 -27    0.46    0.24 
  -4   0  27    0.59    0.40 
  -3   0  27    0.20    0.27 
  -2   0  27    0.40    0.28 
   1   0 -27    1.21    0.38 
  -1   0  27    0.90    0.31 
   0   0 -27   -0.11    0.16 
   0   0 -27    0.11    0.24 
   0   0  27    0.18    0.23 
  -1   0 -27    1.30    0.28 
  -2   0 -27    0.41    0.21 
  -3   0 -27    0.08    0.18 
  -4   0 -27    0.75    0.28 
  -4   1  27    0.63    0.35 
  -3   1  27    1.66    0.42 
   2  -1 -27   -0.05    0.26 
  -2   1  27    0.14    0.24 
   1  -1 -27    5.53    0.68 
  -1   1  27    5.09    0.56 
   0  -1 -27    0.26    0.29 
   0   1  27    1.17    0.32 
  -1  -1 -27    5.07    0.61 
  -1  -1 -27    5.48    0.47 
  -2  -1 -27    0.30    0.19 
  -3  -1 -27    0.79    0.27 
  -4  -1 -27    0.83    0.33 
  -3   2  27    0.82    0.32 
   2  -2 -27    2.36    0.53 
  -2   2  27    3.03    0.51 
   1  -2 -27    2.08    0.46 
  -1   2  27    2.29    0.41 
   0  -2 -27    0.86    0.33 
  -1  -2 -27    2.71    0.50 
  -2  -2 -27    2.09    0.37 
  -3  -2 -27    1.13    0.33 
   3  -3 -27    3.71    0.66 
  -3   3  27    3.36    0.57 
   2  -3 -27    4.20    0.67 
  -2   3  27    3.28    0.50 
   1  -3 -27    4.53    0.67 
  -1   3  27    2.58    0.44 
   0  -3 -27    0.31    0.30 
  -1  -3 -27    3.43    0.57 
  -2  -3 -27    3.97    0.60 
  -3  -3 -27    4.12    0.51 
   3  -4 -27    1.17    0.46 
  -3   4  27    1.36    0.43 
   2  -4 -27   11.02    1.00 
  -2   4  27    7.73    0.73 
   1  -4 -27    1.66    0.45 
   0  -4 -27    1.41    0.45 
  -1  -4 -27    2.29    0.50 
  -2  -4 -27    9.19    0.87 
  -3  -4 -27    0.55    0.28 
   2  -5 -27    1.99    0.54 
   1  -5 -27    1.50    0.47 
   0  -5 -27    0.44    0.37 
  -1  -5 -27    1.48    0.43 
  -2  -5 -27    1.64    0.49 
   1  -6 -27    0.13    0.39 
   0  -6 -27    4.82    0.74 
  -1  -6 -27    0.98    0.44 
   0  -6  28    0.47    0.36 
  -2  -5  28    0.34    0.36 
  -1  -5  28    0.57    0.37 
   0  -5  28    0.90    0.40 
   1  -5  28    0.35    0.35 
  -2   5 -28    0.52    0.26 
   2  -5  28    0.35    0.36 
  -2  -4  28    1.35    0.44 
  -1  -4  28    1.38    0.45 
   0  -4  28    3.19    0.58 
   1  -4  28    1.83    0.47 
  -2   4 -28    0.77    0.26 
   2  -4  28    0.91    0.41 
  -3  -3  28    1.25    0.42 
  -2  -3  28    3.86    0.59 
  -1  -3  28    0.48    0.31 
   0  -3  28    1.19    0.39 
  -1   3 -28    0.46    0.23 
   1  -3  28    0.13    0.30 
  -2   3 -28    3.18    0.45 
  -3   3 -28    1.53    0.35 
  -3  -2  28    1.26    0.38 
  -2  -2  28    0.50    0.30 
  -1  -2  28    0.66    0.33 
   0  -2  28    0.43    0.32 
  -1   2 -28    0.43    0.22 
   1  -2  28    0.50    0.32 
  -2   2 -28    0.21    0.18 
  -3   2 -28    2.04    0.37 
  -3  -1  28    1.04    0.36 
  -2  -1  28    2.40    0.48 
  -1  -1  28    0.92    0.35 
   0  -1  28    1.49    0.39 
  -1   1 -28    0.77    0.25 
   1  -1  28    0.55    0.32 
  -2   1 -28    2.69    0.41 
  -3   1 -28    1.15    0.29 
  -3   0  28    1.76    0.42 
  -2   0  28    0.99    0.35 
   1   0 -28   10.21    0.87 
  -1   0  28    9.16    0.76 
   0   0 -28    1.53    0.42 
   0   0  28    2.50    0.44 
  -1   0 -28    9.75    0.62 
  -2   0 -28    0.34    0.23 
  -3   0 -28    2.26    0.39 
  -3   1  28    1.20    0.39 
  -2   1  28    2.28    0.45 
   1  -1 -28    0.43    0.33 
  -1   1  28    0.70    0.31 
   0  -1 -28    2.14    0.46 
  -1  -1 -28    0.83    0.33 
  -1  -1 -28    0.94    0.27 
  -2  -1 -28    2.60    0.40 
  -3  -1 -28    0.90    0.29 
  -3   2  28    2.00    0.46 
   2  -2 -28    0.17    0.34 
  -2   2  28    0.50    0.29 
   1  -2 -28    0.74    0.35 
  -1   2  28    0.73    0.31 
   0  -2 -28    0.31    0.31 
  -1  -2 -28    1.01    0.38 
  -2  -2 -28    0.16    0.22 
  -3  -2 -28    2.03    0.38 
   3  -3 -28    1.03    0.46 
  -3   3  28    1.89    0.47 
   2  -3 -28    4.07    0.67 
  -2   3  28    3.68    0.54 
   1  -3 -28   -0.25    0.29 
   0  -3 -28    1.35    0.41 
  -1  -3 -28    0.27    0.33 
  -2  -3 -28    4.69    0.65 
  -3  -3 -28    2.64    0.45 
   2  -4 -28    0.46    0.39 
  -2   4  28    1.08    0.40 
   1  -4 -28    2.00    0.50 
   0  -4 -28    2.71    0.55 
  -1  -4 -28    2.46    0.52 
  -2  -4 -28    0.78    0.41 
   2  -5 -28    0.35    0.34 
   1  -5 -28    0.33    0.35 
   0  -5 -28    1.55    0.50 
  -1  -5 -28    0.84    0.42 
  -2  -5 -28    0.51    0.38 
   1  -6 -28    0.30    0.36 
   0  -6 -28    0.19    0.34 
  -1  -6 -28    0.28    0.36 
  -1  -5  29    4.47    0.72 
   0  -5  29   -0.13    0.26 
   1  -5  29    5.54    0.78 
  -2  -4  29    2.05    0.51 
  -1  -4  29    1.17    0.40 
   0  -4  29    0.62    0.36 
   1  -4  29    0.88    0.37 
  -2   4 -29    2.60    0.44 
   2  -4  29    2.90    0.60 
  -2  -3  29    0.80    0.37 
  -1  -3  29    0.07    0.28 
   0  -3  29    0.43    0.32 
  -1   3 -29    0.20    0.18 
   1  -3  29    0.29    0.31 
  -2   3 -29    1.19    0.32 
  -3  -2  29    1.95    0.47 
  -2  -2  29    3.33    0.56 
  -1  -2  29    0.27    0.27 
   0  -2  29    1.43    0.41 
  -1   2 -29    0.65    0.26 
   1  -2  29    0.84    0.35 
  -2   2 -29    3.36    0.46 
  -3   2 -29    1.52    0.35 
  -3  -1  29    0.32    0.29 
  -2  -1  29    1.87    0.45 
  -1  -1  29    6.04    0.68 
   0  -1  29    0.16    0.26 
  -1   1 -29    6.72    0.57 
  -2   1 -29    2.20    0.37 
  -3   1 -29    0.02    0.20 
  -3   0  29    0.73    0.35 
  -2   0  29    0.90    0.36 
  -1   0  29    0.95    0.34 
   0   0 -29    0.38    0.33 
   0   0  29   -0.01    0.26 
  -1   0 -29    1.87    0.35 
  -2   0 -29    0.64    0.27 
  -3   0 -29    0.34    0.22 
  -3   1  29    0.13    0.30 
  -2   1  29    2.63    0.49 
   1  -1 -29    6.80    0.77 
  -1   1  29    6.25    0.64 
   0  -1 -29    0.32    0.31 
  -2  -1 -29    2.07    0.37 
  -3  -1 -29    0.28    0.24 
  -3   2  29    1.68    0.48 
   2  -2 -29    3.72    0.65 
  -2   2  29    3.35    0.54 
   1  -2 -29    0.65    0.38 
  -1   2  29    0.42    0.31 
   0  -2 -29    1.52    0.44 
  -1  -2 -29    0.60    0.34 
  -3  -2 -29    1.91    0.38 
   2  -3 -29    0.65    0.39 
  -2   3  29    0.80    0.38 
   1  -3 -29   -0.24    0.26 
   0  -3 -29    0.69    0.33 
  -1  -3 -29    0.52    0.36 
   2  -4 -29    1.21    0.47 
   1  -4 -29    1.21    0.47 
   0  -4 -29    0.59    0.39 
  -1  -4 -29    1.80    0.49 
  -2  -4 -29    2.93    0.58 
   1  -5 -29    4.11    0.69 
   0  -5 -29    0.28    0.38 
  -1  -5 -29    4.77    0.74 
  -1  -4  30    0.51    0.38 
   0  -4  30    0.11    0.32 
   1  -4  30    0.73    0.41 
  -2  -3  30    0.77    0.39 
  -1  -3  30    2.17    0.53 
   0  -3  30    0.57    0.39 
   1  -3  30    1.96    0.48 
  -2   3 -30    0.83    0.28 
  -2  -2  30    1.64    0.44 
  -1  -2  30    0.68    0.37 
   0  -2  30    2.48    0.50 
  -1   2 -30    1.62    0.34 
   1  -2  30    0.88    0.41 
  -2   2 -30    1.50    0.33 
  -2  -1  30    1.38    0.42 
  -1  -1  30    1.58    0.43 
   0  -1  30    6.65    0.70 
  -1   1 -30    2.13    0.38 
  -2   1 -30    1.89    0.37 
  -2   0  30    0.73    0.36 
  -1   0  30    3.53    0.55 
   0   0 -30    7.06    0.78 
  -1   0 -30    2.61    0.42 
  -2   0 -30    1.16    0.31 
  -2   1  30    1.68    0.42 
   1  -1 -30    1.35    0.46 
  -1   1  30    1.95    0.43 
   0  -1 -30    7.53    0.80 
  -2  -1 -30    2.12    0.38 
   2  -2 -30    0.92    0.46 
  -2   2  30    0.97    0.40 
   1  -2 -30    1.64    0.47 
   0  -2 -30    3.15    0.59 
  -1  -2 -30    0.99    0.41 
   2  -3 -30    0.36    0.37 
  -2   3  30    1.24    0.43 
   1  -3 -30    1.79    0.50 
   0  -3 -30    0.57    0.36 
  -1  -3 -30    1.72    0.47 
   1  -4 -30    0.10    0.38 
   0  -4 -30    0.22    0.35 
  -1  -4 -30    0.16    0.38 
  -1  -3  31    1.26    0.46 
   0  -3  31    0.01    0.31 
   1  -3  31    0.72    0.40 
  -1  -2  31   -0.12    0.27 
   0  -2  31    0.42    0.35 
  -1   2 -31   -0.04    0.20 
  -2  -1  31    3.09    0.55 
  -1  -1  31    0.32    0.33 
   0  -1  31    2.64    0.55 
  -1   1 -31    0.84    0.29 
  -2   1 -31    2.52    0.40 
  -2   0  31    1.53    0.43 
  -1   0  31    0.08    0.30 
  -2   0 -31    1.29    0.31 
  -2   1  31    2.54    0.53 
   1  -1 -31    0.36    0.36 
  -1   1  31    0.01    0.33 
   0  -1 -31    3.56    0.63 
   1  -2 -31    0.35    0.37 
   0  -2 -31    0.37    0.37 
   1  -3 -31    1.24    0.49 
   0  -3 -31   -0.40    0.31 
  -1  -3 -31    1.53    0.51 
   0  -2  32    0.27    0.35 
  -1  -1  32    3.81    0.60 
  -1   0  32    0.28    0.35 
   1  -1 -32    3.61    0.68 
   0  -1 -32    1.99    0.56 
   0  -2 -32    0.35    0.40 
   0   0   0    0.00    0.00 
;
_shelx_hkl_checksum              78579
loop_
_space_group_symop_operation_xyz
'x, y, z'
'-x+1/2, -y, z+1/2'
'-x, y+1/2, -z+1/2'
'x+1/2, -y+1/2, -z'
loop_
_atom_site_label
_atom_site_type_symbol
_atom_site_fract_x
_atom_site_fract_y
_atom_site_fract_z
_atom_site_U_iso_or_equiv
_atom_site_adp_type
_atom_site_occupancy
_atom_site_site_symmetry_order
_atom_site_calc_flag
_atom_site_refinement_flags_posn
_atom_site_refinement_flags_adp
S1 S -0.2378(3) 0.05172(13) 0.93676(5) 0.0477(4) Uani 1 1 d . U
N1 N -0.0850(9) 0.0936(4) 0.88121(16) 0.0413(10) Uani 1 1 d . .
O1 O -0.2498(9) 0.1952(4) 0.97226(14) 0.0587(10) Uani 1 1 d . U
O2 O -0.4630(9) -0.0022(7) 0.92060(19) 0.0877(17) Uani 1 1 d . .
O3 O -0.0878(9) -0.0383(5) 0.97102(16) 0.0694(13) Uani 1 1 d . .
C1 C -0.3263(11) 0.3219(6) 0.9393(2) 0.0483(13) Uani 1 1 d . .
H1A H -0.3521 0.4061 0.9628 0.058 Uiso 1 1 calc R U
H1B H -0.4789 0.3004 0.9205 0.058 Uiso 1 1 calc R U
C2 C -0.1299(9) 0.3544(5) 0.89829(18) 0.0364(10) Uani 1 1 d . .
C3 C -0.0335(9) 0.4869(5) 0.89465(19) 0.0384(11) Uani 1 1 d . .
C4 C -0.0752(11) 0.6226(6) 0.9286(2) 0.0520(14) Uani 1 1 d . .
H4A H -0.2151 0.6802 0.9169 0.062 Uiso 1 1 calc R U
H4B H -0.0806 0.6043 0.9678 0.062 Uiso 1 1 calc R U
C5 C 0.1669(12) 0.6813(6) 0.9088(3) 0.0583(16) Uani 1 1 d . .
H5A H 0.2967 0.6750 0.9358 0.070 Uiso 1 1 calc R U
H5B H 0.1568 0.7791 0.8935 0.070 Uiso 1 1 calc R U
C6 C 0.1768(10) 0.5592(5) 0.8650(2) 0.0460(12) Uani 1 1 d . .
H6A H 0.1370 0.5920 0.8283 0.055 Uiso 1 1 calc R U
H6B H 0.3272 0.5028 0.8654 0.055 Uiso 1 1 calc R U
C7 C -0.0433(9) 0.2269(5) 0.86702(18) 0.0329(10) Uani 1 1 d . .
C8 C 0.0935(8) 0.2437(5) 0.81507(17) 0.0334(10) Uani 1 1 d . .
C9 C 0.0147(10) 0.3391(5) 0.77486(19) 0.0402(11) Uani 1 1 d . .
H9 H -0.1219 0.3976 0.7812 0.048 Uiso 1 1 calc R U
C10 C 0.1364(11) 0.3489(6) 0.7253(2) 0.0490(13) Uani 1 1 d . .
H10 H 0.0798 0.4116 0.6980 0.059 Uiso 1 1 calc R U
C11 C 0.3434(11) 0.2643(7) 0.7166(2) 0.0531(14) Uani 1 1 d . .
H11 H 0.4276 0.2713 0.6835 0.064 Uiso 1 1 calc R U
C12 C 0.4252(10) 0.1699(6) 0.7567(2) 0.0510(13) Uani 1 1 d . .
H12 H 0.5656 0.1144 0.7507 0.061 Uiso 1 1 calc R U
C13 C 0.3001(9) 0.1572(5) 0.80564(19) 0.0408(11) Uani 1 1 d . .
H13 H 0.3531 0.0913 0.8322 0.049 Uiso 1 1 calc R U
loop_
_atom_site_aniso_label
_atom_site_aniso_U_11
_atom_site_aniso_U_22
_atom_site_aniso_U_33
_atom_site_aniso_U_23
_atom_site_aniso_U_13
_atom_site_aniso_U_12
S1 0.0678(9) 0.0365(7) 0.0388(6) 0.0026(5) 0.0081(6) -0.0152(7)
N1 0.059(3) 0.034(2) 0.0319(18) -0.0021(16) 0.0002(19) -0.0053(19)
O1 0.079(3) 0.054(2) 0.0428(19) 0.0018(15) 0.012(2) -0.003(2)
O2 0.076(3) 0.120(4) 0.067(3) 0.036(3) -0.016(2) -0.048(3)
O3 0.101(3) 0.066(3) 0.0415(19) 0.011(2) -0.006(2) -0.008(3)
C1 0.057(3) 0.040(3) 0.048(3) 0.006(2) 0.020(2) 0.007(2)
C2 0.041(2) 0.036(2) 0.032(2) 0.0007(19) 0.0043(19) -0.001(2)
C3 0.045(3) 0.034(2) 0.037(2) 0.0010(19) 0.002(2) 0.006(2)
C4 0.067(4) 0.035(3) 0.054(3) -0.004(2) 0.003(3) 0.005(3)
C5 0.073(4) 0.039(3) 0.063(3) -0.003(3) -0.006(3) -0.015(3)
C6 0.053(3) 0.035(2) 0.050(3) 0.001(2) 0.009(2) -0.002(2)
C7 0.037(2) 0.030(2) 0.032(2) -0.0004(18) -0.0030(18) -0.0005(19)
C8 0.038(2) 0.033(2) 0.030(2) -0.0024(18) 0.0014(18) -0.003(2)
C9 0.045(3) 0.037(2) 0.039(2) -0.003(2) 0.000(2) 0.001(2)
C10 0.069(3) 0.046(3) 0.032(2) 0.007(2) -0.001(2) -0.008(3)
C11 0.065(3) 0.059(4) 0.035(2) -0.004(3) 0.014(2) -0.005(3)
C12 0.046(3) 0.053(3) 0.054(3) -0.009(3) 0.008(3) 0.006(3)
C13 0.047(3) 0.039(2) 0.036(2) 0.003(2) 0.001(2) 0.001(2)
loop_
_atom_type_symbol
_atom_type_description
_atom_type_scat_dispersion_real
_atom_type_scat_dispersion_imag
_atom_type_scat_source
C C 0.0033 0.0016 'International Tables Vol C Tables 4.2.6.8 and 6.1.1.4'
H H 0.0000 0.0000 'International Tables Vol C Tables 4.2.6.8 and 6.1.1.4'
N N 0.0061 0.0033 'International Tables Vol C Tables 4.2.6.8 and 6.1.1.4'
O O 0.0106 0.0060 'International Tables Vol C Tables 4.2.6.8 and 6.1.1.4'
S S 0.1246 0.1234 'International Tables Vol C Tables 4.2.6.8 and 6.1.1.4'
loop_
_geom_angle_atom_site_label_1
_geom_angle_atom_site_label_2
_geom_angle_atom_site_label_3
_geom_angle
O2 S1 O3 118.1(3)
O2 S1 O1 114.6(3)
O3 S1 O1 100.5(2)
O2 S1 N1 107.5(3)
O3 S1 N1 109.0(3)
O1 S1 N1 106.4(2)
C7 N1 S1 122.3(4)
C1 O1 S1 111.5(3)
O1 C1 C2 108.6(4)
O1 C1 H1A 110.0
C2 C1 H1A 110.0
O1 C1 H1B 110.0
C2 C1 H1B 110.0
H1A C1 H1B 108.4
C3 C2 C7 124.2(4)
C3 C2 C1 120.8(4)
C7 C2 C1 114.8(4)
C2 C3 C4 130.9(5)
C2 C3 C6 137.4(4)
C4 C3 C6 91.0(4)
C5 C4 C3 89.1(4)
C5 C4 H4A 113.8
C3 C4 H4A 113.8
C5 C4 H4B 113.8
C3 C4 H4B 113.8
H4A C4 H4B 111.0
C4 C5 C6 89.7(4)
C4 C5 H5A 113.7
C6 C5 H5A 113.7
C4 C5 H5B 113.7
C6 C5 H5B 113.7
H5A C5 H5B 110.9
C3 C6 C5 87.7(4)
C3 C6 H6A 114.0
C5 C6 H6A 114.0
C3 C6 H6B 114.0
C5 C6 H6B 114.0
H6A C6 H6B 111.2
N1 C7 C2 123.6(4)
N1 C7 C8 114.7(4)
C2 C7 C8 121.6(4)
C9 C8 C13 119.5(4)
C9 C8 C7 121.1(4)
C13 C8 C7 119.4(4)
C8 C9 C10 120.8(5)
C8 C9 H9 119.6
C10 C9 H9 119.6
C9 C10 C11 119.4(5)
C9 C10 H10 120.3
C11 C10 H10 120.3
C12 C11 C10 120.3(5)
C12 C11 H11 119.9
C10 C11 H11 119.9
C11 C12 C13 120.4(5)
C11 C12 H12 119.8
C13 C12 H12 119.8
C12 C13 C8 119.6(5)
C12 C13 H13 120.2
C8 C13 H13 120.2
loop_
_geom_bond_atom_site_label_1
_geom_bond_atom_site_label_2
_geom_bond_distance
S1 O2 1.382(5)
S1 O3 1.429(5)
S1 O1 1.572(4)
S1 N1 1.636(4)
N1 C7 1.286(6)
O1 C1 1.470(6)
C1 C2 1.495(7)
C1 H1A 0.9700
C1 H1B 0.9700
C2 C3 1.323(7)
C2 C7 1.470(6)
C3 C4 1.507(7)
C3 C6 1.508(7)
C4 C5 1.506(9)
C4 H4A 0.9700
C4 H4B 0.9700
C5 C6 1.543(7)
C5 H5A 0.9700
C5 H5B 0.9700
C6 H6A 0.9700
C6 H6B 0.9700
C7 C8 1.478(6)
C8 C9 1.380(6)
C8 C13 1.396(7)
C9 C10 1.382(7)
C9 H9 0.9300
C10 C11 1.385(9)
C10 H10 0.9300
C11 C12 1.378(8)
C11 H11 0.9300
C12 C13 1.381(7)
C12 H12 0.9300
C13 H13 0.9300
loop_
_geom_hbond_atom_site_label_D
_geom_hbond_atom_site_label_H
_geom_hbond_atom_site_label_A
_geom_hbond_distance_DH
_geom_hbond_distance_HA
_geom_hbond_distance_DA
_geom_hbond_angle_DHA
_geom_hbond_site_symmetry_A
C1 H1A O3 0.97 2.39 3.275(7) 151.4 4_457
C1 H1A O3 0.97 2.39 3.275(7) 151.4 4_457
C1 H1A O3 0.97 2.39 3.275(7) 151.4 4_457
C1 H1A O3 0.97 2.39 3.275(7) 151.4 4_457
loop_
_geom_torsion_atom_site_label_1
_geom_torsion_atom_site_label_2
_geom_torsion_atom_site_label_3
_geom_torsion_atom_site_label_4
_geom_torsion
O2 S1 N1 C7 108.6(5)
O3 S1 N1 C7 -122.2(4)
O1 S1 N1 C7 -14.6(5)
O2 S1 O1 C1 -70.6(4)
O3 S1 O1 C1 161.7(4)
N1 S1 O1 C1 48.1(4)
S1 O1 C1 C2 -66.7(5)
O1 C1 C2 C3 -126.2(5)
O1 C1 C2 C7 49.0(6)
C7 C2 C3 C4 -170.5(5)
C1 C2 C3 C4 4.2(8)
C7 C2 C3 C6 -2.9(9)
C1 C2 C3 C6 171.7(5)
C2 C3 C4 C5 159.4(6)
C6 C3 C4 C5 -12.2(4)
C3 C4 C5 C6 11.9(4)
C2 C3 C6 C5 -158.7(6)
C4 C3 C6 C5 11.9(4)
C4 C5 C6 C3 -11.9(4)
S1 N1 C7 C2 -0.9(7)
S1 N1 C7 C8 -178.9(3)
C3 C2 C7 N1 159.1(5)
C1 C2 C7 N1 -15.9(7)
C3 C2 C7 C8 -23.0(7)
C1 C2 C7 C8 162.0(4)
N1 C7 C8 C9 131.7(5)
C2 C7 C8 C9 -46.3(7)
N1 C7 C8 C13 -45.6(6)
C2 C7 C8 C13 136.3(5)
C13 C8 C9 C10 0.7(7)
C7 C8 C9 C10 -176.7(4)
C8 C9 C10 C11 -1.7(8)
C9 C10 C11 C12 0.9(8)
C10 C11 C12 C13 0.8(9)
C11 C12 C13 C8 -1.8(8)
C9 C8 C13 C12 1.1(7)
C7 C8 C13 C12 178.5(5)
