#------------------------------------------------------------------------------
#$Date: 2017-07-08 09:59:34 +0300 (Sat, 08 Jul 2017) $
#$Revision: 198557 $
#$URL: file:///home/coder/svn-repositories/cod/cif/1/54/65/1546502.cif $
#------------------------------------------------------------------------------
#
# This file is available in the Crystallography Open Database (COD),
# http://www.crystallography.net/
#
# All data on this site have been placed in the public domain by the
# contributors.
#
data_1546502
loop_
_publ_author_name
'Nguyen, Thanh Binh'
'Retailleau, Pascal'
_publ_section_title
;
 Redox-Neutral Access to Sultams from 2-Nitrochalcones and Sulfur with
 Complete Atom Economy
;
_journal_name_full               'Organic Letters'
_journal_paper_doi               10.1021/acs.orglett.7b01766
_journal_year                    2017
_chemical_formula_moiety         'C16 H13 N O4 S, 0.50 (C D Cl3)'
_chemical_formula_sum            'C16.5 H13 Cl1.5 D0.5 N O4 S'
_chemical_formula_weight         375.52
_space_group_crystal_system      monoclinic
_space_group_IT_number           14
_space_group_name_Hall           '-P 2ybc'
_space_group_name_H-M_alt        'P 1 21/c 1'
_symmetry_space_group_name_Hall  '-P 2ybc'
_symmetry_space_group_name_H-M   'P 1 21/c 1'
_atom_sites_solution_hydrogens   mixed
_atom_sites_solution_primary     dual
_atom_sites_solution_secondary   difmap
_audit_creation_method           SHELXL-2014/7
_cell_angle_alpha                90
_cell_angle_beta                 93.054(5)
_cell_angle_gamma                90
_cell_formula_units_Z            4
_cell_length_a                   7.5748(3)
_cell_length_b                   13.3134(5)
_cell_length_c                   16.6181(9)
_cell_measurement_reflns_used    7175
_cell_measurement_temperature    173.00(10)
_cell_measurement_theta_max      27.7970
_cell_measurement_theta_min      3.8970
_cell_volume                     1673.49(13)
_computing_cell_refinement       'CrysAlisPro 1.171.39.7b (Rigaku OD, 2015)'
_computing_data_collection       'CrysAlisPro 1.171.39.7b (Rigaku OD, 2015)'
_computing_data_reduction        'CrysAlisPro 1.171.39.7b (Rigaku OD, 2015)'
_computing_structure_refinement  'SHELXL-2014/7 (Sheldrick, 2015)'
_computing_structure_solution    'SHELXT (Sheldrick, 2015)'
_diffrn_ambient_environment      N~2~
_diffrn_ambient_temperature      173.00(10)
_diffrn_detector                 'HPAD Pilatus R3 200'
_diffrn_measured_fraction_theta_full 0.990
_diffrn_measured_fraction_theta_max 0.878
_diffrn_measurement_device       'four-circle diffractometer'
_diffrn_measurement_device_type  'XtaLAB Pro: Kappa single'
_diffrn_radiation_monochromator
;
;
_diffrn_radiation_probe          x-ray
_diffrn_radiation_type           'Mo K\a'
_diffrn_radiation_wavelength     0.71073
_diffrn_reflns_av_R_equivalents  0.0401
_diffrn_reflns_av_unetI/netI     0.0353
_diffrn_reflns_Laue_measured_fraction_full 0.990
_diffrn_reflns_Laue_measured_fraction_max 0.878
_diffrn_reflns_limit_h_max       9
_diffrn_reflns_limit_h_min       -9
_diffrn_reflns_limit_k_max       15
_diffrn_reflns_limit_k_min       -17
_diffrn_reflns_limit_l_max       21
_diffrn_reflns_limit_l_min       -22
_diffrn_reflns_number            18758
_diffrn_reflns_point_group_measured_fraction_full 0.990
_diffrn_reflns_point_group_measured_fraction_max 0.878
_diffrn_reflns_theta_full        25.242
_diffrn_reflns_theta_max         28.948
_diffrn_reflns_theta_min         3.740
_diffrn_source                   'microfocus sealed X-ray tube'
_diffrn_source_type              'Rigaku mm003 X-ray Source'
_exptl_absorpt_coefficient_mu    0.453
_exptl_absorpt_correction_T_max  1.00000
_exptl_absorpt_correction_T_min  0.84710
_exptl_absorpt_correction_type   multi-scan
_exptl_absorpt_process_details
;
CrysAlisPro 1.171.39.7b (Rigaku Oxford Diffraction, 2015)
Empirical absorption correction using spherical harmonics,
 implemented in SCALE3 ABSPACK scaling algorithm.
;
_exptl_crystal_colour            yellow
_exptl_crystal_density_diffrn    1.490
_exptl_crystal_description       cobbledstone
_exptl_crystal_F_000             772
_exptl_crystal_size_max          0.35
_exptl_crystal_size_mid          0.28
_exptl_crystal_size_min          0.10
_refine_diff_density_max         0.921
_refine_diff_density_min         -0.902
_refine_diff_density_rms         0.072
_refine_ls_extinction_method     none
_refine_ls_goodness_of_fit_ref   1.127
_refine_ls_hydrogen_treatment    mixed
_refine_ls_matrix_type           full
_refine_ls_number_parameters     239
_refine_ls_number_reflns         3886
_refine_ls_number_restraints     24
_refine_ls_restrained_S_all      1.194
_refine_ls_R_factor_all          0.0703
_refine_ls_R_factor_gt           0.0579
_refine_ls_shift/su_max          0.001
_refine_ls_shift/su_mean         0.000
_refine_ls_structure_factor_coef Fsqd
_refine_ls_weighting_details
'w=1/[\s^2^(Fo^2^)+(0.0680P)^2^+1.6273P] where P=(Fo^2^+2Fc^2^)/3'
_refine_ls_weighting_scheme      calc
_refine_ls_wR_factor_gt          0.1524
_refine_ls_wR_factor_ref         0.1598
_reflns_Friedel_coverage         0.000
_reflns_number_gt                3137
_reflns_number_total             3906
_reflns_threshold_expression     'I > 2\s(I)'
_cod_data_source_file            ol7b01766_si_002.cif
_cod_data_source_block           exp_1_BN0608P
_cod_original_formula_sum        'C16.50 H13 Cl1.50 D0.50 N O4 S'
_cod_database_code               1546502
_shelx_shelxl_version_number     2014/7
_shelx_space_group_comment
;
The symmetry employed for this shelxl refinement is uniquely defined
by the following loop, which should always be used as a source of
symmetry information in preference to the above space-group names.
They are only intended as comments.
;
_shelx_res_file
;

    exp_1.res created by SHELXL-2014/7


TITL exp_1_a.res in P2(1)/c
REM Old TITL exp_1 in P2(1)/c
REM SHELXT solution in P2(1)/c
REM R1 0.182, Rweak 0.010, Alpha 0.021, Orientation as input
REM Formula found by SHELXT: C18 N3 O3 S
CELL 0.71073 7.5748 13.3134 16.6181 90 93.054 90
ZERR 4 0.0003 0.0005 0.0009 0 0.005 0
LATT 1
SYMM -X,0.5+Y,0.5-Z
SFAC C H N O S Cl D
UNIT 66 52 4 16 4 6 2
L.S. 10
PLAN  20
BOND $H
FMAP 2
list 4
TEMP -100
ACTA
OMIT 2 1 3
OMIT -1 0 2
OMIT 3 2 1
OMIT -2 0 4
OMIT 0 2 4
OMIT 1 5 3
OMIT 0 6 2
OMIT 2 3 4
OMIT -2 1 3
OMIT -3 2 3
OMIT -2 1 6
OMIT 2 3 1
OMIT 3 1 0
OMIT 3 6 0
OMIT -1 3 3
OMIT 0 9 1
OMIT 0 7 3
OMIT -4 6 1
OMIT 3 3 4
OMIT 0 3 1
EQIV $1 1-x, -y, 1-z
REM <olex2.extras>
REM <HklSrc "%.\\exp_1.hkl">
REM </olex2.extras>
WGHT    0.068000    1.627300
FVAR       0.57407
S1    5    0.426831    0.257928    0.247137    11.00000    0.03265    0.01967 =
         0.03141   -0.00169    0.01261    0.00028
O1    4    0.416014    0.472024    0.289272    11.00000    0.03974    0.02203 =
         0.03799   -0.00017    0.01476   -0.00373
O2    4    0.612303    0.277460    0.256799    11.00000    0.03378    0.02721 =
         0.06353   -0.00144    0.02101   -0.00041
O3    4    0.339443    0.280265    0.170973    11.00000    0.06595    0.03542 =
         0.03072    0.00105    0.00593   -0.00085
O4    4    0.127465    0.703988    0.496041    11.00000    0.07042    0.02875 =
         0.03951   -0.00271    0.01517    0.01798
N1    3    0.399326    0.139973    0.271711    11.00000    0.03330    0.01816 =
         0.04260   -0.00355    0.01554    0.00271
H1N   2    0.474632    0.101442    0.253550    11.00000   -1.20000
C1    1    0.307471    0.313953    0.322805    11.00000    0.02887    0.01924 =
         0.02997   -0.00311    0.00795    0.00167
C2    1    0.163953    0.264985    0.348372    11.00000    0.03279    0.02308 =
         0.04055   -0.00470    0.01295    0.00049
AFIX  43
H2    2    0.091139    0.299984    0.383797    11.00000   -1.20000
AFIX   0
C3    1    0.113167    0.164353    0.326162    11.00000    0.03098    0.02308 =
         0.04378   -0.00289    0.01034   -0.00297
C4    1    0.233519    0.101491    0.289135    11.00000    0.03185    0.02199 =
         0.02739   -0.00142    0.00427   -0.00325
C5    1    0.192518    0.000177    0.275266    11.00000    0.04368    0.02234 =
         0.03044   -0.00384    0.00423    0.00013
AFIX  43
H5    2    0.275194   -0.042933    0.251601    11.00000   -1.20000
AFIX   0
C6    1    0.032064   -0.036177    0.296146    11.00000    0.04745    0.02445 =
         0.04408   -0.00163   -0.00087   -0.01103
AFIX  43
H6    2    0.004224   -0.104857    0.286524    11.00000   -1.20000
AFIX   0
C7    1   -0.091245    0.025483    0.331219    11.00000    0.03803    0.03705 =
         0.07454   -0.00488    0.01042   -0.01501
AFIX  43
H7    2   -0.202554   -0.000836    0.344533    11.00000   -1.20000
AFIX   0
C8    1   -0.050702    0.124913    0.346476    11.00000    0.03462    0.03310 =
         0.07779   -0.00821    0.02176   -0.00549
AFIX  43
H8    2   -0.133990    0.166954    0.370844    11.00000   -1.20000
AFIX   0
C9    1    0.345171    0.421358    0.339936    11.00000    0.02645    0.01849 =
         0.03308   -0.00079    0.00626    0.00034
C10   1    0.290830    0.464685    0.416971    11.00000    0.02758    0.02074 =
         0.03017   -0.00341    0.00539   -0.00230
C11   1    0.304609    0.409818    0.488392    11.00000    0.03944    0.02212 =
         0.03636    0.00269    0.00694    0.00253
AFIX  43
H11   2    0.341488    0.341622    0.488135    11.00000   -1.20000
AFIX   0
C12   1    0.263822    0.455969    0.559910    11.00000    0.04361    0.03323 =
         0.02979    0.00454    0.00448    0.00326
AFIX  43
H12   2    0.274981    0.419402    0.609007    11.00000   -1.20000
AFIX   0
C13   1    0.207200    0.554473    0.560428    11.00000    0.03235    0.03442 =
         0.02812   -0.00442    0.00543    0.00258
AFIX  43
H13   2    0.179864    0.585434    0.609744    11.00000   -1.20000
AFIX   0
C14   1    0.190102    0.608560    0.488620    11.00000    0.02962    0.02383 =
         0.03452   -0.00373    0.00538    0.00424
C15   1    0.234148    0.564785    0.416553    11.00000    0.02773    0.02271 =
         0.02760    0.00033    0.00402    0.00131
AFIX  43
H15   2    0.225961    0.602127    0.367783    11.00000   -1.20000
AFIX   0
C16   1    0.093812    0.759943    0.423126    11.00000    0.13541    0.04646 =
         0.05004    0.01163    0.02540    0.05111
AFIX 137
H16A  2    0.036491    0.823679    0.435505    11.00000   -1.50000
H16B  2    0.016161    0.720985    0.385823    11.00000   -1.50000
H16C  2    0.205778    0.773414    0.398206    11.00000   -1.50000
AFIX   0
FREE C100 CL3
CONN C100 3
BIND C100 CL1
BIND C100 CL2
BIND C100 CL3_$1
RIGU CL1 > CL3
DFIX 1.72 0.005 C100 CL1 C100 CL2 C100 CL3_$1
SADI CL1 CL2 CL2 CL3_$1 CL3_$1 CL1
CL1   6    0.565641    0.145395    0.482566    10.50000    0.07646    0.09258 =
         0.10701    0.00240    0.04429   -0.01870
CL2   6    0.232489    0.051416    0.493635    10.50000    0.06454    0.13304 =
         0.04687    0.01204    0.00102   -0.01812
C100  1    0.442194    0.041922    0.462872    10.50000    0.13563    0.06613 =
         0.16903    0.04008   -0.03656    0.03360
AFIX  13
D100  7    0.429916    0.037170    0.402780    10.50000   -1.20000
AFIX   0
CL3   6    0.453802    0.066453    0.505887    10.50000    0.10009    0.10161 =
         0.23375   -0.01606   -0.01543   -0.00156
HKLF 4

REM  exp_1_a.res in P2(1)/c
REM R1 =  0.0579 for    3137 Fo > 4sig(Fo)  and  0.0703 for all    3886 data
REM    239 parameters refined using     24 restraints

END

WGHT      0.0697      1.6793

REM Highest difference peak  0.921,  deepest hole -0.902,  1-sigma level  0.072
Q1    1   0.5217  0.0777  0.4619  11.00000  0.05    0.92
Q2    1   0.4760  0.0287  0.5355  11.00000  0.05    0.64
Q3    1   0.3647  0.0505  0.4824  11.00000  0.05    0.57
Q4    1   0.2967 -0.0264  0.4913  11.00000  0.05    0.52
Q5    1   0.6298  0.0832  0.5052  11.00000  0.05    0.50
Q6    1   0.1176  0.2165  0.3241  11.00000  0.05    0.29
Q7    1   0.3567  0.2834  0.2856  11.00000  0.05    0.29
Q8    1   0.3256  0.3670  0.3338  11.00000  0.05    0.28
Q9    1   0.2623  0.5131  0.5623  11.00000  0.05    0.27
Q10   1  -0.0665  0.0833  0.3228  11.00000  0.05    0.26
Q11   1   0.2985  0.4431  0.3799  11.00000  0.05    0.26
Q12   1   0.3007  0.2624  0.2060  11.00000  0.05    0.26
Q13   1  -0.0536  0.0018  0.2979  11.00000  0.05    0.25
Q14   1   0.5323 -0.0612  0.3933  11.00000  0.05    0.25
Q15   1   0.1704  0.1316  0.3156  11.00000  0.05    0.24
Q16   1   0.4322  0.2631  0.1840  11.00000  0.05    0.24
Q17   1   0.2815  0.5181  0.4124  11.00000  0.05    0.23
Q18   1   0.0525  0.7392  0.4238  11.00000  0.05    0.22
Q19   1   0.2929  0.4380  0.4502  11.00000  0.05    0.22
Q20   1   0.0230  0.1537  0.3272  11.00000  0.05    0.22
;
_shelx_res_checksum              71245
_shelx_hkl_file
;
   0   0   3    0.61    0.41
   0   0   4 9999.00  379.41
   0   0  -5   -0.21    0.65
   0   0   5    0.20    0.58
   0   0  -6  694.40   29.25
   0   0   6  730.83   29.24
   0   0   7   -0.56    0.81
   0   0  -7   -0.30    0.75
   0   0  -8  571.37   24.74
   0   0   8  571.95   24.58
   0   0  -9    0.39    1.03
   0   0  -9   -0.43    1.35
   0   0   9    0.36    1.17
   0   0 -10    0.96    1.39
   0   0 -10    2.60    1.58
   0   0  10    0.80    1.54
   0   0  11    0.44    1.34
   0   0 -11   -0.53    1.40
   0   0 -11    0.48    1.20
   0   0  12 2086.83   81.75
   0   0 -12 1965.53   82.28
   0   0 -12 2053.03   82.03
   0   0  13    1.06    2.02
   0   0 -13    0.57    1.73
   0   0 -13   -0.63    1.67
   0   0 -14   50.77    5.64
   0   0  14   57.51    5.64
   0   0 -14   59.31    6.11
   0   0 -15    0.67    1.85
   0   0  15   -0.60    2.07
   0   0 -15    2.20    2.12
   0   0  16   77.12    6.92
   0   0 -16   95.36    7.91
   0   0  17   -0.68    1.96
   0   0 -17    1.54    2.32
   0   0 -17    0.83    2.20
   0   0 -18   13.12    3.46
   0   0 -18   10.51    3.76
   0   0 -19    0.87    2.41
   0   0 -19   -2.77    2.57
   0   0  19    2.06    3.22
   0   0  20    8.75    3.79
   0   0 -20    9.18    3.19
   0   0 -20   16.49    4.31
   0   0  21    1.16    2.91
   0   0 -21   -1.93    2.79
   0   0 -22   14.13    4.25
   0   1   3  218.25    9.28
   0   1   4 1475.98   59.12
   0  -1   4 1466.34   59.08
   0   1   4 1456.42   58.78
   0  -1  -4 1632.49   58.94
   0   1  -4 1560.96   59.17
   0  -1  -5 3150.34  120.70
   0   1  -5 3232.88  121.04
   0   1   5 2978.48  120.55
   0  -1   5 3258.53  121.04
   0   1  -6   87.88    5.14
   0  -1   6   78.56    4.96
   0  -1  -6   74.50    4.70
   0   1   6   74.55    4.65
   0   1  -7  381.61   16.21
   0  -1  -7  314.90   15.95
   0  -1   7  345.13   15.95
   0   1   7  363.64   15.81
   0  -1  -7  352.32   15.86
   0  -1   8  138.09    7.98
   0  -1  -8  139.57    7.88
   0  -1  -8  132.23    8.11
   0   1  -8  150.77    8.23
   0   1   8  140.28    7.79
   0  -1  -9  257.75   12.84
   0   1   9  250.89   12.57
   0  -1   9  258.84   12.93
   0  -1  -9  242.07   13.06
   0   1  -9  262.34   13.07
   0  -1 -10   87.30    6.71
   0  -1 -10   94.76    6.56
   0  -1  10   94.64    6.60
   0   1  10  100.27    6.55
   0   1 -10   99.31    6.86
   0   1  11   32.83    3.65
   0  -1 -11   29.44    3.52
   0  -1  11   27.24    3.48
   0  -1 -11   29.64    3.87
   0   1 -11   28.48    3.52
   0  -1 -12   11.38    2.58
   0  -1 -12    8.66    2.44
   0   1 -12    5.92    2.14
   0  -1  12    9.51    2.43
   0   1  12    8.38    2.48
   0   1 -13    5.28    2.37
   0  -1 -13    8.49    2.42
   0   1  13    7.55    2.36
   0   1 -13    3.17    2.07
   0  -1  13    5.96    2.14
   0  -1 -13    6.89    2.63
   0   1 -14    7.62    2.57
   0  -1 -14    6.14    2.38
   0  -1  14    8.17    2.69
   0   1  14   13.50    2.91
   0   1 -14    8.23    2.71
   0  -1 -14    9.43    2.95
   0   1 -15   56.01    6.06
   0  -1 -15   49.01    5.56
   0  -1  15   35.10    4.80
   0   1  15   52.45    5.35
   0  -1 -15   54.07    5.94
   0   1 -15   48.56    5.72
   0  -1  16   -0.83    2.51
   0   1 -16   -3.16    2.64
   0  -1 -16   -1.54    2.13
   0  -1  16    0.67    2.09
   0  -1 -16    0.71    2.06
   0   1  16    0.61    2.05
   0   1 -16    0.73    1.84
   0  -1 -17    0.76    2.00
   0  -1 -17    0.82    2.16
   0   1 -17    0.78    2.53
   0  -1  17   -0.70    2.20
   0  -1  17   -0.89    2.80
   0   1  17    1.94    1.88
   0   1 -17   -0.84    2.54
   0  -1 -18    5.65    3.03
   0  -1  18   10.53    3.76
   0   1 -18   11.63    3.55
   0   1 -18    1.79    2.38
   0  -1 -18   10.32    3.61
   0  -1 -19    0.91    2.74
   0   1 -19   -0.95    2.38
   0  -1  19    2.05    3.53
   0  -1 -19   -2.58    2.59
   0   1 -19   -2.64    2.65
   0  -1  20    7.63    3.65
   0   1 -20    8.34    3.29
   0  -1 -20   10.02    3.41
   0  -1 -20    2.86    2.65
   0   1 -20    1.98    2.35
   0  -1 -21   -0.96    2.41
   0  -1  21   -2.31    3.49
   0   1 -21   -0.97    3.05
   0   1 -22    4.08    2.96
   0  -1 -22    1.00    2.91
   0   2   2 2765.59  110.53
   0   2   2 2953.78  110.54
   0   2  -2 3030.08  110.93
   0   2   3   13.70    1.26
   0   2  -3   16.63    1.56
   0  -2   4    1.40    0.56
   0   2  -4    1.95    0.73
   0   2   4    2.39    0.66
   0  -2   4    1.77    0.74
   0   2   4    2.14    0.75
   0  -2  -4    0.82    0.57
   0  -2   5   54.32    3.87
   0  -2  -5   57.87    3.64
   0   2   5   55.80    3.41
   0  -2   5   55.58    3.78
   0   2   5   55.29    3.81
   0   2  -5   59.39    3.95
   0  -2  -5   46.07    3.55
   0   2  -6   64.75    4.51
   0   2   6   70.48    4.23
   0  -2  -6   61.79    4.14
   0   2   6   62.07    4.40
   0  -2   6   56.33    4.32
   0  -2   6   61.11    4.35
   0  -2  -6   67.67    4.45
   0  -2  -7    1.31    1.07
   0   2   7    2.30    1.07
   0   2  -7    4.72    1.53
   0   2   7    2.34    1.02
   0  -2   7    5.03    1.38
   0  -2   7    3.04    1.17
   0  -2  -7    5.34    1.25
   0  -2   8 1066.22   43.24
   0   2   8 1003.43   42.38
   0   2  -8 1022.28   43.08
   0  -2  -8 1081.82   43.27
   0  -2   8 1068.34   43.26
   0  -2  -8 1069.16   42.74
   0  -2  -9   76.17    5.68
   0  -2   9   70.17    5.50
   0  -2  -9   72.73    5.26
   0   2  -9   74.06    5.66
   0  -2   9   70.99    5.54
   0   2   9   71.15    5.05
   0  -2  10  916.61   39.79
   0  -2 -10  889.14   39.14
   0   2  10  955.33   38.99
   0  -2  10  926.66   39.51
   0  -2 -10  979.21   39.91
   0   2 -10  948.10   39.74
   0   2 -11  104.60    7.51
   0   2  11  101.45    6.57
   0  -2  11   84.25    6.85
   0  -2 -11  105.35    7.16
   0  -2  11   99.02    7.44
   0   2  11  104.92    6.94
   0  -2 -11  112.80    7.70
   0   2 -12  801.13   35.12
   0   2  12  797.33   33.55
   0  -2 -12  772.10   34.92
   0   2  12  805.78   34.11
   0  -2  12  788.38   34.79
   0  -2  12  843.51   35.61
   0  -2 -12  743.07   34.33
   0   2 -13    0.60    1.75
   0   2  13    2.49    1.63
   0  -2 -13   -0.55    1.54
   0  -2  13    0.65    1.81
   0  -2  13   -0.57    1.72
   0  -2 -13   -2.46    1.63
   0   2  13    0.48    1.72
   0  -2  14  716.40   33.05
   0  -2 -14  639.04   31.77
   0  -2  14  703.69   32.28
   0   2 -14  684.37   32.40
   0   2  14  723.38   30.92
   0   2  14  752.04   31.75
   0  -2 -14  743.38   32.92
   0  -2  15   60.80    6.66
   0   2 -15   55.91    6.14
   0   2  15   63.62    5.48
   0  -2 -15   77.76    6.80
   0  -2  15   64.12    6.29
   0   2  15   61.91    5.92
   0  -2 -15   63.97    6.45
   0   2 -15   67.89    6.92
   0  -2  16  181.16   12.51
   0   2  16  173.00   10.91
   0   2 -16  162.30   11.80
   0  -2 -16  172.99   11.78
   0  -2  16  162.54   11.25
   0  -2 -16  148.65   11.02
   0   2 -16  160.48   11.46
   0  -2  17   -0.89    2.36
   0   2  17    4.42    2.69
   0  -2 -17    1.51    1.90
   0   2 -17    0.85    2.14
   0  -2 -17    0.81    2.02
   0   2 -17   -0.79    2.30
   0  -2 -18   61.57    7.02
   0   2 -18   68.32    7.39
   0  -2  18   63.16    7.59
   0  -2 -18   74.11    7.50
   0   2 -18   65.24    7.62
   0   2 -19    7.13    3.26
   0   2 -19    5.77    3.51
   0  -2 -19   11.92    3.57
   0  -2  19    6.13    3.64
   0  -2 -19    4.53    2.84
   0   2 -20   16.21    4.46
   0  -2 -20   18.91    4.52
   0  -2  20   19.57    4.87
   0   2 -20   25.36    5.02
   0  -2  21    1.15    2.73
   0  -2 -21    3.81    3.19
   0   2 -21   -1.97    2.61
   0  -2 -22    7.00    3.46
   0   3   0    0.24    0.32
   0   3   1   22.49    1.73
   0   3  -1   28.22    1.96
   0   3   1   26.89    1.78
   0   3   2 1094.29   43.64
   0  -3  -2 1176.95   43.59
   0   3   2 1108.63   43.70
   0   3   2 1097.05   43.59
   0  -3   2 1145.72   43.92
   0  -3  -2 1131.51   43.64
   0   3  -2 1122.48   44.03
   0  -3  -2 1122.08   43.66
   0  -3  -3  505.15   21.13
   0   3   3  484.72   21.01
   0   3   3  547.49   21.11
   0  -3   3  534.48   21.51
   0   3  -3  523.43   21.60
   0  -3  -3  554.62   21.10
   0  -3  -4  171.17    8.10
   0   3  -4  169.35    8.47
   0  -3   4  174.15    8.43
   0  -3  -4  184.80    8.06
   0   3  -4  165.49    8.51
   0   3   4  178.62    7.99
   0   3  -5  469.64   20.91
   0  -3   5  453.50   21.14
   0   3  -5  494.36   21.24
   0  -3   5  512.59   21.05
   0   3   5  528.33   21.09
   0   3   5  483.42   20.30
   0  -3  -5  511.80   20.68
   0  -3   6  359.61   17.27
   0  -3   6  420.25   17.35
   0  -3  -6  392.06   16.80
   0   3   6  360.26   16.31
   0   3   6  382.52   17.11
   0   3  -6  393.47   17.44
   0   3   7 1035.43   41.46
   0   3  -7 1005.72   41.50
   0   3   7  965.51   40.42
   0  -3   7 1063.73   41.55
   0  -3  -7 1015.30   40.98
   0  -3   7  997.66   41.64
   0   3  -8   19.79    2.68
   0  -3   8   25.30    3.06
   0   3   8   15.96    2.22
   0   3   8   19.72    2.69
   0  -3  -8   20.32    2.53
   0  -3   8   21.65    2.76
   0  -3  -9  244.54   11.86
   0   3   9  214.44   11.09
   0   3  -9  241.85   12.41
   0   3   9  230.91   12.12
   0  -3   9  245.48   12.37
   0  -3   9  235.54   12.39
   0  -3  -9  239.49   12.26
   0   3 -10    2.44    1.68
   0   3  10    3.32    1.36
   0   3  10    0.34    1.12
   0  -3 -10    1.91    1.74
   0  -3  10    1.97    1.60
   0  -3  10    1.47    1.53
   0  -3 -10    0.42    1.30
   0  -3  11   66.07    5.67
   0   3  11   59.68    4.69
   0  -3 -11   64.52    5.67
   0   3 -11   55.91    5.42
   0  -3 -11   51.19    4.95
   0  -3  11   68.23    5.88
   0   3  11   60.60    4.94
   0  -3 -12    1.02    1.59
   0  -3 -12   -0.57    1.59
   0   3  12    1.17    1.31
   0  -3  12   -0.60    1.67
   0   3  12    1.24    1.51
   0  -3  12    1.71    1.71
   0   3 -12    0.58    1.81
   0   3  13   -0.45    1.64
   0   3  13    4.21    1.73
   0  -3  13    1.31    2.05
   0   3 -13    0.62    1.65
   0  -3 -13    2.78    1.92
   0  -3  13    0.61    1.68
   0  -3 -13    1.86    1.72
   0   3 -14  109.70    8.60
   0  -3 -14  103.71    8.45
   0   3  14  115.70    7.60
   0  -3  14  107.18    8.51
   0   3  14  102.13    7.55
   0  -3  14  101.23    8.59
   0  -3 -14  123.56    8.60
   0  -3  15    6.95    2.74
   0   3  15    5.75    2.36
   0  -3 -15    1.95    2.38
   0  -3 -15    7.17    2.75
   0   3 -15    5.73    2.55
   0   3  15    0.48    1.67
   0  -3  15    3.43    2.15
   0  -3  16    2.88    2.48
   0   3 -16    1.53    2.21
   0  -3 -16    2.30    2.22
   0  -3  16   -0.83    2.09
   0  -3 -16    1.41    2.04
   0   3 -17    8.93    3.13
   0   3 -17    6.07    3.09
   0  -3 -17    8.16    3.07
   0  -3  17    6.26    3.10
   0  -3 -17   12.88    3.65
   0  -3 -18   19.35    4.35
   0  -3  18   10.54    3.62
   0   3 -18   12.03    4.10
   0   3 -18   11.98    3.73
   0   3 -19   -0.98    2.45
   0  -3 -19   -0.85    2.48
   0  -3  19   -1.02    2.97
   0   3 -19   -0.90    3.12
   0   3 -20   19.57    4.61
   0  -3 -20   19.83    4.39
   0   3 -20   18.05    4.48
   0  -3  20   17.42    4.61
   0  -3 -21    7.56    3.46
   0  -3  21    9.21    3.99
   0   3 -21    8.95    3.73
   0  -4   0 3275.41  123.47
   0   4   0 2984.37  123.57
   0   4   0 3415.95  123.76
   0  -4   0 3262.62  123.47
   0   4   1  113.31    5.70
   0  -4  -1  121.22    5.70
   0   4   1  112.39    5.69
   0  -4   1  117.37    5.67
   0  -4   1  114.67    5.93
   0  -4  -1  114.54    5.49
   0   4  -1  121.21    5.88
   0   4   1  118.41    5.60
   0  -4  -1  117.37    5.54
   0  -4  -1   98.45    5.62
   0   4  -1  112.01    5.84
   0  -4   2 2613.40   95.77
   0   4  -2 2528.59   95.94
   0  -4  -2 2638.61   95.42
   0  -4  -2 2537.01   95.49
   0   4   2 2355.79   95.54
   0   4   2 2300.32   95.32
   0   4  -2 2522.20   96.13
   0  -4  -2 2485.95   95.44
   0  -4  -2 2455.90   95.69
   0  -4   3    1.62    0.79
   0   4   3    0.86    0.54
   0   4   3    1.11    0.64
   0   4   3    0.69    0.59
   0  -4  -3    0.83    0.59
   0   4  -3   -0.23    0.66
   0  -4  -3   -0.15    0.55
   0   4   4  167.31    7.73
   0  -4   4  151.02    8.03
   0   4   4  161.71    7.77
   0  -4  -4  162.18    7.66
   0   4  -4  166.59    8.38
   0   4   4  164.57    7.79
   0  -4  -4  167.10    7.90
   0   4  -5   -0.29    0.84
   0   4   5    0.40    0.61
   0   4   5    0.21    0.62
   0  -4  -5    0.20    0.51
   0   4  -5    0.61    0.77
   0   4   5    0.21    0.67
   0  -4   5    0.27    0.72
   0  -4  -5    0.23    0.82
   0  -4   6 1654.79   67.82
   0  -4   6 1742.88   68.55
   0  -4  -6 1701.09   67.54
   0   4   6 1714.03   67.11
   0   4  -6 1702.09   68.01
   0   4  -6 1718.79   68.24
   0   4   6 1810.26   68.09
   0   4  -7   19.25    2.63
   0   4   7   22.33    2.39
   0   4   7   21.54    2.70
   0  -4  -7   29.94    2.85
   0  -4   7   23.17    2.99
   0  -4   7   25.85    2.86
   0   4   8    1.62    1.18
   0  -4  -8    3.11    1.23
   0  -4   8    0.81    1.02
   0  -4   8    2.72    1.57
   0   4   8    0.28    0.89
   0   4  -8    0.85    1.24
   0   4   9   16.39    2.22
   0  -4   9    9.38    2.27
   0  -4   9   12.67    2.44
   0   4   9    8.54    2.27
   0  -4  -9   12.47    2.16
   0   4  -9   11.74    2.43
   0   4  10  353.07   17.55
   0   4 -10  357.87   17.63
   0  -4  10  335.33   17.70
   0   4  10  354.75   16.43
   0  -4 -10  339.51   16.96
   0  -4  10  373.63   17.77
   0  -4  11  162.53   10.12
   0   4  11  145.38    8.69
   0   4 -11  143.08    9.62
   0  -4  11  147.95    9.67
   0  -4 -11  156.32    9.35
   0  -4  12  264.03   15.01
   0  -4 -12  258.28   14.33
   0  -4  12  311.44   15.71
   0   4 -12  290.40   15.28
   0   4  12  263.45   13.70
   0   4  12  260.75   13.62
   0   4 -13   81.07    7.13
   0   4  13   80.75    6.25
   0  -4  13   80.06    7.11
   0   4  13   97.66    6.41
   0  -4 -13   74.94    6.52
   0  -4  13   72.49    6.79
   0   4  14   64.41    5.60
   0   4 -14   67.30    6.54
   0  -4  14   51.34    5.97
   0  -4  14   67.51    6.67
   0   4  14   66.66    5.48
   0  -4 -14   55.30    5.84
   0   4  15   33.78    4.36
   0  -4 -15   43.92    5.17
   0   4 -15   32.29    4.89
   0  -4  15   41.18    5.39
   0  -4  15   40.38    5.47
   0  -4  16   86.99    8.27
   0  -4 -16   84.40    7.59
   0   4 -16   82.57    7.93
   0  -4  17   10.77    3.62
   0   4 -17    7.43    3.03
   0  -4 -17    9.07    3.05
   0  -4 -18   59.09    6.91
   0  -4  18   74.85    8.06
   0   4 -18   57.55    6.98
   0  -4 -19    0.86    2.27
   0   4 -19   -1.99    2.64
   0  -4  19   -1.02    2.96
   0   4 -19   -1.83    2.86
   0  -4  20   19.51    4.85
   0   4 -20   22.95    5.30
   0  -4 -20   22.62    4.78
   0   4 -20   14.74    4.19
   0  -4 -21    0.95    2.52
   0  -4  21    6.87    4.18
   0   4 -21    1.00    3.63
   0  -5   0    0.17    0.58
   0  -5   0   -0.18    0.50
   0   5   0    0.63    0.71
   0   5   0   -0.21    0.64
   0  -5   0    0.24    0.64
   0  -5   1    5.72    1.05
   0  -5  -1   10.27    1.23
   0  -5  -1    9.31    1.19
   0  -5   1    6.05    1.28
   0   5   1    7.21    1.21
   0   5  -1    4.65    1.09
   0  -5  -1    4.07    0.93
   0   5   1    6.02    1.12
   0   5  -1    4.20    1.10
   0  -5   1    4.64    1.12
   0  -5   2  242.48   10.78
   0   5   2  255.66   10.91
   0  -5   2  205.82   11.03
   0  -5  -2  240.78   10.68
   0  -5  -2  250.94   10.54
   0  -5  -2  236.79   10.91
   0   5   2  220.19   10.49
   0   5  -2  235.09   11.03
   0   5  -2  251.15   11.24
   0  -5  -2  228.35   10.49
   0   5   3   48.29    3.39
   0  -5   3   52.52    3.60
   0  -5  -3   51.91    3.38
   0  -5  -3   55.32    3.36
   0   5   3   48.34    3.27
   0  -5  -3   50.03    3.54
   0   5  -3   53.06    3.92
   0   5  -3   47.29    3.67
   0  -5  -3   51.83    3.35
   0   5   4   14.14    1.68
   0   5   4   14.72    1.68
   0   5  -4   14.99    2.02
   0  -5  -4   15.86    1.79
   0  -5  -4   16.61    1.73
   0  -5   4   10.53    1.61
   0   5   4   12.83    1.71
   0  -5   5   74.72    4.82
   0   5   5   68.64    4.29
   0  -5  -5   70.87    4.30
   0   5   5   67.86    4.37
   0   5  -5   56.40    4.60
   0   5   5   69.42    4.34
   0  -5  -5   72.91    4.55
   0  -5   6   74.12    5.34
   0   5  -6   92.43    5.96
   0   5  -6   77.97    5.65
   0   5   6   94.91    5.36
   0   5   6   82.89    5.12
   0  -5  -6   78.21    5.18
   0   5   6   92.82    5.24
   0  -5   7   34.28    3.53
   0   5  -7   33.58    3.60
   0   5   7   40.35    3.24
   0   5  -7   34.04    3.56
   0  -5  -7   36.49    3.38
   0   5   7   43.30    3.34
   0  -5   7   34.52    3.82
   0   5   7   42.90    3.81
   0   5   8   39.03    3.94
   0  -5  -8   37.71    3.55
   0   5  -8   31.39    3.65
   0  -5   8   37.63    4.06
   0  -5   8   38.76    3.83
   0   5   8   36.48    3.29
   0   5  -9  147.22    9.36
   0   5   9  136.50    8.25
   0   5   9  170.06    9.76
   0  -5  -9  170.55    9.29
   0  -5   9  157.15    9.88
   0  -5   9  159.35    9.46
   0   5  10   19.66    3.23
   0   5 -10   18.52    3.12
   0   5  10   15.78    2.45
   0  -5 -10   19.65    2.86
   0  -5  10   16.80    2.94
   0  -5  10   24.73    3.60
   0   5  11   12.91    2.89
   0   5 -11   10.82    2.69
   0  -5  11   10.46    2.90
   0  -5 -11   14.09    2.55
   0  -5  11   13.47    2.86
   0   5  11   13.27    2.47
   0   5  12    0.42    1.50
   0   5  12    0.61    1.76
   0  -5 -12    1.05    1.64
   0  -5  12   -0.65    1.89
   0   5 -12   -0.61    1.70
   0  -5  12    1.23    1.85
   0   5 -13    3.28    2.20
   0  -5  13   -0.69    2.23
   0  -5  13    3.33    2.30
   0  -5 -13    1.71    1.58
   0   5  13    0.46    1.95
   0   5 -14    3.51    2.50
   0  -5 -14    7.39    2.53
   0  -5  14    9.37    2.96
   0  -5  14    0.73    1.93
   0   5  14    1.97    1.98
   0   5  14    5.66    2.20
   0   5  15   49.02    5.06
   0  -5  15   42.92    5.84
   0  -5 -15   42.36    5.24
   0  -5  15   37.34    5.52
   0   5 -15   55.09    6.02
   0   5 -16   46.62    6.00
   0  -5  16   53.51    6.36
   0  -5 -16   37.12    5.31
   0   5 -17   10.83    3.71
   0  -5  17   11.65    3.37
   0  -5 -17    9.11    3.00
   0  -5  18   21.04    4.65
   0   5 -18   21.06    4.81
   0  -5 -18   15.35    3.77
   0   5 -19    9.22    3.37
   0  -5 -19    4.31    3.16
   0  -5  19   10.18    4.00
   0  -5 -20   26.43    4.91
   0   5 -20   24.13    5.07
   0  -5  20   24.82    5.19
   0  -5  21    1.14    3.02
   0  -6   0 1951.39   73.30
   0  -6   0 1803.43   73.93
   0   6   0 1836.54   73.60
   0  -6   0 1890.74   73.19
   0   6   0 1917.20   73.60
   0  -6   1 4419.12  165.39
   0  -6  -1 4342.92  165.19
   0  -6  -1 4079.07  165.79
   0  -6   1 3951.59  166.16
   0  -6   1 4379.41  166.07
   0   6  -1 4167.74  165.80
   0  -6  -1 4460.28  165.25
   0   6   1 4191.39  165.62
   0   6  -1 4501.58  165.89
   0   6   1 4607.05  165.70
   0  -6   2   53.01    4.11
   0  -6  -2   54.08    3.49
   0   6   2   49.68    3.56
   0   6  -2   47.18    3.76
   0   6  -2   47.71    3.82
   0  -6  -2   48.80    3.75
   0   6   2   52.96    3.75
   0  -6  -2   53.55    3.47
   0  -6   2   49.62    3.57
   0  -6  -2   52.27    3.58
   0  -6  -3  837.28   32.98
   0   6   3  844.62   33.33
   0  -6   3  802.39   34.14
   0   6  -3  797.69   33.67
   0  -6  -3  821.32   33.47
   0  -6  -3  803.02   32.82
   0  -6   3  828.26   33.29
   0  -6  -3  820.59   33.00
   0   6   3  795.49   32.95
   0  -6  -4  280.11   12.29
   0   6  -4  260.04   12.99
   0  -6  -4  260.96   12.71
   0   6   4  281.07   12.63
   0  -6  -4  285.73   12.51
   0  -6   4  251.36   12.53
   0   6  -4  276.36   13.39
   0   6   4  269.35   12.35
   0   6  -5  103.82    6.85
   0  -6  -5  116.57    6.14
   0   6   5  101.28    6.10
   0  -6   5  110.39    6.47
   0   6   5  102.72    6.15
   0   6  -5  115.98    6.94
   0   6   5  110.92    6.10
   0  -6  -5   96.71    6.05
   0  -6  -6  313.14   13.42
   0   6   6  289.36   13.24
   0  -6   6  315.84   14.11
   0   6  -6  297.42   14.32
   0   6   6  278.11   13.34
   0   6   6  292.20   13.42
   0  -6  -6  276.19   13.45
   0   6   7    1.51    1.05
   0   6  -7    1.68    1.27
   0  -6   7    2.02    1.53
   0   6   7    3.72    1.59
   0  -6   7    1.15    1.25
   0   6  -7    2.16    1.14
   0   6   7    0.29    1.12
   0   6   7    1.23    1.15
   0   6  -8  517.24   24.04
   0   6   8  514.38   24.00
   0   6   8  528.87   23.05
   0  -6  -8  564.44   23.78
   0  -6   8  530.69   24.92
   0   6   8  522.55   22.97
   0   6   8  535.89   23.17
   0   6  -8  574.11   24.55
   0  -6   8  503.53   23.74
   0   6   9    3.47    1.54
   0   6   9    1.97    1.65
   0  -6   9    3.47    1.81
   0  -6  -9    1.69    1.28
   0   6   9    2.14    1.27
   0  -6   9    3.72    1.95
   0   6  -9    5.09    1.95
   0   6   9    1.40    1.21
   0  -6  10  264.84   14.15
   0  -6  10  268.91   14.90
   0   6 -10  260.28   14.33
   0   6  10  261.06   13.05
   0   6  10  255.05   14.25
   0   6  10  262.90   13.14
   0  -6 -10  258.76   13.73
   0  -6  11   37.00    4.43
   0   6  11   40.65    4.96
   0  -6 -11   39.50    4.44
   0   6  11   37.70    3.88
   0  -6  11   37.57    4.79
   0   6 -11   50.81    5.14
   0   6  12  364.79   18.02
   0  -6 -12  385.55   19.10
   0  -6  12  401.38   19.71
   0  -6  12  363.11   19.96
   0   6  12  392.20   19.86
   0   6 -12  377.33   19.54
   0   6  13   -0.47    1.71
   0  -6 -13    3.51    2.02
   0   6  13    2.71    2.05
   0  -6  13    4.42    2.54
   0  -6  13    3.32    2.36
   0   6 -13    0.67    2.03
   0   6 -14    6.45    2.96
   0  -6 -14   11.95    3.09
   0  -6  14    5.75    2.57
   0  -6  14   10.80    3.31
   0   6  14   13.60    2.85
   0   6  15    1.62    1.91
   0  -6  15    0.77    2.51
   0   6 -15    1.52    2.54
   0  -6 -15    2.71    2.19
   0  -6  16   74.00    7.77
   0   6 -16   78.72    7.69
   0  -6 -16   74.27    7.17
   0  -6  17    1.78    2.58
   0   6 -17    1.70    2.46
   0  -6 -17    6.19    2.82
   0  -6 -18   51.47    6.53
   0   6 -18   61.43    7.25
   0  -6  18   53.07    7.13
   0  -6  19    2.01    3.37
   0  -6 -19    3.45    3.23
   0   6 -19    0.93    2.81
   0  -6  20   92.64    9.71
   0  -6 -20  110.96    9.93
   0   6 -20   80.89    9.22
   0  -7   0   -0.25    0.98
   0   7   0   -0.31    1.12
   0  -7   0    0.47    0.87
   0  -7   0    1.94    1.15
   0   7   0    0.57    1.07
   0  -7   0    0.72    0.80
   0  -7  -1  678.42   29.14
   0  -7  -1  662.70   28.21
   0  -7   1  639.49   29.44
   0  -7  -1  722.45   28.69
   0  -7   1  747.77   28.58
   0  -7   1  704.54   28.59
   0  -7   1  641.75   29.09
   0   7  -1  641.65   28.79
   0   7   1  720.70   28.81
   0  -7  -1  735.16   28.41
   0   7  -1  690.91   28.88
   0   7   1  671.89   28.78
   0   7   2  145.32    8.07
   0  -7  -2  137.54    8.18
   0   7  -2  133.59    8.10
   0  -7  -2  159.61    7.94
   0  -7   2  143.12    7.76
   0  -7  -2  157.57    7.76
   0  -7  -2  155.74    7.70
   0  -7   2  165.09    8.87
   0   7  -2  151.28    8.28
   0   7  -3   47.58    4.04
   0  -7  -3   45.65    3.53
   0  -7  -3   52.92    3.77
   0   7   3   48.76    3.66
   0  -7   3   46.68    3.67
   0  -7  -3   51.36    4.05
   0  -7  -3   53.57    3.64
   0   7   3   47.71    3.85
   0   7  -3   42.32    3.86
   0  -7   3   58.11    4.62
   0   7  -4    0.38    1.10
   0   7   4   -0.31    0.89
   0  -7  -4    0.54    0.84
   0  -7  -4   -0.27    0.98
   0  -7   4   -0.30    0.91
   0   7  -4   -0.37    1.03
   0  -7  -4    0.66    0.96
   0  -7  -4    0.25    0.89
   0   7   4    0.27    0.75
   0  -7   4   -0.44    1.43
   0  -7  -5   46.47    4.04
   0  -7  -5   50.75    3.79
   0   7  -5   59.30    4.77
   0  -7  -5   48.18    3.87
   0  -7   5   49.96    4.10
   0   7   5   52.54    4.09
   0   7  -5   51.70    4.46
   0   7   5   54.09    3.91
   0   7   6   40.32    3.38
   0   7  -6   35.71    3.73
   0   7  -6   30.31    3.66
   0   7   6   34.18    3.27
   0  -7   6   35.40    3.47
   0   7   6   36.11    3.35
   0  -7  -6   38.47    3.44
   0  -7  -6   38.60    3.27
   0   7   7    2.53    1.41
   0  -7  -7    2.87    1.38
   0   7  -7    5.47    1.71
   0   7   7    2.40    1.26
   0   7   7    5.68    1.59
   0  -7  -7    2.20    1.24
   0   7  -7    4.12    1.76
   0  -7   7    3.60    1.54
   0  -7   8    3.56    1.92
   0   7   8    3.73    1.42
   0  -7   8    1.76    1.28
   0   7   8    3.18    1.39
   0   7  -8    0.97    1.52
   0   7   8    3.86    1.76
   0   7   8    1.44    1.28
   0   7  -8    1.48    1.30
   0   7   9    7.27    2.27
   0   7   9    7.26    2.01
   0  -7   9    9.57    2.28
   0   7  -9    7.71    2.25
   0   7  -9    4.77    1.90
   0  -7   9    8.19    2.54
   0   7   9    4.14    1.72
   0   7   9    7.29    1.90
   0  -7  -9   10.35    2.24
   0  -7  10   51.80    5.68
   0   7  10   44.73    4.34
   0   7  10   59.66    5.66
   0  -7  10   56.71    5.19
   0   7  10   51.17    4.55
   0   7 -10   54.11    5.39
   0  -7 -10   62.70    5.26
   0   7  10   43.35    4.34
   0  -7  11   21.17    3.98
   0  -7 -11   20.60    3.17
   0   7  11   16.88    2.73
   0   7  11   19.79    3.61
   0   7  11   14.57    2.68
   0   7  11   18.16    2.84
   0  -7  11   20.34    3.35
   0   7 -11   18.24    3.33
   0   7  12   36.85    4.13
   0   7  12   38.56    4.14
   0   7  12   52.69    4.71
   0   7 -12   36.99    4.71
   0  -7  12   37.34    4.64
   0  -7 -12   44.63    4.89
   0  -7  12   30.59    5.05
   0   7  12   31.89    4.65
   0   7  13  134.59   10.15
   0   7  13  135.14    9.11
   0   7  13  139.64    8.97
   0  -7  13  127.42   10.45
   0  -7 -13  151.52    9.96
   0   7 -13  145.56   10.32
   0  -7  13  151.88   10.27
   0  -7  14   36.50    5.07
   0   7  14   39.56    4.58
   0   7 -14   46.12    5.66
   0  -7 -14   44.00    5.37
   0  -7 -15    6.23    2.79
   0   7 -15   10.87    3.19
   0  -7  15    5.39    3.04
   0   7 -16    7.36    2.92
   0  -7 -16   11.84    3.40
   0  -7  16    4.95    2.50
   0  -7  17    2.64    2.45
   0  -7 -17    3.91    2.78
   0   7 -17    3.44    2.50
   0   7 -18   76.52    8.05
   0  -7  18   64.65    7.85
   0  -7 -18   60.72    7.06
   0  -7  19   -0.99    3.22
   0   7 -19    0.94    2.94
   0  -7 -19    4.38    2.93
   0  -7  20    5.25    3.73
   0  -8   0  113.83    6.37
   0  -8   0   89.47    6.81
   0   8   0   97.09    6.51
   0  -8   0  103.17    6.12
   0  -8   0  109.51    6.87
   0   8   0  119.31    6.79
   0  -8  -1  437.18   19.35
   0  -8  -1  463.17   20.56
   0  -8   1  440.79   20.45
   0  -8   1  447.69   19.50
   0   8  -1  463.77   20.05
   0   8   1  439.08   20.10
   0  -8   1  451.96   19.71
   0  -8  -1  463.33   19.48
   0   8  -1  438.15   20.18
   0  -8  -1  454.21   19.80
   0  -8   1  422.94   20.64
   0   8  -2 1925.01   74.22
   0  -8  -2 1828.94   73.58
   0  -8   2 1889.00   73.58
   0  -8  -2 1861.14   73.35
   0   8  -2 1818.68   74.30
   0  -8  -2 1894.11   73.40
   0  -8   2 1971.93   74.96
   0  -8  -2 1815.92   74.32
   0   8   2 1862.78   74.13
   0  -8  -3   30.16    2.85
   0  -8   3   19.77    3.17
   0  -8   3   36.18    3.15
   0  -8  -3   30.25    2.90
   0  -8  -3   30.24    3.25
   0   8  -3   27.89    3.12
   0   8  -3   28.16    3.31
   0   8   3   31.55    3.28
   0   8   3   28.11    2.88
   0  -8  -3   26.34    2.87
   0  -8   4  236.92   13.02
   0   8  -4  236.20   12.36
   0  -8   4  244.13   11.83
   0  -8  -4  252.34   11.80
   0  -8  -4  241.49   12.21
   0  -8  -4  223.23   11.43
   0   8   4  234.41   11.68
   0  -8  -4  239.57   11.47
   0   8   4  227.96   11.88
   0   8  -4  235.67   12.38
   0   8   5    8.35    1.99
   0   8  -5    8.84    2.27
   0   8   5    7.31    1.79
   0  -8  -5    9.36    2.01
   0  -8  -5    9.65    1.79
   0  -8   5    7.35    1.90
   0  -8  -5    7.42    1.67
   0   8  -5    5.78    2.06
   0  -8  -6  492.77   21.84
   0   8   6  470.08   21.86
   0   8  -6  515.28   23.49
   0  -8   6  509.63   22.51
   0   8  -6  509.12   23.20
   0   8   6  499.42   22.45
   0  -8  -6  509.21   22.70
   0  -8  -6  536.20   22.40
   0  -8   7   15.43    2.51
   0  -8  -7   18.47    2.64
   0   8   7   12.31    2.17
   0   8   7   16.84    2.57
   0   8   7   18.73    2.68
   0   8  -7   25.27    3.43
   0   8  -7   18.36    3.12
   0  -8  -7   21.32    2.64
   0  -8   8  422.55   19.46
   0   8   8  402.21   18.86
   0   8  -8  405.28   19.95
   0   8   8  389.67   18.80
   0   8  -8  394.64   20.06
   0   8  -8  432.47   20.11
   0   8   8  415.43   18.77
   0  -8  -9  481.32   21.25
   0   8   9  430.22   21.38
   0   8   9  436.73   20.12
   0   8  -9  420.95   21.25
   0   8   9  459.39   20.47
   0  -8   9  423.71   20.83
   0  -8   9  448.28   22.55
   0   8   9  433.39   20.21
   0   8  10  266.90   13.55
   0   8  10  232.65   13.17
   0   8 -10  271.77   14.71
   0   8  10  279.21   13.88
   0   8  10  260.93   14.76
   0  -8  10  263.45   15.51
   0  -8  10  262.61   14.26
   0  -8 -10  270.52   14.23
   0  -8 -11  455.32   21.88
   0   8 -11  440.21   22.34
   0   8  11  449.68   22.58
   0   8  11  440.79   21.06
   0   8  11  456.26   21.14
   0   8  11  453.74   20.90
   0  -8  11  451.53   22.03
   0  -8  11  453.10   23.34
   0   8  12    3.29    1.85
   0   8 -12    7.34    2.69
   0   8  12    3.37    1.94
   0   8  12    8.76    2.28
   0  -8 -12    8.32    2.59
   0  -8  12    1.86    2.15
   0   8  12    6.27    2.68
   0  -8  12    5.57    2.83
   0   8  13  318.31   16.47
   0   8 -13  322.42   17.83
   0   8  13  323.10   16.45
   0  -8 -13  307.47   17.18
   0  -8  13  340.90   17.85
   0   8  14   28.81    3.94
   0  -8  14   26.50    4.48
   0   8 -14   29.12    4.58
   0  -8 -14   22.31    4.05
   0   8  14   28.83    3.87
   0   8  15   58.81    5.81
   0  -8 -15   69.73    6.81
   0  -8  15   65.19    6.93
   0   8 -15   58.40    6.76
   0  -8  16    4.10    2.91
   0   8  16    0.61    1.84
   0   8 -16   -0.83    2.20
   0  -8 -16    4.55    2.69
   0  -8  17    3.49    2.82
   0  -8 -17   -0.80    2.01
   0   8  17    1.29    2.29
   0   8 -17   -0.87    2.42
   0   8  18   50.56    5.65
   0   8 -18   44.61    6.46
   0  -8 -18   32.12    5.55
   0  -8  18   33.34    5.63
   0   8  19    9.33    3.07
   0  -8  19    2.94    2.85
   0  -8  20   11.36    4.43
   0  -9   0   -0.42    1.27
   0  -9   0    1.26    1.23
   0   9   0   -0.73    1.23
   0  -9   0   -0.29    1.05
   0   9   0    0.41    1.27
   0  -9   0    0.49    1.47
   0   9  -1    7.86    2.09
   0  -9  -1    5.54    1.90
   0  -9   1    5.35    1.78
   0   9   1    3.64    1.80
   0  -9  -1    6.96    1.95
   0  -9  -1    5.54    1.70
   0  -9  -1   11.14    1.96
   0  -9   1    4.58    2.01
   0  -9   1    7.12    1.98
   0  -9  -1    2.43    1.36
   0   9  -1    5.88    2.03
   0  -9   1    3.03    1.40
   0  -9  -2   27.11    3.39
   0  -9  -2   31.63    3.23
   0  -9   2   30.43    3.26
   0   9  -2   31.60    3.53
   0  -9  -2   37.21    3.23
   0   9  -2   30.07    3.52
   0   9   2   29.75    3.53
   0  -9   2   24.12    2.84
   0  -9  -2   27.77    2.85
   0  -9   2   29.13    3.70
   0  -9  -3  427.40   18.39
   0  -9   3  446.40   20.24
   0  -9  -3  417.68   18.57
   0   9   3  393.05   18.91
   0   9  -3  388.23   19.21
   0  -9   3  418.32   18.51
   0  -9  -3  389.81   18.16
   0   9  -3  409.56   19.14
   0  -9  -3  407.27   19.30
   0   9  -4    0.44    1.42
   0  -9  -4    0.34    1.29
   0  -9  -4    0.65    1.19
   0   9  -4    0.46    1.59
   0   9   4    1.63    1.56
   0  -9  -4    0.93    1.19
   0  -9   4   -0.35    1.17
   0   9   4    1.05    1.17
   0  -9   4    2.20    1.84
   0  -9  -4    1.74    1.45
   0  -9  -5  182.74   10.02
   0  -9  -5  191.74    9.88
   0  -9   5  212.68   10.49
   0  -9  -5  181.81   10.62
   0   9   5  190.36   10.54
   0   9  -5  188.54   10.98
   0   9   5  176.37    9.96
   0   9  -5  185.56   10.85
   0  -9   5  201.54   11.89
   0   9  -6    0.51    1.53
   0   9   6   -0.42    1.61
   0   9   6   -0.37    1.30
   0   9  -6    0.51    1.87
   0  -9   6    3.18    1.63
   0  -9  -6   -0.33    1.25
   0  -9  -6    0.76    1.23
   0  -9  -6    4.52    1.73
   0  -9   7  566.74   25.78
   0  -9  -7  585.29   25.24
   0   9  -7  579.29   26.72
   0  -9  -7  567.60   26.08
   0   9   7  590.90   25.94
   0   9   7  549.50   25.36
   0  -9  -7  619.27   25.96
   0   9  -7  599.68   26.95
   0   9   8    3.58    1.76
   0   9  -8    4.70    2.51
   0  -9  -8    2.66    1.67
   0   9  -8    2.80    1.88
   0  -9   8    9.74    2.33
   0  -9  -8    2.68    1.70
   0   9   8    3.16    1.48
   0   9  -9  171.58   10.41
   0  -9   9  153.92    9.63
   0   9  -9  162.53   10.51
   0   9   9  139.57    9.05
   0   9   9  145.59    9.06
   0   9   9  142.22    8.82
   0   9  -9  161.88   10.20
   0   9   9  140.33    9.83
   0  -9   9  150.74   10.85
   0   9 -10    9.11    2.67
   0  -9  10    8.50    2.92
   0   9  10   11.94    3.00
   0   9  10    7.48    2.12
   0   9 -10    7.89    2.72
   0  -9  10   11.35    2.62
   0   9  10   11.96    2.55
   0  -9 -10    9.85    2.62
   0   9 -10   13.52    3.11
   0   9  10    9.57    2.46
   0  -9  11   40.87    4.74
   0   9  11   46.25    4.48
   0   9  11   43.17    4.48
   0   9  11   44.64    5.50
   0  -9 -11   39.53    4.77
   0   9 -11   42.81    5.07
   0   9  11   34.99    4.05
   0   9  12    0.50    1.98
   0   9  12    0.98    1.59
   0   9 -12    0.68    1.72
   0  -9  12    1.89    1.90
   0  -9 -12    0.62    1.81
   0   9  13   10.07    2.64
   0  -9  13    5.41    2.66
   0   9 -13    5.07    2.58
   0  -9 -13    5.97    2.79
   0   9  14   17.33    3.39
   0   9 -14   15.24    3.59
   0  -9 -14   11.34    3.19
   0  -9  14   16.59    3.51
   0  -9 -15    1.48    2.48
   0   9 -15    1.61    2.33
   0   9  15    5.31    2.10
   0  -9  15    5.39    2.74
   0   9  16    6.83    2.77
   0  -9  16   12.32    3.38
   0  -9 -16    6.99    2.78
   0   9 -16   13.51    3.62
   0   9  17    0.65    1.89
   0  -9  17    3.49    2.83
   0   9 -17   -0.88    2.77
   0  -9 -17   -0.82    2.38
   0  -9 -18    1.73    3.16
   0  -9  18    4.62    3.86
   0 -10   0  433.61   19.47
   0  10   0  437.46   19.94
   0  10   0  411.13   20.19
   0 -10   0  431.22   21.09
   0 -10   0  431.84   19.23
   0 -10   0  445.34   20.60
   0 -10   1  378.12   16.82
   0  10  -1  378.07   17.23
   0 -10  -1  379.25   17.59
   0 -10  -1  343.79   16.79
   0 -10   1  366.12   16.47
   0  10   1  332.71   17.15
   0 -10   1  358.18   17.70
   0 -10  -1  346.48   17.82
   0 -10   1  332.18   17.99
   0 -10  -1  364.86   16.50
   0  10  -1  327.94   17.28
   0 -10  -1  344.58   16.23
   0 -10   2   38.16    3.62
   0 -10  -2   40.10    3.88
   0 -10   2   46.61    4.79
   0 -10  -2   40.19    3.67
   0  10  -2   37.70    4.14
   0 -10  -2   40.02    3.65
   0  10  -2   39.69    4.20
   0 -10   2   38.28    3.83
   0  10   2   41.16    4.16
   0 -10  -2   37.31    4.22
   0 -10   3  124.95    7.62
   0 -10   3  119.92    7.81
   0 -10  -3  137.76    8.67
   0  10  -3  106.39    7.83
   0 -10  -3  138.39    7.64
   0 -10   3  119.58    8.72
   0 -10  -3  139.20    7.93
   0  10  -3  136.47    8.61
   0  10   3  124.74    8.25
   0 -10  -3  132.94    7.67
   0  10  -4   37.95    4.19
   0 -10  -4   40.96    4.21
   0 -10   4   34.00    4.52
   0 -10  -4   37.95    3.51
   0 -10   4   41.78    3.89
   0 -10  -4   38.58    3.70
   0  10   4   38.22    4.15
   0  10  -4   37.66    4.20
   0 -10  -4   35.33    3.69
   0 -10  -5  165.65    9.45
   0 -10   5  166.04    9.58
   0 -10  -5  170.96    9.34
   0  10   5  161.81    9.95
   0  10  -5  195.04   10.72
   0  10  -5  180.77   10.75
   0 -10   5  162.77   11.15
   0 -10  -5  172.77   10.34
   0  10   5  166.13    9.54
   0  10   6  519.33   25.24
   0 -10  -6  567.00   25.04
   0  10   6  584.29   25.06
   0 -10   6  583.45   27.34
   0 -10  -6  555.37   25.64
   0  10  -6  582.65   26.24
   0 -10   6  560.05   25.05
   0 -10  -6  552.45   24.50
   0  10  -6  562.72   25.95
   0  10   7  169.90   10.38
   0 -10  -7  183.51   10.87
   0  10  -7  178.11   11.14
   0  10  -7  175.12   11.04
   0 -10   7  194.72   10.62
   0  10   7  159.44    9.87
   0 -10  -7  183.70   10.39
   0 -10  -7  190.42   10.06
   0  10   8    1.00    1.56
   0  10  -8    1.20    2.07
   0 -10  -8   -0.81    1.59
   0  10   8    2.99    1.79
   0 -10   8    0.95    1.69
   0 -10  -8    0.47    1.53
   0 -10  -8   -0.53    1.95
   0  10  -8    2.46    1.99
   0  10   9   14.25    2.77
   0  10   9   14.02    3.51
   0  10  -9   18.48    3.63
   0  10  -9   18.24    3.46
   0 -10   9   15.87    2.90
   0  10   9   10.27    2.78
   0 -10  -9   21.51    3.44
   0  10  -9   16.74    3.53
   0  10 -10  255.19   14.39
   0  10  10  227.79   12.77
   0 -10 -10  232.58   13.74
   0  10  10  241.26   13.09
   0  10 -10  233.14   14.09
   0 -10  10  257.23   13.79
   0  10 -11   31.43    4.48
   0  10  11   27.01    3.57
   0 -10 -11   20.26    3.71
   0 -10  11   37.22    4.60
   0 -10  12   68.30    6.47
   0 -10 -12   74.91    6.83
   0  10  12   59.49    5.64
   0  10 -12   72.89    6.96
   0  10  12   62.56    5.84
   0  10  13   10.91    2.69
   0  10  13    8.92    2.71
   0 -10  13    8.76    2.73
   0  10 -13   12.73    3.45
   0 -10 -13   11.10    3.15
   0 -10 -14   25.01    4.49
   0 -10  14   31.71    4.80
   0  10 -14   38.37    5.51
   0  10  14   41.89    4.74
   0 -10  15    0.77    2.14
   0  10  15    2.43    2.10
   0 -10 -15   -1.55    2.15
   0  10 -15   -0.82    2.57
   0 -10  16   37.76    5.49
   0  10  16   45.19    5.18
   0 -10 -16   36.24    5.44
   0  10 -16   27.50    4.91
   0 -10  17   16.53    4.21
   0 -10 -17   16.01    4.19
   0  10  17    7.99    2.93
   0 -11   0   -0.63    1.74
   0 -11   0   -0.35    1.10
   0  11   0   -0.45    1.40
   0  11   0    0.52    1.56
   0 -11   0    1.06    1.60
   0 -11   0    1.52    1.46
   0  11   1   33.80    4.06
   0 -11  -1   33.96    4.42
   0 -11   1   47.18    5.18
   0 -11  -1   36.93    3.63
   0 -11  -1   39.13    4.31
   0 -11   1   43.83    4.78
   0  11  -1   39.09    4.44
   0 -11   1   36.42    3.62
   0 -11  -1   42.26    4.17
   0 -11   1   42.53    4.01
   0 -11  -1   41.79    3.82
   0  11   2    5.66    2.04
   0 -11  -2   12.95    2.58
   0 -11   2    6.31    1.88
   0  11  -2   11.21    2.46
   0 -11   2    6.99    1.97
   0 -11  -2    6.09    1.58
   0 -11  -2    9.86    2.67
   0 -11  -2   13.24    2.37
   0 -11  -2    5.78    1.76
   0 -11   2    5.36    2.25
   0  11  -2    8.61    2.44
   0 -11   3   -0.38    1.23
   0 -11  -3    0.37    1.24
   0 -11  -3   -0.57    1.42
   0  11  -3    2.42    1.57
   0 -11  -3    2.04    1.53
   0  11  -3    0.55    1.72
   0  11   3    0.51    1.42
   0 -11   3    1.90    1.98
   0 -11  -3    0.72    1.17
   0 -11   3    0.44    1.28
   0 -11  -4    1.23    1.41
   0 -11  -4    4.46    1.92
   0 -11  -4    2.21    1.31
   0  11   4    1.55    1.73
   0  11  -4    1.01    1.63
   0  11  -4   -0.56    1.69
   0 -11   4    0.67    1.85
   0 -11  -4    1.17    1.30
   0 -11   4   -0.40    1.32
   0  11  -5  163.58   10.85
   0 -11   5  191.64   10.22
   0 -11  -5  189.35   10.20
   0 -11  -5  171.73   10.86
   0 -11   5  189.14   12.11
   0 -11  -5  161.33    9.55
   0  11  -5  191.00   11.05
   0  11   5  175.45   10.69
   0  11  -6    0.56    1.75
   0 -11   6    1.75    1.68
   0 -11  -6    1.76    1.42
   0  11   6    1.32    1.52
   0 -11  -6   -0.39    1.29
   0  11   6    1.05    1.97
   0 -11  -6    0.56    1.88
   0  11  -6   -0.60    2.07
   0 -11   6    0.74    1.87
   0 -11  -7  197.15   10.93
   0 -11  -7  172.98   10.08
   0 -11   7  168.29   12.26
   0 -11  -7  185.41   11.37
   0  11   7  202.36   11.44
   0  11  -7  166.74   11.25
   0 -11   7  202.21   10.94
   0  11   7  188.19   10.68
   0  11  -7  179.50   11.46
   0  11   8  220.93   12.77
   0  11  -8  225.55   13.94
   0 -11  -8  235.30   13.23
   0 -11   8  255.51   13.48
   0 -11  -8  248.14   13.86
   0 -11  -8  271.11   13.07
   0  11   8  244.97   13.70
   0 -11  -9    1.21    1.89
   0  11  -9    0.66    2.14
   0 -11   9    1.04    2.09
   0  11   9    4.31    2.04
   0 -11 -10    6.24    2.22
   0  11  10    0.99    1.61
   0 -11  10    0.56    1.62
   0  11 -10    2.72    2.13
   0  11  11   48.70    5.13
   0 -11  11   65.51    6.02
   0 -11 -11   65.21    6.13
   0 -11 -11   60.58    6.01
   0  11  12   15.73    3.17
   0 -11  12   11.45    3.25
   0  11 -12   20.50    3.75
   0 -11 -12   17.11    3.71
   0 -11 -13   -0.72    2.27
   0  11 -13   -0.79    2.73
   0 -11  13   -0.68    2.28
   0 -11 -14    2.29    2.48
   0 -11  14    0.72    2.26
   0  11 -14   -0.82    2.28
   0 -11 -15   20.23    4.60
   0 -11  15   15.31    3.86
   0  11  15   20.31    3.71
   0  11 -15   22.21    4.41
   0 -11  16    1.62    2.54
   0 -11 -16    0.84    2.53
   0  12   0    0.58    1.61
   0 -12   0    1.44    1.55
   0 -12   0   -0.41    1.34
   0 -12   0    1.77    1.85
   0 -12   0   -0.38    1.23
   0 -12   0    0.70    1.65
   0  12  -1   81.30    6.31
   0 -12   1   55.58    6.03
   0 -12  -1   80.56    6.62
   0 -12  -1   76.93    6.06
   0 -12  -1   77.58    5.52
   0 -12   1   79.13    5.76
   0  12   1   84.91    6.79
   0 -12   1   76.40    5.57
   0 -12  -1   74.76    5.54
   0 -12  -1   58.69    6.19
   0  12  -1   61.25    6.08
   0  12   2  143.13    9.71
   0 -12  -2  142.85   10.01
   0 -12  -2  148.98    9.04
   0 -12  -2  147.26    8.50
   0  12  -2  149.00    9.33
   0 -12  -2  137.42    8.34
   0 -12   2  148.57   10.20
   0 -12  -2  137.38    9.32
   0  12  -2  143.26    9.67
   0 -12   2  138.30    8.41
   0 -12   2  142.31    8.89
   0  12  -3   39.66    4.54
   0 -12  -3   39.33    3.97
   0 -12  -3   45.34    5.04
   0 -12   3   45.05    5.52
   0 -12   3   44.34    4.24
   0 -12  -3   50.27    4.30
   0 -12  -3   48.71    4.60
   0 -12   3   37.55    4.27
   0  12   3   46.92    5.01
   0  12  -3   41.54    5.02
   0 -12   4   17.12    2.75
   0  12  -4   18.91    3.24
   0 -12  -4   18.95    2.90
   0 -12  -4   19.24    3.18
   0  12  -4   17.72    3.26
   0 -12  -4   13.82    2.96
   0 -12  -4   19.11    2.73
   0 -12   4   14.99    2.94
   0  12   4   24.14    3.79
   0 -12   4   19.70    3.77
   0 -12  -5    3.63    1.69
   0 -12   5    3.92    1.75
   0  12  -5    3.77    2.04
   0  12   5    0.58    1.68
   0 -12  -5    0.62    1.73
   0 -12  -5    1.78    1.49
   0 -12   6   40.13    4.32
   0  12   6   31.00    4.25
   0 -12  -6   25.10    3.32
   0 -12  -6   36.87    4.03
   0 -12  -6   33.70    4.51
   0  12  -6   35.64    4.64
   0  12   7   21.51    3.27
   0 -12   7   22.07    3.29
   0 -12  -7   17.64    3.51
   0  12  -7   21.39    3.84
   0 -12  -7   27.14    3.64
   0 -12  -7   20.86    2.94
   0  12  -8  102.97    8.48
   0  12   8   99.48    7.38
   0 -12  -8  105.96    7.25
   0 -12   8   98.70    7.50
   0 -12  -8  118.36    8.05
   0 -12  -8  101.51    8.16
   0  12   9  116.90    8.30
   0 -12  -9  122.41    9.07
   0  12  -9  129.82    9.59
   0 -12   9  123.01    8.55
   0 -12 -10   93.21    7.80
   0  12 -10   89.17    8.07
   0  12  10   91.67    7.10
   0 -12  10   82.52    7.12
   0 -12 -11  129.10    9.85
   0 -12  11  125.17    9.18
   0  12 -11  118.12    9.88
   0 -12 -11  142.63    9.98
   0  12  11  138.10    9.18
   0 -12 -12   41.80    5.42
   0 -12 -12   34.63    5.19
   0 -12 -13    2.24    2.33
   0 -12 -13   -0.76    2.01
   0 -12 -14   74.15    7.48
   0 -12 -14   65.52    7.29
   0 -12  14   66.89    6.90
   0 -12 -15   34.33    5.58
   0 -13   0   -3.07    2.22
   0 -13   0    0.44    1.62
   0 -13   0   -0.41    1.45
   0  13   0   -0.64    1.93
   0 -13   0   -0.52    1.85
   0 -13  -1   52.70    4.74
   0  13  -1   57.68    5.80
   0 -13  -1   49.84    4.59
   0 -13   1   48.46    4.71
   0 -13  -1   47.46    5.38
   0  13   1   56.96    5.86
   0 -13  -1   52.02    5.14
   0 -13   1   62.66    4.94
   0 -13  -1   57.02    6.46
   0 -13  -2   43.25    5.03
   0 -13   2   45.54    4.63
   0 -13  -2   40.66    4.11
   0 -13  -2   46.60    5.67
   0 -13  -2   51.75    4.88
   0  13  -2   45.72    5.20
   0 -13  -2   37.73    4.08
   0  13   2   37.16    4.90
   0 -13   2   41.92    4.13
   0 -13  -3   31.25    4.27
   0  13   3   27.10    4.19
   0 -13   3   37.31    3.96
   0 -13  -3   41.04    3.99
   0 -13  -3   29.11    3.55
   0 -13  -3   29.18    3.89
   0 -13  -3   30.90    4.57
   0  13  -3   23.02    3.88
   0 -13   3   34.84    4.12
   0 -13   4   40.78    4.83
   0 -13   4   47.51    4.65
   0 -13  -4   48.23    4.65
   0 -13  -4   45.70    5.53
   0  13   4   43.85    5.22
   0 -13  -4   49.14    4.44
   0 -13  -4   47.30    4.72
   0  13  -4   39.19    4.99
   0  13  -5   21.11    3.85
   0 -13   5   17.31    2.92
   0 -13  -5   21.95    3.10
   0 -13  -5   14.63    3.42
   0 -13  -5   20.56    3.26
   0 -13   5   19.49    3.34
   0 -13  -6   -0.51    1.75
   0  13  -6    0.70    2.26
   0 -13   6    0.47    1.86
   0 -13  -6    0.44    1.51
   0 -13  -6    2.77    2.00
   0 -13  -7   38.72    4.29
   0 -13   7   47.27    4.87
   0 -13  -7   52.16    5.87
   0  13  -7   46.58    5.60
   0 -13  -7   46.70    5.01
   0 -13   8    5.22    2.14
   0  13  -8    2.20    2.30
   0 -13  -8    2.11    2.20
   0 -13  -8    3.98    2.18
   0 -13  -8    1.41    1.72
   0  13   8    2.67    1.95
   0 -13  -9   12.18    3.51
   0 -13   9    8.78    2.74
   0  13  -9    6.71    2.81
   0  13   9   11.00    2.74
   0 -13  10   36.45    4.62
   0 -13 -10   26.99    4.60
   0 -13 -11    6.00    3.08
   0 -13 -11    5.15    2.76
   0 -13  11    8.57    2.91
   0 -13  12   39.30    4.87
   0 -13 -12   35.68    5.28
   0 -13 -12   27.88    4.93
   0 -13 -13    8.79    3.55
   0 -13 -13    6.35    3.27
   0 -13 -14   -2.50    2.51
   0 -14   0   77.89    5.97
   0  14   0   62.76    6.71
   0 -14   0   63.43    7.22
   0 -14   0   72.44    6.56
   0 -14   0   75.83    6.03
   0 -14  -1  143.77    9.06
   0 -14   1  133.81    9.06
   0  14   1  146.86   10.59
   0  14  -1  137.97   10.28
   0 -14  -1  148.77    9.03
   0 -14  -1  152.78    9.78
   0 -14   1  153.46    9.04
   0 -14  -1  162.66   11.55
   0 -14  -2   47.40    5.34
   0  14  -2   43.98    5.59
   0 -14  -2   47.03    4.70
   0 -14   2   48.27    4.55
   0 -14   2   54.26    5.06
   0 -14  -2   51.21    4.78
   0 -14  -2   54.17    6.53
   0 -14  -3   29.70    5.06
   0 -14   3   24.22    3.63
   0  14  -3   22.84    4.03
   0 -14  -3   29.38    3.77
   0 -14  -3   35.17    4.06
   0 -14   3   32.90    4.17
   0 -14  -3   34.15    4.34
   0 -14   4   17.92    3.25
   0 -14  -4   19.45    3.41
   0 -14  -4   17.61    3.18
   0 -14   4   18.05    3.12
   0  14  -4   14.41    3.73
   0 -14  -4   19.09    3.14
   0 -14  -4   14.12    3.88
   0 -14   5   83.33    6.45
   0 -14  -5   80.84    6.18
   0  14  -5   74.93    7.37
   0 -14  -5   80.63    6.49
   0 -14  -5   62.34    6.93
   0 -14   5   80.08    6.90
   0  14  -6   30.02    4.97
   0 -14   6   44.18    5.08
   0 -14   6   44.35    4.61
   0 -14  -6   26.83    3.76
   0 -14  -6   48.35    5.90
   0 -14  -6   33.55    4.27
   0 -14  -7   52.10    5.13
   0 -14   7   46.73    5.66
   0 -14  -7   53.78    5.66
   0  14  -7   49.06    6.18
   0 -14  -7   65.89    6.84
   0 -14  -8    5.91    2.14
   0 -14  -8    6.95    2.89
   0 -14   8    1.07    2.05
   0 -14  -8    3.01    2.20
   0 -14  -9   84.16    8.07
   0 -14   9   91.78    7.31
   0 -14 -10   -1.59    2.48
   0 -14  10    0.59    1.96
   0 -14 -11   38.01    5.88
   0 -14 -12   -4.82    2.69
   0 -14 -13   10.83    3.90
   0 -15   0    1.50    1.83
   0 -15   0    0.47    1.61
   0 -15   1   -0.93    1.69
   0 -15   1    0.52    1.68
   0 -15  -1    0.47    1.72
   0 -15  -1   -0.90    2.72
   0 -15  -1   -0.49    1.58
   0 -15   2    1.60    1.78
   0 -15  -2   -1.80    2.71
   0 -15  -2   -0.49    1.82
   0 -15   2    0.47    1.74
   0 -15  -2   -0.48    1.76
   0 -15  -3    8.57    2.40
   0 -15  -3   10.67    3.58
   0 -15   3    5.16    2.02
   0 -15  -3    8.19    2.33
   0 -15   3    7.78    2.48
   0 -15   4    2.33    2.34
   0 -15  -4    0.48    1.70
   0 -15  -4    0.87    2.53
   0 -15  -4    0.52    1.64
   0 -15   4   -0.48    1.66
   0 -15   5   -0.61    1.85
   0 -15  -5    0.86    2.15
   0 -15  -5   -0.48    1.76
   0 -15   5    0.50    1.67
   0 -15  -5    0.55    2.00
   0 -15   6    7.14    2.52
   0 -15  -6   16.54    3.15
   0 -15   6    8.95    2.81
   0 -15  -6    6.78    3.11
   0 -15  -6   16.74    3.47
   0 -15   7   -2.01    2.69
   0 -15   7   -0.53    1.87
   0 -15  -7    4.22    2.64
   0 -15  -7   -0.61    2.09
   0 -15   8    1.09    1.83
   0 -15  -8    5.08    2.84
   0 -15   8    3.49    3.09
   0 -15  -8    3.18    2.32
   0 -15  -9   34.91    5.72
   0 -15 -12    2.54    2.46
   0 -16   0   -0.50    1.61
   0 -16   0    0.52    1.58
   0 -16  -1   62.81    5.75
   0 -16   1   74.44    6.31
   0 -16   1   69.99    5.93
   0 -16  -1   74.08    6.22
   0 -16  -2    3.13    1.96
   0 -16   2    2.80    2.40
   0 -16  -2    4.88    2.95
   0 -16   2    6.88    2.26
   0 -16   3   36.62    4.15
   0 -16   3   24.92    3.86
   0 -16  -3   30.24    4.07
   0 -16  -3   29.18    5.39
   0 -16  -4   -0.96    2.78
   0 -16  -4    2.25    2.05
   0 -16   4    2.00    1.92
   0 -16   4    3.02    1.96
   0 -16  -5   64.38    7.58
   0 -16   5   55.67    5.88
   0 -16  -5   51.57    5.53
   0 -16   5   49.52    5.08
   0 -16  -6   66.30    6.35
   0 -16  -6   56.91    7.51
   0 -16   6   65.72    6.63
   0 -16  -7   80.44    7.23
   0 -16   7   81.80    7.50
   0 -16  -7   73.19    8.19
   0 -16   8   20.98    4.31
   0 -16   9   18.13    4.00
   0 -16  10   51.81    6.43
   0 -17   0    0.53    1.71
   0 -17   1    3.12    1.99
   0 -17  -1    3.25    1.76
   0 -17  -2    3.90    2.29
   0 -17   2    4.67    2.04
   0 -17  -3    4.03    2.37
   0 -17  -4   16.77    3.31
   0 -17  -5    6.86    2.96
   0 -17  -6   -0.65    2.44
   1   0 -21   -0.87    2.52
   1   0 -20   26.39    4.66
  -1   0  20   34.24    6.21
   1   0 -19   -1.56    2.06
  -1   0  19   -1.07    2.69
  -1   0  18   70.44    8.16
  -1   0  18   71.58    6.76
   1   0 -18   52.95    6.12
   1   0 -17   -0.69    2.16
  -1   0  17    0.62    1.55
  -1   0  17   -0.94    2.84
  -1   0  16  380.35   19.71
   1   0 -16  379.66   20.16
  -1   0  16  433.63   22.46
  -1   0  15    1.10    1.71
   1   0 -15   -0.60    1.73
   1   0 -14    0.55    1.73
  -1   0  14   -0.51    1.92
   1   0 -13   -0.51    1.69
  -1   0  13   -0.47    1.86
  -1   0  12  282.35   14.75
   1   0 -12  313.12   15.29
   1   0 -11   -0.41    1.09
  -1   0  11   -0.78    1.18
   1   0 -10   29.35    3.68
   1   0 -10   32.05    3.38
  -1   0  10   35.86    3.39
   1   0  -9    0.44    1.33
   1   0  -9   -0.65    1.02
  -1   0   9    0.31    0.87
  -1   0   8  173.45    8.88
   1   0  -8  177.16    9.70
   1   0  -8  171.13    8.89
  -1   0   7    1.65    0.79
   1   0  -7   -0.24    0.57
   1   0  -7    1.71    1.11
   1   0  -6  129.91    6.70
   1   0  -6  144.28    7.55
  -1   0   6  134.47    6.75
   1   0  -5    0.24    0.68
  -1   0   5    0.16    0.44
  -1   0   4 2976.73  115.76
   1   0  -4 2962.10  115.72
   1   0  -4 3266.51  116.65
   1   0  -3    0.15    0.33
  -1   0   3    0.49    0.25
   1   0  -2  125.28    5.88
   1   0   2 3977.23  160.07
   1   0   2 4383.02  159.82
   1   0   3    0.33    0.31
   1   0   4 8725.84  330.80
  -1   0  -5   -0.27    0.86
   1   0   5    0.71    0.60
   1   0   6 2094.41   86.41
  -1   0  -6 2363.58   86.95
   1   0   7   -0.33    1.17
  -1   0  -7   -0.35    0.79
   1   0   8 1922.12   78.43
  -1   0  -8 2051.48   78.83
   1   0   9    0.41    1.29
  -1   0  -9    0.45    1.12
  -1   0 -10  842.51   36.12
   1   0  10  845.77   35.79
  -1   0 -10  817.23   35.71
   1   0  11   -0.99    1.49
  -1   0 -11   -1.64    1.44
  -1   0 -11    0.52    1.30
   1   0  12    3.20    1.73
  -1   0 -12    4.55    1.96
  -1   0 -12    1.19    1.65
   1   0  13    0.57    1.85
  -1   0 -13    0.62    1.72
  -1   0 -13   -0.64    1.70
  -1   0 -14 1147.83   50.85
  -1   0 -14 1203.91   51.32
   1   0  14 1193.85   48.66
   1   0  14 1190.97   50.48
  -1   0 -15    0.74    2.25
   1   0  15    0.88    1.65
  -1   0 -15   -0.72    2.18
   1   0  15    0.65    2.11
  -1   0 -16  127.22    9.98
   1   0  16  137.07    8.53
   1   0  16  109.56    8.96
  -1   0 -16  107.29    9.20
  -1   0 -17    0.82    1.95
  -1   0 -17    0.84    2.12
  -1   0 -18   40.36    5.94
  -1   0 -18   46.04    6.25
  -1   0 -19   -4.57    2.96
  -1   0 -19    0.95    2.88
  -1   0 -20   -0.96    2.27
  -1   0 -20   -3.02    3.15
   1   0  21   -3.37    2.97
  -1   0 -21    1.06    2.66
   1  -1 -21   21.43    4.63
   1   1 -21   28.95    5.22
  -1  -1  20    7.98    3.70
   1  -1 -20    4.08    2.56
  -1   1  20    4.57    3.31
   1   1 -20    1.68    2.53
   1   1 -19    0.79    2.30
  -1  -1  19   -2.15    2.84
  -1   1  19    2.15    2.98
   1  -1 -19   -1.54    2.41
  -1  -1  18    2.02    2.53
   1   1 -18   -0.75    2.58
   1  -1 -18   -1.45    2.51
  -1  -1  18   -0.68    2.68
  -1   1  18   -0.62    1.94
  -1  -1  17    1.89    2.74
   1   1 -17    0.70    2.12
  -1  -1  17    1.31    2.04
   1  -1 -17   -0.68    2.05
   1   1 -16   62.29    6.24
   1  -1 -16   68.88    6.41
  -1   1  16   56.87    5.72
  -1  -1  16   61.90    6.12
  -1  -1  16   66.04    7.27
   1  -1 -15   88.08    6.95
  -1   1  15   77.22    6.41
  -1  -1  15   71.42    6.44
   1   1 -15   69.55    6.53
  -1  -1  15   85.06    7.90
  -1   1  14   99.28    7.43
   1   1 -14  108.95    8.01
   1  -1 -14  103.11    7.78
  -1  -1  14  113.87    8.16
   1   1 -13  263.05   14.07
  -1  -1  13  266.50   13.91
   1  -1 -13  240.39   13.55
  -1  -1  13  273.04   15.42
  -1   1  13  254.28   13.50
   1  -1 -12   13.43    2.51
  -1  -1  12   11.92    2.39
  -1  -1  12   14.81    3.09
  -1   1  12   15.20    2.62
   1   1 -12   19.48    2.89
   1   1 -12    9.48    2.48
  -1   1  11    4.48    1.50
  -1  -1  11   -0.42    1.32
   1   1 -11    3.02    1.49
  -1  -1  11    4.12    1.91
   1   1 -11    6.49    2.03
   1  -1 -11    3.63    1.47
  -1  -1  10  516.51   23.20
  -1   1  10  513.05   22.84
   1   1 -10  529.07   23.28
   1  -1 -10  537.84   23.14
  -1  -1  10  522.04   24.46
  -1  -1   9  107.62    7.33
  -1  -1   9  104.93    6.53
   1   1  -9   99.96    6.36
   1  -1  -9   96.28    6.13
  -1   1   9  105.52    6.23
   1  -1  -8    6.58    1.76
   1   1  -8    6.05    1.36
  -1  -1   8    4.31    1.50
   1  -1  -8    6.22    1.41
  -1  -1   8    4.90    1.33
  -1   1   8    7.98    1.49
   1   1  -7   84.83    5.13
   1  -1  -7   94.24    5.78
  -1  -1   7   72.22    4.94
  -1   1   7   83.76    4.86
  -1  -1   7   80.45    5.71
   1  -1  -7   83.81    4.89
  -1  -1   6   -0.33    1.00
  -1   1   6    1.06    0.55
   1  -1  -6    0.18    0.51
   1  -1  -6   -0.29    0.87
  -1  -1   6   -0.23    0.67
   1   1  -6   -0.22    0.49
  -1   1   5  456.94   18.24
   1  -1  -5  439.26   19.11
   1  -1  -5  443.62   18.26
   1   1  -5  459.03   18.61
  -1  -1   5  438.44   18.69
  -1   1   4 1070.39   38.98
   1   1  -4 1024.95   39.37
   1  -1  -4  990.03   38.95
   1  -1  -4 1057.46   39.90
  -1  -1   4  989.71   39.49
   1  -1  -3 2134.97   78.14
  -1   1   3 2027.20   77.14
  -1  -1   3 1950.28   77.72
  -1  -1   2 2136.05   81.53
   1   1   2 3142.68  117.40
   1  -1   2 3052.48  117.91
  -1  -1  -2 3049.51  117.29
   1   1   3 7329.88  273.25
  -1  -1  -3 7043.76  273.53
   1   1   4  245.78    9.88
  -1  -1  -4  242.17   10.30
  -1  -1  -5 1730.94   67.15
   1   1   5 1713.59   66.48
  -1  -1  -5 1720.22   67.43
  -1   1  -6 1502.40   59.69
  -1  -1  -6 1590.44   59.31
   1   1   6 1460.17   58.26
   1   1   6 1396.43   59.08
  -1  -1  -6 1569.24   59.50
  -1   1  -7  536.20   23.56
  -1  -1  -7  522.97   23.04
   1  -1   7  517.46   23.19
   1   1   7  540.12   23.10
   1   1   7  541.75   22.10
  -1  -1  -7  533.50   23.28
  -1  -1  -8  471.72   20.62
  -1  -1  -8  448.55   20.26
   1  -1   8  405.60   20.21
  -1   1  -8  495.51   21.00
   1   1   8  449.55   20.24
   1   1   8  441.95   19.16
   1   1   9    5.13    1.37
  -1   1  -9    3.25    1.79
   1   1   9    3.59    1.50
   1  -1   9    5.07    1.78
  -1  -1  -9    2.10    1.42
  -1  -1 -10    0.49    1.41
   1   1  10    1.31    1.37
  -1  -1 -10    2.81    1.66
  -1   1 -10    1.02    1.28
   1  -1  10    3.71    1.73
   1   1  10    2.69    1.23
   1  -1  11    4.54    1.75
   1   1  11    6.57    1.71
  -1   1 -11    5.58    2.04
  -1  -1 -11    4.66    1.90
   1   1  11    4.28    1.79
  -1  -1 -11    5.85    2.19
  -1   1 -12  106.59    8.12
  -1  -1 -12   99.89    7.88
   1  -1  12  100.13    7.59
   1   1  12  108.96    6.74
   1   1  12  105.52    7.58
  -1  -1 -12  110.37    8.02
  -1   1 -13  167.41   11.35
   1  -1  13  168.61   11.10
   1   1  13  173.92   10.87
  -1  -1 -13  175.83   11.38
  -1  -1 -13  186.62   11.49
   1   1  13  191.29   10.05
  -1  -1 -14   40.43    5.09
  -1  -1 -14   37.09    5.10
  -1   1 -14   47.68    5.61
   1   1  14   48.85    4.43
   1  -1  14   43.21    5.10
  -1   1 -14   47.42    5.58
   1   1  14   33.72    4.57
  -1  -1 -15   14.91    3.53
  -1  -1 -15   14.04    3.67
  -1   1 -15   19.55    3.89
   1   1  15   22.78    3.24
   1   1  15   16.35    3.52
  -1   1 -15   17.50    3.62
   1  -1  15   21.06    3.83
  -1   1 -16   32.83    5.11
  -1  -1 -16   30.83    4.95
  -1   1 -16   35.38    5.12
  -1  -1 -16   29.55    4.92
   1   1  16   33.42    3.98
   1  -1  16   26.51    4.55
   1   1  16   24.67    4.22
  -1   1 -17   27.49    5.14
  -1  -1 -17   21.90    4.36
  -1   1 -17   33.37    5.19
  -1  -1 -17   31.30    4.86
  -1   1 -18   10.94    3.75
  -1  -1 -18    5.10    2.94
  -1   1 -18    4.43    2.69
  -1  -1 -18   10.73    3.52
   1  -1  19   66.67    7.87
  -1  -1 -19   57.22    7.12
  -1  -1 -19   55.62    7.17
  -1   1 -19   66.56    7.75
  -1   1 -19   63.83    7.44
  -1   1 -20    4.93    3.30
  -1  -1 -20   -0.94    2.36
   1  -1  20    5.22    3.39
  -1   1 -20    4.06    3.06
  -1  -1 -20    0.99    2.50
  -1   1 -21    3.19    3.08
   1  -1  21   -1.11    2.63
  -1  -1 -21    3.15    2.78
   1   2 -22   -0.92    2.88
   1   2 -21    5.32    3.06
   1  -2 -20   33.07    5.62
  -1  -2  20   34.30    6.29
   1   2 -20   19.47    4.49
   1  -2 -20   29.96    4.86
   1   2 -19    4.02    3.08
   1  -2 -19    1.85    2.57
  -1  -2  19    9.70    3.83
   1  -2 -19    0.76    2.03
   1  -2 -18   33.18    5.44
  -1   2  18   31.94    4.25
   1  -2 -18   22.90    4.26
  -1  -2  18   39.44    6.15
   1   2 -18   28.91    4.98
   1  -2 -17   11.36    2.97
  -1  -2  17   12.31    3.64
   1   2 -17    4.30    2.56
  -1  -2  17    5.41    2.54
  -1   2  17    7.94    2.74
   1   2 -16   61.82    6.33
   1  -2 -16   62.36    6.09
  -1  -2  16   56.14    5.91
  -1   2  16   58.98    5.63
  -1  -2  16   55.70    6.74
  -1   2  15    5.46    2.04
   1   2 -15    4.39    2.11
  -1  -2  15    7.41    2.85
   1  -2 -15    3.47    2.17
  -1  -2  15    6.63    2.43
   1   2 -14  899.48   42.58
   1  -2 -14  970.72   41.50
  -1  -2  14  980.13   43.55
  -1  -2  14  946.97   41.76
   1   2 -14 1029.36   42.17
  -1   2  14  983.94   40.97
  -1   2  13  148.63    8.97
   1   2 -13  150.08    9.67
   1  -2 -13  153.19    9.54
  -1  -2  13  138.54    9.47
  -1  -2  13  160.25   10.85
  -1   2  12   96.71    6.47
   1  -2 -12   96.44    6.74
   1   2 -12   95.33    6.99
  -1  -2  12  103.92    8.10
  -1  -2  12   84.02    6.75
  -1   2  11   54.76    4.42
   1   2 -11   51.86    4.78
  -1  -2  11   60.68    5.69
  -1  -2  11   54.10    4.92
   1  -2 -11   51.72    4.52
   1  -2 -10 1136.55   49.67
  -1  -2  10 1321.64   51.93
  -1  -2  10 1262.16   50.69
   1   2 -10 1191.80   50.37
  -1   2  10 1282.88   49.63
   1  -2  -9  267.16   12.69
  -1  -2   9  281.95   14.23
   1   2  -9  260.98   13.10
  -1  -2   9  254.41   13.17
  -1   2   9  264.36   12.43
  -1   2   8 1114.40   44.47
   1  -2  -8 1121.23   44.69
  -1  -2   8 1132.93   45.54
  -1  -2   8 1126.41   46.34
   1   2  -8 1094.41   45.20
  -1  -2   7    9.56    1.74
  -1  -2   7   11.02    2.02
   1   2  -7   11.14    1.76
  -1   2   7   10.44    1.44
   1  -2  -7   14.78    1.67
  -1  -2   6 1502.98   59.50
   1  -2  -6 1536.78   57.95
   1   2  -6 1505.08   58.52
  -1  -2   6 1388.76   58.64
  -1  -2   5  132.77    7.37
   1  -2  -5  138.56    6.28
   1   2  -5  117.00    7.12
   1   2  -5  144.15    6.86
  -1  -2   5  123.72    6.81
  -1  -2   4 1825.69   72.92
  -1  -2   4 1894.69   72.39
   1  -2  -4 1918.68   71.50
   1   2  -4 1783.11   72.04
   1   2  -3  217.83    8.84
  -1  -2   3  179.90    8.80
  -1   2   2 4640.88  176.87
  -1  -2   2 4750.14  177.69
  -1   2   1  973.74   38.74
   1  -2  -1 1026.28   38.83
   1  -2  -1 1052.59   39.21
   1  -2   0  257.48   10.89
  -1  -2   0  263.04   10.64
   1  -2   0  265.35   10.87
   1  -2   1   92.08    4.77
   1  -2   1   98.66    4.81
  -1  -2  -1   99.31    4.30
   1   2   2 4608.73  177.69
   1  -2   2 4753.91  178.14
   1  -2   3  139.89    7.02
   1   2   3  136.76    6.45
   1  -2   3  136.62    6.14
   1   2   3  140.69    6.43
  -1  -2  -4   64.29    4.05
  -1  -2  -4   80.82    4.56
   1   2   4   72.33    4.02
  -1  -2  -4   74.74    4.02
   1   2   4   72.53    4.16
  -1  -2  -5 1554.72   60.51
   1   2   5 1566.11   59.69
  -1  -2  -5 1527.26   59.73
  -1  -2  -5 1495.92   59.98
   1   2   5 1522.73   60.10
  -1  -2  -6  147.99    7.87
   1   2   6  136.81    6.94
  -1  -2  -6  135.73    7.44
   1   2   6  141.15    7.61
   1   2   7  201.05   10.30
  -1  -2  -7  217.49   11.11
  -1  -2  -7  218.48   10.90
   1   2   7  218.67   10.17
  -1   2  -7  223.72   11.43
   1   2   7  222.78   10.94
   1  -2   8   19.64    2.76
  -1  -2  -8   21.19    2.71
   1   2   8   21.16    2.26
   1   2   8   24.39    2.58
  -1  -2  -8   20.93    2.75
  -1   2  -8   22.12    2.96
   1   2   8   27.38    2.92
   1  -2   9  242.96   12.64
  -1   2  -9  231.68   12.71
   1   2   9  234.58   11.35
   1   2   9  234.64   11.77
  -1  -2  -9  246.45   12.48
   1   2   9  219.94   12.01
  -1  -2  -9  239.88   12.60
  -1   2 -10   82.93    6.49
   1  -2  10   69.67    5.90
  -1  -2 -10   83.68    6.32
   1   2  10   84.08    5.94
  -1  -2 -10   74.27    5.92
   1   2  10   77.75    5.26
   1   2  10   73.61    5.45
  -1   2 -11  101.79    7.73
  -1  -2 -11  109.16    7.55
   1   2  11   93.47    6.36
   1   2  11  114.62    7.48
   1   2  11  104.75    6.90
  -1  -2 -11  111.91    7.76
   1  -2  11  101.48    7.63
   1   2  12  249.39   12.85
   1   2  12  268.77   14.00
  -1  -2 -12  261.35   14.37
   1   2  12  255.32   13.28
  -1  -2 -12  241.13   13.88
   1  -2  12  253.21   14.22
  -1   2 -12  259.89   14.59
   1   2  13    1.98    1.69
  -1  -2 -13    2.41    1.88
   1  -2  13    3.04    1.77
   1   2  13    2.16    1.91
   1   2  13    2.81    1.71
  -1  -2 -13    1.25    1.74
  -1   2 -13    2.01    1.94
   1   2  14    7.22    2.15
   1   2  14    7.57    2.44
  -1  -2 -14    9.09    2.78
   1   2  14    6.35    2.48
  -1  -2 -14    9.48    3.01
  -1   2 -14    7.93    3.03
   1  -2  14    7.16    2.63
  -1  -2 -15   10.23    3.15
   1  -2  15   18.06    3.70
   1   2  15    6.81    2.32
   1   2  15   15.67    3.00
  -1   2 -15   10.80    3.56
   1  -2  15   15.24    3.46
   1   2  15   11.08    3.08
  -1  -2 -15   13.94    3.23
  -1   2 -16  151.85   11.73
  -1  -2 -16  165.79   11.73
  -1  -2 -16  183.42   12.40
  -1   2 -16  175.12   12.31
   1  -2  16  169.56   12.04
   1   2  16  190.22   11.79
  -1  -2 -17    3.95    2.19
  -1   2 -17    4.37    2.53
   1  -2  17    3.39    2.56
  -1   2 -17    3.39    2.36
  -1  -2 -17    3.36    2.44
  -1   2 -18   18.93    4.52
   1  -2  18   26.38    5.21
  -1   2 -18   28.66    5.06
  -1  -2 -18   13.40    3.95
  -1  -2 -18   15.06    3.71
  -1  -2 -19    2.83    2.85
  -1   2 -19   -0.97    2.58
  -1  -2 -19   -0.89    2.46
   1  -2  19    0.97    2.82
  -1   2 -19    0.96    2.40
  -1  -2 -20    5.62    3.24
   1  -2  20   11.42    4.08
  -1   2 -20    4.04    3.39
  -1   2 -20    8.19    3.33
  -1  -2 -20    6.96    3.34
  -1  -2 -21    1.04    3.02
   1  -2  21   -3.31    3.69
  -1   2 -21   -1.07    2.84
   1   3 -22   -0.93    3.20
   1   3 -21    6.23    3.08
   1  -3 -20    1.60    2.33
  -1  -3  20   -1.15    3.03
   1   3 -20    2.55    3.10
   1  -3 -19   12.85    3.45
   1   3 -19   14.61    3.94
  -1  -3  19   15.13    4.46
   1  -3 -18   34.92    5.30
   1   3 -18   40.15    5.60
  -1  -3  18   44.74    6.54
   1  -3 -17   12.04    3.23
  -1  -3  17    8.53    2.93
  -1  -3  17    4.77    3.49
   1   3 -17   10.21    3.19
   1   3 -17    6.10    3.27
   1   3 -16    0.82    2.37
   1  -3 -16    1.25    1.73
   1   3 -16    2.06    1.91
  -1  -3  16    2.72    2.48
  -1  -3  16    3.57    2.89
   1  -3 -15   19.67    3.56
  -1   3  15   19.88    3.38
  -1  -3  15   17.36    3.52
   1   3 -15   17.36    3.47
  -1  -3  15   18.29    4.23
   1  -3 -14   62.09    5.80
  -1  -3  14   73.37    7.20
  -1  -3  14   80.08    6.88
   1   3 -14   73.03    6.64
  -1  -3  13    4.59    2.15
  -1  -3  13    9.29    2.94
   1   3 -13    5.56    2.24
   1  -3 -13    3.37    1.72
   1   3 -12   37.41    4.22
   1  -3 -12   36.28    3.91
  -1  -3  12   37.56    4.95
  -1  -3  12   39.53    4.45
  -1  -3  11    9.96    2.37
   1   3 -11    5.64    1.91
   1  -3 -11    9.44    1.97
  -1  -3  11    6.65    2.22
   1   3 -10  106.73    7.01
  -1  -3  10   90.55    7.26
   1  -3 -10  105.61    6.49
  -1  -3  10   97.94    7.04
   1  -3  -9   74.36    4.97
  -1  -3   9   73.28    5.93
  -1  -3   9   73.22    5.66
   1   3  -9   62.22    5.09
  -1  -3   8   68.37    5.23
   1  -3  -8   66.72    4.51
   1   3  -8   68.21    4.98
  -1  -3   8   73.44    5.71
  -1  -3   7  641.02   28.02
   1  -3  -7  639.61   26.98
  -1  -3   7  692.60   28.74
   1   3  -7  674.40   27.80
   1   3  -6  119.59    7.26
  -1  -3   6  112.67    7.17
   1  -3  -6  118.11    6.09
   1   3  -6  117.52    6.62
  -1  -3   6  133.40    7.19
  -1   3   5  750.77   31.91
   1   3  -5  810.73   33.20
   1  -3  -5  804.89   31.64
   1   3  -5  802.85   32.41
  -1   3   5  799.04   31.59
  -1  -3   5  786.68   32.72
  -1  -3   5  864.34   33.33
   1   3  -4 2484.57   99.01
   1   3  -4 2544.14   98.33
  -1  -3   4 2553.37   98.64
  -1   3   4 2507.25   97.46
  -1  -3   4 2622.57   99.04
  -1   3   4 2606.87   97.97
  -1   3   3   99.91    4.90
   1   3  -3   86.74    5.56
  -1   3   3   99.64    4.49
  -1  -3   3   90.55    5.27
  -1  -3   3  107.78    5.77
  -1   3   3  105.53    4.55
  -1  -3   2  234.22   10.65
   1  -3  -2  230.24    9.32
  -1  -3   2  237.83   10.36
  -1   3   2  220.80    9.69
  -1   3   2  230.33    9.33
   1  -3  -2  242.19    9.42
  -1   3   1  290.22   11.63
   1   3  -1  278.52   12.12
   1  -3  -1  307.13   12.30
   1  -3  -1  325.53   12.01
   1  -3  -1  283.94   11.67
  -1  -3   0  180.80    7.70
  -1   3   0  181.81    7.72
  -1  -3   0  163.79    7.87
   1  -3   0  176.93    7.08
  -1   3   0  162.52    7.15
   1   3   0  159.78    7.43
   1  -3   0  181.52    7.85
   1  -3   0  183.54    7.96
   1  -3   1  284.26   11.09
  -1  -3  -1  245.48   11.87
  -1  -3  -1  297.42   11.63
  -1   3  -1  277.39   12.05
   1  -3   1  286.16   12.20
  -1  -3  -1  305.12   12.10
   1  -3   1  271.79   12.11
  -1   3  -1  258.30   11.91
  -1   3  -1  278.12   11.23
  -1   3  -2  697.42   28.30
  -1   3  -2  729.14   28.47
  -1  -3  -2  703.84   28.07
  -1   3  -2  701.85   27.39
   1  -3   2  699.08   28.49
  -1  -3  -2  720.29   28.17
   1   3   2  624.66   27.93
   1  -3   2  722.32   27.26
  -1  -3  -3   32.64    2.44
   1   3   3   31.66    2.40
  -1   3  -3   30.32    2.69
   1  -3   3   32.74    2.06
   1   3   3   32.84    2.51
  -1   3  -3   32.24    2.11
   1  -3   3   28.52    2.61
   1  -3   4   64.81    4.48
   1   3   4   67.74    4.00
   1  -3   4   64.61    3.66
  -1  -3  -4   68.18    4.02
   1   3   4   61.98    3.87
   1   3   4   56.80    3.71
  -1  -3  -5  846.93   32.60
  -1  -3  -5  782.46   32.80
   1   3   5  788.96   32.37
   1   3   5  814.65   32.56
   1  -3   5  818.31   32.21
   1   3   5  761.51   32.13
   1   3   6  245.95   10.93
  -1  -3  -6  228.22   10.99
   1  -3   6  240.27   11.16
  -1  -3  -6  230.54   11.56
   1   3   6  226.34   11.08
   1   3   6  254.46   11.56
  -1  -3  -7   90.41    5.99
   1   3   7   81.49    5.39
   1  -3   7   96.81    5.71
   1   3   7   90.47    5.83
   1   3   7   92.32    5.35
  -1  -3  -8   81.94    5.85
   1   3   8   88.38    5.42
   1  -3   8   77.65    5.37
  -1  -3  -8   77.72    5.57
  -1   3  -8   78.00    6.01
   1   3   8   83.86    5.10
   1  -3   8   63.78    5.53
   1  -3   9  948.20   38.29
   1   3   9  885.63   37.62
   1   3   9  932.43   37.33
   1  -3   9  865.41   38.81
  -1  -3  -9  915.90   38.38
  -1   3  -9  929.53   39.29
  -1  -3  -9  915.49   38.62
  -1  -3 -10  663.67   28.50
   1   3  10  617.58   27.33
  -1  -3 -10  650.95   28.34
   1  -3  10  607.95   28.00
   1  -3  10  619.06   28.59
  -1   3 -10  618.63   28.77
   1   3  10  661.67   27.07
   1  -3  11   -0.56    1.55
  -1  -3 -11    3.05    1.70
  -1  -3 -11   -0.53    1.41
   1   3  11    0.40    1.34
   1   3  11   -0.35    1.24
   1  -3  11   -0.50    1.31
   1  -3  12   20.93    3.30
  -1  -3 -12   14.99    2.87
   1   3  12   21.48    2.85
  -1   3 -12   17.95    3.42
  -1  -3 -12   19.67    3.35
   1   3  12   16.06    2.78
   1  -3  12   18.02    3.37
  -1   3 -13   46.12    5.55
  -1  -3 -13   52.47    5.58
  -1  -3 -13   65.29    6.12
   1  -3  13   48.80    5.53
   1   3  13   58.05    5.20
   1  -3  13   54.01    5.56
   1   3  13   73.46    5.28
   1  -3  14  308.73   17.01
  -1  -3 -14  305.33   16.93
  -1  -3 -14  304.91   17.17
   1  -3  14  279.88   16.73
  -1   3 -14  297.07   17.42
   1   3  14  356.56   15.81
   1   3  14  292.44   15.76
   1   3  15    0.54    1.80
   1  -3  15    2.16    2.48
   1  -3  15    1.45    2.18
   1   3  15    0.46    1.82
  -1  -3 -15   -2.19    2.36
  -1   3 -15    0.79    2.08
  -1  -3 -15    1.40    2.03
  -1  -3 -16    8.98    2.94
   1  -3  16    3.91    2.36
  -1   3 -16    0.84    2.22
  -1  -3 -16    4.68    2.70
  -1   3 -17    0.89    2.35
   1  -3  17    0.84    2.54
  -1  -3 -17    0.84    2.32
  -1  -3 -17    1.59    2.31
  -1   3 -18   28.10    5.09
  -1   3 -18   26.72    5.18
  -1  -3 -18   30.39    5.14
  -1  -3 -18   14.37    3.90
   1  -3  18   21.73    4.98
  -1   3 -19   63.43    7.99
   1  -3  19   68.73    8.41
  -1  -3 -19   84.23    8.90
  -1   3 -19   83.93    8.95
  -1   3 -20    5.15    3.34
   1  -3  20    1.03    2.59
  -1   3 -20    3.11    3.25
  -1  -3 -20   -1.00    2.64
  -1  -3 -21   13.61    4.22
   1  -3  21    7.69    3.70
   1   4 -21   -0.90    2.61
  -1  -4  20    6.86    3.32
   1   4 -20    3.45    2.98
   1   4 -19    1.99    3.01
   1  -4 -19   -0.76    2.20
   1   4 -19    0.82    2.48
  -1  -4  19   -1.08    3.26
   1   4 -18  143.54   10.69
  -1  -4  18  133.25   11.77
   1  -4 -18  142.43   10.36
   1   4 -18  128.00   11.06
   1   4 -17   19.20    3.91
   1  -4 -17   18.80    3.66
  -1  -4  17   13.37    4.13
  -1   4  16  187.37   11.32
   1  -4 -16  194.35   12.01
  -1  -4  16  195.98   12.65
  -1  -4  16  195.82   13.63
   1   4 -16  166.52   11.82
  -1  -4  15  184.48   13.02
   1  -4 -15  182.37   11.48
   1   4 -15  184.27   11.90
  -1   4  15  192.63   11.15
  -1  -4  15  186.82   12.29
  -1  -4  14  198.01   12.51
   1   4 -14  204.74   12.37
  -1   4  14  189.40   11.11
   1  -4 -14  185.98   11.40
  -1  -4  14  225.05   13.82
  -1  -4  13   43.91    5.54
   1   4 -13   54.61    5.29
  -1  -4  13   46.68    5.25
  -1   4  13   51.97    4.72
   1  -4 -13   50.71    4.93
   1  -4 -12   65.24    5.53
   1   4 -12   68.52    6.01
  -1   4  12   79.82    5.77
  -1  -4  12   79.03    6.66
  -1  -4  12   90.45    7.44
  -1  -4  11   34.87    4.36
  -1   4  11   43.45    4.71
   1  -4 -11   46.64    4.26
   1   4 -11   42.41    4.43
  -1  -4  11   47.17    5.14
  -1   4  11   51.85    4.29
  -1   4  11   54.66    4.42
  -1   4  10  232.23   11.54
   1  -4 -10  226.92   11.68
  -1  -4  10  216.48   12.95
  -1  -4  10  244.03   12.97
  -1   4  10  244.02   11.85
   1   4 -10  215.79   12.09
  -1   4   9   14.66    2.16
  -1  -4   9   20.05    2.96
   1   4  -9   17.13    2.54
  -1  -4   9   19.03    3.06
  -1   4   9    9.17    1.82
   1  -4  -9   12.09    1.99
   1   4  -8    9.60    1.88
   1  -4  -8   10.15    1.67
  -1   4   8    8.56    1.60
  -1   4   8    9.56    1.58
  -1  -4   8    6.92    1.88
  -1  -4   8    8.81    2.12
  -1   4   7    2.12    0.99
  -1   4   7    0.43    0.75
   1  -4  -7   -0.24    0.79
   1   4  -7    1.00    0.96
  -1  -4   7    2.09    1.48
   1   4  -7    0.84    1.11
  -1  -4   7    0.40    1.19
  -1   4   6  886.86   34.79
  -1  -4   6  848.46   36.32
  -1   4   6  876.16   35.21
   1   4  -6  868.31   35.82
   1   4  -6  951.67   36.94
   1  -4  -6  827.45   34.91
  -1  -4   6  891.59   36.55
  -1  -4   5   93.40    6.16
  -1   4   5  104.29    5.26
  -1   4   5  101.41    5.59
   1   4  -5   94.46    6.44
  -1  -4   5  106.15    6.51
   1   4  -5  109.16    6.04
  -1   4   5  110.65    5.25
  -1   4   4  634.52   25.08
  -1   4   4  603.09   25.48
  -1  -4   4  595.16   26.32
  -1   4   4  634.57   25.10
   1   4  -4  708.50   26.34
  -1  -4   4  650.08   26.76
   1   4  -4  605.88   26.75
  -1   4   3  790.45   31.96
  -1  -4   3  852.35   33.20
   1   4  -3  786.73   33.20
   1  -4  -3  786.88   31.55
  -1   4   3  827.91   31.58
  -1  -4   3  828.83   32.88
   1  -4  -2 1953.21   74.07
   1  -4  -2 1969.41   73.60
   1   4  -2 1920.69   75.30
   1   4  -2 1913.44   74.74
  -1   4   2 1956.37   74.06
  -1   4   2 1910.39   73.68
  -1  -4   2 2042.79   75.20
   1  -4  -2 1979.02   73.81
   1   4  -1   24.62    2.37
  -1  -4   1   28.07    2.40
   1  -4  -1   25.70    1.74
   1  -4  -1   27.59    1.61
  -1   4   1   23.49    1.76
  -1  -4   1   29.98    2.38
   1  -4  -1   25.15    2.23
   1   4  -1   24.84    2.06
   1  -4  -1   25.28    2.00
   1   4   0  117.74    5.48
  -1  -4   0  109.01    5.64
  -1   4   0   99.33    5.06
  -1  -4   0  111.84    5.83
   1  -4   0  108.29    5.85
   1  -4   0  110.13    4.96
   1  -4   0  119.35    5.80
  -1  -4   0  112.78    5.83
  -1  -4  -1  217.39    9.65
  -1  -4  -1  222.65    9.74
  -1   4  -1  210.18    8.97
   1  -4   1  209.90    8.74
   1  -4   1  215.88    9.87
   1  -4   1  207.45    9.87
  -1  -4  -1  200.30    9.28
  -1   4  -1  228.36    9.74
   1   4   1  192.82    9.55
  -1  -4  -1  190.76    9.47
   1   4   2 1486.72   57.18
   1  -4   2 1473.76   57.52
  -1  -4  -2 1376.21   56.51
  -1   4  -2 1424.96   56.30
  -1   4  -2 1460.25   57.26
  -1  -4  -2 1518.98   57.07
  -1  -4  -2 1534.24   57.00
   1  -4   2 1414.39   56.04
   1   4   2 1520.26   57.06
  -1   4  -3   11.70    1.71
   1   4   3   11.32    1.49
  -1  -4  -3   11.14    1.49
  -1   4  -3   14.25    1.91
   1   4   3   11.80    1.52
   1  -4   3   10.95    1.76
  -1   4  -3   10.12    1.29
   1  -4   3   10.83    1.16
  -1  -4  -4    2.05    0.81
  -1   4  -4    2.26    0.76
   1   4   4    2.51    0.90
   1  -4   4    4.57    0.85
   1   4   4    2.91    0.95
   1  -4   4    0.33    0.82
   1  -4   5   28.78    3.16
   1  -4   5   31.68    2.59
   1   4   5   37.05    3.01
   1   4   5   34.72    2.90
   1   4   5   34.94    2.98
  -1  -4  -5   33.25    2.84
  -1  -4  -6   92.17    5.69
   1  -4   6   88.80    5.08
   1   4   6   77.47    5.18
   1   4   6   74.27    4.95
   1   4   6   70.05    4.75
  -1  -4  -6   81.57    5.15
   1   4   7    2.40    1.25
  -1  -4  -7    2.22    1.12
   1   4   7    3.56    1.36
   1  -4   7    2.41    1.13
   1   4   7    2.14    1.10
  -1  -4  -8  356.53   17.11
   1   4   8  352.55   16.36
  -1   4  -8  321.67   17.26
   1  -4   8  341.74   16.46
   1   4   8  382.18   16.29
   1   4   8  380.83   17.06
   1   4   9   29.22    3.24
   1  -4   9   26.81    3.68
   1  -4   9   37.34    3.73
   1   4   9   33.74    3.75
  -1  -4  -9   40.24    4.07
  -1   4  -9   32.64    3.93
   1   4   9   39.80    3.40
   1   4  10  308.43   15.51
   1   4  10  311.44   15.16
   1  -4  10  327.20   16.93
  -1  -4 -10  346.09   16.76
   1  -4  10  347.14   16.41
  -1   4 -10  323.58   17.02
   1  -4  11    3.50    1.62
  -1  -4 -11    3.22    1.86
   1   4  11    4.02    1.62
   1   4  11    4.13    1.90
   1  -4  11    1.19    1.80
  -1   4 -11    3.08    1.79
   1  -4  12  107.79    7.92
   1   4  12  115.42    7.24
  -1   4 -12  100.55    8.30
   1   4  12  119.21    7.62
   1  -4  12  103.84    8.35
  -1  -4 -12  119.00    8.40
  -1  -4 -13   10.14    2.87
   1   4  13    4.30    1.98
   1   4  13   10.93    2.38
  -1   4 -13   12.75    3.36
   1  -4  13    8.11    2.54
   1  -4  13    4.87    2.12
   1   4  14  154.41    8.96
  -1   4 -14  130.04   10.19
   1  -4  14  140.88    9.98
   1   4  14  143.61    9.14
   1  -4  14  127.64    9.97
  -1  -4 -14  126.69    9.74
   1  -4  15    5.06    2.51
  -1   4 -15    9.67    3.03
  -1  -4 -15   11.01    3.26
  -1   4 -16    7.69    3.37
   1  -4  16   12.53    3.48
  -1  -4 -16    6.29    2.81
   1  -4  17   -0.84    2.34
  -1  -4 -17   -0.84    2.80
  -1   4 -17    1.81    2.39
  -1   4 -18    1.91    2.40
   1  -4  18    3.62    2.62
  -1  -4 -18    5.35    3.17
   1  -4  19    3.86    3.87
  -1   4 -19    3.00    3.13
  -1   4 -19    1.00    2.78
  -1  -4 -19    1.90    3.28
  -1   4 -20   50.40    7.31
  -1  -4 -20   60.17    7.68
  -1   4 -20   59.15    7.71
   1  -4  20   64.77    7.95
  -1  -4 -21    6.31    3.41
   1  -4  21    2.18    3.53
   1   5 -21    9.10    3.42
   1   5 -20    4.36    2.53
  -1  -5  20   10.25    4.27
   1   5 -19   16.66    4.00
  -1  -5  19   17.28    4.74
   1  -5 -19   19.85    4.00
  -1  -5  18   14.27    4.55
   1  -5 -18   19.47    3.77
   1   5 -18   13.49    3.80
   1   5 -17   16.58    3.87
   1  -5 -17   16.85    3.61
  -1  -5  17    9.59    3.80
   1  -5 -16   11.90    3.12
  -1   5  16   20.95    3.57
   1   5 -16   19.21    4.09
  -1  -5  16   21.58    4.68
  -1   5  15   17.49    3.14
   1   5 -15   16.08    3.61
  -1  -5  15   16.86    3.64
   1  -5 -15   15.72    3.30
  -1  -5  15   26.89    4.81
  -1   5  14   38.53    4.32
   1  -5 -14   39.79    4.55
  -1  -5  14   42.45    5.33
  -1   5  14   36.99    4.12
  -1  -5  14   39.11    5.33
   1   5 -14   48.29    5.31
  -1   5  13   27.81    3.54
  -1   5  13   27.34    3.47
   1  -5 -13   27.19    3.63
  -1  -5  13   42.82    5.44
   1   5 -13   28.23    4.00
  -1  -5  13   27.92    4.19
  -1   5  12   30.57    3.46
  -1  -5  12   30.78    4.23
  -1   5  12   22.80    3.88
  -1  -5  12   29.48    4.31
  -1   5  12   33.15    3.67
   1  -5 -12   29.36    3.55
   1   5 -12   36.04    4.27
  -1   5  11   17.36    2.58
  -1  -5  11   12.38    2.87
  -1  -5  11    8.04    2.63
  -1   5  11   12.17    2.27
   1  -5 -11   12.71    2.35
  -1   5  11   11.74    2.82
   1   5 -11   15.68    2.79
  -1   5  10   14.58    2.24
  -1   5  10   17.89    3.17
  -1  -5  10   16.45    3.06
  -1   5  10   16.74    2.47
   1   5 -10   14.05    2.61
   1  -5 -10   22.56    2.67
  -1  -5  10   13.17    2.71
  -1  -5   9   58.72    5.29
  -1   5   9   48.15    4.12
  -1   5   9   49.43    4.85
   1   5  -9   54.54    4.73
   1  -5  -9   58.94    4.44
  -1   5   9   56.01    4.15
  -1  -5   9   55.67    5.27
  -1   5   8  580.89   25.56
  -1   5   8  606.16   25.26
   1   5  -8  667.52   26.75
  -1  -5   8  597.86   26.99
   1   5  -8  607.81   27.26
   1  -5  -8  582.64   25.47
  -1  -5   8  608.96   27.19
  -1  -5   7  148.99    9.22
  -1  -5   7  140.06    9.18
  -1   5   7  158.76    7.99
   1  -5  -7  167.46    8.32
  -1   5   7  164.24    7.94
   1   5  -7  166.71    9.72
  -1   5   7  152.97    8.25
   1   5  -7  169.22    8.99
  -1  -5   6  288.03   14.16
  -1   5   6  292.05   12.68
  -1   5   6  282.96   13.02
   1   5  -6  300.18   14.54
  -1   5   6  283.21   12.53
  -1  -5   6  267.47   14.16
   1   5  -6  286.75   13.63
  -1  -5   5   82.31    5.38
  -1   5   5   60.91    4.18
   1   5  -5   66.37    5.24
  -1   5   5   72.79    4.09
  -1   5   5   74.24    4.12
   1   5  -5   75.37    4.96
  -1  -5   5   62.57    5.01
   1   5  -4  328.52   14.80
   1  -5  -4  307.30   12.87
  -1   5   4  297.99   12.85
  -1   5   4  287.02   13.20
  -1  -5   4  308.71   14.39
  -1  -5   4  318.37   14.48
   1   5  -3  101.81    6.39
   1  -5  -3   99.81    5.47
  -1   5   3  105.24    5.49
   1  -5  -3  109.73    5.10
  -1  -5   3  105.88    6.28
  -1   5   3  105.25    5.15
   1   5  -3  112.32    6.24
  -1  -5   3  109.14    6.26
   1  -5  -3  105.84    5.23
   1  -5  -2   15.09    1.45
  -1   5   2   14.95    1.52
   1   5  -2   11.55    1.67
  -1  -5   2   13.11    1.88
   1   5  -2   17.18    2.24
  -1   5   2   12.33    1.30
   1  -5  -2   14.65    1.27
   1  -5  -2   13.71    1.44
   1  -5  -1  162.05    8.19
   1   5  -1  152.40    8.67
  -1  -5   1  170.47    8.66
  -1  -5   1  176.59    8.65
   1  -5  -1  166.73    7.67
   1   5  -1  177.95    8.37
  -1  -5   1  194.47    8.83
   1  -5  -1  180.61    7.57
  -1   5   1  174.55    7.93
  -1  -5   0  500.17   20.88
  -1   5   0  496.81   20.21
  -1  -5   0  504.82   20.94
   1   5   0  513.04   21.27
   1  -5   0  547.16   21.04
   1   5   0  456.21   20.36
   1  -5   0  487.30   19.86
  -1  -5   0  479.08   20.85
   1  -5   0  502.63   19.94
  -1  -5  -1  120.56    6.51
  -1  -5  -1  131.53    6.67
  -1   5  -1  122.59    6.08
   1  -5   1  122.20    5.77
  -1  -5  -1  117.56    6.41
   1  -5   1  110.72    6.77
  -1   5  -1  142.37    6.85
  -1  -5  -1  130.96    6.75
   1   5   1  121.07    6.24
   1   5   1  120.34    6.64
   1  -5   1  146.08    7.12
   1   5   1  122.06    6.78
  -1  -5  -2  429.49   18.88
  -1  -5  -2  477.22   19.19
  -1   5  -2  470.61   19.52
   1  -5   2  461.89   18.34
   1   5   2  391.92   19.16
  -1  -5  -2  472.22   19.22
   1   5   2  423.36   19.18
   1  -5   2  469.49   19.90
  -1  -5  -2  476.85   19.38
  -1   5  -2  450.72   18.71
  -1  -5  -3    4.49    1.19
   1   5   3    7.22    1.33
  -1  -5  -3    5.70    1.22
  -1  -5  -3    4.47    1.05
   1   5   3    4.21    1.03
  -1   5  -3    2.17    0.79
   1  -5   3    5.27    0.88
   1  -5   3    4.67    1.40
  -1  -5  -3    4.46    1.04
  -1   5  -3    4.20    1.19
   1   5   4   13.50    1.84
   1  -5   4   15.89    1.69
   1  -5   4   16.17    2.34
  -1   5  -4   19.63    2.05
  -1   5  -4   15.66    2.23
  -1  -5  -4   15.96    1.98
  -1   5  -4   14.28    2.14
   1   5   4   16.54    2.06
  -1  -5  -5  474.76   19.94
   1   5   5  420.88   19.68
  -1   5  -5  452.14   19.69
   1  -5   5  482.68   19.53
   1   5   5  465.87   20.07
   1  -5   5  468.72   21.09
   1   5   6  267.84   12.79
   1  -5   6  256.65   12.20
  -1  -5  -6  272.54   12.64
   1   5   6  271.67   12.72
   1   5   6  251.63   12.46
   1  -5   7  583.53   25.04
   1   5   7  586.40   25.16
  -1  -5  -7  578.88   25.78
  -1  -5  -7  568.71   25.23
   1   5   7  632.60   25.78
   1   5   7  583.89   25.32
   1   5   8   26.47    3.02
   1   5   8   35.86    3.70
   1  -5   8   41.20    3.56
   1   5   8   38.62    3.55
  -1  -5  -8   35.68    3.74
   1   5   9  209.97   11.42
   1   5   9  226.51   11.33
  -1   5  -9  215.00   12.62
   1  -5   9  223.64   11.74
   1   5   9  236.63   12.34
  -1  -5  -9  228.25   12.34
  -1  -5 -10   61.38    5.60
   1  -5  10   56.88    5.14
   1   5  10   68.01    5.68
   1  -5  10   72.26    6.32
   1   5  10   59.27    4.73
   1   5  10   60.66    5.03
  -1   5 -10   73.09    6.35
  -1   5 -11   10.87    3.00
  -1  -5 -11   14.00    2.87
   1   5  11   12.44    2.41
   1  -5  11    8.54    2.29
   1  -5  11   12.03    2.88
   1   5  11    8.57    2.52
   1   5  11    6.57    1.92
   1   5  12   78.77    6.32
   1  -5  12   88.20    6.93
   1  -5  12   81.55    7.30
  -1   5 -12   94.98    7.83
  -1  -5 -12   86.09    7.10
   1   5  12   85.38    6.14
  -1   5 -13    3.64    2.20
   1  -5  13    3.04    1.97
   1   5  13    3.45    1.70
  -1  -5 -13    2.57    2.15
   1   5  13    1.76    1.47
   1  -5  13   -0.72    1.80
   1   5  14    5.60    2.12
   1  -5  14    5.32    2.85
  -1  -5 -14    9.02    3.03
   1  -5  14    9.06    3.10
   1   5  14    5.27    2.17
  -1   5 -14    8.54    2.99
  -1   5 -15   18.93    4.13
   1  -5  15   18.75    3.83
  -1  -5 -15   17.82    3.89
  -1   5 -16   64.34    7.30
  -1  -5 -16   65.02    7.06
   1  -5  16   76.38    7.51
  -1  -5 -17    4.24    2.46
   1  -5  17    0.84    2.10
  -1   5 -17    2.75    3.07
  -1  -5 -18   27.79    5.18
   1  -5  18   35.02    5.50
  -1   5 -18   17.39    4.60
   1  -5  19    0.96    2.89
  -1  -5 -19    0.95    2.75
  -1   5 -19   -1.01    3.06
   1  -5  20   39.67    6.50
  -1  -5 -20   43.30    6.87
  -1  -5 -21    2.12    3.19
   1  -5  21   -2.15    3.24
  -1  -6  20   85.56    9.82
   1   6 -20   78.50    8.43
   1   6 -19   -0.84    2.64
  -1  -6  19    3.20    3.22
  -1  -6  18   51.44    7.29
   1  -6 -18   44.83    5.68
   1   6 -18   49.83    6.32
   1  -6 -17   27.13    4.41
  -1  -6  17   25.65    5.13
   1   6 -17   29.11    4.74
   1  -6 -16  324.24   18.40
   1   6 -16  373.69   19.68
  -1  -6  16  394.15   21.16
  -1  -6  15   12.52    3.50
   1  -6 -15    4.74    2.39
   1   6 -15    5.47    2.57
  -1   6  15    7.06    2.44
   1  -6 -14  122.95    8.59
   1   6 -14  127.13    9.24
  -1  -6  14  120.69    9.65
  -1  -6  14  119.14    9.65
  -1   6  14  127.88    8.30
   1  -6 -13  154.07    9.47
  -1   6  13  146.45    8.85
   1   6 -13  139.26    9.72
  -1  -6  13  149.20   10.65
  -1   6  13  150.20    9.15
  -1   6  13  151.86   10.62
  -1  -6  13  136.30   10.33
  -1   6  12  311.38   17.43
  -1   6  12  330.88   15.70
  -1   6  12  302.69   15.74
   1   6 -12  322.50   16.94
  -1  -6  12  317.07   17.54
  -1  -6  12  333.37   17.70
   1  -6 -12  325.54   16.12
  -1  -6  11   18.39    3.50
  -1   6  11   16.83    2.58
   1  -6 -11   19.17    2.92
   1   6 -11   15.83    3.00
  -1  -6  11   15.59    3.24
  -1   6  11   19.03    2.89
  -1   6  11   12.90    3.06
  -1   6  10  281.17   13.18
   1  -6 -10  264.98   13.53
  -1  -6  10  253.47   14.55
  -1   6  10  265.42   13.36
  -1  -6  10  252.67   14.80
  -1   6  10  290.63   15.02
   1   6 -10  268.74   14.17
  -1   6   9   69.76    5.22
  -1  -6   9   81.72    6.52
  -1   6   9   77.43    5.20
  -1   6   9   71.17    6.04
   1   6  -9   75.53    6.36
  -1   6   9   81.38    5.15
   1  -6  -9   72.60    5.29
  -1  -6   9   80.63    6.65
   1   6  -9   82.57    6.07
   1   6  -8  594.92   25.39
   1   6  -8  583.54   26.26
  -1   6   8  576.59   24.43
  -1   6   8  567.02   23.99
  -1   6   8  549.37   23.84
  -1  -6   8  546.67   25.97
   1  -6  -8  569.06   24.47
  -1   6   8  544.76   25.57
  -1  -6   8  586.73   25.89
  -1   6   7  155.59    7.87
  -1  -6   7  146.43    9.16
  -1   6   7  152.72    7.91
  -1  -6   7  149.25    9.44
  -1   6   7  149.06    8.16
   1   6  -7  167.77    9.85
   1   6  -7  166.05    9.07
   1   6  -6  207.68   10.88
  -1   6   6  210.55    9.87
  -1  -6   6  203.92   11.19
   1   6  -6  190.72   11.29
  -1   6   6  214.94   10.23
  -1  -6   6  218.76   11.60
  -1   6   6  206.31    9.78
  -1   6   5  465.37   20.82
  -1  -6   5  511.01   22.46
   1   6  -5  476.82   22.38
  -1   6   5  504.99   20.52
   1  -6  -5  488.51   20.45
  -1  -6   5  529.10   22.28
   1   6  -4  866.71   34.52
  -1   6   4  841.05   33.37
  -1  -6   4  867.76   34.60
   1   6  -4  773.61   34.64
  -1  -6   4  771.61   34.47
  -1   6   4  850.70   32.98
   1  -6  -4  817.26   33.43
   1  -6  -4  807.13   32.75
   1  -6  -3    2.67    0.91
  -1  -6   3    3.20    1.11
   1   6  -3    1.51    1.05
  -1   6   3    1.53    0.79
   1  -6  -3    1.95    0.68
   1   6  -3    2.60    1.32
   1  -6  -3    2.79    0.93
   1   6  -2  391.73   18.21
   1  -6  -2  393.30   16.82
  -1   6   2  394.26   17.09
  -1  -6   2  407.54   17.93
   1  -6  -2  398.53   16.85
   1   6  -2  429.72   17.75
   1  -6  -2  404.33   16.51
   1  -6  -1  920.78   36.90
  -1   6   1  907.43   36.43
   1  -6  -1  898.60   35.87
  -1  -6   1  865.23   37.27
  -1  -6   1  930.71   37.18
   1  -6  -1  915.09   36.02
   1   6  -1  879.92   37.53
  -1  -6   1  949.17   37.27
   1   6  -1  957.12   36.93
   1  -6   0  638.75   25.61
  -1   6   0  642.20   26.08
   1   6   0  606.85   26.96
   1  -6   0  694.61   25.80
  -1  -6   0  637.61   26.65
   1   6   0  640.33   26.29
  -1  -6   0  589.37   26.70
   1  -6   0  614.81   26.70
  -1  -6   0  661.10   26.79
  -1  -6  -1  334.25   15.59
   1   6   1  344.45   15.30
   1  -6   1  354.63   14.77
  -1  -6  -1  378.38   15.81
  -1  -6  -1  352.35   15.78
   1  -6   1  376.23   16.20
   1   6   1  331.50   15.97
  -1   6  -1  346.48   15.16
  -1  -6  -1  359.69   15.65
   1   6   2  741.18   30.82
  -1  -6  -2  752.27   30.48
  -1   6  -2  702.00   29.98
   1  -6   2  741.63   31.22
  -1  -6  -2  753.48   30.59
  -1  -6  -2  741.92   30.38
   1  -6   2  762.68   29.57
   1   6   2  711.69   30.51
  -1  -6  -2  738.06   30.32
  -1   6  -2  760.24   30.80
   1   6   3 1869.51   74.84
  -1  -6  -3 2001.50   74.71
  -1  -6  -3 1871.74   74.88
  -1  -6  -3 1925.93   74.78
   1  -6   3 1948.94   73.96
  -1   6  -3 1976.55   74.52
   1  -6   3 1970.24   75.89
   1   6   3 1751.48   74.86
  -1  -6  -3 1832.15   74.55
  -1   6  -3 1945.59   75.30
  -1  -6  -4   71.89    4.62
  -1   6  -4   67.19    4.39
  -1  -6  -4   66.29    4.37
   1   6   4   58.16    4.33
   1  -6   4   61.41    3.90
  -1  -6  -4   63.87    4.29
   1  -6   4   54.72    4.89
   1   6   4   60.88    4.51
  -1   6  -4   58.13    4.71
   1   6   4   62.14    4.52
   1  -6   5   72.38    5.91
   1   6   5   71.75    5.23
  -1  -6  -5   86.35    5.34
   1  -6   5   81.80    4.90
   1   6   5   77.26    5.25
  -1   6  -5   80.32    5.23
  -1   6  -5   78.56    5.75
  -1   6  -6   28.64    2.89
   1  -6   6   26.26    3.36
   1   6   6   31.28    2.99
   1  -6   6   24.56    2.53
  -1  -6  -6   29.64    2.98
   1   6   6   28.75    3.05
  -1  -6  -6   20.94    2.63
   1   6   7  649.43   26.98
   1   6   7  583.84   26.21
  -1  -6  -7  646.62   26.52
   1   6   7  607.89   26.48
   1  -6   7  592.51   26.03
   1   6   8   30.65    3.37
  -1  -6  -8   31.37    3.64
   1  -6   8   35.23    3.43
   1   6   8   35.34    3.58
   1   6   8   38.29    3.86
   1  -6   9    8.84    2.05
   1   6   9   12.12    2.40
   1   6   9   12.90    2.32
   1   6   9    7.13    2.14
  -1  -6  -9    9.34    2.28
   1  -6  10  221.81   13.67
   1   6  10  223.57   12.08
   1  -6  10  231.53   12.39
  -1   6 -10  245.24   13.62
  -1  -6 -10  220.22   12.85
   1   6  10  243.66   13.12
   1   6  11  113.16    8.15
  -1   6 -11  123.80    8.79
   1   6  11  102.57    7.05
   1  -6  11  104.77    8.55
  -1  -6 -11  101.47    7.84
   1   6  11  100.13    7.18
   1  -6  11  105.45    7.55
   1   6  12  122.23    7.81
   1   6  12  118.62    7.95
  -1   6 -12  109.17    8.84
   1   6  12  102.52    8.27
   1  -6  12  107.31    8.83
  -1  -6 -12  124.87    8.90
   1  -6  12  126.38    8.43
  -1  -6 -13   28.47    4.36
   1   6  13   34.54    4.03
   1  -6  13   33.26    4.94
  -1   6 -13   28.26    4.53
   1   6  13   22.51    3.54
   1  -6  13   29.04    4.10
  -1  -6 -14  225.55   14.02
   1  -6  14  230.68   13.85
   1   6  14  241.01   13.32
  -1   6 -14  229.49   14.66
  -1  -6 -15    4.55    2.78
  -1   6 -15    9.19    3.21
   1  -6  15    7.17    2.76
  -1  -6 -16   14.52    3.67
   1  -6  16   11.61    3.53
  -1   6 -16   15.90    3.94
  -1   6 -17   14.85    4.07
   1  -6  17   15.80    4.04
  -1  -6 -17   15.42    4.22
  -1   6 -18   -0.97    2.70
   1  -6  18    0.89    2.68
  -1  -6 -18    0.91    2.64
  -1   6 -19    4.07    3.30
  -1  -6 -19    0.96    2.66
   1  -6  19    0.95    2.74
  -1  -6 -20   -1.01    2.79
   1  -6  20   -1.00    3.13
  -1  -7  20   12.27    4.40
  -1  -7  19    3.18    3.20
   1   7 -19    3.42    3.12
  -1  -7  18   20.03    4.80
   1  -7 -18   25.64    4.48
   1   7 -18   16.36    3.95
   1  -7 -17   11.81    3.18
  -1  -7  17   22.69    4.84
   1   7 -17   13.24    3.61
  -1  -7  16    1.78    2.78
   1  -7 -16    4.54    2.43
   1   7 -16    1.48    2.06
  -1  -7  15   15.00    4.03
   1   7 -15   11.90    3.14
   1  -7 -15   12.19    3.22
  -1   7  15   13.87    2.92
   1   7 -14    4.63    2.35
  -1   7  14    8.13    2.60
  -1  -7  14    3.90    2.70
   1  -7 -14    3.95    2.12
  -1   7  13   49.92    5.13
  -1  -7  13   61.78    6.76
   1  -7 -13   65.46    5.72
  -1   7  13   63.05    5.23
   1   7 -13   71.03    6.40
  -1   7  13   62.68    5.21
  -1  -7  13   61.82    6.46
  -1  -7  12    3.61    2.28
   1   7 -12    7.59    2.55
   1  -7 -12    8.45    2.22
  -1   7  12    6.91    2.60
  -1   7  12    7.65    2.21
  -1   7  12    8.32    2.09
  -1  -7  12    7.46    2.96
  -1   7  12    6.18    2.11
  -1   7  11   90.58    6.40
  -1   7  11   88.53    5.98
  -1   7  11   88.44    6.06
   1   7 -11   83.21    6.76
   1  -7 -11   89.21    6.43
  -1  -7  11   71.49    6.80
  -1   7  11   86.52    7.31
  -1  -7  11   91.05    7.78
   1  -7 -10    1.68    1.57
  -1  -7  10    3.54    1.85
  -1   7  10    1.96    1.61
   1   7 -10    2.56    1.55
  -1  -7  10    7.82    2.78
   1   7 -10    3.09    2.07
  -1   7  10    5.03    1.57
  -1   7  10    5.30    2.15
  -1   7  10    2.43    1.46
  -1  -7   9   15.97    3.31
   1  -7  -9   18.06    2.64
  -1   7   9   11.73    2.06
  -1   7   9   23.89    3.39
  -1   7   9   18.29    2.54
  -1  -7   9   17.54    3.17
   1   7  -9   15.24    3.12
   1   7  -9   12.46    2.51
  -1   7   9   17.99    2.31
  -1  -7   8    3.46    1.94
  -1   7   8    6.11    2.00
  -1   7   8    3.76    1.33
  -1   7   8    2.88    1.39
   1   7  -8    2.79    1.75
  -1  -7   8    4.09    1.72
  -1   7   8    3.74    1.46
   1   7  -8    7.24    2.01
  -1  -7   7   15.66    2.93
   1   7  -7   10.80    2.30
  -1   7   7   12.37    1.88
   1   7  -7   11.12    2.47
  -1  -7   7   13.62    2.56
  -1   7   7   11.80    1.99
  -1   7   7   10.77    1.77
  -1  -7   6   12.62    2.32
   1   7  -6   12.90    2.53
  -1   7   6   14.31    2.08
  -1  -7   6   10.99    2.48
   1   7  -6   14.02    2.75
  -1   7   6   10.69    1.70
   1   7  -5  274.91   13.67
  -1  -7   5  260.58   13.83
  -1  -7   5  291.05   13.77
   1   7  -5  253.21   13.85
  -1   7   5  264.67   12.11
  -1   7   5  266.57   12.61
   1  -7  -5  262.45   12.66
   1  -7  -5  274.20   12.07
   1   7  -4   52.57    4.45
   1  -7  -4   64.80    3.91
  -1  -7   4   45.67    4.27
   1  -7  -4   57.49    3.59
   1  -7  -4   56.19    4.05
  -1   7   4   64.90    4.28
  -1   7   4   56.56    3.74
   1   7  -4   58.71    4.98
   1  -7  -3   -0.23    0.75
   1  -7  -3   -0.21    0.77
   1  -7  -3    0.54    0.54
  -1   7   3    0.52    0.75
  -1   7   3    0.82    0.77
   1   7  -3   -0.42    1.16
  -1  -7   3    0.70    0.87
   1   7  -3   -0.66    1.14
  -1  -7   2  172.29    9.25
  -1  -7   2  182.55    9.31
   1   7  -2  173.02    9.04
   1  -7  -2  176.19    8.06
   1  -7  -2  172.55    8.40
   1   7  -2  166.50    9.66
   1  -7  -2  174.51    8.98
   1  -7  -2  161.51    8.25
  -1   7   2  177.43    8.71
  -1   7   1   35.53    2.95
  -1  -7   1   33.38    3.41
   1  -7  -1   35.73    2.53
   1   7  -1   31.50    2.99
   1   7  -1   28.21    3.28
  -1  -7   1   34.95    3.20
   1  -7  -1   35.48    2.63
  -1  -7   1   33.35    3.23
  -1  -7   0   14.50    2.04
   1  -7   0   13.72    1.56
   1  -7   0    8.22    1.73
  -1   7   0   12.77    1.82
  -1  -7   0   11.52    1.94
   1  -7   0   11.94    1.48
   1   7   0   10.99    2.04
  -1  -7   0   12.29    1.98
   1   7   0   12.73    1.82
  -1  -7  -1  806.48   32.05
  -1   7  -1  738.17   31.49
  -1  -7  -1  799.09   32.04
   1  -7   1  791.03   31.03
  -1  -7  -1  778.47   32.16
  -1  -7  -1  745.94   32.11
   1   7   1  751.36   32.51
   1  -7   1  770.40   32.54
   1   7   2  393.62   18.72
   1  -7   2  441.13   19.66
   1   7   2  411.93   19.10
  -1  -7  -2  422.18   18.62
  -1  -7  -2  436.90   18.88
   1  -7   2  448.09   17.85
  -1  -7  -2  398.38   18.66
  -1  -7  -2  436.67   18.66
  -1   7  -2  411.98   18.35
  -1  -7  -3  135.12    7.92
   1   7   3  151.17    8.46
  -1   7  -3  156.02    8.57
  -1  -7  -3  148.08    7.99
   1  -7   3  156.28    7.46
  -1  -7  -3  162.62    8.22
   1  -7   3  146.28    8.88
   1   7   3  143.00    8.21
  -1  -7  -3  155.69    8.26
  -1   7  -3  139.15    7.80
   1   7   4  274.11   13.49
   1  -7   4  298.00   14.56
   1  -7   4  266.38   12.46
   1   7   4  270.66   13.30
  -1  -7  -4  292.68   13.35
  -1   7  -4  280.14   13.13
  -1  -7  -4  269.94   13.19
  -1  -7  -4  283.34   13.16
  -1   7  -4  263.20   13.64
  -1  -7  -5   17.21    2.31
  -1  -7  -5   14.59    2.13
  -1  -7  -5   20.12    2.41
  -1   7  -5   12.17    2.12
   1  -7   5   14.29    1.98
   1   7   5   18.62    2.47
   1   7   5   14.36    2.35
   1   7   5   16.24    2.37
   1  -7   5   20.41    3.01
  -1  -7  -6  109.21    6.65
   1  -7   6   98.77    7.48
  -1   7  -6  101.98    7.15
  -1  -7  -6  118.79    6.77
   1  -7   6  107.14    6.23
   1   7   6   97.17    6.46
  -1   7  -6  101.98    6.55
   1   7   6  103.83    6.74
   1   7   6   95.72    6.50
  -1   7  -7   99.89    6.57
  -1  -7  -7   96.12    6.39
   1   7   7  102.69    6.56
  -1  -7  -7   99.65    6.52
   1   7   7   94.42    6.57
   1   7   7   90.89    6.37
   1   7   7  109.47    7.05
   1  -7   7  103.30    7.78
   1  -7   7  101.79    6.25
  -1  -7  -8  203.84   10.84
   1   7   8  187.94   10.77
   1  -7   8  208.49   10.65
   1   7   8  191.43   10.65
   1   7   8  214.67   11.42
  -1  -7  -8  184.73   10.55
   1   7   9   10.04    2.37
   1  -7   9   13.88    2.44
   1   7   9    8.36    2.33
   1   7   9    8.68    2.11
  -1  -7  -9    6.73    2.32
   1  -7  10  225.75   11.90
  -1  -7 -10  222.10   12.66
   1   7  10  213.08   11.69
   1   7  10  230.05   12.07
  -1   7 -10  176.17   12.26
   1   7  10  214.28   12.46
  -1   7 -11    2.02    2.03
   1   7  11   -0.60    2.06
   1  -7  11    2.91    2.19
   1   7  11    5.47    2.08
   1   7  11    2.34    2.00
  -1  -7 -11    4.82    2.26
   1  -7  11    5.47    2.00
   1   7  12    1.28    2.07
   1   7  12    2.13    1.94
   1   7  12    0.99    1.67
   1  -7  12   -0.77    2.40
  -1   7 -12    2.15    2.16
   1  -7  12    2.73    1.94
  -1  -7 -12    0.65    2.02
  -1  -7 -13   77.40    6.90
   1   7  13   51.80    6.03
  -1   7 -13   67.00    6.75
   1   7  13   68.33    6.01
   1  -7  13   58.66    5.91
   1   7  13   63.92    5.77
  -1   7 -14    1.61    2.13
   1  -7  14    1.30    2.18
  -1  -7 -14   -0.73    2.51
  -1   7 -15   11.03    3.64
   1  -7  15   11.99    3.20
  -1  -7 -15   10.02    3.25
  -1   7 -16    7.16    3.09
   1  -7  16    3.04    2.21
  -1  -7 -16    4.95    3.17
  -1  -7 -17    6.11    3.19
  -1   7 -17    8.44    3.34
   1  -7  17    4.07    2.98
  -1   7 -18    0.98    2.60
  -1  -7 -18    5.53    3.70
   1  -7  18   -0.87    2.62
   1  -7  19    3.70    3.01
  -1  -7 -19    9.74    3.83
  -1  -7 -20   30.57    5.71
  -1  -8  19   -2.10    3.29
   1   8 -19    0.86    2.51
   1   8 -18   31.44    5.19
  -1  -8  18   35.87    6.08
   1  -8 -17   12.74    3.23
  -1  -8  17   18.85    4.56
   1   8 -17   15.02    3.95
  -1   8  17   14.17    3.08
   1   8 -16   90.51    8.29
  -1   8  16   97.75    7.54
  -1  -8  16  104.00    9.40
   1  -8 -16  109.17    8.59
  -1   8  15   -0.50    1.62
  -1  -8  15   -0.84    2.42
  -1   8  15    1.58    1.76
   1  -8 -15   -0.63    2.10
   1   8 -15    2.15    2.61
  -1   8  14  157.22    9.55
   1   8 -14  154.69   10.72
  -1  -8  14  155.75   11.36
   1  -8 -14  144.99    9.97
  -1   8  14  156.64    9.58
   1  -8 -13   60.46    5.78
  -1   8  13   60.67    5.33
  -1   8  13   59.43    5.13
  -1  -8  13   65.72    6.70
   1   8 -13   55.98    5.94
  -1  -8  12    4.63    2.51
   1  -8 -12    6.26    2.14
   1   8 -12    1.22    2.04
  -1   8  12    4.90    1.84
  -1  -8  12    1.38    2.09
  -1   8  12    3.30    1.93
  -1   8  12    2.54    1.51
  -1   8  11   -0.67    1.94
  -1   8  11    0.44    1.39
  -1  -8  11    1.48    2.14
  -1  -8  11   -0.65    1.87
  -1   8  11   -0.78    1.46
   1   8 -11   -0.57    1.73
  -1   8  11    1.91    1.39
   1  -8 -11   -0.48    1.57
  -1   8  10   13.01    2.25
  -1  -8  10   16.19    3.30
  -1   8  10   10.91    2.36
  -1   8  10    7.51    1.98
   1   8 -10   10.90    2.53
  -1  -8  10    9.08    2.51
   1   8 -10    8.46    2.46
  -1   8  10   11.15    2.82
   1  -8 -10    7.60    2.12
   1  -8  -9  313.71   15.95
  -1   8   9  351.69   17.56
  -1  -8   9  335.89   17.23
  -1   8   9  323.45   15.49
   1   8  -9  312.23   17.41
  -1   8   9  334.70   15.48
  -1  -8   9  335.60   17.92
  -1   8   9  338.37   16.01
   1   8  -9  332.69   16.85
  -1  -8   8   69.61    6.02
   1   8  -8   80.68    6.72
  -1   8   8   67.38    4.92
  -1   8   8   75.00    5.46
  -1  -8   8   59.92    6.19
  -1   8   8   80.77    5.18
  -1  -8   7  260.02   13.85
  -1  -8   7  274.68   14.76
   1   8  -7  235.08   14.00
  -1   8   7  263.45   12.38
   1   8  -7  263.52   13.97
  -1   8   7  259.74   12.82
  -1  -8   6  169.15    9.29
  -1   8   6  138.50    7.62
  -1  -8   6  138.85    9.27
   1  -8  -6  128.69    7.34
   1   8  -6  148.10    9.44
  -1   8   6  148.65    8.13
   1   8  -6  140.05    8.90
   1  -8  -5  477.86   22.44
   1   8  -5  543.77   23.85
  -1   8   5  563.35   22.91
   1   8  -5  547.31   24.46
  -1   8   5  505.53   22.12
  -1  -8   5  537.98   23.68
  -1  -8   5  525.59   24.25
   1  -8  -5  516.55   21.87
  -1   8   4  862.51   34.77
   1  -8  -4  829.28   34.42
  -1   8   4  824.63   34.12
   1   8  -4  862.01   35.56
   1   8  -4  809.21   36.04
  -1  -8   4  857.45   35.52
   1  -8  -4  842.03   34.16
   1  -8  -4  842.63   33.79
  -1  -8   3  210.10   10.87
   1  -8  -3  195.17    9.79
   1   8  -3  205.67   11.46
   1  -8  -3  194.84    9.84
  -1   8   3  218.14   10.45
   1   8  -3  205.35   10.76
   1  -8  -3  206.19    9.56
   1  -8  -2  355.36   15.32
   1   8  -2  337.74   16.90
   1  -8  -2  357.02   15.52
  -1  -8   2  355.02   16.48
  -1  -8   2  338.41   16.24
   1   8  -2  337.61   16.07
   1  -8  -2  369.55   16.41
  -1   8   2  333.61   15.77
   1  -8  -2  348.83   15.02
  -1  -8   1  393.26   17.78
  -1  -8   1  433.14   17.95
   1  -8  -1  372.35   16.52
  -1   8   1  380.69   17.29
   1   8  -1  399.01   17.54
  -1  -8   1  374.89   18.25
   1  -8  -1  381.11   17.75
   1  -8  -1  381.37   16.51
  -1  -8   1  406.22   18.25
   1   8  -1  352.79   18.13
   1  -8   0   67.06    4.17
  -1  -8   0   71.32    5.43
  -1  -8   0   68.09    4.95
  -1  -8   0   74.99    5.21
  -1   8   0   63.74    4.63
   1   8   0   62.24    5.24
  -1  -8   0   73.53    5.01
   1   8   0   73.85    4.89
   1  -8   0   69.13    5.15
   1  -8   0   58.83    4.06
  -1  -8  -1   -0.35    0.97
  -1   8  -1   -0.30    0.88
  -1  -8  -1   -0.32    0.97
   1  -8   1   -0.42    0.75
  -1  -8  -1   -0.33    1.07
   1   8   1    0.82    1.24
  -1  -8  -1    0.39    0.97
   1  -8   1    0.82    1.20
   1  -8   1    0.49    0.89
  -1  -8  -2  190.35    9.71
  -1   8  -2  187.02    9.71
  -1  -8  -2  198.14   10.09
   1   8   2  179.57   10.23
   1  -8   2  185.02    8.98
  -1  -8  -2  183.03    9.73
  -1  -8  -2  183.44   10.05
   1  -8   2  191.53   10.72
   1  -8   3   71.15    5.86
   1   8   3   71.26    5.42
  -1  -8  -3   70.39    5.07
   1   8   3   73.01    5.32
  -1  -8  -3   80.16    5.22
   1  -8   3   69.41    4.46
  -1  -8  -3   72.63    5.23
  -1   8  -3   68.86    4.97
  -1  -8  -3   70.04    5.17
   1   8   4  323.19   15.74
   1  -8   4  310.39   14.48
   1  -8   4  320.93   16.66
  -1   8  -4  342.12   16.14
  -1  -8  -4  337.48   15.53
  -1   8  -4  326.36   15.33
  -1  -8  -4  329.67   15.47
  -1  -8  -4  340.34   15.33
   1   8   4  310.07   15.42
  -1  -8  -4  321.43   15.26
  -1   8  -5   34.63    3.88
  -1  -8  -5   37.14    3.51
   1  -8   5   38.01    4.45
   1   8   5   36.50    3.64
   1  -8   5   40.47    3.25
   1   8   5   43.80    4.09
  -1   8  -5   36.71    3.58
  -1  -8  -5   34.22    3.51
  -1  -8  -5   32.40    3.46
   1   8   6  576.53   25.99
   1  -8   6  602.45   25.38
   1  -8   6  575.53   27.57
   1   8   6  606.98   26.47
  -1   8  -6  581.38   26.03
   1   8   6  586.05   26.26
  -1  -8  -6  610.85   26.01
  -1  -8  -6  592.61   26.03
  -1  -8  -6  636.05   26.14
  -1   8  -6  583.01   26.77
   1   8   7   13.33    2.55
   1   8   7   13.50    2.47
   1   8   7   13.32    2.40
  -1  -8  -7   18.68    2.63
   1  -8   7   12.50    2.11
  -1   8  -7   13.18    2.45
  -1   8  -7   14.73    2.80
   1  -8   7   11.82    3.08
  -1  -8  -7   15.99    2.60
   1   8   8  340.71   17.31
   1  -8   8  333.41   18.66
   1   8   8  355.38   17.19
   1   8   8  363.95   17.38
   1   8   8  357.30   17.79
  -1  -8  -8  364.88   17.35
  -1  -8  -8  368.76   17.29
  -1   8  -8  354.26   17.30
   1  -8   8  372.56   17.07
   1   8   9   53.26    5.30
  -1  -8  -9   50.21    5.23
   1   8   9   58.12    4.97
  -1  -8  -9   43.71    4.52
   1  -8   9   48.49    4.47
   1   8   9   50.33    4.81
   1   8   9   53.64    4.87
  -1  -8 -10  168.77   11.03
   1  -8  10  187.27   10.56
   1   8  10  187.37   11.35
   1   8  10  186.94   10.63
   1   8  10  176.35   10.63
  -1   8 -11   19.35    3.89
   1   8  11   19.27    3.23
   1   8  11   24.00    3.53
  -1  -8 -11   24.42    3.84
   1   8  11   23.27    3.92
   1  -8  11   26.14    3.57
  -1  -8 -12  215.76   12.96
   1  -8  12  201.96   12.01
   1   8  12  206.67   12.90
  -1   8 -12  230.67   13.66
   1   8  12  187.44   11.61
   1   8  12  203.45   12.14
   1  -8  13   36.96    4.58
   1   8  13   35.40    4.54
  -1   8 -13   34.86    4.96
  -1  -8 -13   33.02    4.89
   1   8  13   26.81    4.00
  -1   8 -14    6.55    2.83
   1   8  14    4.91    2.13
  -1  -8 -14    6.84    3.06
   1  -8  14    5.16    2.48
   1  -8  15   13.22    3.29
   1   8  15   14.88    3.39
  -1  -8 -15   13.54    3.51
  -1  -8 -16   63.73    7.11
  -1   8 -16   67.26    7.72
   1   8  16   53.15    6.02
   1  -8  16   64.26    6.78
  -1  -8 -17   16.07    4.39
   1   8  17   15.09    3.65
  -1   8 -17   17.09    4.46
   1  -8  17   11.99    3.39
   1  -8  18    3.41    2.95
  -1  -8 -18    5.63    3.51
  -1  -8 -19   -0.99    3.50
   1   8  19   -0.79    2.48
  -1  -9  19    9.46    3.95
   1   9 -18    5.93    3.09
  -1  -9  18   -1.00    3.13
  -1  -9  17    4.73    3.07
   1   9 -17    0.81    2.35
   1  -9 -16    1.38    2.16
  -1   9  16    1.08    1.81
  -1  -9  16    6.25    3.08
   1   9 -16    6.98    3.11
  -1  -9  15    5.91    2.92
   1  -9 -15    8.46    2.89
  -1   9  15    7.12    2.38
   1   9 -15    6.66    2.71
  -1   9  14   36.49    4.20
   1  -9 -14   29.86    4.36
  -1  -9  14   32.62    5.11
   1   9 -14   29.67    4.90
  -1   9  14   43.11    4.64
   1  -9 -13   19.97    3.51
  -1   9  13   16.88    2.94
  -1  -9  13   15.77    3.62
   1   9 -13   23.60    4.05
  -1   9  13   19.03    3.11
   1   9 -12    3.22    2.16
   1  -9 -12    2.75    1.84
  -1  -9  12   -0.70    2.28
  -1   9  12    5.25    2.01
  -1   9  12    5.58    2.04
  -1   9  11   84.39    6.23
  -1   9  11   98.03    7.00
   1   9 -11   90.11    7.89
  -1   9  11   93.59    6.38
   1   9 -11  101.26    7.74
  -1  -9  11   85.11    8.22
   1  -9 -11   88.08    6.90
  -1  -9  11   89.81    7.72
  -1   9  10   77.30    7.06
  -1  -9  10   87.17    8.03
   1   9 -10   94.45    7.26
  -1   9  10   77.56    6.35
  -1   9  10   96.16    6.27
  -1   9  10   89.52    6.12
  -1  -9  10   96.48    7.61
   1  -9 -10   86.92    6.60
   1   9 -10   88.69    7.79
  -1   9   9  113.23    9.22
  -1  -9   9  126.81   10.07
  -1   9   9  161.60    8.65
   1   9  -9  144.84   10.29
   1   9  -9  148.49   10.01
  -1   9   9  159.23    9.06
  -1  -9   9  159.45   10.02
  -1   9   8  485.41   21.86
  -1   9   8  487.46   21.21
  -1  -9   8  465.69   22.83
  -1  -9   8  462.33   23.78
   1   9  -8  477.20   23.14
   1   9  -8  496.16   23.78
   1   9  -7  115.55    8.59
  -1  -9   7  107.54    8.51
  -1  -9   7  111.04    7.80
  -1   9   7  116.23    6.79
   1  -9  -7  112.65    7.77
  -1   9   7  107.50    7.13
   1   9  -7  111.69    8.11
  -1  -9   6  857.76   37.24
   1  -9  -6  838.31   35.15
  -1   9   6  820.98   35.27
  -1   9   6  826.29   34.52
   1  -9  -6  850.14   34.32
   1   9  -6  827.74   36.93
   1   9  -6  912.71   36.58
   1  -9  -6  804.03   35.83
  -1  -9   6  826.26   35.97
   1  -9  -5   74.14    6.01
  -1  -9   5   83.36    6.23
   1  -9  -5   84.87    5.09
   1   9  -5   91.69    6.94
   1   9  -5   81.88    6.27
  -1   9   5   76.82    5.21
  -1   9   5   80.12    5.78
   1  -9  -5   81.82    5.63
   1   9  -4   50.99    5.12
  -1   9   4   49.00    4.23
   1  -9  -4   49.72    3.60
   1  -9  -4   44.31    3.70
   1   9  -4   54.18    4.70
  -1  -9   4   52.88    4.59
   1  -9  -4   50.73    3.99
  -1  -9   3  233.50   12.11
   1  -9  -3  224.98   10.96
   1  -9  -3  219.15   10.51
  -1  -9   3  228.57   11.84
   1   9  -3  199.27   12.25
   1  -9  -3  228.40   10.98
  -1   9   3  234.95   11.55
   1   9  -3  218.96   11.67
   1   9  -2    3.72    1.49
   1  -9  -2    2.93    1.37
   1  -9  -2    3.50    1.14
  -1  -9   2    1.53    1.28
  -1  -9   2    1.22    1.32
  -1  -9   2    2.31    1.60
   1   9  -2    2.49    1.51
  -1   9   2    3.14    1.43
   1  -9  -2    3.45    1.40
   1  -9  -2    1.58    0.96
   1  -9  -1    1.45    0.93
  -1   9   1    1.75    1.49
  -1  -9   1    1.17    1.39
  -1  -9   1    0.90    1.45
  -1  -9   1   -0.37    1.26
  -1  -9   1   -0.98    1.54
   1   9  -1    0.49    1.46
   1  -9  -1   -0.81    1.17
   1  -9  -1    1.23    1.05
   1   9  -1    0.35    1.26
   1   9   0   59.86    4.63
  -1  -9   0   63.40    4.80
   1  -9   0   62.78    4.11
  -1   9   0   52.59    4.49
  -1  -9   0   54.69    4.61
   1  -9   0   68.82    4.27
  -1  -9   0   63.28    5.02
  -1  -9   0   53.11    4.99
   1  -9   0   57.06    4.92
  -1   9   0   54.04    4.74
   1   9   0   56.46    5.10
   1  -9   1   -0.28    1.09
  -1  -9  -1    0.35    1.13
   1   9   1    0.93    1.64
  -1  -9  -1   -0.36    1.06
  -1   9  -1    0.36    1.15
  -1  -9  -1   -0.39    1.31
  -1  -9  -1    4.51    1.60
   1  -9   1    0.24    0.87
   1  -9   1    0.93    1.41
  -1   9  -2    7.98    1.86
   1   9   2    9.68    2.33
   1  -9   2    6.00    2.11
  -1  -9  -2    5.76    1.73
  -1  -9  -2    7.29    2.00
  -1  -9  -2    8.96    1.86
  -1  -9  -2    6.04    1.89
   1  -9   2    6.16    1.42
   1  -9   3    0.53    1.73
   1  -9   3    1.03    1.12
  -1  -9  -3    3.13    1.51
   1   9   3    0.46    1.33
  -1  -9  -3    2.89    1.60
  -1  -9  -3    1.26    1.45
  -1   9  -3   -0.38    1.09
  -1  -9  -3    2.31    1.54
   1   9   3    2.02    1.59
  -1  -9  -4  115.54    7.27
   1  -9   4  123.39    8.56
  -1  -9  -4  116.76    7.12
  -1  -9  -4  123.69    7.32
  -1   9  -4  110.36    7.19
   1   9   4  103.12    7.46
  -1  -9  -4  117.57    7.51
   1   9   4  112.79    7.39
   1  -9   4  108.01    6.44
  -1  -9  -5    0.84    1.28
   1  -9   5    2.42    2.27
   1   9   5    3.24    1.60
  -1   9  -5    0.82    1.38
   1   9   5    3.35    1.82
  -1  -9  -5    4.12    1.72
   1  -9   5    5.00    1.50
  -1   9  -5    4.99    1.96
  -1  -9  -5    3.82    1.63
  -1  -9  -6   56.83    4.99
   1  -9   6   67.12    6.33
  -1  -9  -6   62.30    5.03
   1  -9   6   57.38    4.45
  -1   9  -6   59.09    5.50
   1   9   6   57.96    5.34
   1   9   6   60.08    5.07
  -1  -9  -6   69.23    5.22
  -1   9  -6   55.75    5.07
   1  -9   7  255.22   14.70
  -1   9  -7  252.94   13.07
   1   9   7  217.60   12.55
  -1  -9  -7  253.29   12.88
   1   9   7  261.28   13.46
  -1  -9  -7  247.24   13.05
   1  -9   7  246.15   12.32
  -1   9  -7  242.70   13.60
  -1  -9  -7  238.50   12.83
   1   9   8   43.65    4.56
  -1   9  -8   39.88    4.78
   1  -9   8   51.24    5.80
   1  -9   8   44.72    4.19
  -1  -9  -8   50.40    4.70
   1   9   8   52.55    4.76
   1   9   8   46.61    4.69
  -1   9  -8   46.58    4.71
  -1  -9  -8   41.47    4.40
  -1  -9  -8   54.34    4.87
  -1  -9  -9   34.03    4.09
   1  -9   9   31.30    4.96
   1   9   9   36.99    4.29
   1   9   9   36.49    4.14
   1   9   9   35.11    4.12
  -1  -9  -9   31.42    3.83
   1   9   9   35.86    4.41
   1  -9   9   35.95    3.81
   1   9  10    5.76    2.19
   1   9  10    5.27    2.07
   1   9  10    2.98    2.04
   1  -9  10    0.46    1.60
   1   9  10    2.44    2.04
  -1  -9 -10    3.71    2.00
  -1  -9 -11    1.97    1.90
   1  -9  11    2.01    1.93
   1   9  11    1.10    1.84
   1   9  11    2.08    2.09
   1   9  11    2.64    2.40
  -1  -9 -12    9.07    3.17
   1   9  12   12.07    2.88
   1  -9  12   15.39    3.01
   1   9  12   10.32    2.57
  -1   9 -12   12.72    3.46
  -1  -9 -13   14.84    3.62
   1  -9  13   17.37    3.45
   1   9  13   15.67    3.29
  -1   9 -13   17.46    3.92
   1  -9  14    3.86    2.22
   1   9  14    4.43    2.31
  -1  -9 -14    0.79    2.57
  -1   9 -14    3.33    2.51
  -1  -9 -15   20.71    4.38
  -1   9 -15   18.39    4.14
   1   9  15   11.29    3.17
   1  -9  16   26.74    4.61
   1   9  16   41.10    5.26
  -1  -9 -16   31.14    5.36
  -1   9 -16   34.83    5.46
  -1  -9 -17   18.18    4.38
  -1   9 -17   26.86    4.95
   1   9  18   41.98    5.75
  -1  -9 -18   34.54    5.69
   1   9  19   19.11    4.14
  -1  -9 -19    8.03    3.79
  -1 -10  18   32.04    5.81
   1  10 -17   92.27    8.56
  -1 -10  17   65.55    7.97
  -1 -10  16   28.70    5.37
   1  10 -16   30.11    4.89
  -1  10  15   57.75    5.64
   1  10 -15   68.10    7.09
  -1 -10  15   61.78    7.06
   1 -10 -15   56.60    6.40
   1 -10 -14    3.94    2.27
   1  10 -14   12.75    3.56
  -1 -10  14    9.58    3.41
  -1  10  14    4.01    2.02
   1 -10 -13   20.32    3.68
  -1  10  13   14.13    2.73
  -1  10  13   13.36    2.73
  -1 -10  13   12.76    3.37
   1  10 -13   13.64    3.39
   1 -10 -12   62.54    5.83
  -1  10  12   54.26    5.09
  -1  10  12   62.19    5.26
  -1 -10  12   50.30    5.97
  -1 -10  11   31.42    4.46
  -1  10  11   22.49    3.24
   1 -10 -11   24.99    3.64
   1  10 -11   18.77    4.07
  -1  10  10  139.04    8.08
  -1 -10  10  138.06    9.57
  -1  10  10  116.43    8.33
   1  10 -10  109.68    9.29
   1 -10 -10  121.46    8.38
  -1 -10   9   88.49    7.33
  -1  10   9   92.50    6.88
  -1 -10   9   87.25    8.14
   1 -10  -9  100.72    7.46
  -1  10   9   95.97    6.38
   1  10  -9   89.40    7.70
   1  10  -9   93.58    8.13
  -1  10   8  298.52   14.51
  -1 -10   8  288.73   15.71
   1 -10  -8  279.28   15.71
   1  10  -8  309.42   17.02
  -1  10   8  301.72   15.25
   1  10  -8  320.50   16.60
  -1 -10   8  319.71   17.52
   1  10  -7    1.31    2.06
   1 -10  -7    4.28    2.10
   1  10  -7    0.56    1.82
  -1  10   7    1.77    1.42
  -1  10   7    4.00    1.97
  -1 -10   7    1.41    2.21
  -1 -10   7    2.08    1.80
   1 -10  -6  375.89   17.86
  -1  10   6  364.01   17.26
  -1  10   6  405.07   18.39
  -1 -10   6  411.03   18.96
   1 -10  -6  374.91   16.98
   1  10  -6  368.37   19.49
   1 -10  -6  382.51   18.87
   1  10  -6  366.57   18.72
  -1  10   5  341.46   16.25
  -1 -10   5  329.56   16.52
   1 -10  -5  330.63   16.88
   1 -10  -5  341.81   15.89
   1  10  -5  313.47   17.21
   1 -10  -5  329.22   14.98
   1  10  -5  323.52   16.57
   1 -10  -4  541.07   23.55
  -1 -10   4  561.08   24.76
   1  10  -4  542.01   24.71
   1 -10  -4  555.91   23.17
   1  10  -4  514.63   25.48
  -1  10   4  589.67   24.64
   1 -10  -4  522.94   25.01
   1 -10  -4  532.82   23.72
   1 -10  -3   96.36    5.96
   1  10  -3  101.43    6.76
   1 -10  -3   82.08    6.71
  -1 -10   3   98.57    6.95
  -1 -10   3   94.79    6.62
   1 -10  -3   97.74    6.07
   1  10  -3   74.26    6.76
  -1  10   3   93.37    6.44
  -1 -10   3   76.92    6.79
   1 -10  -3   97.46    5.62
   1 -10  -3   98.02    6.62
  -1  10   2   25.81    3.23
  -1 -10   2   27.50    3.67
  -1 -10   2   34.19    3.68
   1 -10  -2   32.21    2.84
   1  10  -2   35.83    3.74
   1  10  -2   27.11    3.86
   1 -10  -2   29.27    2.95
   1 -10  -2   28.97    3.80
   1 -10  -2   23.46    3.24
   1 -10  -2   28.08    3.13
  -1 -10   2   31.12    3.64
   1 -10  -1   65.11    4.37
  -1 -10   1   72.76    5.33
  -1  10   1   59.85    4.96
   1  10  -1   57.68    5.48
  -1 -10   1   60.11    5.06
   1 -10  -1   59.44    5.28
   1  10  -1   66.08    5.06
  -1 -10   1   67.44    5.71
  -1 -10   1   51.38    5.26
   1 -10  -1   52.51    4.10
   1 -10   0  295.95   13.96
   1  10   0  271.91   14.51
  -1  10   0  295.49   14.92
  -1 -10   0  305.93   15.35
  -1 -10   0  326.75   15.81
   1  10   0  282.02   15.61
  -1 -10   0  323.16   15.04
  -1  10   0  307.41   15.19
  -1 -10   0  325.15   15.22
   1 -10   0  323.42   15.82
  -1 -10   0  309.40   16.08
   1 -10   0  303.76   13.88
  -1 -10  -1  225.53   11.43
  -1  10  -1  229.97   11.77
   1 -10   1  209.23   10.51
  -1 -10  -1  219.48   11.83
  -1  10  -1  206.24   11.72
   1 -10   1  225.80   12.50
   1 -10   1  222.26   10.91
   1  10   1  212.25   12.26
  -1 -10  -1  224.27   11.64
  -1 -10  -1  204.10   12.16
  -1 -10  -2   20.89    2.81
   1  10   2   21.19    3.38
   1 -10   2   17.23    2.51
  -1 -10  -2   13.90    2.39
  -1 -10  -2   13.94    2.64
  -1  10  -2   20.76    2.87
  -1 -10  -2   12.25    2.53
   1 -10   2   16.14    3.11
  -1  10  -2   15.22    2.72
   1 -10   2   15.84    2.12
   1 -10   3  101.97    6.09
   1  10   3   97.64    7.31
  -1 -10  -3  107.62    6.88
  -1  10  -3   98.90    6.84
  -1 -10  -3  110.66    7.18
  -1 -10  -3   86.64    6.86
  -1 -10  -3  102.40    6.72
   1 -10   3  102.99    7.93
   1 -10   4  482.60   25.12
  -1 -10  -4  571.80   23.85
  -1 -10  -4  535.02   23.85
  -1  10  -4  537.49   23.87
  -1 -10  -4  504.66   23.33
   1  10   4  527.57   24.56
  -1 -10  -4  546.01   24.32
   1 -10   4  519.06   22.65
   1  10   4  519.92   23.89
   1  10   5   15.55    3.10
   1 -10   5   11.96    3.13
  -1 -10  -5   11.49    2.61
  -1 -10  -5   11.36    2.33
  -1  10  -5   12.30    2.52
   1 -10   5   14.46    2.17
   1  10   5    9.60    2.34
  -1 -10  -5   15.28    2.54
   1  10   6    4.67    2.18
   1 -10   6    2.09    1.93
  -1 -10  -6    1.70    1.78
   1  10   6    4.19    2.01
   1 -10   6    3.04    1.50
  -1 -10  -6    1.94    1.67
  -1 -10  -6    1.72    1.61
  -1  10  -6    0.47    2.03
  -1 -10  -7  236.21   12.60
   1  10   7  249.37   13.03
   1 -10   7  252.68   12.23
  -1  10  -7  234.72   13.63
  -1 -10  -7  226.03   12.85
   1  10   7  229.60   13.16
  -1  10  -7  226.63   12.84
   1 -10   7  245.97   14.86
  -1 -10  -7  240.20   12.79
  -1 -10  -8  364.81   18.07
   1 -10   8  352.18   19.99
   1  10   8  338.45   18.22
  -1 -10  -8  412.02   18.32
   1 -10   8  349.12   17.26
  -1 -10  -8  383.77   18.60
  -1  10  -8  362.09   19.01
  -1  10  -8  383.96   18.39
   1  10   8  373.61   18.21
   1  10   9   26.81    3.79
  -1 -10  -9   27.75    3.74
  -1 -10  -9   28.46    3.57
   1  10   9   21.64    3.73
   1 -10   9   27.72    3.38
   1  10   9   14.17    3.18
  -1 -10  -9   25.57    3.64
  -1  10  -9   17.91    3.26
   1  10   9   20.19    3.79
   1 -10  10    0.93    1.87
   1  10  10   -0.65    1.87
  -1 -10 -10    0.66    1.82
   1  10  10   -0.53    1.86
   1  10  10    2.26    2.06
  -1 -10 -11    9.63    2.96
   1 -10  11   11.68    2.78
   1  10  11    9.38    2.53
   1  10  11   12.08    2.78
   1 -10  12   11.54    2.71
  -1 -10 -12   10.90    3.06
   1  10  12    8.52    2.82
   1  10  13   27.81    4.26
  -1 -10 -13   19.33    3.98
   1 -10  13   24.82    3.87
  -1  10 -13   21.74    4.35
  -1  10 -14   33.83    5.22
  -1 -10 -14   35.14    5.33
   1 -10  14   33.04    4.76
   1  10  14   38.81    5.04
  -1  10 -15    6.22    3.07
  -1 -10 -15    8.62    3.61
   1 -10  15    2.73    2.15
   1  10  15    4.12    2.30
   1  10  16    9.31    3.07
  -1  10 -16    6.49    3.21
  -1 -10 -16    8.94    3.27
   1  10  17    7.47    3.33
  -1 -10 -17   13.06    4.00
   1  10  18   -0.78    2.84
  -1 -10 -18    1.96    2.84
  -1 -11  17   50.74    6.98
  -1 -11  16   18.74    4.54
  -1 -11  15   52.57    6.65
  -1 -11  14   28.99    4.88
   1 -11 -14   27.35    4.37
   1 -11 -13    3.89    2.24
  -1 -11  13    8.39    2.93
   1 -11 -12   67.95    6.15
  -1 -11  12   45.85    5.86
   1 -11 -11    6.39    2.39
   1 -11 -11    1.33    2.49
  -1 -11  11    4.74    2.34
  -1  11  11    4.55    1.87
  -1 -11  10    5.08    2.32
   1 -11 -10    0.64    1.62
  -1  11  10    4.76    1.81
   1  11 -10    4.60    2.57
  -1 -11   9    1.80    1.81
  -1  11   9    2.11    1.82
  -1  11   9    0.83    1.52
   1 -11  -9    3.11    2.02
   1  11  -9    2.99    2.26
   1  11  -8   68.08    7.05
  -1  11   8   72.43    5.56
   1 -11  -8   60.44    6.04
  -1  11   8   60.73    5.86
   1 -11  -7   57.01    5.53
  -1 -11   7   55.39    5.29
  -1 -11   7   62.77    6.65
   1  11  -7   44.33    5.70
  -1  11   7   47.81    4.43
   1  11  -7   65.42    5.96
  -1  11   7   57.80    5.32
   1 -11  -7   61.09    4.55
   1 -11  -6  293.26   13.37
   1  11  -6  261.37   14.74
   1 -11  -6  266.69   14.05
  -1 -11   6  266.95   14.66
  -1  11   6  271.34   14.47
   1 -11  -6  284.77   15.29
   1  11  -6  304.80   16.31
  -1  11   5   88.30    6.77
   1  11  -5   87.97    6.93
   1 -11  -5  105.88    7.61
   1 -11  -5   91.48    6.33
   1 -11  -5   87.26    5.61
   1  11  -5   82.92    7.37
  -1 -11   5   84.64    6.65
   1 -11  -4   29.08    3.74
   1 -11  -4   37.94    4.38
   1 -11  -4   34.38    3.51
  -1  11   4   35.43    3.97
  -1 -11   4   25.64    3.80
  -1 -11   4   32.81    3.89
   1 -11  -4   39.99    3.69
   1 -11  -4   34.08    3.14
   1  11  -4   31.19    4.01
   1  11  -4   34.22    4.46
  -1 -11   3   21.49    3.30
  -1 -11   3   12.60    2.58
   1 -11  -3   16.42    2.44
  -1  11   3   20.23    2.98
  -1 -11   3   14.72    3.02
   1  11  -3   19.06    3.16
   1 -11  -3   17.88    2.97
   1 -11  -3   17.60    2.29
   1  11  -3   17.38    3.43
   1 -11  -3   19.24    3.34
   1 -11  -3   18.25    2.46
   1 -11  -2    7.05    1.66
   1 -11  -2    3.56    1.40
   1  11  -2    2.43    1.98
  -1 -11   2    6.07    2.00
   1 -11  -2    6.38    2.06
  -1  11   2    8.26    2.11
  -1 -11   2   11.02    2.45
   1  11  -2    7.16    2.10
   1 -11  -2    4.78    1.78
  -1 -11   2    6.94    2.43
   1 -11  -2    5.38    2.25
   1 -11  -1   -1.04    1.51
  -1 -11   1   -1.37    1.53
   1 -11  -1   -0.38    1.28
   1 -11  -1   -0.30    1.01
  -1 -11   1   -0.55    1.46
  -1  11   1    0.91    1.42
   1  11  -1   -0.60    1.65
  -1 -11   1   -0.42    1.23
   1  11  -1   -0.87    1.51
   1 -11  -1    0.62    1.56
   1 -11  -1    0.31    1.09
  -1 -11   0   51.56    5.02
   1 -11   0   50.47    5.10
   1  11   0   34.97    3.84
  -1 -11   0   45.03    4.15
  -1  11   0   41.79    4.21
  -1 -11   0   40.99    4.36
   1 -11   0   33.56    4.52
  -1 -11   0   43.31    4.21
   1 -11   0   44.08    3.66
  -1 -11   0   23.76    3.92
  -1  11   0   44.33    4.49
   1 -11   0   43.28    3.56
   1  11   0   47.16    5.10
  -1 -11  -1   43.16    4.49
  -1  11  -1   54.30    4.89
  -1 -11  -1   57.41    4.67
   1 -11   1   54.74    5.42
   1 -11   1   50.64    4.13
   1 -11   1   47.20    3.84
   1  11   1   37.48    4.60
  -1  11  -1   42.81    4.40
  -1 -11  -1   41.48    4.84
  -1 -11  -1   49.52    4.50
  -1 -11  -2    0.41    1.44
   1 -11   2    0.30    1.08
  -1  11  -2   -0.49    1.29
  -1 -11  -2    1.71    1.51
   1  11   2    4.00    2.14
   1 -11   2    1.23    1.55
   1 -11   2    2.53    1.48
  -1 -11  -2    5.14    1.91
  -1  11  -2   -0.47    1.52
  -1 -11  -2    0.46    1.60
  -1 -11  -3   41.00    4.00
   1  11   3   30.44    4.14
  -1 -11  -3   37.79    4.14
   1 -11   3   37.30    3.37
  -1 -11  -3   39.20    4.40
  -1  11  -3   38.50    4.13
   1 -11   3   41.03    4.88
  -1 -11  -3   32.47    3.68
   1 -11   3   33.23    3.60
  -1  11  -3   34.15    4.04
  -1 -11  -4  197.72   11.16
  -1 -11  -4  197.17   11.87
   1 -11   4  221.23   10.67
   1  11   4  223.72   12.57
  -1  11  -4  190.80   11.71
  -1  11  -4  199.15   11.54
   1 -11   4  209.99   13.02
  -1 -11  -4  208.52   11.64
  -1 -11  -4  213.25   11.39
   1 -11   5    0.73    1.92
  -1  11  -5   -0.50    1.68
   1  11   5    1.73    1.93
  -1 -11  -5    0.89    1.53
  -1 -11  -5    1.08    1.75
   1 -11   5    0.33    1.31
  -1 -11  -5    0.88    1.60
   1  11   5   -0.99    1.90
   1 -11   6   18.16    3.69
  -1  11  -6   22.85    3.34
   1  11   6   14.53    3.18
   1 -11   6   15.62    2.44
   1  11   6   17.20    3.12
  -1 -11  -6   14.97    2.79
  -1 -11  -6   14.76    2.70
  -1 -11  -6   22.82    3.43
   1  11   7    4.66    2.13
   1 -11   7    3.16    2.65
  -1 -11  -7    4.40    1.97
  -1 -11  -7    7.02    2.08
  -1 -11  -7    6.60    2.35
   1 -11   7    1.52    1.32
   1  11   7    2.94    1.97
  -1  11  -7    3.74    2.00
  -1 -11  -8  442.01   20.88
  -1 -11  -8  407.48   20.27
   1 -11   8  438.00   19.87
  -1  11  -8  430.92   20.91
  -1 -11  -8  421.97   20.94
   1  11   8  432.04   20.83
  -1  11  -9    7.31    2.50
  -1 -11  -9    4.09    2.40
  -1  11  -9    6.97    2.87
  -1 -11  -9    4.63    2.16
   1  11   9    7.59    2.53
   1 -11   9    6.14    2.09
  -1 -11  -9    3.33    2.09
  -1 -11 -10   94.74    7.34
  -1 -11 -10   80.33    6.98
   1 -11  10   91.35    6.60
   1  11  10   77.07    6.84
   1 -11  11    2.02    1.89
  -1 -11 -11    3.62    2.35
  -1 -11 -11    0.62    1.96
  -1 -11 -12   42.64    5.73
  -1 -11 -12   44.88    5.29
   1  11  12   47.44    5.33
   1 -11  12   43.62    4.89
   1  11  13    5.99    2.51
   1 -11  13    8.21    2.71
  -1  11 -13   10.75    3.40
  -1 -11 -13    9.65    3.44
  -1  11 -14    8.64    3.40
  -1 -11 -14    5.07    3.09
   1  11  14    4.15    2.53
  -1 -11 -15    8.94    3.27
  -1  11 -15    9.03    3.47
   1  11  15    3.58    2.25
  -1 -11 -16   16.74    4.51
   1  11  16   15.62    3.73
   1  11  17    2.31    2.66
  -1 -11 -17   -2.89    3.12
  -1 -12  16    1.79    2.99
  -1 -12  15   95.92    9.01
  -1 -12  14   12.85    3.71
   1 -12 -14   11.91    3.55
   1 -12 -13   42.21    5.40
  -1 -12  13   53.43    6.22
   1 -12 -13   58.23    6.53
   1 -12 -12    3.88    2.37
  -1 -12  12    7.92    3.08
   1 -12 -12    6.68    3.17
   1 -12 -11   19.29    3.44
  -1 -12  11   17.06    3.54
   1 -12 -11   17.20    3.66
   1 -12 -10   88.99    7.75
  -1 -12  10   88.90    7.64
  -1 -12   9    4.33    2.38
  -1  12   9    4.90    2.15
   1 -12  -9    8.77    3.20
   1  12  -9   11.08    3.45
  -1  12   8  270.03   13.75
   1  12  -8  282.81   16.33
  -1 -12   8  289.99   15.26
  -1  12   7  247.59   13.67
   1  12  -7  228.12   14.66
   1 -12  -7  244.36   12.29
   1 -12  -7  237.33   14.15
  -1 -12   7  252.30   13.84
   1 -12  -6    5.05    1.92
  -1 -12   6    5.87    2.19
   1  12  -6    5.08    2.58
  -1  12   6    1.07    1.96
   1 -12  -6    3.21    2.41
   1 -12  -6    3.38    1.56
  -1 -12   5   25.10    3.49
  -1 -12   5   33.79    4.24
   1  12  -5   26.86    3.78
   1 -12  -5   21.16    3.61
   1 -12  -5   17.03    2.52
   1 -12  -5   19.28    3.00
  -1  12   5   17.97    3.32
   1  12  -5   12.69    3.48
   1 -12  -5   27.16    3.59
   1 -12  -4   21.97    3.73
  -1  12   4   20.82    3.40
   1 -12  -4   23.63    3.10
   1  12  -4   28.82    3.79
  -1 -12   4   22.62    3.32
   1 -12  -4   21.62    2.60
   1 -12  -4   26.55    3.36
   1 -12  -4   24.45    3.44
   1  12  -4   15.81    3.55
  -1 -12   4   21.69    3.62
   1 -12  -3  150.08    8.61
   1 -12  -3  132.61    9.19
  -1 -12   3  145.84    9.18
   1 -12  -3  147.00    8.13
   1  12  -3  129.37    9.98
  -1 -12   3  140.45   10.19
   1 -12  -3  157.61   10.41
  -1 -12   3  156.79    9.71
  -1  12   3  151.27    9.54
   1  12  -3  160.33    9.60
   1 -12  -3  145.98    8.64
   1 -12  -2   25.07    3.15
   1  12  -2   24.96    3.42
  -1 -12   2   17.97    3.51
   1 -12  -2   26.24    2.97
  -1 -12   2   21.64    3.18
  -1  12   2   26.62    3.72
  -1 -12   2   27.06    3.66
   1 -12  -2   20.84    3.36
   1  12  -2   18.68    3.72
   1 -12  -2   24.49    2.73
   1 -12  -2   22.99    3.77
   1 -12  -1   38.41    3.54
  -1 -12   1   40.55    4.07
   1  12  -1   33.96    4.01
  -1 -12   1   36.94    4.38
  -1  12   1   38.19    4.34
   1  12  -1   37.29    4.79
   1 -12  -1   40.53    4.12
   1 -12  -1   39.16    3.62
  -1 -12   1   37.11    4.63
   1 -12  -1   31.35    4.27
   1 -12  -1   30.67    4.51
  -1 -12   1   39.26    4.24
  -1 -12   0   70.35    6.85
   1  12   0   78.49    6.94
  -1 -12   0   74.83    5.75
  -1 -12   0   78.75    6.62
   1 -12   0   62.94    6.66
   1 -12   0   63.54    4.85
   1 -12   0   78.54    5.36
  -1  12   0   72.23    6.10
  -1 -12   0   78.33    6.10
   1 -12   0   66.03    6.42
  -1 -12   0   79.08    6.44
  -1 -12  -1   -1.41    1.96
  -1 -12  -1    0.87    1.41
   1 -12   1    0.97    1.24
  -1 -12  -1    0.51    1.65
  -1 -12  -1    4.01    2.09
  -1 -12  -1    0.58    1.60
   1  12   1    2.56    1.93
  -1  12  -1    2.57    1.77
  -1  12  -1    1.04    1.51
   1 -12   1    1.45    1.29
   1 -12   1    1.94    1.87
   1 -12   1    2.89    2.42
  -1  12  -2  119.55    8.07
  -1 -12  -2  111.19    7.25
  -1 -12  -2  103.09    8.21
  -1 -12  -2  102.56    7.61
  -1  12  -2  110.65    7.86
   1  12   2  101.13    8.13
   1 -12   2  106.86    6.93
  -1 -12  -2  101.13    7.27
   1 -12   2   94.79    8.11
   1 -12   2  113.16    6.67
  -1 -12  -3   15.04    2.72
   1 -12   3    7.59    1.79
  -1 -12  -3    9.51    2.51
   1  12   3   13.28    3.06
  -1  12  -3    7.37    2.32
  -1 -12  -3   13.82    2.50
   1 -12   3   12.42    2.50
   1 -12   3   10.00    2.83
  -1 -12  -3    9.39    2.54
   1 -12   4  169.29   11.67
   1 -12   4  168.62    9.79
  -1 -12  -4  166.69    9.90
  -1  12  -4  163.18   10.24
   1  12   4  155.66   10.76
   1 -12   4  169.02    9.08
  -1 -12  -4  178.26   11.05
  -1 -12  -4  160.63   10.12
  -1 -12  -4  164.89    9.82
  -1 -12  -5    4.72    1.92
   1 -12   5   11.69    2.18
   1  12   5    9.56    2.84
  -1 -12  -5   12.32    2.53
  -1 -12  -5    9.13    2.47
  -1  12  -5    9.33    2.41
  -1 -12  -6    3.47    1.76
   1  12   6    2.72    2.19
   1 -12   6    4.09    1.71
  -1  12  -6    3.96    2.07
  -1 -12  -6    7.87    2.54
  -1 -12  -6    4.35    2.03
   1 -12   7    5.13    1.88
  -1  12  -7    7.52    2.48
   1  12   7    2.22    1.69
  -1 -12  -7    8.38    2.29
  -1 -12  -7    6.44    2.04
  -1 -12  -7    7.35    2.52
  -1 -12  -8   23.27    3.76
   1  12   8   15.90    3.10
  -1 -12  -8   15.35    2.94
   1 -12   8   18.38    2.86
  -1  12  -8   11.76    2.81
  -1 -12  -8   16.13    3.26
  -1 -12  -9   39.30    5.02
  -1 -12  -9   35.50    4.56
   1 -12   9   41.57    4.31
  -1 -12  -9   45.30    4.99
   1  12   9   42.60    5.00
  -1  12  -9   41.46    5.04
  -1 -12 -10   -0.62    2.15
   1 -12  10    0.96    1.74
  -1 -12 -10   -0.65    2.19
  -1 -12 -11   83.74    7.72
  -1 -12 -11  107.87    9.02
   1 -12  11  104.90    7.46
  -1 -12 -12  109.15    8.64
  -1 -12 -12   94.08    8.78
  -1 -12 -13    5.85    2.89
  -1 -12 -13    5.79    2.78
  -1 -12 -14   14.09    3.79
  -1 -12 -14   12.72    3.58
  -1 -12 -15    2.77    3.10
   1  12  15    7.42    3.05
  -1 -12 -15   10.87    3.45
  -1 -12 -16   74.28    8.52
   1  12  16   82.18    7.93
  -1 -13  14    8.02    3.37
  -1 -13  13   -0.77    2.56
   1 -13 -12    9.60    2.93
   1 -13 -12    6.36    3.19
  -1 -13  12    1.46    2.59
  -1 -13  11    9.75    3.15
   1 -13 -11    7.71    3.11
   1 -13 -11    6.65    2.57
  -1 -13  10    9.97    2.80
   1 -13 -10    9.74    3.09
   1 -13  -9    9.55    3.03
  -1 -13   9    7.62    2.57
   1 -13  -8    4.34    2.27
  -1 -13   8    3.63    1.90
   1 -13  -7   18.57    2.64
  -1 -13   7   27.04    4.14
   1  13  -7   20.10    4.14
   1 -13  -6   11.29    2.68
  -1 -13   6   16.66    3.13
  -1 -13   6   17.34    3.52
   1 -13  -6   15.28    3.27
   1 -13  -6   16.33    3.45
   1 -13  -6   10.82    2.34
  -1  13   6   14.84    3.52
   1  13  -6   17.91    3.89
  -1 -13   5   28.83    3.94
   1  13  -5   29.64    4.60
   1 -13  -5   28.64    4.06
  -1  13   5   30.42    4.18
  -1 -13   5   24.03    3.95
   1 -13  -5   22.15    3.33
   1 -13  -5   26.00    3.14
   1 -13  -5   20.74    4.04
  -1 -13   4   21.32    3.66
   1 -13  -4   12.21    3.33
   1 -13  -4   24.19    3.61
   1 -13  -4   19.27    2.95
  -1  13   4   22.59    3.65
   1 -13  -4   24.69    3.35
   1  13  -4   19.31    4.01
   1 -13  -4   27.49    3.03
  -1 -13   4   16.40    3.19
  -1 -13   3   67.30    5.74
  -1 -13   3   62.37    5.94
   1 -13  -3   70.26    5.29
  -1  13   3   50.04    5.49
   1 -13  -3   60.89    5.19
   1 -13  -3   58.94    6.32
   1  13  -3   65.36    6.65
   1 -13  -3   62.08    5.97
   1 -13  -3   59.30    4.68
   1 -13  -2   20.35    3.13
   1  13  -2   21.84    4.11
  -1 -13   2   21.91    3.37
  -1 -13   2   23.32    3.60
  -1  13   2   20.39    3.54
   1 -13  -2   15.92    3.37
   1 -13  -2   21.66    3.00
   1 -13  -2   18.56    2.76
   1 -13  -2   24.15    4.07
   1 -13  -1    3.22    1.95
   1  13  -1    2.85    1.98
   1 -13  -1    5.18    1.76
   1 -13  -1    6.22    2.52
   1 -13  -1    5.98    2.04
  -1  13   1    6.24    2.42
   1 -13  -1    1.43    1.59
  -1 -13   1    3.67    2.06
  -1 -13   1   -0.58    1.82
  -1 -13   1    5.68    2.14
   1 -13   0  158.20   10.83
   1 -13   0  130.63   10.62
  -1 -13   0  162.56    9.56
  -1 -13   0  168.37   10.10
   1 -13   0  163.96    8.87
   1  13   0  148.54   10.86
  -1 -13   0  157.58   10.22
  -1 -13   0  153.64   11.10
   1 -13   0  157.98    8.91
  -1  13   0  149.78   10.11
   1 -13   0  156.68    9.59
  -1 -13  -1    0.93    1.51
  -1 -13  -1    1.51    1.63
  -1 -13  -1    5.16    2.31
   1  13   1    1.41    2.42
   1 -13   1    4.28    1.69
  -1  13  -1    4.00    1.85
  -1 -13  -1    2.21    2.17
   1 -13   1    4.25    2.45
   1 -13   1    1.41    1.35
  -1 -13  -2    7.62    2.46
  -1  13  -2    5.77    2.27
   1  13   2    6.92    2.72
  -1 -13  -2    7.25    2.85
   1 -13   2    4.95    1.84
  -1 -13  -2    5.92    2.07
   1 -13   2    4.20    1.64
  -1 -13  -2    4.68    1.85
  -1  13  -3   12.74    2.91
  -1 -13  -3    9.45    2.39
   1 -13   3   15.89    2.74
  -1 -13  -3   16.23    3.58
   1 -13   3   16.21    2.43
  -1 -13  -3   12.84    2.78
  -1 -13  -3   11.36    2.65
  -1 -13  -4   51.15    4.91
   1 -13   4   42.76    4.07
  -1 -13  -4   53.80    5.84
   1 -13   4   52.91    4.82
  -1 -13  -4   39.38    4.44
  -1  13  -4   52.25    5.38
  -1 -13  -4   44.66    4.95
  -1 -13  -5    2.03    1.85
  -1  13  -5    1.80    1.88
   1 -13   5    4.14    1.76
  -1 -13  -5    4.03    1.93
   1 -13   5    2.98    1.72
  -1 -13  -5    4.08    2.21
  -1 -13  -6   27.55    3.84
  -1 -13  -6   18.94    3.30
   1 -13   6   24.58    3.13
  -1 -13  -6   27.78    4.26
  -1  13  -6   23.31    3.81
  -1 -13  -7    4.71    2.28
  -1 -13  -7    3.38    2.34
  -1 -13  -7    5.03    2.30
   1 -13   7    6.94    2.09
  -1 -13  -8    6.45    2.51
   1 -13   8    6.03    2.14
  -1 -13  -8    1.18    2.04
  -1 -13  -8    7.51    2.92
   1 -13   9   21.37    3.26
  -1 -13  -9   21.78    4.04
  -1 -13  -9   14.63    3.18
  -1 -13 -10    4.59    2.27
  -1 -13 -10    7.08    2.72
  -1 -13 -11   36.41    5.42
  -1 -13 -11   28.32    4.82
  -1 -13 -12   24.71    4.47
  -1 -13 -12   21.75    4.40
  -1 -13 -13    3.09    2.89
  -1 -13 -13    4.36    3.01
  -1 -13 -14    2.75    3.34
  -1 -14  13    0.77    2.42
  -1 -14  12   68.26    7.17
  -1 -14  11   24.76    4.28
   1 -14 -11   22.35    4.57
  -1 -14  10   16.22    3.67
   1 -14 -10   13.86    3.84
  -1 -14   9   -0.65    2.17
   1 -14  -9   -0.80    3.00
  -1 -14   8   39.36    5.56
  -1 -14   8   29.74    4.40
   1 -14  -8   46.73    5.94
  -1 -14   7   51.32    5.92
  -1 -14   7   52.45    5.57
   1 -14  -7   54.95    6.44
   1 -14  -6   33.98    3.83
   1 -14  -6   34.05    4.23
  -1 -14   6   40.61    4.84
   1 -14  -6   33.83    5.12
  -1 -14   6   44.53    5.33
   1 -14  -5   49.36    4.46
  -1 -14   5   51.97    5.26
  -1 -14   5   56.54    5.98
   1 -14  -5   41.06    5.72
   1 -14  -5   49.56    4.98
   1 -14  -4    4.09    1.79
   1 -14  -4    5.61    2.18
  -1 -14   4    3.75    2.20
   1 -14  -4    3.73    1.92
  -1  14   4    1.92    2.28
  -1 -14   4    5.60    2.39
   1 -14  -4    4.02    2.61
  -1  14   3  232.46   14.08
  -1 -14   3  250.20   14.16
   1 -14  -3  246.44   13.31
   1 -14  -3  255.62   12.63
   1 -14  -3  247.85   15.46
  -1 -14   3  260.35   13.84
   1 -14  -3  241.93   12.96
   1 -14  -2    5.02    2.97
  -1 -14   2    3.07    2.10
  -1  14   2    3.13    2.22
   1 -14  -2    3.01    1.70
  -1 -14   2    0.57    1.93
   1 -14  -2    2.10    1.86
   1 -14  -2    2.40    2.27
   1 -14  -1   14.89    2.61
   1 -14  -1   11.89    2.36
  -1 -14   1   15.63    3.17
  -1  14   1    8.16    2.82
  -1 -14   1   12.94    2.83
   1 -14  -1    8.43    2.46
   1 -14  -1   18.75    4.06
   1 -14   0   -0.78    1.72
   1 -14   0    1.60    1.80
  -1  14   0    1.88    2.10
   1 -14   0    0.86    2.38
   1 -14   0    1.03    1.67
  -1 -14   0   -1.09    2.19
  -1 -14   0    1.49    1.85
  -1 -14  -1  302.08   15.42
  -1  14  -1  276.46   16.07
   1 -14   1  296.74   14.48
  -1 -14  -1  322.63   15.93
   1 -14   1  303.90   14.85
  -1 -14  -1  268.16   16.95
  -1 -14  -2   48.16    5.98
  -1 -14  -2   51.08    5.06
   1 -14   2   48.94    4.66
  -1 -14  -2   44.94    4.78
  -1  14  -2   47.44    5.54
   1 -14   2   47.09    4.32
   1 -14   3   19.29    2.71
  -1 -14  -3   13.68    3.03
   1 -14   3   21.32    3.24
  -1 -14  -3   15.69    3.07
  -1  14  -3   18.36    3.46
  -1 -14  -3   16.52    3.89
   1 -14   4   53.01    4.56
  -1 -14  -4   49.08    5.12
  -1 -14  -4   42.41    5.89
  -1 -14  -4   62.03    5.57
   1 -14   4   53.89    5.16
  -1 -14  -5   51.15    5.24
  -1 -14  -5   49.35    5.04
   1 -14   5   49.14    5.00
  -1 -14  -5   46.80    5.87
   1 -14   5   47.07    4.40
   1 -14   6   87.79    7.25
  -1 -14  -6   91.68    7.38
  -1 -14  -6  100.01    7.47
   1 -14   6  111.09    7.01
  -1 -14  -6  103.55    8.73
   1 -14   7   -0.42    1.55
  -1 -14  -7    0.55    1.95
  -1 -14  -7   -0.75    2.08
  -1 -14  -7   -0.59    1.99
  -1 -14  -8   10.71    2.73
  -1 -14  -8    5.63    2.84
  -1 -14  -8   11.26    3.40
  -1 -14  -9   25.67    4.26
  -1 -14  -9   32.87    4.58
  -1 -14 -11    1.71    2.67
  -1 -14 -11    2.36    2.55
  -1 -14 -12    4.81    3.43
  -1 -14 -12    6.15    3.21
  -1 -14 -13   61.11    7.32
  -1 -15  11    2.15    2.47
  -1 -15  10    5.48    2.87
   1 -15  -9   75.03    7.93
  -1 -15   9   76.64    7.64
  -1 -15   9   79.88    7.28
  -1 -15   8    2.28    3.12
  -1 -15   8    2.53    2.49
   1 -15  -8    1.74    2.52
  -1 -15   7   63.39    6.39
  -1 -15   7   82.55    7.53
   1 -15  -7   68.33    7.54
  -1 -15   6   11.30    3.47
   1 -15  -6   10.60    3.05
  -1 -15   6   10.62    3.11
   1 -15  -6    8.67    3.27
  -1 -15   5   79.64    6.73
   1 -15  -5   81.06    6.47
  -1 -15   5   74.63    7.18
   1 -15  -5   62.31    7.41
  -1 -15   4    7.80    2.62
   1 -15  -4    5.03    2.35
  -1 -15   4    4.48    2.35
   1 -15  -4    6.24    3.17
   1 -15  -3   14.32    2.82
  -1 -15   3   14.39    3.36
  -1 -15   3   14.73    3.18
   1 -15  -3   16.30    4.19
  -1 -15   2   10.29    2.93
  -1 -15   2    6.87    2.56
   1 -15  -2   11.09    3.56
   1 -15  -2    9.11    2.40
   1 -15  -1   60.63    5.18
  -1 -15   1   57.43    5.43
  -1 -15   1   58.52    5.82
   1 -15  -1   48.22    6.55
  -1  15   1   71.95    6.82
   1 -15   0    0.84    1.57
   1 -15   0    0.42    1.65
  -1 -15   0    0.52    1.81
  -1 -15   0    0.58    2.05
   1 -15   1    0.41    1.67
  -1 -15  -1   -0.53    1.64
  -1 -15  -1   -0.56    1.88
   1 -15   1    0.44    1.61
  -1 -15  -2   14.00    3.97
   1 -15   2   10.91    2.30
   1 -15   2   20.67    3.23
  -1 -15  -2   12.28    3.03
  -1 -15  -2   11.62    2.91
  -1 -15  -3   14.59    3.13
   1 -15   3   16.09    2.70
  -1 -15  -3   10.47    3.48
  -1 -15  -3   16.72    3.25
   1 -15   3   22.72    3.37
  -1 -15  -4   13.95    3.12
   1 -15   4    7.72    2.10
   1 -15   4    9.75    2.61
  -1 -15  -4    8.54    3.30
  -1 -15  -4   13.47    3.03
  -1 -15  -5    2.89    2.11
  -1 -15  -5    1.69    2.82
  -1 -15  -5    4.50    2.44
   1 -15   5    0.55    1.77
  -1 -15  -6   47.71    5.16
   1 -15   6   35.65    4.66
  -1 -15  -6   41.02    5.07
  -1 -15  -6   45.70    6.11
   1 -15   7   -0.61    2.03
  -1 -15  -7   -1.16    2.42
  -1 -15  -7    3.30    2.67
  -1 -15  -7    3.16    2.48
  -1 -15  -8    7.94    2.90
  -1 -15  -8    8.25    2.54
  -1 -15  -8   16.48    3.92
  -1 -15  -9    9.17    2.91
  -1 -15  -9    6.25    2.80
  -1 -15  -9    4.97    3.03
  -1 -15 -10   41.79    5.94
  -1 -16   9   19.65    4.70
  -1 -16   8    5.17    2.72
  -1 -16   8    7.87    3.10
  -1 -16   7   23.14    4.02
  -1 -16   7   24.35    4.59
  -1 -16   6    5.86    3.02
  -1 -16   6    9.75    2.94
  -1 -16   5  155.78   11.05
  -1 -16   5  160.08   10.47
   1 -16  -5  159.80   12.48
   1 -16  -5  156.52   10.17
   1 -16  -4    2.15    2.25
   1 -16  -4   -0.98    2.84
  -1 -16   4    1.16    1.94
  -1 -16   4    1.35    2.26
  -1 -16   3   81.64    7.22
   1 -16  -3   82.61    6.51
  -1 -16   3   77.12    6.77
   1 -16  -3   70.89    8.26
   1 -16  -2   14.97    4.03
  -1 -16   2   13.37    3.09
  -1 -16   2   12.09    3.10
   1 -16  -2   11.77    2.67
   1 -16  -1   18.80    2.96
  -1 -16   1   28.57    4.19
   1 -16  -1   13.98    4.16
  -1 -16   1   21.00    3.66
   1 -16   0    0.91    1.86
  -1 -16   0    0.60    1.95
  -1 -16   0    2.21    1.96
  -1 -16  -1   26.09    3.99
   1 -16   1   24.66    3.49
  -1 -16  -1   20.18    3.62
  -1 -16  -2   23.58    5.11
  -1 -16  -2   29.44    4.12
  -1 -16  -2   32.61    4.40
  -1 -16  -3   29.97    4.15
  -1 -16  -3   30.16    5.44
  -1 -16  -3   44.70    5.16
  -1 -16  -4   34.09    4.42
  -1 -16  -4   27.37    4.10
  -1 -16  -5    4.71    2.22
  -1 -16  -5    1.85    2.91
  -1 -16  -6    1.19    2.22
  -1 -16  -6    1.92    2.21
  -1 -16  -6   -1.83    3.16
  -1 -16  -7   80.99    7.47
  -1 -16  -7   74.58    8.12
  -1 -17   7   -0.78    2.36
  -1 -17   6   -0.75    2.67
  -1 -17   5    6.07    2.50
  -1 -17   5    2.17    2.71
   1 -17  -5    7.21    2.67
  -1 -17   4   30.77    4.99
  -1 -17   4   43.29    5.03
  -1 -17   3   -0.59    2.03
  -1 -17   3   -0.68    2.35
  -1 -17   2   36.05    4.54
  -1 -17   2   36.51    4.94
  -1 -17   1   -1.74    2.38
  -1 -17   1    0.65    2.16
  -1 -17   0    0.58    2.01
  -1 -17   0    1.89    1.97
  -1 -17  -1    4.68    2.40
  -1 -17  -1    3.11    2.09
  -1 -17  -2    5.37    2.50
  -1 -17  -3   24.52    4.11
  -1 -17  -4    6.95    2.65
   2   0 -20   32.46    5.62
  -2   0  20   41.84    7.13
   2   0 -19    0.94    2.47
  -2   0  19   -1.13    3.27
   2   0 -19   -0.68    2.06
  -2   0  18  352.13   20.72
   2   0 -18  317.44   19.02
  -2   0  18  318.02   17.02
   2   0 -18  313.51   17.39
  -2   0  17    0.55    1.80
   2   0 -17    5.04    2.72
   2   0 -17    2.41    2.14
  -2   0  17   -1.00    3.24
  -2   0  16    3.74    2.71
  -2   0  16    1.56    1.80
   2   0 -16   -1.58    2.30
   2   0 -16    4.48    2.20
  -2   0  15   -0.49    1.69
   2   0 -15   -0.74    2.06
   2   0 -15    1.04    1.56
  -2   0  15   -1.75    2.53
   2   0 -14  562.66   27.69
   2   0 -14  555.94   25.70
  -2   0  14  580.34   25.79
  -2   0  14  596.88   28.79
   2   0 -13    1.29    1.49
  -2   0  13   -0.42    1.63
   2   0 -13    0.65    2.02
   2   0 -12  131.19    9.14
   2   0 -12  128.26    7.83
  -2   0  12  126.74    7.78
   2   0 -11    0.55    1.37
   2   0 -11   -0.35    1.00
  -2   0  11   -0.34    1.02
   2   0 -10  294.72   14.95
   2   0 -10  289.88   13.43
  -2   0  10  273.10   13.31
  -2   0   9    1.07    0.97
   2   0  -9   -0.26    0.79
   2   0  -9    0.45    1.29
   2   0  -8  108.49    5.89
  -2   0   8  109.04    5.98
   2   0  -8  110.40    7.05
   2   0  -7    1.04    0.92
  -2   0   7    0.97    0.56
  -2   0   7   -0.43    1.08
   2   0  -7    0.18    0.52
   2   0  -6  228.24   10.60
  -2   0   6  206.75    9.31
  -2   0   6  202.47   10.91
   2   0  -6  202.88    9.09
   2   0  -5    0.10    0.31
  -2   0   5    0.25    0.38
  -2   0   5   -0.33    0.74
  -2   0   4  106.31    6.14
   2   0  -4  107.57    5.52
  -2   0   4   98.64    4.65
   2   0  -3    0.75    0.43
   2   0  -3   -0.22    0.53
  -2   0   3    0.44    0.29
  -2   0   3    0.24    0.64
  -2   0   2 2262.44   88.06
   2   0  -2 2288.38   88.00
  -2   0   2 2273.43   87.09
  -2   0   2 2293.54   87.32
  -2   0   1   -0.11    0.36
  -2   0   1    0.10    0.35
  -2   0   1    0.35    0.33
   2   0  -1    2.22    0.65
  -2   0   1    3.35    0.47
  -2   0   1    1.76    0.55
   2   0  -1    0.10    0.31
  -2   0   0  776.00   32.89
   2   0   0  916.04   33.02
  -2   0   0  842.83   32.90
   2   0   0  791.46   32.75
   2   0   0  860.36   32.83
  -2   0   0  857.22   32.77
  -2   0  -1    0.16    0.47
   2   0   1    0.98    0.49
   2   0   1    0.29    0.45
  -2   0  -1   -0.10    0.36
   2   0   1   -0.77    0.41
  -2   0  -1   -0.12    0.39
  -2   0  -2 1408.54   59.36
   2   0   2 1652.95   59.54
   2   0   2 1597.43   59.89
  -2   0  -2 1566.95   60.43
   2   0   2 1598.69   60.30
  -2   0  -2 1531.36   59.83
   2   0   3   -0.33    0.57
  -2   0  -3    0.10    0.36
   2   0   3    0.11    0.41
  -2   0  -3    0.24    0.53
  -2   0  -4  664.23   26.27
   2   0   4  661.77   26.21
   2   0   4  671.20   26.89
  -2   0  -4  638.91   27.59
   2   0   4  684.06   27.57
   2   0   5    0.14    0.47
   2   0   5    0.30    0.83
   2   0   5    0.44    0.63
   2   0   6   61.28    4.09
   2   0   6   57.10    3.45
   2   0   7   -0.19    0.64
   2   0   7   -0.28    0.98
   2   0   8  382.24   16.36
   2   0   8  374.33   17.14
   2   0   9   -0.46    1.48
   2   0   9   -0.35    1.31
   2   0   9    1.23    1.03
  -2   0  -9   -1.54    1.87
   2   0  10  142.92    8.57
   2   0  10  148.65    9.38
  -2   0 -10  143.44    9.60
   2   0  10  153.60    7.91
  -2   0 -11    0.61    1.53
  -2   0 -11   -0.51    1.54
   2   0  11   -0.42    1.26
   2   0  11   -0.54    1.55
   2   0  11   -0.30    1.19
   2   0  12   34.82    3.98
  -2   0 -12   35.79    4.37
   2   0  12   41.16    3.58
   2   0  12   26.53    4.06
  -2   0 -12   40.40    4.92
  -2   0 -13   -0.61    1.77
   2   0  13   -0.36    1.47
   2   0  13    0.49    1.63
   2   0  13   -0.62    2.07
  -2   0 -13    0.72    2.16
   2   0  14  114.72    7.42
   2   0  14  123.16    8.39
  -2   0 -14  108.25    8.74
   2   0  14  120.91    9.13
  -2   0 -14  129.23    9.95
   2   0  15   -0.70    2.10
  -2   0 -15   -4.11    2.66
   2   0  15   -0.42    1.52
  -2   0 -15   -0.71    2.53
  -2   0 -16    4.57    2.70
   2   0  16    1.34    1.59
  -2   0 -16    3.50    2.74
  -2   0 -17   -2.44    2.63
  -2   0 -17    2.79    2.33
  -2   0 -18   32.39    5.52
  -2   0 -18   32.59    5.51
  -2   0 -19    1.81    2.62
  -2   0 -20    3.27    3.29
  -2   0 -20    1.90    2.86
  -2  -1  20    3.61    3.18
   2  -1 -20    6.88    3.39
   2   1 -20    1.99    2.76
  -2   1  20    2.39    3.00
   2   1 -20    2.19    2.66
   2  -1 -19   27.93    5.28
   2   1 -19   29.11    4.62
   2  -1 -19   27.63    4.39
  -2   1  19   23.65    5.43
  -2  -1  19   32.86    6.09
   2   1 -19   29.47    5.26
   2  -1 -18    0.88    2.44
   2  -1 -18   -1.26    2.05
  -2  -1  18   -0.62    2.27
  -2   1  18   -2.12    2.80
   2   1 -18    0.90    2.51
   2   1 -18   -0.66    1.90
  -2  -1  18   -1.07    3.09
  -2   1  17   -3.98    2.88
  -2  -1  17    2.37    2.05
  -2   1  17    5.71    2.17
   2   1 -17    2.57    2.58
   2  -1 -17    0.59    1.85
  -2  -1  17    2.01    2.52
   2  -1 -17    7.47    3.10
   2   1 -17    0.61    1.92
   2   1 -16   64.62    7.27
  -2   1  16   70.84    7.78
  -2  -1  16   79.97    6.70
  -2   1  16   77.82    6.19
  -2  -1  16   66.78    7.69
   2  -1 -16   64.63    6.02
   2  -1 -16   85.24    7.77
   2   1 -16   78.60    6.64
   2   1 -15   27.97    4.51
  -2   1  15   16.34    2.64
  -2  -1  15   14.98    2.99
   2   1 -15   12.76    2.73
   2  -1 -15   10.10    2.50
   2  -1 -15   20.52    3.97
  -2  -1  15   26.38    4.75
   2  -1 -14   23.06    3.35
   2  -1 -14   18.43    3.83
  -2   1  14   24.01    3.27
   2   1 -14   27.40    3.54
  -2  -1  14   16.81    2.96
  -2  -1  14   21.31    4.25
   2   1 -14   21.86    4.04
   2   1 -13   30.06    4.29
  -2  -1  13   30.03    3.57
   2  -1 -13   32.64    3.67
   2   1 -13   28.16    3.52
  -2  -1  13   30.46    4.58
  -2   1  13   23.97    3.16
   2  -1 -13   18.99    3.62
   2  -1 -12  242.83   12.65
   2  -1 -12  287.71   14.74
   2   1 -12  280.55   14.71
  -2  -1  12  246.76   13.00
  -2   1  12  257.02   12.65
   2   1 -12  228.31   12.78
  -2  -1  12  257.89   15.07
   2   1 -11    1.65    1.66
  -2   1  11   -0.31    1.01
   2  -1 -11    0.66    0.96
  -2  -1  11   -1.13    1.34
   2  -1 -11   -0.54    1.34
   2   1 -11    0.36    1.18
  -2  -1  11    2.60    2.10
  -2   1  10    6.36    1.48
  -2  -1  10    3.44    1.45
   2  -1 -10    6.65    1.47
   2   1 -10    5.16    1.42
   2   1 -10    6.49    1.97
   2  -1 -10    4.85    1.83
   2  -1  -9  101.68    6.77
  -2  -1   9   95.93    5.93
  -2   1   9   91.58    5.45
   2   1  -9   91.76    5.66
   2  -1  -9   93.23    5.50
   2   1  -9  106.49    6.97
   2   1  -8    1.20    0.83
  -2  -1   8    0.27    0.76
   2  -1  -8    1.02    0.66
  -2   1   8    1.60    0.80
   2   1  -8    2.00    1.11
   2  -1  -8    1.54    0.91
   2  -1  -7  211.21    9.41
   2   1  -7  222.99   10.98
  -2  -1   7  201.05    9.97
   2  -1  -7  220.34   10.89
  -2   1   7  213.36    9.42
   2   1  -7  204.68    9.70
   2  -1  -6   25.36    2.55
  -2   1   6   22.45    2.53
   2  -1  -6   21.70    1.66
   2   1  -6   22.29    1.90
  -2  -1   6   23.20    2.10
  -2   1   6   23.52    1.73
  -2  -1   5  391.88   15.94
   2  -1  -5  366.16   15.03
  -2   1   5  377.65   16.73
   2  -1  -5  392.11   16.59
   2   1  -5  383.51   17.24
  -2   1   5  384.02   15.09
   2   1  -5  378.34   15.55
  -2   1   4  259.81   11.60
  -2  -1   4  256.77   10.83
  -2  -1   4  239.29   12.07
   2   1  -4  247.73   12.01
  -2   1   4  255.77   11.98
  -2  -1   3  170.26    8.78
   2   1  -3  170.35    8.75
  -2   1   3  183.76    8.66
  -2   1   3  182.32    8.21
  -2  -1   3  172.31    7.57
  -2   1   2    0.55    0.43
   2   1  -2    1.77    0.83
  -2   1   2    0.69    0.23
  -2  -1   2    0.22    0.56
   2  -1  -1 1429.96   53.88
   2   1  -1 1430.63   55.08
  -2  -1   1 1353.54   54.62
  -2   1   1 1335.33   54.50
   2  -1  -1 1413.57   53.84
  -2   1   1 1394.80   53.93
   2   1  -1 1409.22   53.82
  -2  -1   1 1393.73   54.52
   2  -1  -1 1455.35   54.45
  -2  -1   1 1391.01   55.01
  -2   1   1 1444.50   53.99
  -2   1   0 3706.09  144.95
  -2  -1   0 3830.01  145.60
  -2  -1   0 3801.28  145.72
  -2   1   0 3776.61  145.39
  -2   1   0 3697.92  145.09
   2  -1   0 3863.47  145.31
   2  -1   0 3838.44  145.15
  -2  -1   0 3797.79  145.60
   2  -1   0 3850.30  145.00
   2   1   0 3852.21  145.83
   2   1   0 3916.99  145.59
   2   1   0 3816.86  145.64
   2  -1   0 3924.15  145.03
  -2   1  -1 5304.32  224.62
  -2  -1  -1 5856.72  225.03
  -2  -1  -1 5983.21  225.35
   2  -1   1 6059.15  225.21
  -2   1  -1 6018.03  224.29
  -2   1  -1 5891.70  225.31
   2   1   1 6110.91  225.18
   2   1   1 6177.98  225.25
   2  -1   1 5985.52  224.41
   2  -1   1 5963.21  224.65
  -2  -1  -1 5893.22  225.15
   2   1   1 5919.17  225.19
  -2   1  -1 5939.94  224.57
  -2  -1  -2   10.77    0.85
  -2   1  -2   10.14    0.75
  -2  -1  -2    7.35    1.24
   2  -1   2    9.86    0.84
  -2  -1  -2   10.48    1.16
   2   1   2   12.62    1.29
  -2   1  -2   10.62    1.43
  -2  -1  -2    9.71    1.25
   2   1   2    8.58    1.15
   2  -1   2    7.98    0.99
   2  -1   2   12.07    1.48
  -2  -1  -3   82.84    4.00
  -2   1  -3   77.78    3.52
  -2  -1  -3   74.57    3.80
   2  -1   3   72.69    3.45
   2   1   3   70.83    3.97
   2  -1   3   76.45    4.08
  -2   1  -3   87.94    4.92
   2  -1   3   72.60    4.52
   2   1   3   70.55    4.22
  -2  -1  -3   72.33    4.27
  -2  -1  -3   68.76    4.54
  -2  -1  -4  666.59   25.74
   2   1   4  605.24   25.49
   2  -1   4  654.06   26.65
   2  -1   4  626.40   25.81
  -2  -1  -4  624.62   25.46
  -2   1  -4  624.87   26.77
   2   1   4  633.56   26.48
   2   1   4  679.06   26.16
  -2  -1  -4  662.53   26.16
   2  -1   4  630.09   24.95
   2   1   5   29.60    2.27
  -2  -1  -5   26.65    2.22
   2  -1   5   32.69    2.07
   2   1   5   26.54    2.53
   2  -1   5   24.51    2.70
  -2  -1  -5   29.39    2.51
  -2  -1  -6    5.77    1.26
   2  -1   6    6.46    1.00
   2   1   6    6.11    1.11
   2   1   6    6.50    1.33
   2  -1   6    6.58    1.63
   2   1   7   33.48    2.60
  -2  -1  -7   27.00    2.83
   2  -1   7   28.10    2.30
   2   1   7   29.89    2.93
   2   1   8  173.45    8.55
   2  -1   8  177.62    8.38
   2   1   8  167.62    9.14
  -2  -1  -8  166.88   10.02
  -2  -1  -8  179.15    9.54
   2   1   9  667.87   29.77
   2  -1   9  714.58   28.09
   2   1   9  682.30   28.30
  -2  -1  -9  712.12   30.57
  -2   1  -9  608.34   30.16
   2   1   9  654.45   28.96
  -2  -1  -9  717.38   29.68
   2   1  10   -0.48    1.28
   2  -1  10    2.56    1.77
   2  -1  10    4.50    1.42
  -2  -1 -10    1.83    1.53
   2   1  10    0.58    1.13
  -2   1 -10    1.16    1.53
  -2  -1 -10    0.55    1.53
   2   1  10    0.38    1.44
   2   1  11   74.15    6.10
   2   1  11   69.03    4.82
   2  -1  11   68.75    6.05
   2  -1  11   69.02    4.77
  -2   1 -11   63.33    6.21
  -2  -1 -11   62.55    5.58
  -2  -1 -11   61.02    5.88
   2  -1  12  325.12   15.19
  -2  -1 -12  320.99   16.85
  -2   1 -12  343.78   18.15
  -2  -1 -12  327.80   17.76
   2  -1  12  305.32   17.06
   2   1  12  333.54   17.21
   2   1  12  337.41   15.44
  -2  -1 -13   -0.60    1.82
   2   1  13    0.60    2.07
   2   1  13    0.74    1.58
  -2   1 -13    2.91    2.02
   2  -1  13    1.05    1.35
  -2  -1 -13    2.11    2.20
   2  -1  13    2.56    2.33
  -2  -1 -14    6.49    2.56
   2   1  14    6.38    2.40
   2   1  14    9.99    2.25
  -2   1 -14    6.22    2.61
  -2   1 -14    8.06    2.93
  -2  -1 -14    3.78    2.38
   2  -1  14    5.42    2.54
   2  -1  14    5.71    1.84
   2  -1  15    8.60    2.21
   2   1  15    7.46    2.91
  -2  -1 -15    9.75    2.87
  -2   1 -15    5.06    2.44
  -2   1 -15    9.94    3.11
  -2  -1 -15    6.52    2.91
   2   1  15    6.84    2.11
   2  -1  16   45.21    4.42
   2   1  16   48.00    4.59
  -2   1 -16   38.74    5.55
  -2   1 -16   42.27    6.03
  -2  -1 -16   41.80    5.97
  -2  -1 -16   40.15    5.35
  -2  -1 -17    8.67    3.37
  -2  -1 -17    8.33    3.11
  -2   1 -17    3.73    2.93
  -2   1 -17    6.62    2.78
  -2   1 -18    0.99    2.74
  -2   1 -18    3.52    2.66
  -2  -1 -18    2.50    2.32
  -2  -1 -18    0.98    2.46
  -2  -1 -19    5.28    2.85
  -2   1 -19    3.73    3.12
  -2  -1 -19    4.13    3.12
  -2   1 -19    6.29    3.62
  -2   1 -20    6.87    3.48
  -2  -1 -20   -1.85    2.57
  -2   1 -20   -2.21    3.06
   2  -1  20   -1.01    2.53
  -2  -1 -20    4.34    3.85
   2  -1  21   -1.07    2.68
   2   2 -20    1.48    2.23
  -2  -2  20    3.62    3.35
  -2   2  20   -1.19    2.99
   2   2 -20    1.02    2.82
   2   2 -19   36.54    5.11
  -2   2  19   49.49    6.99
   2  -2 -19   36.47    4.91
  -2  -2  19   30.79    5.97
   2   2 -19   35.95    6.03
  -2  -2  18   19.77    3.62
   2   2 -18   34.92    5.47
   2   2 -18   27.86    4.30
   2  -2 -18   25.52    3.95
  -2   2  18   23.32    5.11
   2  -2 -18   30.21    5.34
  -2  -2  18   25.81    5.56
   2  -2 -17    1.68    2.53
   2   2 -17    0.87    2.18
   2  -2 -17   -0.58    1.69
  -2   2  17    1.49    1.76
   2   2 -17    1.87    2.02
  -2  -2  17    1.01    2.68
   2  -2 -16  136.09   10.16
   2  -2 -16  110.55    8.05
  -2  -2  16  109.16    8.43
   2   2 -16  109.06    8.35
  -2  -2  16  120.62   10.39
   2   2 -16  115.67    9.72
  -2   2  16  128.43    8.09
   2   2 -15    8.38    3.08
  -2   2  15    7.27    1.96
  -2  -2  15    7.23    2.31
   2   2 -15    9.79    2.68
   2  -2 -15   11.77    3.16
   2  -2 -15   10.91    2.44
  -2  -2  15   17.79    4.16
  -2  -2  14   65.31    5.85
   2   2 -14   53.30    5.17
   2  -2 -14   52.73    6.06
   2  -2 -14   55.97    5.06
  -2   2  14   66.39    5.09
   2   2 -14   61.78    6.39
  -2  -2  14   71.24    7.19
   2   2 -13   82.93    7.45
  -2  -2  13   99.51    7.05
   2  -2 -13   89.10    6.37
   2  -2 -13  101.40    7.87
  -2   2  13   95.06    6.23
  -2  -2  13   97.12    8.37
   2   2 -13   79.76    6.55
   2  -2 -12  468.25   21.07
   2  -2 -12  517.04   23.38
  -2  -2  12  464.50   21.82
   2   2 -12  447.62   21.41
  -2  -2  12  496.45   24.11
   2   2 -12  472.89   22.97
  -2   2  12  465.46   20.72
  -2  -2  11   59.26    4.91
   2   2 -11   58.61    4.63
   2  -2 -11   52.19    4.22
  -2  -2  11   68.68    6.30
   2  -2 -11   68.94    5.77
  -2   2  11   48.94    3.95
   2   2 -10   -0.68    0.90
   2  -2 -10   -0.97    1.41
  -2  -2  10    0.61    1.44
  -2   2  10    1.24    0.97
   2  -2 -10    1.68    0.94
  -2  -2  10    0.78    1.22
   2  -2  -9  154.46    9.09
   2  -2  -9  133.40    7.47
  -2  -2   9  158.86    8.71
  -2   2   9  161.89    7.61
  -2  -2   9  148.89    9.76
   2   2  -9  150.06    8.10
   2  -2  -8   64.16    5.18
  -2  -2   8   73.62    5.00
  -2   2   8   76.12    5.63
   2  -2  -8   72.46    4.24
  -2   2   8   73.64    4.14
   2   2  -8   69.86    4.59
  -2   2   7  766.64   32.65
   2   2  -7  778.77   31.37
   2  -2  -7  789.09   30.71
  -2  -2   7  743.79   31.79
  -2   2   6 2250.02   87.04
   2  -2  -6 2194.47   84.95
  -2  -2   6 2201.82   86.31
   2   2  -6 2258.13   85.81
  -2   2   5   32.42    2.98
  -2  -2   5   35.66    2.80
   2   2  -4 1398.36   57.89
  -2   2   4 1492.88   57.29
  -2  -2   4 1461.33   56.70
  -2  -2   3  945.91   37.26
   2   2  -3  951.32   38.49
  -2  -2   2  638.59   27.15
   2   2  -2  677.50   27.24
  -2   2   1 1255.41   47.91
   2  -2  -1 1258.89   48.22
   2  -2  -1 1276.51   47.90
  -2  -2   1 1188.74   48.63
  -2  -2   1 1213.30   49.06
   2   2  -1 1253.45   49.18
  -2   2   1 1233.23   48.17
  -2  -2   1 1232.59   48.76
  -2   2   0 1614.53   63.67
   2  -2   0 1622.02   63.53
   2  -2   0 1677.05   63.59
  -2  -2   0 1587.56   64.09
   2   2   0 1680.20   64.07
  -2  -2   0 1616.76   63.98
   2   2   0 1770.43   64.19
  -2   2   0 1593.00   63.01
  -2  -2   0 1645.43   64.02
   2  -2   0 1684.19   62.82
  -2   2   0 1657.86   63.47
   2   2   0 1661.06   64.29
   2  -2   1  804.21   31.68
  -2   2  -1  784.77   31.93
   2   2   1  804.61   32.02
  -2  -2  -1  793.35   31.91
   2  -2   1  841.77   31.92
   2  -2   1  815.87   31.01
   2   2   1  826.77   32.08
  -2  -2  -1  757.63   31.85
  -2   2  -1  814.40   31.52
  -2  -2  -1  778.80   30.71
   2   2   1  817.72   32.03
   2   2   2 3483.79  131.62
  -2   2  -2 3372.46  131.80
  -2  -2  -2 3397.43  131.25
   2   2   2 3452.77  131.44
   2  -2   2 3437.31  131.69
   2   2   2 3488.13  131.58
   2   2   2 3435.32  130.46
  -2   2  -2 3430.69  131.24
   2  -2   2 3401.62  130.73
   2   2   3  176.57    7.77
  -2   2  -3  189.46    9.05
   2  -2   3  172.88    7.07
  -2  -2  -3  174.18    8.11
   2   2   3  172.71    8.25
   2  -2   3  185.17    8.83
   2   2   3  180.98    8.49
   2   2   4   52.30    3.35
   2  -2   4   53.16    2.56
  -2  -2  -4   49.56    3.20
  -2   2  -4   46.93    3.87
   2  -2   4   50.94    3.81
   2   2   4   43.52    3.39
  -2  -2  -5  886.86   33.13
   2  -2   5  839.21   34.13
   2  -2   5  834.84   32.09
  -2   2  -5  815.35   34.30
   2   2   5  867.20   33.03
  -2  -2  -5  859.02   32.98
   2  -2   6  881.16   37.77
  -2  -2  -6  875.86   36.47
   2   2   6  940.55   36.45
  -2  -2  -6  956.92   36.88
   2  -2   6  899.03   35.68
  -2  -2  -7   11.50    1.83
   2   2   7   13.33    1.80
   2  -2   7   15.04    2.45
  -2  -2  -7   10.43    2.17
  -2  -2  -8  560.96   24.96
   2   2   8  552.99   24.45
   2   2   8  547.30   23.24
  -2  -2  -8  546.57   23.98
  -2  -2  -9   35.03    3.77
  -2  -2  -9   40.69    4.30
   2   2   9   48.46    4.38
   2   2   9   37.98    3.34
  -2   2 -10  212.65   12.89
   2   2  10  239.66   12.53
   2   2  10  226.06   11.08
  -2  -2 -10  205.87   11.83
  -2  -2 -10  236.78   13.03
  -2   2 -11  419.87   20.48
  -2  -2 -11  366.89   19.57
   2  -2  11  397.32   19.64
  -2  -2 -11  394.38   19.03
   2   2  11  368.36   19.00
   2   2  11  401.43   17.83
   2   2  12  156.88    8.87
  -2   2 -12  134.04   10.34
   2  -2  12  157.56   10.44
  -2  -2 -12  168.03   10.24
   2   2  12  152.69   10.02
   2  -2  12  161.62    8.64
  -2  -2 -12  178.94   11.12
   2  -2  13   16.21    2.57
  -2  -2 -13   11.74    2.87
   2   2  13   16.21    2.58
  -2  -2 -13    9.14    2.99
  -2   2 -13   13.25    3.36
   2  -2  13   18.29    3.50
   2   2  13   13.02    2.81
  -2   2 -14  126.80   10.07
   2  -2  14  131.70    7.83
   2   2  14  129.45    8.07
  -2  -2 -14  139.27   10.21
   2   2  14  106.46    8.21
   2  -2  14  133.55    9.74
   2   2  14  133.82    9.47
  -2  -2 -14  131.06    9.27
  -2  -2 -15   57.85    6.04
   2   2  15   45.51    4.82
   2   2  15   50.29    5.80
  -2   2 -15   47.08    6.23
  -2  -2 -15   48.37    6.22
   2  -2  15   55.68    4.69
  -2   2 -16   65.04    6.99
   2  -2  16   54.92    4.91
  -2  -2 -16   61.04    6.49
  -2   2 -16   44.82    6.27
  -2  -2 -16   54.42    6.76
  -2   2 -17    5.93    3.26
  -2  -2 -17    3.86    2.68
   2  -2  17    9.69    2.64
   2  -2  17   12.12    3.40
  -2  -2 -17   12.92    3.87
  -2   2 -17    9.52    3.30
  -2  -2 -18   -0.82    2.74
  -2   2 -18    0.90    2.13
  -2   2 -18   -1.01    2.52
  -2  -2 -18   -0.98    2.96
   2  -2  18   -2.60    2.41
  -2   2 -19   -0.95    2.52
  -2  -2 -19    1.74    2.52
  -2   2 -19    1.06    3.20
  -2  -2 -19    1.03    3.00
   2  -2  19    1.86    2.58
  -2  -2 -20   17.46    4.57
  -2  -2 -20    9.79    3.78
   2  -2  20    9.92    3.74
  -2   2 -20   15.56    4.67
   2  -2  21    1.05    2.92
   2   3 -20    8.28    2.96
   2   3 -20    9.32    3.78
  -2  -3  20    1.21    2.86
   2   3 -19    0.71    2.16
  -2  -3  19    1.14    3.02
   2   3 -19   -0.98    2.73
   2   3 -18   10.83    3.11
   2  -3 -18    2.47    2.32
  -2  -3  18    3.23    2.86
   2   3 -18    7.43    3.30
   2   3 -17    4.38    2.74
   2   3 -17    1.28    1.93
  -2  -3  17    1.02    2.55
   2  -3 -17    1.15    1.86
  -2  -3  17    3.33    2.08
   2   3 -16  104.56    9.10
  -2  -3  16  100.15    9.54
  -2  -3  16  100.12    7.92
   2   3 -16  107.70    8.09
   2  -3 -16   89.07    7.14
   2   3 -15   24.67    4.50
   2   3 -15   33.52    4.26
  -2  -3  15   30.59    4.52
  -2  -3  15   39.31    5.78
   2  -3 -15   38.09    4.15
   2  -3 -14   60.41    5.19
  -2  -3  14   65.97    6.07
  -2  -3  14   66.76    7.04
   2   3 -14   61.33    5.63
   2  -3 -13   79.50    5.84
  -2  -3  13   75.28    6.41
  -2  -3  13   93.24    8.04
   2   3 -13   73.38    6.02
   2  -3 -12   37.09    3.61
  -2  -3  12   34.55    4.08
   2   3 -12   29.03    3.60
   2   3 -11   35.14    3.72
  -2  -3  11   46.60    4.60
   2  -3 -11   43.71    3.73
  -2  -3  11   48.78    5.39
  -2  -3  10    5.22    1.92
  -2  -3  10   10.48    2.59
  -2   3  10    8.39    2.30
   2  -3 -10    7.21    1.60
   2   3 -10    9.41    1.87
  -2  -3   9  277.99   13.56
   2  -3  -9  276.55   12.19
  -2  -3   9  256.80   14.41
  -2   3   9  243.45   13.69
   2   3  -9  260.16   12.73
  -2  -3   8   69.61    5.13
  -2   3   8   69.85    5.47
   2  -3  -8   61.33    3.89
  -2  -3   8   59.58    5.46
   2   3  -8   70.15    4.61
  -2   3   7   34.01    3.56
  -2  -3   7   28.81    3.11
   2  -3  -7   31.40    2.28
  -2  -3   7   29.59    3.47
   2   3  -7   32.58    2.85
   2  -3  -6  356.39   14.94
  -2   3   6  350.07   16.69
  -2  -3   6  370.12   16.47
   2   3  -6  386.36   15.97
   2  -3  -5 2610.28   98.81
  -2  -3   5 2597.93  100.40
  -2   3   5 2520.91  100.73
  -2  -3   4  333.06   14.58
  -2  -3   3  318.37   13.07
   2  -3  -3  287.06   11.83
   2  -3  -2   49.55    2.57
   2   3  -2   35.59    3.35
   2  -3  -1  219.44    9.38
   2   3  -1  221.39   10.53
  -2   3   1  195.98    9.19
   2   3  -1  217.77    9.25
   2  -3  -1  235.55    9.79
  -2   3   1  216.20    8.92
  -2  -3   1  226.20   10.12
   2   3   0  431.21   16.19
  -2   3   0  404.38   16.82
  -2   3   0  401.23   15.75
  -2  -3   0  360.36   17.23
   2  -3   0  432.73   17.04
  -2  -3   0  385.33   17.22
  -2   3   0  428.17   16.92
   2   3   0  448.41   17.78
   2  -3   0  416.82   16.91
   2   3   0  340.01   17.11
   2   3   1   97.96    5.53
   2  -3   1   97.79    5.37
  -2   3  -1  100.11    5.41
   2   3   1   92.34    5.52
  -2   3  -1  100.50    5.23
  -2  -3  -1  101.44    4.61
   2  -3   1  105.69    5.48
  -2  -3  -1   95.20    5.40
  -2   3  -2   50.43    3.35
   2  -3   2   50.77    3.54
   2   3   2   52.97    3.56
  -2   3  -2   52.50    3.67
  -2  -3  -2   46.38    2.66
  -2  -3  -2   52.21    3.39
  -2   3  -3  327.83   14.97
   2   3   3  322.27   14.35
   2  -3   3  325.54   14.82
   2   3   3  338.91   13.74
  -2   3  -3  319.68   14.45
  -2  -3  -3  322.46   14.14
   2   3   4    1.36    0.87
  -2  -3  -4    0.83    0.69
  -2   3  -4    0.67    0.89
   2  -3   4    0.52    0.35
   2  -3   4    1.88    1.01
   2   3   4    1.09    0.64
   2   3   5    3.98    1.07
   2   3   5    4.96    1.13
  -2  -3  -5    4.51    1.03
   2  -3   5    1.76    1.07
   2  -3   5    4.72    0.84
  -2   3  -5    4.19    1.36
   2   3   6    4.97    1.27
  -2  -3  -6    3.47    1.78
  -2  -3  -6    4.29    1.13
   2  -3   6    6.02    1.13
  -2   3  -6    4.25    1.39
   2   3   6    6.66    1.37
   2  -3   6    5.49    1.75
  -2  -3  -7 1196.40   52.14
   2  -3   7 1330.38   53.71
   2   3   7 1380.95   52.20
  -2  -3  -7 1368.08   53.70
   2   3   8    9.07    1.79
  -2  -3  -8    5.29    1.47
  -2  -3  -8    7.58    2.11
  -2  -3  -9   81.52    5.99
   2   3   9   86.38    5.53
  -2  -3  -9   85.44    6.69
  -2  -3 -10    1.78    1.49
   2   3  10    0.65    1.16
  -2  -3 -10    0.55    1.31
   2   3  10    0.41    1.32
  -2  -3 -11   46.60    4.60
  -2  -3 -11   52.94    5.34
   2   3  11   39.80    4.19
  -2   3 -11   40.22    4.93
   2   3  11   41.49    3.82
  -2  -3 -12  181.57   10.83
   2   3  12  188.35    9.85
  -2   3 -12  160.11   11.40
   2  -3  12  164.81   10.44
  -2  -3 -12  182.16   11.49
   2  -3  12  172.00   11.20
   2   3  12  162.18   10.09
  -2  -3 -13  199.32   12.04
  -2   3 -13  213.31   13.49
   2   3  13  180.47   11.21
   2  -3  13  208.00   12.08
  -2  -3 -13  221.46   13.22
   2  -3  13  194.64   12.56
   2   3  13  201.17   10.90
  -2  -3 -14  141.80   10.69
  -2   3 -14  157.17   11.31
  -2  -3 -14  145.44   10.12
   2   3  14  156.40    9.09
   2  -3  14  159.25   10.96
   2   3  14  144.02    9.60
   2  -3  14  138.55    9.86
  -2  -3 -15  121.03    9.20
  -2   3 -15  114.58   10.06
   2  -3  15  123.81    7.67
   2  -3  15  131.66    9.43
  -2  -3 -15  114.27    9.64
   2   3  15  122.12    8.10
  -2  -3 -16  120.75    9.38
  -2  -3 -16  109.44    9.84
   2  -3  16  122.40    9.60
   2  -3  16  126.40    7.95
  -2   3 -16  122.37   10.47
   2  -3  17   22.89    3.27
  -2  -3 -17   14.66    4.40
  -2  -3 -17   20.15    4.12
   2  -3  17   20.75    4.24
  -2   3 -17   18.34    4.49
  -2   3 -18   19.33    5.07
  -2   3 -18   30.48    5.28
  -2  -3 -18   25.39    5.14
   2  -3  18   34.35    5.33
  -2   3 -19    0.98    2.71
  -2   3 -19   -1.07    2.83
  -2  -3 -19    2.07    3.58
   2  -3  19    0.92    2.77
  -2  -3 -20   38.20    6.54
  -2   3 -20   34.03    6.14
   2  -3  20   40.18    6.35
   2  -3  21   -5.21    3.60
   2   4 -20   66.46    7.00
  -2  -4  20   58.02    8.25
  -2  -4  19    1.15    3.32
   2   4 -19    1.00    3.01
   2   4 -19   -0.73    2.28
   2   4 -18   97.23    9.16
   2  -4 -18   77.49    7.16
  -2  -4  18  104.95   10.01
   2   4 -18   93.62    8.02
   2   4 -17    1.78    2.68
   2   4 -17    1.30    1.64
  -2  -4  17    1.02    2.56
   2  -4 -17    2.29    1.91
  -2  -4  17    0.71    2.60
  -2  -4  16  147.08   10.52
   2  -4 -16  144.07    9.46
   2   4 -16  134.90    9.71
  -2  -4  16  151.48   11.84
  -2   4  16  151.60    9.66
   2   4 -15   41.82    4.90
  -2  -4  15   36.88    5.67
  -2  -4  15   44.83    5.31
   2  -4 -15   34.90    4.11
  -2  -4  14  231.35   13.62
   2  -4 -14  218.40   12.25
   2   4 -14  225.79   12.96
   2  -4 -13   60.16    5.02
  -2  -4  13   66.74    6.02
  -2  -4  13   53.42    6.31
   2   4 -13   63.52    5.63
   2   4 -12  247.41   12.36
  -2  -4  12  202.31   12.29
   2  -4 -12  204.39   11.10
  -2  -4  12  221.33   13.77
  -2   4  11  371.49   18.81
   2   4 -11  369.35   17.37
  -2  -4  11  371.12   19.38
   2  -4 -11  349.37   16.53
  -2  -4  11  361.86   18.08
   2   4 -10   -0.38    1.16
  -2  -4  10   -0.48    1.21
   2  -4 -10   -0.57    0.95
  -2   4  10    0.54    1.44
  -2  -4  10    3.12    1.95
  -2  -4   9   71.39    5.80
   2  -4  -9   69.98    4.62
  -2   4   9   92.50    6.59
  -2  -4   9   78.73    6.54
   2   4  -9   75.00    5.29
   2   4  -8  150.38    9.32
   2   4  -8  138.52    7.81
   2  -4  -8  134.59    7.05
  -2  -4   8  165.09    9.63
  -2   4   8  133.15    8.62
  -2  -4   8  145.62    8.74
  -2   4   7  728.64   32.64
  -2  -4   7  740.70   32.60
   2  -4  -7  773.54   30.84
   2   4  -7  762.91   33.58
   2   4  -7  842.01   32.12
  -2  -4   7  759.44   33.47
  -2   4   6   83.66    4.54
  -2  -4   6   84.80    6.25
   2   4  -6   87.24    6.36
  -2   4   6   97.70    6.15
  -2  -4   6   96.68    5.96
   2  -4  -6   78.44    4.36
  -2  -4   5   91.40    6.36
  -2   4   5   95.79    4.59
  -2   4   5   94.05    4.26
  -2  -4   5   85.66    5.70
  -2   4   4  807.36   31.86
  -2   4   4  782.73   30.87
  -2  -4   4  819.64   32.61
  -2   4   3  196.42    8.61
  -2   4   3  185.36    7.67
  -2  -4   3  200.96    9.39
   2  -4  -3  192.55    8.29
   2  -4  -2 1105.82   42.55
   2   4  -2 1124.18   42.32
  -2   4   2 1071.32   41.60
   2  -4  -2 1008.37   41.81
   2  -4  -1  195.77    9.16
  -2   4   1  196.45    8.45
   2   4  -1  197.04    8.95
  -2   4   1  226.46    9.12
   2  -4  -1  200.46    9.48
   2   4   0   22.59    1.72
   2  -4   0   27.11    2.26
  -2  -4   0   25.93    2.04
  -2   4   0   23.81    1.44
  -2   4   0   21.04    2.04
  -2   4   0   23.28    2.04
   2  -4   0   20.31    2.10
   2   4   1  461.36   20.91
  -2   4  -1  478.54   19.10
  -2  -4  -1  512.08   19.99
  -2   4  -1  515.58   20.65
   2  -4   1  515.75   20.84
   2  -4   1  490.35   20.91
  -2   4  -1  486.25   20.62
  -2   4  -2   15.41    2.03
   2  -4   2   17.98    2.19
   2   4   2   13.78    1.91
  -2  -4  -2   18.91    1.59
  -2   4  -2   19.16    2.01
  -2   4  -3  291.22   13.94
  -2  -4  -3  292.67   13.24
   2  -4   3  292.72   13.89
  -2   4  -3  297.59   13.58
   2   4   3  304.78   13.63
   2   4   4   56.22    3.76
   2   4   4   69.07    4.42
  -2   4  -4   55.47    4.56
  -2  -4  -4   59.02    4.03
   2  -4   4   62.03    4.73
  -2  -4  -4   53.71    4.09
   2  -4   4   66.75    3.19
  -2   4  -4   58.74    4.32
  -2  -4  -5  177.82    9.02
   2   4   5  205.16    9.46
  -2   4  -5  169.78    9.89
  -2  -4  -5  189.67    9.50
   2  -4   5  176.01    9.95
   2   4   5  166.02    9.32
   2  -4   5  189.24    8.26
   2   4   5  179.52    8.93
  -2  -4  -6  134.79    7.27
  -2  -4  -6  130.46    8.02
   2   4   6  127.88    7.23
   2  -4   6  127.91    8.12
  -2  -4  -6  130.63    7.56
   2   4   6  132.16    7.25
   2   4   6  123.22    7.38
   2  -4   6  129.23    6.58
  -2   4  -6  142.85    8.54
  -2  -4  -7   12.55    2.12
  -2  -4  -7    8.83    2.13
  -2  -4  -7    9.54    1.72
   2   4   7   13.69    1.99
   2   4   7   12.55    2.02
  -2   4  -7    9.39    2.37
   2  -4   7   12.32    1.72
   2  -4   7    6.93    2.08
   2   4   7    9.62    1.91
   2   4   8   21.36    2.88
  -2  -4  -8   29.36    3.05
  -2  -4  -8   26.20    3.43
   2   4   8   27.20    2.87
   2  -4   8   27.55    2.79
   2   4   8   28.86    3.18
   2  -4   8   30.13    3.73
   2   4   9  124.37    7.08
   2   4   9  107.81    7.15
  -2  -4  -9  114.56    8.06
   2  -4   9  110.60    6.90
  -2  -4 -10   23.48    3.60
   2   4  10   22.90    3.06
   2   4  10   24.61    2.95
   2  -4  10   22.25    2.92
   2   4  11    0.38    1.38
   2   4  11    0.45    1.52
  -2  -4 -11   -0.61    1.92
   2  -4  11   -0.45    1.36
   2   4  12  106.94    6.92
   2   4  12  104.65    7.33
   2  -4  12   93.88    8.05
  -2  -4 -12   92.01    7.83
   2  -4  12  113.45    7.68
  -2   4 -12   95.49    8.47
  -2   4 -13   37.33    5.33
   2   4  13   39.85    4.11
   2   4  13   25.84    3.75
  -2  -4 -13   37.71    5.15
   2  -4  13   36.36    4.46
   2  -4  13   36.83    4.95
   2   4  14    9.09    2.55
   2  -4  14   14.15    3.16
  -2   4 -14   12.42    3.55
   2   4  14    8.80    2.79
  -2  -4 -14   12.19    3.40
   2  -4  15    6.05    2.76
  -2  -4 -15   10.57    3.47
  -2  -4 -16    2.61    2.52
   2  -4  16    0.73    2.12
  -2   4 -16    2.78    2.58
   2  -4  17    0.91    1.82
  -2   4 -17    1.96    2.46
  -2  -4 -17    3.69    2.78
   2  -4  17    3.16    2.88
  -2   4 -18    5.16    3.57
   2  -4  18    4.25    3.03
  -2  -4 -18    4.89    2.95
  -2   4 -19   14.10    4.47
   2  -4  19   16.41    3.99
  -2  -4 -19    9.32    3.71
  -2  -4 -20   16.43    4.52
   2  -4  20   10.67    3.75
   2   5 -21   18.52    4.05
   2   5 -20    3.86    2.82
   2   5 -19    7.38    2.96
  -2  -5  19    2.27    3.81
   2   5 -19    1.02    2.82
   2   5 -18    0.70    2.04
  -2  -5  18    5.38    3.25
   2   5 -18    3.85    2.90
   2   5 -17   -0.67    2.09
   2  -5 -17    0.58    1.74
  -2  -5  17   -1.02    3.06
   2  -5 -16  106.94    7.65
  -2  -5  16   92.17    8.29
  -2   5  16   89.46    7.07
  -2  -5  16  101.41    9.50
   2   5 -16   95.77    7.76
   2   5 -15   11.81    2.91
  -2   5  15   10.97    2.62
   2  -5 -15    7.43    2.23
  -2  -5  15   13.96    3.33
  -2  -5  15   12.57    3.78
  -2   5  14    1.32    1.84
   2  -5 -14    2.26    1.65
  -2  -5  14    0.67    2.02
   2   5 -14   -0.55    1.91
  -2  -5  14   -1.68    2.72
  -2   5  13   22.46    3.30
  -2   5  13   20.94    3.01
  -2  -5  13   30.58    4.37
   2  -5 -13   19.82    2.92
  -2  -5  13   21.20    4.18
   2   5 -13   20.08    3.33
  -2   5  12  105.95    8.88
  -2  -5  12  136.73    9.94
  -2   5  12  122.05    8.05
  -2  -5  12  134.74    9.19
  -2   5  12  125.35    7.62
   2  -5 -12  133.62    7.80
   2   5 -12  131.01    8.43
   2   5 -11    2.21    1.38
  -2   5  11    2.06    1.66
  -2  -5  11    0.56    1.70
  -2  -5  11   -2.72    2.05
   2  -5 -11    1.01    1.12
  -2   5  11    0.62    1.78
  -2   5  11    0.66    1.35
  -2   5  10   35.80    3.64
  -2  -5  10   37.23    4.60
   2  -5 -10   35.05    3.20
  -2  -5  10   41.02    4.47
   2   5 -10   36.35    3.73
  -2   5  10   39.13    3.40
  -2   5  10   31.32    4.24
  -2   5   9   19.35    2.25
  -2   5   9   16.42    2.42
  -2  -5   9   15.42    2.78
  -2   5   9   21.31    3.27
   2   5  -9   23.19    2.93
  -2  -5   9   19.27    3.20
   2   5  -9   19.21    3.27
   2  -5  -9   16.31    2.12
   2  -5  -8    3.99    1.17
  -2   5   8    6.03    1.49
  -2  -5   8    2.77    1.40
  -2   5   8    4.38    0.95
   2   5  -8    3.30    1.79
   2   5  -8    4.66    1.51
  -2   5   8    2.83    1.58
  -2  -5   8    2.16    1.51
  -2   5   8    3.13    1.07
  -2  -5   7  175.98   10.21
  -2   5   7  187.92   10.44
  -2   5   7  175.55    9.31
  -2   5   7  183.85    8.66
  -2  -5   7  180.85   10.72
  -2   5   7  188.36    8.34
   2  -5  -7  189.62    8.77
   2   5  -7  180.48   10.92
   2   5  -6    6.84    2.00
  -2   5   6    7.36    1.50
  -2  -5   6    5.76    1.71
  -2  -5   6    4.18    1.64
  -2   5   6    7.05    1.14
  -2  -5   5   36.99    3.49
  -2  -5   5   37.43    3.91
   2   5  -5   37.98    3.98
  -2   5   5   39.15    2.38
  -2   5   5   32.67    2.83
  -2   5   4  124.90    6.44
  -2  -5   4  136.60    8.00
   2   5  -4  116.47    7.83
  -2   5   4  127.84    5.69
  -2  -5   4  133.96    7.44
  -2  -5   3    2.03    1.12
   2  -5  -3    4.00    0.57
  -2   5   3    1.30    0.60
   2  -5  -3    4.28    1.27
   2  -5  -3    1.85    0.74
  -2  -5   3    5.07    1.39
   2   5  -3    2.28    0.98
  -2   5   3    1.48    0.40
  -2   5   2   79.97    4.16
   2  -5  -2   83.87    4.60
  -2  -5   2   68.35    5.13
   2  -5  -2   79.55    4.96
   2   5  -2   79.23    4.70
  -2   5   1  904.03   35.53
   2  -5  -1  901.79   36.47
   2  -5  -1  930.50   36.89
  -2  -5   1  860.29   37.07
   2   5  -1  944.76   36.23
  -2   5   0 1860.85   72.66
  -2   5   0 1817.54   73.91
  -2   5   0 1935.91   73.74
   2   5   0 1930.22   73.23
  -2  -5   0 1928.69   74.39
   2  -5   0 1922.78   74.10
   2  -5   0 1973.35   74.34
  -2  -5   0 1910.91   73.79
   2  -5   0 1866.35   72.52
   2  -5   1    9.03    1.65
  -2  -5  -1   10.77    1.80
  -2   5  -1    7.91    0.93
  -2  -5  -1    6.46    1.17
   2  -5   1    7.88    0.76
  -2   5  -1    8.17    1.43
  -2   5  -1    8.14    1.47
   2  -5   1    7.00    1.47
   2  -5   2   41.28    2.05
   2  -5   2   32.51    3.27
  -2   5  -2   40.24    2.35
  -2   5  -2   37.30    3.32
  -2  -5  -2   44.71    3.49
  -2   5  -2   45.27    3.42
   2   5   2   38.31    3.34
  -2  -5  -2   39.66    2.83
  -2  -5  -2   39.12    3.37
  -2  -5  -3  316.12   13.53
   2  -5   3  316.98   12.48
   2   5   3  285.40   14.31
  -2  -5  -3  306.65   14.33
   2   5   3  336.13   14.61
  -2   5  -3  309.17   14.72
  -2   5  -3  304.73   12.84
  -2   5  -3  302.75   14.32
   2  -5   3  314.20   14.86
  -2   5  -4   65.91    5.17
  -2  -5  -4   77.23    4.99
   2  -5   4   62.70    3.45
   2   5   4   67.30    4.87
   2   5   4   73.81    4.97
  -2   5  -4   79.36    5.18
   2   5   4   65.60    4.73
   2  -5   4   71.04    5.30
  -2  -5  -5    5.93    1.39
   2   5   5    9.71    1.61
  -2   5  -5    6.46    1.76
  -2  -5  -5    6.89    1.61
   2   5   5   10.23    1.82
   2   5   5    9.94    1.84
   2   5   5    7.71    1.76
   2  -5   5    9.36    1.15
   2  -5   5   10.17    2.00
  -2   5  -5    5.92    1.78
   2   5   6   19.07    2.47
  -2  -5  -6   25.89    2.80
  -2  -5  -6   19.21    2.39
  -2  -5  -6   19.86    2.86
  -2   5  -6   22.31    3.08
   2   5   6   24.58    2.73
   2  -5   6   22.21    3.13
   2  -5   6   21.62    2.03
   2   5   6   21.59    2.69
   2   5   6   18.81    2.37
  -2   5  -7   57.19    5.32
  -2  -5  -7   60.93    4.60
  -2  -5  -7   65.03    4.92
   2  -5   7   57.73    5.32
   2   5   7   72.08    4.96
   2   5   7   63.11    4.86
   2  -5   7   69.90    4.29
   2   5   7   67.41    5.13
  -2  -5  -7   61.56    5.23
   2   5   7   57.58    4.53
  -2  -5  -8   81.74    5.79
   2   5   8   79.92    5.66
  -2  -5  -8   90.00    6.29
   2  -5   8   78.65    6.60
  -2  -5  -8   88.34    6.71
   2   5   8   83.61    5.96
   2   5   8   94.68    6.21
   2  -5   8   81.31    5.36
  -2   5  -8   99.89    7.29
   2   5   9  212.43   11.71
   2  -5   9  215.80   12.78
   2   5   9  226.79   11.48
   2   5   9  232.87   11.91
   2  -5   9  221.10   11.19
  -2  -5  -9  223.94   12.67
  -2  -5  -9  205.19   11.46
   2   5  10   66.66    5.29
   2  -5  10   68.54    5.31
  -2  -5 -10   59.81    5.92
  -2  -5 -11    0.64    1.85
   2   5  11    2.46    1.68
   2   5  11    1.42    1.37
   2  -5  11   -0.45    1.35
  -2   5 -12   95.25    8.40
   2   5  12  103.66    7.02
   2   5  12  102.07    7.51
  -2  -5 -12  112.66    8.60
   2  -5  12  101.58    7.37
  -2   5 -13   21.57    4.21
   2   5  13   13.77    2.75
   2   5  13   13.40    2.86
   2  -5  13   14.07    3.50
  -2  -5 -13   13.67    3.45
   2  -5  13   18.87    3.33
  -2   5 -14  114.48    9.71
  -2  -5 -14  113.59    9.40
   2  -5  14  111.74    8.39
  -2  -5 -15   -0.83    2.39
  -2   5 -15    0.90    2.12
   2  -5  15    0.67    2.30
  -2  -5 -16    3.51    2.44
  -2   5 -16    2.84    3.17
   2  -5  16    2.17    2.64
  -2   5 -17   -1.00    2.51
  -2  -5 -17    1.87    2.70
   2  -5  17    0.78    2.07
  -2  -5 -18   36.50    6.11
  -2   5 -18   38.79    6.18
   2  -5  18   20.98    4.63
  -2   5 -19    5.50    3.44
  -2  -5 -19    3.12    3.37
   2  -5  19    0.90    2.49
   2   6 -21    3.27    2.65
   2   6 -20   18.89    4.12
   2   6 -19   30.05    4.90
  -2  -6  19   23.73    5.61
  -2  -6  18   58.90    7.35
   2   6 -18   35.76    5.05
   2   6 -17    5.44    2.48
  -2  -6  17    2.02    3.50
   2   6 -16   28.37    4.21
  -2  -6  16   28.65    5.19
   2  -6 -16   35.73    4.32
  -2   6  16   33.72    4.27
  -2  -6  15   19.77    4.45
  -2  -6  15   18.88    3.92
  -2   6  15   20.38    3.17
   2  -6 -15   21.08    3.45
   2   6 -15   22.47    3.75
  -2  -6  14  184.15   12.78
  -2   6  14  224.77   11.66
  -2  -6  14  187.13   13.37
   2  -6 -14  212.59   11.54
   2   6 -14  199.02   12.02
  -2   6  13   19.21    2.94
  -2   6  13   19.27    3.07
   2  -6 -13   19.16    2.91
  -2  -6  13   26.09    4.16
  -2  -6  13   15.77    3.68
   2   6 -13   13.40    2.95
  -2   6  12   95.30    6.95
  -2   6  12   99.48    6.52
   2  -6 -12  102.47    6.73
  -2  -6  12   92.84    8.21
  -2  -6  12  100.59    8.06
   2   6 -12  108.59    7.46
  -2   6  11   16.12    2.50
   2   6 -11   19.82    3.06
  -2  -6  11   19.16    3.38
  -2   6  11   20.89    3.01
  -2  -6  11   18.55    3.52
   2  -6 -11   17.67    2.47
  -2  -6  10  208.18   12.08
  -2   6  10  205.74   10.75
   2   6 -10  183.86   12.08
  -2   6  10  199.52    9.62
  -2   6  10  206.65   10.08
  -2  -6  10  183.68   12.01
   2  -6 -10  185.49   10.04
  -2   6  10  180.52   11.71
   2   6 -10  200.63   11.01
  -2   6   9    2.71    1.76
  -2   6   9    3.55    1.46
   2  -6  -9    4.09    1.39
  -2  -6   9    2.74    2.05
  -2   6   9    4.97    1.34
   2   6  -9    2.47    1.80
  -2   6   9    5.75    1.28
  -2  -6   9    6.59    2.30
   2   6  -9    6.33    1.97
  -2  -6   8  258.99   13.89
  -2   6   8  254.77   12.50
  -2   6   8  249.58   11.76
   2  -6  -8  250.14   11.97
   2   6  -8  253.67   14.37
  -2   6   8  269.07   11.53
  -2   6   8  263.16   13.92
  -2  -6   8  257.02   14.22
  -2   6   7   28.16    2.80
  -2  -6   7   31.12    3.66
  -2  -6   7   23.59    3.44
  -2   6   7   28.48    2.41
  -2   6   7   27.35    2.21
   2   6  -7   25.12    3.73
  -2   6   6  533.79   21.56
  -2  -6   6  539.83   24.40
   2   6  -6  506.27   24.48
  -2  -6   6  530.73   23.87
  -2   6   6  525.71   22.49
  -2   6   5  143.81    7.58
   2   6  -5  140.47    9.14
  -2  -6   5  149.08    9.07
  -2  -6   5  145.93    8.64
  -2   6   5  155.48    6.89
   2  -6  -4  157.90    8.29
  -2  -6   4  143.90    8.33
  -2   6   4  141.79    7.30
  -2  -6   4  155.99    8.93
   2   6  -4  139.55    8.95
  -2   6   4  146.05    6.67
   2   6  -4  144.92    8.13
   2  -6  -4  151.94    7.38
  -2   6   3  132.37    6.61
  -2  -6   3  139.69    7.81
   2  -6  -3  123.39    7.38
  -2  -6   3  130.42    7.94
   2  -6  -3  143.46    6.95
   2  -6  -3  136.88    6.15
   2   6  -3  126.51    8.28
   2   6  -3  122.59    7.18
  -2   6   2  782.68   30.94
  -2  -6   2  793.72   32.79
   2  -6  -2  813.85   31.67
   2  -6  -2  763.40   30.03
   2  -6  -2  779.16   32.26
   2   6  -2  755.82   33.13
   2   6  -2  738.50   31.55
  -2  -6   2  820.16   32.71
   2  -6  -1   33.87    2.36
  -2   6   1   37.87    2.55
  -2  -6   1   32.52    3.32
   2  -6  -1   35.40    3.26
  -2  -6   1   41.04    3.54
   2   6  -1   37.96    3.76
   2   6  -1   36.99    2.87
   2  -6  -1   32.94    1.95
   2  -6  -1   36.22    3.07
   2  -6   0  105.66    5.06
  -2  -6   0  102.97    6.42
  -2  -6   0   93.42    6.26
   2   6   0  119.56    5.85
  -2  -6   0  104.78    6.43
  -2   6   0  106.03    5.29
   2  -6   0  114.68    6.66
  -2  -6   0  108.77    6.22
  -2   6   0  103.82    6.25
   2  -6   0  101.98    6.23
   2  -6   0  105.40    4.93
  -2  -6  -1   33.56    3.26
   2  -6   1   29.52    1.93
   2   6   1   32.05    3.22
   2  -6   1   31.76    3.17
  -2   6  -1   29.67    2.22
  -2  -6  -1   36.24    3.24
  -2   6  -1   34.43    3.07
  -2   6  -1   34.44    3.02
  -2  -6  -1   37.99    3.00
   2  -6   1   28.51    3.06
   2  -6   2   92.28    4.19
  -2   6  -2   85.77    4.61
  -2  -6  -2   89.98    5.77
   2  -6   2   87.06    5.97
  -2   6  -2   90.22    5.76
  -2  -6  -2   90.06    5.23
  -2  -6  -2   85.03    5.64
   2  -6   2   82.10    5.88
  -2   6  -2   85.67    5.58
   2   6   2   86.49    5.84
  -2   6  -3    3.25    0.84
  -2   6  -3    4.73    1.44
   2  -6   3    5.26    0.75
   2   6   3    5.17    1.51
   2  -6   3    4.74    1.63
   2   6   3    2.91    1.37
  -2  -6  -3    6.77    1.56
  -2  -6  -3    4.55    1.48
  -2   6  -3    8.41    1.65
  -2  -6  -3    6.50    1.29
  -2   6  -4   14.06    1.55
  -2   6  -4   17.11    2.45
   2  -6   4   10.73    2.39
   2  -6   4   15.48    1.34
   2   6   4   17.22    2.32
  -2  -6  -4   19.74    2.43
  -2  -6  -4   13.03    1.75
   2   6   4   11.93    2.06
  -2   6  -4   11.08    2.07
   2  -6   5   92.05    6.67
   2   6   5   92.06    6.20
  -2   6  -5   85.54    6.17
   2   6   5   80.55    5.85
   2  -6   5   90.23    4.66
  -2  -6  -5   95.80    6.08
  -2   6  -5   77.50    6.17
   2   6   5   93.40    6.07
   2  -6   6  231.01   12.75
  -2  -6  -6  229.54   11.80
   2  -6   6  223.77   10.37
   2   6   6  229.62   11.80
  -2   6  -6  233.65   12.36
  -2   6  -6  249.49   12.86
   2   6   6  220.65   11.72
   2   6   6  220.11   11.86
   2   6   6  233.85   11.57
  -2  -6  -7  131.19    8.08
   2   6   7  120.72    7.90
   2  -6   7  149.10    7.44
   2   6   7  130.79    8.22
   2   6   7  150.56    8.42
  -2  -6  -7  157.94    8.63
  -2   6  -7  140.06    9.21
   2   6   7  153.49    8.84
  -2  -6  -7  161.54    9.42
   2  -6   7  150.49    9.53
  -2   6  -7  116.38    8.33
   2   6   8   -0.41    1.66
   2   6   8    0.42    1.47
   2   6   8    1.35    1.59
  -2  -6  -8    2.10    1.65
   2   6   8    1.19    1.37
  -2  -6  -8    0.78    1.27
   2  -6   8    2.33    1.54
   2  -6   8    0.57    1.07
  -2   6  -8    4.69    2.02
  -2  -6  -8    1.28    1.29
   2   6   9  145.10    8.90
   2   6   9  154.86    8.77
   2  -6   9  151.12    9.97
   2   6   9  147.74    9.08
   2  -6   9  141.07    8.01
   2   6   9  124.61    8.36
  -2  -6  -9  161.13    9.86
  -2   6  -9  118.74    9.23
  -2  -6  -9  132.67    8.48
   2   6  10  134.25    8.56
   2   6  10  131.82    8.12
   2  -6  10  121.22    9.21
   2   6  10  129.70    8.62
   2   6  10  121.39    8.20
   2  -6  10  126.45    7.76
  -2  -6 -10  125.93    9.11
  -2  -6 -11    2.62    1.82
   2   6  11   -0.54    1.90
   2   6  11   -0.45    1.45
   2   6  11    1.48    1.65
   2  -6  11    0.87    1.42
   2  -6  12    0.49    1.59
   2   6  12    0.94    1.57
   2   6  12   -0.52    1.69
  -2  -6 -12    0.70    1.86
  -2   6 -13    2.46    2.57
   2   6  13    0.55    1.91
   2  -6  13    2.18    2.19
  -2  -6 -13    5.20    2.15
  -2  -6 -14   82.61    7.91
   2  -6  14   75.78    6.80
  -2   6 -14   85.68    8.31
  -2  -6 -15   19.33    4.42
  -2   6 -15   25.62    4.92
   2  -6  15   24.96    4.17
  -2   6 -16   13.48    3.99
   2  -6  16   20.70    4.04
  -2  -6 -16   11.59    3.70
  -2   6 -17   10.12    3.98
  -2  -6 -17    5.66    3.16
   2  -6  17    4.62    2.82
  -2   6 -18   14.85    4.64
   2  -6  18   12.38    3.56
  -2  -6 -18   16.00    4.61
  -2  -6 -19    1.05    2.78
   2   7 -20   12.04    3.39
  -2  -7  19    5.61    3.26
   2   7 -19    6.92    3.16
   2   7 -18   51.41    6.13
  -2  -7  18   47.96    7.05
   2   7 -17    0.70    2.68
  -2  -7  17    3.03    3.04
  -2   7  16   34.40    4.15
  -2  -7  16   41.95    6.07
   2  -7 -16   34.84    4.44
   2   7 -16   38.52    4.94
   2  -7 -15   10.34    2.61
   2   7 -15    6.30    2.65
  -2   7  15    5.72    2.24
  -2  -7  15    8.09    3.54
  -2   7  15    9.66    2.21
  -2  -7  14  117.64    9.34
   2  -7 -14  101.85    7.36
  -2   7  14  112.45    7.05
  -2   7  14   90.66    6.93
   2   7 -14  113.60    8.31
  -2  -7  14   97.33    9.01
  -2  -7  13    0.80    2.31
  -2   7  13    1.21    1.59
  -2   7  13    1.05    1.35
  -2  -7  13    1.47    2.31
   2   7 -13    2.27    2.07
   2  -7 -13    2.22    1.44
  -2   7  12   42.73    3.83
  -2   7  12   50.84    4.88
  -2   7  12   50.23    4.37
  -2  -7  12   54.11    5.99
  -2  -7  12   56.08    6.15
   2   7 -12   52.75    5.13
   2  -7 -12   44.41    4.27
   2   7 -11   42.02    4.48
  -2   7  11   37.96    4.01
   2   7 -11   36.62    5.05
  -2   7  11   38.90    3.55
  -2  -7  11   32.20    4.75
   2  -7 -11   33.51    3.65
  -2  -7  11   36.57    4.89
  -2   7  11   43.96    3.49
   2  -7 -10   40.00    3.74
  -2  -7  10   43.73    5.14
  -2   7  10   45.50    4.12
   2   7 -10   32.90    4.65
  -2   7  10   50.89    3.85
  -2   7  10   39.88    3.28
  -2  -7  10   39.54    4.91
  -2  -7   9   -0.60    1.66
  -2   7   9    0.24    0.87
  -2   7   9    0.73    1.22
  -2  -7   9    0.62    1.47
  -2   7   9   -0.27    1.01
   2  -7  -9   -0.32    1.16
   2   7  -9   -0.65    1.98
  -2  -7   8  101.22    7.70
  -2   7   8  106.36    6.52
  -2  -7   8   96.90    7.64
  -2   7   8  107.00    5.88
   2   7  -8  111.70    8.31
  -2   7   8   99.97    5.63
  -2  -7   7  170.67   10.16
  -2  -7   7  166.33   10.23
  -2   7   7  162.29    7.88
   2   7  -7  139.80   10.03
  -2   7   7  160.16    8.62
  -2   7   6   32.72    2.42
  -2  -7   6   21.74    3.20
  -2  -7   6   23.26    3.36
   2   7  -6   35.25    4.17
  -2   7   6   26.44    2.72
  -2   7   5    8.48    1.23
   2   7  -5    5.89    1.97
  -2  -7   5    8.49    2.07
   2  -7  -5    8.71    1.87
  -2  -7   5    8.45    2.02
   2   7  -5    5.04    1.62
  -2   7   5    7.76    1.50
  -2  -7   4   28.15    3.36
  -2   7   4   37.90    2.95
  -2   7   4   33.27    2.31
  -2  -7   4   29.98    3.56
   2   7  -4   27.32    3.59
   2  -7  -4   40.33    3.08
   2  -7  -4   38.32    3.58
   2   7  -4   31.67    3.29
   2  -7  -3    3.19    1.05
   2  -7  -3    3.88    0.69
   2   7  -3    0.97    1.08
  -2  -7   3    4.85    1.48
  -2  -7   3    2.70    1.30
  -2  -7   3    2.49    1.16
  -2   7   3    7.28    1.29
   2  -7  -3    2.70    0.74
   2   7  -3    4.38    1.29
   2  -7  -3    4.33    1.29
   2  -7  -2   24.71    2.56
   2  -7  -2   25.43    2.22
  -2   7   2   25.26    2.25
   2  -7  -2   26.59    1.74
  -2  -7   2   24.01    2.94
  -2  -7   2   25.91    2.98
   2   7  -2   25.22    3.22
   2   7  -2   24.74    2.58
   2  -7  -2   24.01    2.80
   2  -7  -1   -0.37    0.88
   2  -7  -1    0.32    0.89
   2  -7  -1    0.51    0.51
   2  -7  -1    0.67    0.48
  -2   7   1    0.61    0.59
  -2  -7   1    0.74    0.93
  -2  -7   1    2.24    1.17
   2   7  -1    0.45    1.19
   2   7  -1   -0.26    0.89
  -2  -7   0   -0.36    0.96
  -2   7   0    1.31    0.78
  -2  -7   0    1.07    0.94
   2  -7   0   -0.15    0.52
   2  -7   0    0.35    1.01
   2  -7   0   -0.39    0.66
  -2   7   0    1.18    0.70
   2   7   0   -0.43    1.02
   2   7   0    0.98    0.94
   2  -7   0    1.35    0.55
  -2  -7   0    1.07    0.95
  -2  -7   0    0.34    0.85
   2  -7   1  302.44   14.63
   2  -7   1  295.36   12.50
  -2  -7  -1  289.72   13.99
  -2  -7  -1  322.15   14.65
  -2   7  -1  279.01   12.98
   2   7   1  279.34   14.70
  -2  -7  -1  318.04   14.51
  -2  -7  -1  349.15   14.71
   2  -7   1  286.57   14.73
  -2   7  -1  313.63   14.36
   2  -7   2    2.60    1.22
   2   7   2    3.80    1.43
  -2  -7  -2   11.62    1.92
   2  -7   2    4.94    1.70
   2  -7   2    4.02    0.74
  -2  -7  -2    5.41    1.53
  -2   7  -2    5.59    1.10
  -2   7  -2   10.11    1.85
  -2  -7  -2    5.79    1.58
  -2  -7  -2    4.19    1.21
  -2   7  -2    4.56    1.39
   2   7   3   35.08    3.50
  -2   7  -3   32.77    3.40
  -2  -7  -3   36.90    3.14
   2  -7   3   30.67    2.17
   2  -7   3   36.78    3.82
  -2   7  -3   35.14    2.71
  -2  -7  -3   36.83    3.59
  -2   7  -3   35.47    3.53
  -2  -7  -3   36.72    3.46
  -2   7  -4  106.43    6.75
   2  -7   4   94.44    6.93
   2   7   4   86.70    6.40
  -2  -7  -4   99.18    5.97
  -2   7  -4   94.47    6.61
  -2  -7  -4   93.20    6.27
  -2   7  -4   95.54    5.40
   2  -7   4   96.51    4.89
   2   7   4  110.60    6.79
   2  -7   5   95.05    7.11
  -2  -7  -5  102.06    6.19
  -2   7  -5   92.59    6.71
  -2  -7  -5  107.66    6.69
   2   7   5  102.63    6.70
  -2   7  -5   94.62    6.91
  -2   7  -5  103.53    5.66
   2   7   5   79.58    6.31
   2  -7   5  104.45    5.21
   2  -7   6  133.87    9.07
   2  -7   6  130.34    6.72
  -2  -7  -6  127.44    8.00
   2   7   6  135.81    8.23
   2   7   6  129.87    8.26
  -2   7  -6  134.45    8.57
  -2   7  -6  140.51    8.95
  -2   7  -7    7.27    2.17
  -2  -7  -7   10.98    2.26
   2  -7   7    7.59    2.47
   2   7   7   14.17    2.51
   2   7   7    6.00    1.93
   2  -7   7   12.22    1.70
   2   7   7    6.85    2.09
   2   7   7   11.27    2.24
  -2   7  -7    8.65    2.32
   2   7   8  354.44   17.00
   2   7   8  341.13   16.84
   2  -7   8  325.73   18.01
  -2  -7  -8  349.06   17.00
   2  -7   8  341.87   15.64
  -2   7  -8  370.91   18.37
   2   7   8  337.14   16.93
   2   7   8  350.08   17.25
  -2  -7  -8  386.08   18.25
  -2   7  -8  325.55   17.44
   2   7   9    1.40    1.66
  -2  -7  -9    1.36    1.52
   2   7   9    1.38    1.54
   2   7   9    1.94    1.52
  -2  -7  -9    2.96    1.92
   2  -7   9    3.32    1.84
  -2  -7  -9    5.30    2.02
   2  -7   9    2.99    1.42
  -2   7  -9    3.23    2.02
   2   7   9    1.51    1.74
   2   7  10  147.40    9.84
  -2  -7 -10  147.55    9.54
   2  -7  10  195.53   11.85
   2   7  10  163.34    9.73
  -2  -7 -10  177.75   11.10
   2   7  10  162.27   10.03
   2  -7  10  142.90    8.73
   2   7  10  153.79    9.69
   2   7  11  101.67    7.84
   2   7  11  105.09    7.54
   2  -7  11  101.16    8.71
   2   7  11  105.17    8.06
   2  -7  11  110.70    7.23
   2   7  11  113.49    7.85
  -2  -7 -11  111.63    8.70
   2   7  12  270.83   15.11
   2   7  12  273.24   14.44
   2  -7  12  251.21   13.93
   2   7  12  273.44   14.67
  -2  -7 -12  292.47   16.18
   2   7  12  254.98   14.78
   2  -7  13   30.16    3.99
  -2  -7 -13   20.87    4.11
   2   7  13   28.95    4.42
  -2   7 -14   56.20    6.68
   2  -7  14   50.62    5.25
  -2  -7 -14   54.32    6.47
   2   7  14   55.09    5.88
  -2   7 -15    5.55    3.29
   2   7  15    6.29    2.55
   2  -7  15    4.45    2.50
  -2  -7 -15    2.57    2.87
  -2  -7 -16   39.10    5.97
   2  -7  16   45.48    5.56
  -2   7 -16   45.61    6.50
  -2   7 -17    2.04    2.56
  -2  -7 -17    0.96    2.90
  -2  -7 -18   -1.01    2.80
  -2  -7 -19   -1.07    3.34
   2   8 -19   21.52    4.55
   2   8 -18   32.08    5.15
  -2  -8  18   37.35    6.19
   2   8 -17    5.12    2.94
  -2  -8  17    5.06    3.39
   2   8 -16   82.50    7.58
  -2  -8  16   71.93    8.08
   2   8 -15    8.02    2.93
  -2   8  15    9.97    2.39
  -2   8  15   10.15    2.49
  -2  -8  15   13.62    3.89
   2  -8 -15    8.57    2.71
  -2   8  14   68.83    5.56
   2  -8 -14   65.63    5.69
  -2  -8  14   66.96    7.17
   2   8 -14   66.49    6.33
  -2   8  14   59.66    4.97
   2  -8 -13   11.26    2.49
  -2   8  13   15.66    2.49
  -2   8  13   16.49    2.69
  -2  -8  13   22.66    4.27
   2   8 -13   16.43    3.35
  -2  -8  12  257.66   16.09
  -2   8  12  280.98   13.84
   2  -8 -12  277.85   14.29
  -2  -8  12  291.38   16.60
  -2   8  12  280.71   13.43
  -2   8  12  287.56   14.65
   2   8 -11   22.57    3.99
   2  -8 -11   18.48    2.79
  -2   8  11   12.79    2.75
  -2  -8  11   19.55    3.98
  -2  -8  11   21.62    3.97
  -2   8  11   18.15    2.54
  -2   8  11   17.73    2.40
  -2  -8  10   70.12    6.84
  -2   8  10   68.74    4.72
   2   8 -10   78.08    7.32
   2  -8 -10   79.90    5.65
  -2   8  10   76.01    5.06
  -2  -8  10   72.37    6.87
  -2   8  10   65.04    5.37
  -2   8   9   20.70    2.36
   2  -8  -9   16.97    2.55
  -2   8   9   19.94    2.93
  -2  -8   9   18.98    3.62
   2   8  -9   18.78    3.61
  -2  -8   9   20.28    3.82
  -2   8   8    5.34    1.38
  -2  -8   8    9.84    2.73
  -2   8   8    7.14    1.83
  -2  -8   8    3.57    2.01
   2   8  -8   10.70    2.69
  -2   8   7  342.66   16.68
  -2  -8   7  362.12   18.59
  -2  -8   7  376.25   18.75
   2   8  -7  389.64   19.40
  -2   8   7  365.81   15.92
   2   8  -7  379.38   18.20
   2  -8  -6  181.41   10.59
  -2   8   6  185.13    9.74
  -2  -8   6  180.25   11.15
  -2   8   6  197.66    9.06
   2   8  -6  182.78   11.75
  -2  -8   6  176.11   11.07
   2  -8  -5   34.18    3.71
  -2  -8   5   32.35    4.01
   2   8  -5   34.23    4.47
  -2   8   5   37.54    2.74
  -2  -8   5   32.47    3.86
  -2   8   5   39.19    3.33
   2   8  -5   38.50    3.88
   2  -8  -4    0.30    0.67
   2  -8  -4    1.79    1.17
   2  -8  -4    0.19    0.74
  -2   8   4   -0.28    1.08
   2  -8  -4    0.42    1.16
  -2  -8   4   -0.47    1.23
   2   8  -4    1.11    1.31
  -2  -8   4    0.92    1.49
   2   8  -4    0.76    1.23
   2   8  -3  208.07   11.06
  -2  -8   3  208.67   11.74
  -2   8   3  209.70   10.53
  -2  -8   3  231.42   12.05
   2  -8  -3  215.62   10.03
   2  -8  -3  228.84    9.55
   2   8  -3  228.13   12.63
   2  -8  -3  218.17   11.69
  -2  -8   3  220.09   11.90
   2  -8  -3  221.69   11.04
   2  -8  -2  109.06    6.18
  -2   8   2  118.37    6.52
   2  -8  -2  119.92    5.63
  -2  -8   2  120.37    7.56
   2   8  -2   95.32    7.59
  -2  -8   2  119.23    7.63
   2   8  -2  112.91    6.82
   2  -8  -2  132.15    7.81
   2  -8  -2  124.39    7.18
   2  -8  -2  121.37    6.23
   2  -8  -1    9.01    1.38
   2  -8  -1   13.59    1.38
  -2  -8   1   15.93    2.42
  -2  -8   1   15.28    2.34
  -2   8   1   16.39    1.96
   2  -8  -1   13.02    2.30
  -2  -8   1   15.94    2.49
   2   8  -1   12.00    2.49
   2   8  -1   15.34    2.11
   2  -8  -1   14.25    2.37
   2  -8   0  508.60   20.93
   2  -8   0  501.61   20.98
   2  -8   0  519.15   23.06
  -2  -8   0  550.67   23.09
   2   8   0  499.64   23.61
   2   8   0  531.09   22.06
  -2  -8   0  545.33   23.23
  -2  -8   0  538.01   23.06
  -2   8   0  488.63   21.59
  -2   8   0  501.70   22.73
   2  -8   0  523.80   23.53
  -2  -8   0  487.05   22.88
   2  -8   1    2.66    0.79
   2  -8   1    1.73    1.36
  -2  -8  -1    3.80    1.31
  -2  -8  -1    4.51    1.48
  -2  -8  -1    2.33    1.18
   2  -8   1    2.29    0.89
   2   8   1    2.83    1.63
  -2   8  -1    0.48    0.96
   2  -8   1    4.83    1.57
  -2  -8  -1    3.97    1.53
  -2   8  -1    3.78    1.38
  -2  -8  -2    8.89    1.95
   2  -8   2    5.58    2.03
   2  -8   2    5.92    1.86
   2   8   2    6.09    1.94
  -2   8  -2    5.05    1.67
   2   8   2    3.78    1.42
  -2  -8  -2    4.43    1.40
  -2   8  -2    6.19    1.32
  -2  -8  -2    8.76    1.96
  -2  -8  -2    6.09    1.66
   2  -8   2    8.60    1.11
   2  -8   3   92.97    7.05
   2  -8   3  107.33    5.17
  -2   8  -3   94.50    6.59
  -2  -8  -3   94.58    6.27
   2   8   3   93.49    6.94
  -2  -8  -3  108.79    6.86
  -2  -8  -3  109.53    6.65
  -2   8  -3  104.44    5.84
  -2  -8  -3   98.47    6.54
  -2   8  -3   96.72    6.65
   2   8   3   83.20    6.46
  -2   8  -4    5.86    1.74
  -2  -8  -4    5.52    1.62
   2  -8   4    6.32    2.22
   2   8   4    6.04    1.75
   2  -8   4    5.88    0.98
  -2  -8  -4    7.99    1.93
  -2   8  -4    7.18    1.48
  -2   8  -4    6.94    1.83
  -2  -8  -4    7.29    1.73
  -2  -8  -5  101.04    6.96
   2  -8   5  134.86    8.77
   2  -8   5  124.36    6.08
  -2   8  -5  111.53    6.52
  -2  -8  -5  111.46    7.39
  -2  -8  -5  101.33    6.80
   2   8   5  127.61    7.86
  -2   8  -5  124.59    7.93
  -2   8  -5  122.38    8.02
  -2   8  -6   69.52    6.05
   2  -8   6   64.94    6.34
   2  -8   6   75.38    4.54
  -2  -8  -6   80.20    5.86
  -2   8  -6   82.89    5.17
   2   8   6   71.38    5.81
   2   8   6   69.26    5.70
  -2  -8  -6   81.88    5.59
  -2   8  -6   84.45    6.51
   2   8   7    0.44    1.34
  -2  -8  -7    1.34    1.54
  -2   8  -7    1.08    1.74
   2  -8   7    0.63    2.17
   2  -8   7   -0.25    1.02
   2   8   7    1.38    1.72
   2   8   7    1.49    1.61
  -2  -8  -7    1.15    1.32
  -2   8  -7    0.58    1.53
  -2  -8  -8    2.82    1.84
  -2   8  -8    0.58    1.61
   2   8   8    3.79    1.86
   2   8   8    1.44    1.75
   2  -8   8    2.68    1.86
   2  -8   8    3.75    1.47
   2   8   8    0.51    1.49
  -2   8  -8   -0.62    1.37
   2   8   9   58.49    5.42
  -2  -8  -9   50.49    5.53
  -2  -8  -9   66.83    5.71
   2  -8   9   67.01    4.76
  -2   8  -9   55.22    5.94
   2  -8   9   72.46    6.80
   2   8   9   66.76    5.81
   2   8   9   57.77    5.50
  -2   8  -9   52.23    5.77
   2   8  10   85.35    6.81
   2  -8  10   79.54    5.80
   2  -8  10   78.85    7.57
  -2   8 -10   87.68    7.46
   2   8  10   71.37    6.38
  -2  -8 -10   80.09    7.23
   2   8  10   90.63    7.09
   2   8  10   94.13    7.21
  -2   8 -10   93.07    7.87
   2   8  11    4.23    2.68
   2   8  11    2.94    1.91
   2   8  11    2.72    2.09
  -2  -8 -11    5.63    2.29
   2  -8  11    3.39    1.63
   2   8  12  110.27    8.41
  -2  -8 -12   90.78    8.22
   2  -8  12   86.84    6.75
   2   8  12   97.39    7.71
   2   8  13    6.18    2.83
  -2  -8 -13    8.81    3.23
   2   8  13    7.78    2.38
   2  -8  13   11.40    2.73
  -2  -8 -14    0.84    2.23
   2   8  14    1.36    2.13
   2  -8  14    0.57    1.77
  -2   8 -15    2.82    2.36
  -2  -8 -15    1.76    2.66
   2   8  15    2.14    2.54
   2  -8  15    3.70    2.19
  -2   8 -16   35.47    5.98
   2   8  16   44.21    5.70
  -2  -8 -16   28.72    5.43
  -2   8 -17   -3.09    2.98
  -2  -8 -17    2.94    2.72
   2   8  18   -0.82    2.83
  -2  -8 -18    5.16    3.86
   2   9 -18   43.46    5.93
  -2  -9  18   33.18    6.11
   2   9 -17   -0.77    2.66
  -2  -9  17    5.09    3.19
  -2  -9  16   17.41    4.41
  -2  -9  15    4.59    2.98
  -2   9  14   11.42    2.36
  -2  -9  14   11.33    3.36
   2  -9 -14    7.36    2.44
  -2  -9  13    2.47    2.29
   2  -9 -13    3.52    2.07
  -2   9  13    3.71    1.67
   2  -9 -12    4.25    1.94
  -2  -9  12    3.10    2.60
  -2   9  12    2.77    1.34
  -2   9  12    4.99    1.64
   2  -9 -11    3.09    1.70
  -2   9  11    6.69    1.90
  -2   9  11    6.51    1.92
  -2  -9  11    8.57    3.13
  -2  -9  11    8.73    3.34
   2   9 -11    3.16    2.65
  -2   9  10  124.68    7.87
  -2  -9  10  107.20    8.71
  -2  -9  10  109.94    9.08
  -2   9  10  120.33    7.00
   2   9 -10   99.21    9.05
   2  -9 -10  120.65    7.50
   2   9  -9   47.10    5.28
  -2   9   9   49.98    4.63
  -2  -9   9   53.23    5.98
  -2  -9   9   59.96    5.96
   2   9  -9   53.97    6.11
  -2   9   9   55.00    4.12
  -2  -9   8   40.92    5.18
   2   9  -8   44.33    4.88
  -2   9   8   45.45    4.19
   2   9  -8   41.96    5.36
  -2  -9   8   39.81    4.92
  -2   9   8   51.79    3.76
  -2  -9   7  620.56   27.86
  -2   9   7  576.84   25.91
  -2  -9   7  551.57   27.81
   2   9  -7  616.17   28.78
  -2   9   7  617.08   25.07
   2   9  -7  605.70   27.40
  -2   9   6 1139.56   44.53
   2  -9  -6  947.73   45.13
   2   9  -6 1059.64   46.96
  -2   9   6 1149.92   43.48
  -2  -9   6  992.87   46.14
  -2  -9   6 1145.18   46.41
   2   9  -6 1112.57   45.74
   2  -9  -5    7.13    1.82
  -2  -9   5   10.34    2.52
  -2   9   5   14.75    2.33
  -2  -9   5    7.76    2.57
   2   9  -5   11.29    3.04
   2   9  -5   12.38    2.65
   2  -9  -5   16.67    2.96
  -2   9   4  301.59   14.05
   2  -9  -4  288.82   12.65
   2  -9  -4  301.68   15.16
  -2  -9   4  298.57   15.26
   2   9  -4  316.61   14.85
   2   9  -4  293.68   16.08
   2  -9  -4  285.55   14.10
  -2  -9   4  280.06   15.23
   2  -9  -4  286.69   13.15
  -2  -9   4  307.54   15.52
  -2  -9   3   78.27    6.06
   2  -9  -3   65.33    4.81
   2  -9  -3   84.27    5.75
   2  -9  -3   81.30    4.79
  -2   9   3   75.99    5.24
  -2  -9   3   80.85    6.35
   2   9  -3   79.75    6.72
   2  -9  -3   80.37    4.29
   2  -9  -3   85.33    6.31
   2   9  -3   77.66    5.59
  -2  -9   3   66.23    5.97
   2   9  -2  868.31   35.04
   2   9  -2  805.56   36.62
   2  -9  -2  808.07   33.93
  -2  -9   2  816.30   35.67
   2  -9  -2  845.96   33.14
   2  -9  -2  864.81   34.00
  -2  -9   2  841.97   35.89
   2  -9  -2  867.09   36.12
  -2  -9   2  745.67   35.58
  -2   9   2  858.10   34.54
   2  -9  -2  844.03   35.29
   2  -9  -1   29.77    3.57
  -2  -9   1   35.12    3.83
  -2  -9   1   33.69    3.83
   2   9  -1   36.85    3.49
   2   9  -1   29.88    3.95
   2  -9  -1   37.14    2.62
   2  -9  -1   40.34    4.27
  -2  -9   1   35.98    3.98
  -2   9   1   33.30    3.19
   2  -9  -1   33.08    2.85
   2  -9   0  119.97    6.23
  -2   9   0  115.13    7.52
   2  -9   0  113.09    8.13
   2   9   0  125.35    8.51
   2   9   0  117.95    7.04
  -2  -9   0  130.60    7.98
   2  -9   0  122.63    7.96
   2  -9   0  126.17    6.20
  -2  -9   0  119.35    7.63
  -2  -9   0  115.63    7.75
  -2  -9   0  113.30    7.73
  -2   9   0  110.46    6.68
   2  -9   1  119.28    5.91
  -2  -9  -1  118.52    7.40
   2   9   1  110.72    7.92
  -2   9  -1  106.97    6.47
  -2  -9  -1  122.91    7.71
   2  -9   1  101.70    7.48
   2  -9   1  107.83    7.95
  -2  -9  -1   99.34    7.16
  -2   9  -1  113.20    7.34
  -2  -9  -1  115.41    7.53
   2  -9   1  116.91    6.13
   2  -9   2  566.95   23.38
  -2  -9  -2  564.92   25.28
   2   9   2  563.08   26.22
  -2   9  -2  570.98   24.41
  -2  -9  -2  574.16   25.56
   2  -9   2  587.26   26.42
  -2  -9  -2  589.05   25.75
  -2   9  -2  576.41   25.60
  -2  -9  -2  577.55   25.50
   2  -9   2  594.52   26.78
  -2   9  -3    1.79    1.35
  -2  -9  -3    1.98    1.56
   2  -9   3    2.16    0.88
   2   9   3    0.47    1.51
  -2   9  -3    1.19    1.17
  -2  -9  -3    1.76    1.56
  -2  -9  -3    1.69    1.58
   2   9   3    2.08    1.80
   2  -9   3    0.55    1.53
  -2  -9  -3    3.69    1.57
  -2  -9  -4    1.20    1.42
  -2   9  -4    0.93    1.46
   2  -9   4    1.34    0.84
   2  -9   4    1.16    1.69
   2   9   4    1.04    1.57
   2   9   4    2.35    1.67
  -2  -9  -4    1.73    1.45
  -2   9  -4    1.86    1.04
  -2  -9  -4    0.81    1.47
  -2   9  -4    3.40    1.58
   2  -9   5   33.15    2.76
  -2   9  -5   36.54    4.16
   2   9   5   38.38    4.19
   2  -9   5   36.97    4.73
  -2  -9  -5   33.45    3.89
  -2   9  -5   40.77    3.56
   2   9   5   40.55    4.44
  -2   9  -5   40.04    4.32
  -2  -9  -5   36.12    3.78
   2   9   6  401.79   19.86
   2  -9   6  410.81   21.26
   2   9   6  405.82   20.07
  -2  -9  -6  420.76   19.71
  -2  -9  -6  433.68   19.60
  -2   9  -6  418.83   20.30
  -2   9  -6  390.13   18.44
  -2  -9  -6  448.94   19.62
  -2   9  -6  391.90   20.18
   2  -9   6  420.71   17.81
   2  -9   7  116.67    6.39
  -2  -9  -7  101.75    7.37
  -2   9  -7  130.41    8.81
   2  -9   7  121.36    9.13
  -2  -9  -7  108.53    7.38
  -2  -9  -7  108.22    7.62
  -2   9  -7  103.94    8.02
   2   9   7  111.61    7.87
   2   9   7  116.71    8.18
   2   9   8   43.70    4.71
  -2   9  -8   58.68    5.77
  -2  -9  -8   45.92    4.56
  -2  -9  -8   54.24    5.10
   2  -9   8   54.04    4.03
   2  -9   8   56.73    6.16
   2   9   8   56.82    5.37
   2   9   8   46.70    4.86
  -2   9  -8   45.92    5.26
   2   9   9   16.09    3.21
  -2  -9  -9   14.69    3.15
   2   9   9    7.70    2.28
  -2  -9  -9    5.95    2.84
  -2   9  -9   14.33    3.39
   2  -9   9   15.95    3.72
   2  -9   9    5.57    1.68
   2   9   9    8.51    2.65
  -2   9  -9    6.47    2.94
  -2   9 -10   15.95    3.42
   2   9  10   19.04    3.38
  -2  -9 -10   12.45    3.37
   2   9  10    9.51    2.73
   2   9  10   16.06    3.16
   2  -9  10   14.90    2.47
  -2  -9 -10   15.61    3.37
  -2   9 -11   -0.77    2.14
   2   9  11    0.62    1.64
  -2  -9 -11    2.20    2.46
   2   9  11   -1.15    1.99
   2   9  11    0.64    2.28
   2  -9  11    0.83    1.51
   2   9  12    0.68    2.36
   2   9  12   -0.64    1.87
   2  -9  12   -0.46    1.49
  -2  -9 -12    1.56    2.26
   2   9  13    0.67    2.03
   2  -9  13    0.51    1.64
  -2  -9 -13    0.82    2.29
  -2  -9 -14   22.82    4.69
   2   9  14   16.90    3.60
   2  -9  14   16.74    3.24
  -2   9 -15    2.84    2.63
  -2  -9 -15   -0.92    2.30
  -2   9 -16   -1.00    2.50
  -2  -9 -16   -2.86    3.09
   2   9  16   -0.77    2.13
  -2  -9 -17    1.00    2.77
   2   9  17   -0.80    2.32
  -2 -10  17   49.06    7.09
  -2 -10  16    1.94    2.81
  -2 -10  15  174.28   12.97
  -2 -10  14   27.87    5.00
  -2 -10  13   46.27    6.01
   2 -10 -13   47.54    5.03
   2 -10 -12   -0.51    1.89
  -2 -10  12   -2.35    2.54
  -2  10  11   12.57    2.50
   2 -10 -11   16.12    2.94
  -2 -10  11   17.84    3.92
   2 -10 -10   37.42    3.99
  -2  10  10   32.61    4.12
  -2 -10  10   40.85    5.16
  -2  10  10   28.67    3.30
   2  10 -10   42.62    5.70
  -2 -10   9   56.08    6.34
  -2  10   9   49.84    4.78
  -2 -10   9   57.21    5.82
   2  10  -9   38.31    5.66
  -2  10   9   55.32    4.27
   2  10  -9   52.09    5.59
  -2 -10   8   22.61    3.64
  -2  10   8   23.39    2.62
  -2 -10   8   18.92    3.92
  -2  10   8   19.16    2.99
   2  10  -8   14.37    3.60
   2  10  -8   20.67    3.58
   2  10  -7   49.13    5.74
  -2 -10   7   34.30    4.88
  -2  10   7   37.94    3.94
  -2 -10   7   43.36    4.86
  -2  10   7   34.33    3.18
   2  10  -7   41.23    4.71
  -2 -10   6   27.99    4.48
   2  10  -6   39.34    4.98
  -2  10   6   35.26    3.79
  -2 -10   6   38.07    4.55
   2 -10  -6   46.32    4.09
   2  10  -6   36.35    4.27
  -2  10   5  173.45    9.78
  -2 -10   5  168.38   11.08
  -2 -10   5  178.97   10.88
   2  10  -5  185.66   10.50
   2  10  -5  169.02   11.41
   2 -10  -5  168.63    9.61
  -2 -10   4  333.96   17.44
   2  10  -4  371.80   16.76
   2 -10  -4  301.81   16.73
   2  10  -4  349.65   18.19
   2 -10  -4  305.15   14.26
   2 -10  -4  342.78   15.07
  -2 -10   4  355.31   17.49
   2 -10  -4  348.94   16.23
  -2 -10   4  334.06   17.00
  -2  10   4  343.03   15.92
   2 -10  -3  910.50   38.08
  -2 -10   3  976.64   39.98
  -2  10   3  927.05   38.61
   2 -10  -3  929.66   37.03
   2 -10  -3  911.79   39.14
   2 -10  -3  879.71   39.91
   2  10  -3  917.66   41.03
   2 -10  -3  955.54   37.85
  -2 -10   3  970.29   40.22
   2  10  -3  972.41   39.21
  -2 -10   3  900.76   40.08
  -2 -10   2  310.75   16.26
   2 -10  -2  311.10   14.50
   2 -10  -2  326.47   14.70
  -2 -10   2  318.59   16.12
  -2  10   2  338.38   15.36
   2  10  -2  332.76   15.58
   2  10  -2  308.98   17.07
   2 -10  -2  321.40   13.85
   2 -10  -2  305.96   15.90
   2 -10  -2  316.81   16.62
   2  10  -1  152.76    8.72
   2 -10  -1  149.82    7.84
  -2 -10   1  160.25    9.41
  -2  10   1  162.11    8.68
   2  10  -1  151.88   10.11
   2 -10  -1  137.70    7.30
   2 -10  -1  136.27    9.58
  -2 -10   1  153.58    9.51
  -2 -10   1  158.44    9.50
   2 -10  -1  150.11    9.33
   2 -10   0  284.73   12.49
   2 -10   0  274.07   14.55
  -2 -10   0  281.51   14.19
  -2  10   0  281.98   13.37
  -2 -10   0  254.36   14.37
   2  10   0  282.54   13.63
   2  10   0  274.54   15.16
  -2 -10   0  292.60   14.48
   2 -10   0  254.34   12.17
  -2  10   0  268.28   14.07
  -2 -10   0  270.57   14.34
   2 -10   0  264.14   14.96
   2 -10   1    6.46    1.39
  -2  10  -1    6.93    1.91
   2 -10   1    8.15    2.46
  -2 -10  -1    6.58    2.03
  -2 -10  -1    9.68    2.27
   2  10   1    7.61    2.47
   2 -10   1    7.84    1.55
  -2  10  -1    7.87    2.00
  -2 -10  -1    9.99    2.44
   2 -10   1    8.52    2.56
  -2 -10  -1    8.71    2.12
   2 -10   2  144.23    9.82
   2 -10   2  153.84    7.53
  -2 -10  -2  165.50    9.30
   2 -10   2  153.47    8.05
   2  10   2  133.93    9.55
  -2  10  -2  144.18    8.44
  -2 -10  -2  155.11    9.48
  -2 -10  -2  164.60    9.50
  -2 -10  -2  148.52    9.32
  -2  10  -2  150.93    9.30
  -2 -10  -3   36.56    4.07
   2 -10   3   37.79    2.91
  -2 -10  -3   49.62    4.40
   2 -10   3   38.96    4.79
  -2  10  -3   31.95    3.97
  -2 -10  -3   35.81    3.97
   2  10   3   29.41    4.27
  -2  10  -3   39.06    3.65
  -2 -10  -3   35.39    4.14
  -2 -10  -4  235.13   13.24
   2  10   4  251.32   13.74
   2 -10   4  258.02   14.79
  -2 -10  -4  271.17   13.47
   2  10   4  242.35   14.05
  -2 -10  -4  248.25   13.35
  -2  10  -4  266.10   12.71
  -2  10  -4  250.02   13.72
   2 -10   4  256.17   11.56
  -2  10  -5   11.15    2.70
  -2 -10  -5    4.84    2.02
   2 -10   5   10.05    1.63
   2 -10   5   10.08    3.00
   2  10   5    8.08    2.49
   2  10   5   15.57    3.00
  -2  10  -5    9.49    2.23
  -2 -10  -5    8.12    2.29
  -2 -10  -5   10.61    2.41
  -2  10  -5   11.59    2.63
  -2 -10  -6    4.13    1.88
   2  10   6    1.59    1.77
   2 -10   6   -0.25    1.06
   2 -10   6   -0.71    1.96
  -2 -10  -6    0.98    1.58
  -2  10  -6    0.74    1.28
  -2  10  -6    0.58    2.02
   2  10   6    1.16    2.11
  -2 -10  -6    2.34    1.56
  -2  10  -6   -0.56    1.61
  -2  10  -7    6.79    2.43
  -2 -10  -7    6.28    2.22
  -2 -10  -7    3.53    1.98
  -2 -10  -7    2.86    1.75
   2  10   7    4.71    2.26
   2 -10   7    2.97    1.23
   2  10   7    6.48    2.22
   2 -10   7    2.96    2.24
  -2  10  -7    4.58    1.73
  -2  10  -7    6.48    2.37
   2  10   8  214.58   12.57
   2 -10   8  225.60   14.19
  -2 -10  -8  200.20   11.97
   2 -10   8  221.55   10.82
  -2 -10  -8  213.26   12.39
   2  10   8  197.27   12.20
  -2 -10  -8  237.27   12.56
   2  10   8  220.23   12.91
  -2  10  -8  231.15   13.44
   2  10   9  208.29   12.43
  -2 -10  -9  194.75   11.83
  -2 -10  -9  196.15   11.90
   2 -10   9  206.50   10.59
   2  10   9  195.88   12.26
   2  10   9  196.59   12.03
  -2 -10  -9  207.81   11.81
  -2  10  -9  228.34   13.32
  -2 -10 -10    5.24    2.39
  -2  10 -10    6.67    2.71
   2  10  10    6.95    2.75
  -2 -10 -10    0.58    2.12
  -2 -10 -10    7.31    2.87
   2 -10  10    7.33    1.95
   2  10  10    1.91    2.00
  -2 -10 -10    2.13    1.90
  -2  10 -11    3.14    2.55
  -2 -10 -11    2.30    2.49
   2  10  11    9.86    2.92
   2 -10  11    6.50    1.93
  -2  10 -12    8.30    3.03
  -2 -10 -12    4.05    2.72
   2 -10  12    5.40    2.17
   2  10  12    2.72    2.28
  -2 -10 -13   25.74    4.91
  -2 -10 -14   26.15    5.01
   2  10  14   16.83    3.80
  -2 -10 -15   13.30    3.84
   2  10  15    9.90    3.21
  -2 -10 -16    0.98    2.97
   2  10  16    3.17    2.73
   2  10  17    2.47    3.08
  -2 -11  16    0.97    3.44
  -2 -11  15   29.62    5.59
  -2 -11  14   48.51    6.57
  -2 -11  13   15.09    4.30
  -2 -11  12   -0.79    2.74
   2 -11 -12   -0.54    1.79
   2 -11 -11   59.02    5.48
  -2 -11  11   57.35    6.44
  -2 -11  10  121.42    9.37
  -2  11   9   12.76    2.79
  -2  11   9   19.30    2.66
  -2 -11   9   15.58    3.50
  -2  11   8  185.97   10.95
   2  11  -8  176.66   12.65
   2  11  -8  207.21   12.21
  -2  11   8  187.01    9.87
  -2 -11   8  200.52   12.27
  -2 -11   7   96.61    7.63
  -2  11   7   77.67    6.37
   2  11  -7   90.54    7.19
   2  11  -7   74.90    7.72
   2 -11  -7   85.44    6.21
   2  11  -6  517.71   24.49
   2 -11  -6  526.41   23.69
  -2 -11   6  565.47   25.39
   2  11  -6  471.12   25.72
  -2  11   6  547.96   24.07
  -2 -11   6  511.56   25.81
  -2 -11   5   54.42    5.91
  -2  11   5   52.43    4.68
  -2 -11   5   54.25    5.38
  -2 -11   5   54.83    5.51
   2 -11  -5   51.15    4.66
   2  11  -5   38.62    5.35
   2  11  -5   43.37    4.71
   2 -11  -5   55.21    3.70
  -2 -11   4    6.37    2.34
   2 -11  -4    6.70    1.34
  -2  11   4    5.88    2.03
  -2 -11   4    9.24    2.79
  -2 -11   4   10.25    2.57
   2 -11  -4    7.12    1.68
   2 -11  -4    5.97    2.12
   2  11  -4    8.50    2.97
   2  11  -4    5.16    2.09
   2 -11  -3   34.30    3.46
   2 -11  -3   43.21    3.09
  -2 -11   3   45.76    4.68
  -2  11   3   44.69    4.27
   2 -11  -3   37.77    4.24
   2  11  -3   42.47    5.19
  -2 -11   3   41.33    4.68
   2 -11  -3   31.65    3.27
   2  11  -3   42.77    4.36
  -2 -11   2   56.25    5.15
   2 -11  -2   52.61    4.16
   2 -11  -2   55.84    5.20
  -2 -11   2   55.61    5.58
   2 -11  -2   54.86    4.29
  -2  11   2   52.24    4.60
   2  11  -2   53.10    4.80
   2 -11  -2   58.36    3.76
   2  11  -2   63.66    6.22
  -2 -11   2   51.39    5.23
   2 -11  -2   49.43    5.45
   2 -11  -1   96.14    5.79
  -2 -11   1   98.72    7.36
  -2 -11   1   89.00    6.91
   2 -11  -1   99.51    7.31
  -2  11   1   84.98    6.18
   2  11  -1   90.52    7.76
   2 -11  -1   99.55    5.46
  -2 -11   1   90.58    7.01
   2 -11  -1   83.44    7.31
   2  11  -1   98.80    6.72
  -2 -11   0   14.15    2.77
   2 -11   0    9.71    2.61
   2 -11   0   10.19    1.71
  -2 -11   0   10.94    2.55
   2 -11   0    9.55    1.67
  -2  11   0   12.60    2.30
  -2 -11   0   12.13    2.64
   2  11   0    9.22    2.73
   2 -11   0   12.65    2.98
   2 -11   1    0.81    0.98
  -2 -11  -1   -0.50    1.61
  -2 -11  -1   -0.47    1.46
  -2 -11  -1    3.10    1.88
   2  11   1    1.29    1.71
  -2  11  -1   -0.39    1.31
  -2  11  -1   -0.50    1.88
   2 -11   1   -0.24    0.94
   2 -11   1    0.60    1.51
  -2 -11  -1    0.58    1.68
   2 -11   1   -0.68    2.26
   2 -11   2   62.50    4.53
   2 -11   2   68.64    6.41
   2 -11   2   68.72    4.28
  -2 -11  -2   72.41    6.16
  -2 -11  -2   56.58    5.53
  -2  11  -2   70.39    5.30
   2  11   2   68.34    6.43
  -2 -11  -2   61.76    5.53
  -2 -11  -2   58.59    5.29
  -2  11  -2   62.09    5.56
  -2  11  -3    2.61    1.86
   2 -11   3    3.74    1.24
  -2 -11  -3    1.38    1.54
   2 -11   3    4.27    1.51
  -2 -11  -3    1.03    1.84
   2  11   3    3.17    2.19
  -2  11  -3    5.13    1.69
   2 -11   3    3.34    2.02
  -2 -11  -3    7.06    2.23
  -2 -11  -3    2.95    1.89
  -2 -11  -4   64.55    5.48
   2 -11   4   63.10    4.12
   2 -11   4   64.23    6.47
   2  11   4   59.84    6.00
  -2 -11  -4   62.82    5.57
  -2  11  -4   63.10    5.03
  -2  11  -4   57.38    5.55
  -2 -11  -4   55.67    5.39
  -2 -11  -5    5.76    2.07
  -2  11  -5    4.10    1.73
  -2 -11  -5    5.21    1.83
   2 -11   5    7.74    1.55
   2  11   5    7.66    2.52
  -2 -11  -5    8.67    2.35
   2  11   5    7.86    2.58
  -2  11  -5    7.30    2.41
   2 -11   5    5.12    2.81
   2 -11   6  332.56   14.44
  -2 -11  -6  297.46   16.15
   2 -11   6  317.17   18.07
  -2 -11  -6  324.90   16.21
   2  11   6  285.29   16.88
  -2 -11  -6  330.41   16.47
  -2  11  -6  306.20   15.51
   2  11   6  325.50   16.81
  -2 -11  -7  195.67   11.29
   2 -11   7  174.14    9.42
  -2 -11  -7  180.04   11.10
  -2 -11  -7  191.88   11.37
   2  11   7  209.68   11.97
  -2  11  -7  199.46   12.34
  -2 -11  -8    1.11    1.85
  -2 -11  -8    1.08    2.13
  -2 -11  -8    2.18    1.99
   2 -11   8    2.16    1.34
   2  11   8    1.19    2.11
  -2  11  -8    3.44    2.07
  -2  11  -9    7.94    2.65
  -2 -11  -9   10.37    2.94
   2  11   9    8.21    2.76
  -2 -11  -9    6.16    2.58
  -2 -11  -9    4.62    2.23
   2 -11   9    8.10    1.95
  -2 -11 -10  158.22   10.20
  -2 -11 -10  140.01    9.64
   2 -11  10  143.68    8.33
  -2 -11 -10  138.86   10.60
  -2 -11 -10  136.62    9.64
  -2  11 -10  139.75   10.60
  -2  11 -11   60.77    6.65
  -2 -11 -11   57.09    5.95
  -2 -11 -11   62.64    6.71
   2  11  11   48.53    5.80
  -2 -11 -11   53.11    5.79
  -2 -11 -12   24.46    4.75
  -2  11 -12   33.69    5.38
  -2 -11 -12   25.65    4.13
   2  11  12   31.55    4.65
  -2  11 -13   11.48    3.70
  -2 -11 -13    4.44    3.16
   2  11  13    8.17    3.05
  -2 -11 -13    3.91    2.32
  -2 -11 -14   28.92    5.34
   2  11  14   26.89    4.80
  -2 -11 -15   -0.98    2.85
   2  11  15   -0.79    2.40
   2  11  16   20.54    4.31
  -2 -12  15   36.25    5.82
  -2 -12  14   29.99    5.29
  -2 -12  13  213.84   13.96
   2 -12 -13  188.12   13.06
  -2 -12  12  158.48   11.64
   2 -12 -12  166.41   11.62
   2 -12 -11   68.14    6.32
  -2 -12  11   79.96    7.55
  -2 -12  10   51.54    5.96
  -2 -12   9   46.66    5.65
  -2 -12   8   67.36    6.50
  -2  12   8   62.52    5.81
   2 -12  -8   67.71    5.68
  -2  12   7   96.13    7.27
   2 -12  -7   98.47    7.19
  -2  12   6  162.26    9.96
   2  12  -6  153.05   11.55
   2 -12  -6  146.64    9.53
  -2 -12   6  158.43   10.97
   2  12  -5  126.70    8.61
  -2  12   5  124.10    8.15
   2 -12  -5  118.93    6.55
  -2 -12   5  125.40    8.73
   2  12  -5  113.56    9.52
  -2 -12   5  124.78    9.06
   2 -12  -5  103.00    7.80
   2 -12  -4   29.95    3.24
   2 -12  -4   31.77    2.76
  -2  12   4   36.67    3.99
   2  12  -4   28.30    4.69
  -2 -12   4   35.51    4.29
   2  12  -4   33.85    4.00
  -2 -12   4   37.04    4.67
   2 -12  -3   14.14    2.77
   2 -12  -3   10.49    1.67
  -2 -12   3   11.46    2.82
  -2 -12   3   14.24    2.97
  -2  12   3   13.92    2.65
   2  12  -3    9.05    3.25
   2 -12  -3   16.34    2.43
   2 -12  -3   11.26    2.12
   2  12  -3   18.36    3.19
   2  12  -2   -0.94    1.57
   2 -12  -2    0.57    1.73
   2 -12  -2   -0.34    1.23
   2 -12  -2    0.36    1.23
  -2 -12   2   -1.58    1.82
   2 -12  -2   -0.73    1.02
   2  12  -2   -0.74    2.25
  -2 -12   2    1.14    1.91
  -2 -12   2    1.77    1.97
  -2  12   2   -0.46    1.48
   2 -12  -1   35.68    3.36
  -2 -12   1   42.35    4.84
  -2 -12   1   35.53    4.24
  -2  12   1   32.31    3.77
   2 -12  -1   36.67    3.04
  -2 -12   1   38.73    4.50
   2  12  -1   41.54    5.24
   2 -12  -1   33.11    4.48
   2 -12  -1   34.95    3.57
   2  12  -1   29.59    3.74
  -2 -12   0   16.96    3.09
   2 -12   0    5.15    2.57
   2 -12   0    9.92    1.90
  -2 -12   0   10.13    2.64
   2 -12   0   14.53    3.37
  -2 -12   0    9.24    2.48
  -2  12   0    9.86    2.32
   2  12   0    7.91    3.09
   2 -12   0   13.81    1.96
   2 -12   1   19.30    3.84
  -2 -12  -1   21.80    3.61
   2 -12   1   30.28    2.88
  -2 -12  -1   33.88    3.86
  -2 -12  -1   38.57    4.23
   2 -12   1   31.30    3.02
  -2  12  -1   27.12    3.51
   2  12   1   35.44    4.76
  -2 -12  -1   31.55    4.35
   2 -12   1   30.61    4.59
   2 -12   2   55.35    4.30
   2 -12   2   56.15    4.05
   2 -12   2   48.24    5.77
  -2 -12  -2   57.88    5.20
   2  12   2   63.55    6.30
  -2 -12  -2   68.38    5.74
  -2  12  -2   47.22    4.72
  -2 -12  -2   60.01    5.61
  -2 -12  -2   55.78    5.81
   2 -12   3   25.24    2.49
  -2 -12  -3   21.59    3.21
   2 -12   3   21.19    3.89
  -2 -12  -3   18.99    3.23
  -2 -12  -3   22.27    3.47
   2  12   3   17.41    3.57
   2 -12   3   16.57    2.52
  -2  12  -3   17.74    2.89
  -2 -12  -3   10.51    3.14
   2 -12   4    3.40    1.26
  -2 -12  -4    0.50    1.61
   2 -12   4    3.04    2.63
  -2  12  -4    3.15    1.64
  -2 -12  -4    1.20    1.81
  -2 -12  -4    5.86    2.48
  -2 -12  -5   33.65    4.42
   2 -12   5   37.53    3.31
  -2  12  -5   38.79    4.24
  -2 -12  -5   45.71    4.61
  -2 -12  -5   47.29    4.81
  -2  12  -6   33.51    4.00
   2 -12   6   40.99    3.48
  -2 -12  -6   43.02    4.66
  -2 -12  -6   37.09    4.65
   2  12   6   32.37    4.50
  -2 -12  -6   34.27    4.23
  -2 -12  -7   10.46    2.67
  -2 -12  -7    8.47    2.48
   2 -12   7    9.52    2.03
  -2 -12  -7   14.20    3.19
  -2 -12  -8   19.81    3.66
  -2 -12  -8   19.72    3.34
   2 -12   8   20.67    2.71
  -2 -12  -8   19.80    3.41
  -2  12  -9   22.99    4.31
  -2 -12  -9   30.77    4.27
  -2 -12  -9   23.87    4.01
  -2 -12  -9   23.20    3.90
  -2  12 -10   22.33    4.68
  -2 -12 -10   20.37    4.42
  -2 -12 -10   29.72    4.57
  -2 -12 -10   32.38    4.48
  -2 -12 -10   27.03    4.39
  -2 -12 -11   30.06    4.59
  -2 -12 -11   33.71    5.21
  -2 -12 -11   26.02    4.17
  -2 -12 -12   10.56    3.55
  -2  12 -12   10.41    3.34
  -2 -12 -12    8.08    3.10
  -2 -12 -13    5.53    2.89
  -2  12 -13    4.52    2.94
  -2 -12 -13    6.98    3.26
  -2 -12 -14    6.77    3.25
   2  12  14    7.19    3.22
  -2 -12 -14   12.29    3.49
  -2 -12 -15    2.25    2.94
   2  12  15    3.30    2.85
  -2 -13  14   -0.88    2.45
  -2 -13  13   39.03    5.69
   2 -13 -12   13.83    3.89
  -2 -13  12   15.35    3.98
  -2 -13  11   11.65    3.59
   2 -13 -11   14.22    3.77
   2 -13 -10   10.76    3.17
  -2 -13  10    7.45    2.74
  -2 -13   9   12.85    3.41
  -2 -13   8   15.01    3.58
  -2 -13   8   21.13    4.24
   2 -13  -7    5.69    2.05
  -2  13   7   10.13    2.76
  -2 -13   7    7.23    2.76
  -2 -13   7    6.56    2.87
  -2  13   6   24.70    3.80
  -2 -13   6   37.10    4.79
   2 -13  -6   22.42    3.53
  -2 -13   6   36.48    5.02
   2 -13  -5    0.56    1.80
  -2 -13   5   -0.68    2.12
  -2 -13   5    0.61    1.97
  -2  13   5    1.07    1.80
   2 -13  -4   53.39    3.98
  -2 -13   4   52.89    5.47
  -2  13   4   52.68    5.14
   2 -13  -4   50.47    5.32
  -2 -13   4   60.06    6.12
   2 -13  -3   12.24    2.37
   2 -13  -3   11.49    1.87
  -2 -13   3   11.96    2.96
  -2  13   3   11.45    2.57
  -2 -13   3    6.91    2.55
   2 -13  -3   10.52    2.19
   2 -13  -3   10.29    2.71
  -2 -13   2   -0.61    1.90
   2 -13  -2    3.18    2.06
  -2 -13   2    1.66    1.74
   2 -13  -2    1.47    1.51
  -2  13   2    2.54    1.80
   2 -13  -2    1.61    1.05
   2  13  -2    3.06    1.86
   2 -13  -2    2.73    1.46
   2 -13  -1   26.18    3.06
   2 -13  -1   25.89    4.18
  -2 -13   1   34.24    4.30
  -2  13   1   30.21    3.94
  -2 -13   1   30.13    4.15
   2 -13  -1   32.19    3.66
   2 -13  -1   24.63    2.72
   2 -13   0   27.94    2.88
   2 -13   0   25.20    2.93
   2 -13   0   23.57    4.01
  -2 -13   0   23.86    3.62
  -2 -13   0   20.90    3.53
  -2  13   0   29.22    3.68
  -2 -13  -1    7.80    2.79
  -2 -13  -1    4.56    2.29
   2 -13   1    5.82    1.74
   2 -13   1    5.84    2.59
   2 -13   1    4.10    1.57
  -2  13  -1    2.00    1.68
  -2 -13  -1    1.04    1.96
   2 -13   2  162.92    8.46
  -2 -13  -2  157.52    9.97
  -2  13  -2  159.31    9.81
  -2 -13  -2  153.08   10.06
   2 -13   2  150.75    8.64
  -2 -13  -2  171.47   11.24
  -2 -13  -3    3.38    2.11
   2 -13   3    6.02    1.60
  -2 -13  -3    5.76    2.11
   2 -13   3    1.50    1.51
  -2  13  -3    6.42    2.34
  -2 -13  -3    6.24    2.18
  -2 -13  -4   71.28    6.22
  -2 -13  -4   80.63    6.71
   2 -13   4   72.90    4.91
   2 -13   4   71.86    5.55
  -2 -13  -4   66.40    6.64
  -2 -13  -5    3.80    2.09
   2 -13   5    4.90    1.52
  -2 -13  -5    6.34    2.56
  -2 -13  -5    4.63    2.48
  -2 -13  -6  114.26    8.15
   2 -13   6  110.59    6.46
  -2 -13  -6   93.92    7.78
  -2 -13  -6  100.53    8.24
  -2 -13  -7   25.87    3.98
  -2 -13  -7   20.82    3.74
  -2 -13  -7   16.47    3.61
  -2 -13  -8   90.00    7.36
  -2 -13  -8   78.23    6.96
  -2 -13  -8   68.70    6.85
  -2 -13  -9   75.58    7.03
  -2 -13  -9   78.46    6.97
  -2 -13  -9   71.24    6.96
  -2 -13 -10    9.88    3.08
  -2 -13 -10    6.84    2.82
  -2 -13 -10    8.90    3.05
  -2  13 -11   23.67    4.71
  -2 -13 -11   28.00    4.60
  -2 -13 -11   31.89    5.30
  -2 -13 -11   12.58    3.30
  -2 -13 -12    9.19    3.47
  -2 -13 -12   15.14    3.74
  -2 -13 -13   39.34    6.14
  -2 -13 -13   29.78    4.83
  -2 -13 -14   32.30    5.09
  -2 -14  13    8.56    3.74
  -2 -14  12   27.95    4.93
  -2 -14  11    4.74    2.81
   2 -14 -10   25.96    4.89
  -2 -14  10   23.45    4.66
  -2 -14   9    3.28    2.83
  -2 -14   9    0.73    2.51
   2 -14  -9    0.82    2.57
  -2 -14   8    2.10    2.93
  -2 -14   8    4.75    2.89
   2 -14  -8    6.49    3.19
  -2 -14   7   17.51    3.73
  -2 -14   7   25.95    4.76
  -2 -14   6   14.77    3.54
  -2 -14   6   14.26    3.39
  -2 -14   5    3.14    2.35
  -2  14   5    2.38    2.06
  -2 -14   5    2.14    2.53
  -2 -14   4    5.47    2.69
  -2 -14   4    4.27    2.40
  -2  14   4    3.51    2.20
  -2 -14   3   31.44    4.30
  -2  14   3   29.80    4.25
  -2 -14   3   27.75    4.42
   2 -14  -3   29.06    3.57
   2 -14  -2   56.90    4.79
  -2 -14   2   63.88    5.89
  -2  14   2   53.13    5.52
  -2 -14   2   58.30    6.19
   2 -14  -1   49.39    4.35
  -2 -14   1   45.32    5.05
  -2 -14   1   55.87    5.84
   2 -14   0   10.32    2.19
  -2 -14   0   10.48    2.98
  -2 -14   0   12.18    2.91
   2 -14   0    5.61    2.17
   2 -14   1    8.45    1.96
  -2 -14  -1   11.05    2.94
  -2 -14  -1    5.43    2.69
   2 -14   2  104.41    6.50
  -2 -14  -2  100.93    7.80
  -2 -14  -2  115.50    8.37
   2 -14   2  111.19    6.90
  -2 -14  -2   95.08    8.54
   2 -14   3   63.21    4.67
  -2 -14  -3   63.98    5.95
   2 -14   3   57.78    4.99
  -2 -14  -3   70.01    6.33
  -2 -14  -3   66.28    6.97
  -2 -14  -4    3.02    2.83
  -2 -14  -4    4.50    2.26
  -2 -14  -4    3.02    2.09
   2 -14   4    5.54    2.20
  -2 -14  -5   41.10    4.71
   2 -14   5   29.31    3.84
  -2 -14  -5   26.76    4.10
  -2 -14  -5   41.55    5.62
  -2 -14  -6   26.26    4.74
  -2 -14  -6   36.89    4.88
  -2 -14  -6   40.20    4.83
   2 -14   6   32.32    4.33
  -2 -14  -7    9.36    2.84
  -2 -14  -7   13.12    3.16
  -2 -14  -7   12.38    3.42
  -2 -14  -8    8.04    3.19
  -2 -14  -8    8.33    2.90
  -2 -14  -8    5.88    2.64
  -2 -14  -9   10.53    3.18
  -2 -14  -9    7.54    2.89
  -2 -14 -10    2.74    2.36
  -2 -14 -10   -0.74    2.25
  -2 -14 -11    5.59    3.31
  -2 -14 -12    0.78    2.34
  -2 -15  11   -0.80    2.41
  -2 -15  10   42.33    5.87
  -2 -15   9    4.27    3.03
  -2 -15   9    3.70    2.48
  -2 -15   8    3.58    2.81
  -2 -15   8    0.82    2.58
  -2 -15   7   36.69    5.30
   2 -15  -7   27.46    4.93
  -2 -15   7   43.48    5.24
  -2 -15   6   37.45    5.14
  -2 -15   6   32.33    4.89
   2 -15  -6   44.42    6.15
  -2 -15   5   41.54    5.47
   2 -15  -5   33.30    5.35
  -2 -15   4    9.48    2.91
  -2 -15   4    7.15    2.95
   2 -15  -3   46.44    4.69
  -2 -15   3   52.68    5.57
  -2 -15   3   46.51    5.66
   2 -15  -2    3.04    1.85
  -2 -15   2   -1.21    2.20
  -2 -15   2    3.39    2.34
   2 -15  -1   41.05    4.10
  -2 -15   1   36.37    4.73
  -2 -15   1   47.73    5.51
  -2 -15   0   29.85    4.77
  -2 -15   0   29.24    4.13
  -2 -15  -1   63.69    6.37
  -2 -15  -1   72.09    6.45
  -2 -15  -2   25.99    4.71
  -2 -15  -2   31.65    4.45
  -2 -15  -2   22.75    3.94
  -2 -15  -3    5.28    2.21
  -2 -15  -3    6.97    2.66
  -2 -15  -3    7.55    3.45
  -2 -15  -4   86.18    7.19
  -2 -15  -4   82.80    7.36
  -2 -15  -4   71.95    7.95
  -2 -15  -5   58.15    6.16
  -2 -15  -5   64.09    6.19
  -2 -15  -5   50.95    6.53
  -2 -15  -6  121.04    8.80
  -2 -15  -6  110.99    8.67
  -2 -15  -6   96.69    9.13
  -2 -15  -7    3.98    2.55
  -2 -15  -7    8.49    3.19
  -2 -15  -7    5.63    3.09
  -2 -15  -8   28.75    4.54
  -2 -15  -9   -0.81    2.34
  -2 -15  -9   -0.69    2.29
  -2 -15 -10    9.24    3.11
  -2 -15 -10    8.13    3.35
  -2 -16   8  108.75    9.02
  -2 -16   7    7.07    2.59
  -2 -16   7    8.27    3.47
  -2 -16   6    2.39    2.67
  -2 -16   6    4.11    2.57
  -2 -16   5   31.57    5.03
  -2 -16   5   35.49    4.79
  -2 -16   4    0.66    2.39
  -2 -16   4   -2.24    2.86
  -2 -16   3   38.38    4.86
  -2 -16   3   46.46    5.60
   2 -16  -3   32.53    5.83
  -2 -16   2    5.60    2.76
  -2 -16   2    2.13    2.59
  -2 -16   1   53.66    6.28
  -2 -16   1   75.22    6.56
  -2 -16   0    0.61    1.91
  -2 -16   0    2.71    2.72
  -2 -16  -1    9.17    2.72
  -2 -16  -1    6.04    2.53
  -2 -16  -2    1.84    1.92
  -2 -16  -2   -0.67    2.01
  -2 -16  -3   22.35    3.81
  -2 -16  -3   23.31    4.18
  -2 -16  -3   23.55    4.69
  -2 -16  -4   22.22    3.93
  -2 -16  -4   25.43    4.24
  -2 -16  -4   20.88    4.94
  -2 -16  -5   16.73    3.66
  -2 -16  -5   11.12    3.23
  -2 -16  -5   11.81    3.76
  -2 -16  -6   -3.37    2.46
  -2 -16  -6   -0.90    2.91
  -2 -16  -7   14.31    3.57
  -2 -16  -7   19.56    4.32
  -2 -16  -8   -2.78    2.73
  -2 -16  -8   -1.77    2.67
  -2 -16  -9    4.98    2.73
  -2 -17   4   17.03    4.15
  -2 -17   3   22.92    4.14
  -2 -17   3   20.48    4.15
  -2 -17   2  128.99    9.45
  -2 -17   2  121.66    9.80
  -2 -17   1    5.07    2.78
  -2 -17   1    3.86    2.58
  -2 -17   0   85.86    7.92
  -2 -17  -1   21.06    4.19
  -2 -17  -2   78.94    7.53
  -2 -17  -3   57.35    6.40
  -2 -17  -4    6.27    2.93
  -2 -17  -4    9.76    3.57
  -2 -17  -5   26.50    4.52
   3   0 -20   80.26    8.71
  -3   0  19   -2.39    3.17
   3   0 -19   -0.94    2.83
   3   0 -18   22.26    4.61
   3   0 -17   -0.84    2.53
   3   0 -17   -0.50    1.55
   3   0 -16   -3.96    2.48
  -3   0  16   -0.90    1.47
   3   0 -16    1.37    1.48
   3   0 -15    0.42    1.36
   3   0 -15    0.74    1.96
  -3   0  15   -0.42    1.58
   3   0 -14   90.79    6.28
  -3   0  14   92.51    6.34
   3   0 -14   98.91    8.06
   3   0 -13   -0.64    1.86
  -3   0  13   -0.36    1.37
  -3   0  13    1.64    2.17
   3   0 -13   -2.72    1.37
  -3   0  12  150.53    8.15
   3   0 -12  152.52    9.98
  -3   0  12  129.78   10.32
   3   0 -12  150.44    8.07
   3   0 -11    0.54    1.50
  -3   0  11   -0.28    0.98
  -3   0  11   -0.71    1.67
   3   0 -11    0.78    0.90
   3   0 -10   10.81    1.54
  -3   0  10    7.17    2.35
   3   0 -10   13.24    2.56
  -3   0  10   12.06    1.73
   3   0  -9    0.91    0.68
   3   0  -9   -0.44    1.16
  -3   0   9    0.87    0.68
  -3   0   9    0.60    1.23
   3   0  -8   46.09    4.12
  -3   0   8   38.29    2.89
  -3   0   8   43.78    4.65
   3   0  -8   49.55    2.87
   3   0  -7   -0.34    0.98
  -3   0   7    0.46    0.50
  -3   0   7    0.50    1.37
   3   0  -6   38.05    3.27
  -3   0   6   37.13    2.36
  -3   0   6   34.31    3.76
  -3   0   5   -0.21    0.35
  -3   0   5   -0.40    1.00
   3   0  -5    0.48    0.78
  -3   0   4  410.61   19.23
   3   0  -4  422.23   18.00
   3   0  -4  424.58   19.01
  -3   0   4  438.61   17.05
  -3   0   3    1.51    1.14
   3   0  -3   -0.28    0.94
  -3   0   2  679.46   27.29
  -3   0   2  707.75   27.41
  -3   0   2  716.29   28.49
   3   0  -2  708.76   28.44
  -3   0   2  687.67   27.68
  -3   0   2  659.29   27.14
  -3   0   1    0.10    0.39
  -3   0   1    1.05    0.63
  -3   0   1    0.22    0.80
  -3   0   1    0.33    0.65
   3   0  -1   -0.44    0.76
   3   0  -1   -0.15    0.52
  -3   0   0   28.58    2.30
   3   0   0   31.65    2.46
  -3   0   0   24.21    2.09
  -3   0   0   26.84    2.23
   3   0   0   27.29    2.22
   3   0   0   27.99    1.53
   3   0   0   25.45    2.10
  -3   0  -1   -0.23    0.79
  -3   0  -1   -0.15    0.51
  -3   0  -1    0.18    0.68
   3   0   1    0.18    0.61
   3   0   1    0.18    0.65
  -3   0  -2 1416.41   53.46
   3   0   2 1431.22   54.40
   3   0   2 1409.21   53.70
  -3   0  -2 1323.07   54.57
   3   0   2 1392.71   53.98
  -3   0  -2 1353.94   52.91
  -3   0  -2 1340.48   53.93
  -3   0  -3    1.52    0.75
   3   0   3    0.27    1.02
  -3   0  -3   -0.13    0.49
   3   0   3    0.64    0.69
   3   0   3   -0.21    0.68
  -3   0  -3    1.22    1.06
   3   0   4  396.15   16.93
  -3   0  -4  366.90   17.66
   3   0   4  398.21   17.54
  -3   0  -4  402.98   16.10
   3   0   4  381.55   16.20
  -3   0  -4  382.42   16.92
   3   0   5    0.69    1.04
   3   0   5    0.17    0.57
  -3   0  -5   -0.17    0.59
   3   0   5   -0.26    0.81
  -3   0  -5   -0.40    1.05
   3   0   6   60.64    3.78
   3   0   6   66.40    4.56
  -3   0  -6   56.83    5.05
   3   0   6   67.28    5.04
  -3   0  -7   -0.49    1.15
   3   0   7   -0.20    0.85
   3   0   8  502.13   20.72
   3   0   8  495.62   21.81
   3   0   8  470.78   22.61
   3   0   9   -0.38    1.30
   3   0   9    0.25    1.01
   3   0   9   -0.50    1.62
  -3   0 -10   37.92    4.03
   3   0  10   31.55    3.60
   3   0  10   34.15    3.09
  -3   0 -11   -2.50    1.45
   3   0  11   -0.44    1.48
   3   0  11    1.49    1.29
   3   0  12   17.55    2.98
  -3   0 -12   16.49    3.10
   3   0  12   22.35    2.74
  -3   0 -12   22.03    4.23
  -3   0 -13    0.60    2.19
   3   0  13    0.35    1.58
   3   0  13    0.51    1.53
   3   0  13   -1.97    2.40
  -3   0 -13   -1.58    2.10
  -3   0 -14  332.22   18.13
   3   0  14  353.53   16.30
  -3   0 -14  319.71   19.31
  -3   0 -15   -0.70    2.19
   3   0  15   -0.41    1.60
  -3   0 -15   -0.90    2.62
  -3   0 -16   21.74    4.08
   3   0  16   26.53    3.45
  -3   0 -16   27.78    5.16
  -3   0 -17   -1.01    2.94
  -3   0 -17   -0.80    2.50
  -3   0 -18    9.27    3.24
  -3   0 -18    6.41    3.36
  -3   0 -19   -1.78    2.68
  -3   0 -19   -1.12    2.97
  -3   0 -20    1.87    2.71
   3   1 -20   14.95    4.43
   3  -1 -20    5.98    3.55
  -3  -1  19   16.85    4.69
   3   1 -19   31.36    5.51
   3  -1 -19   19.85    4.61
   3   1 -18    2.71    2.51
   3  -1 -18    6.25    3.26
   3   1 -18    5.44    2.33
  -3  -1  18    4.56    3.02
   3   1 -17   11.11    3.44
   3  -1 -17    8.40    3.08
   3   1 -17    5.60    2.16
   3  -1 -17   13.06    2.71
  -3  -1  17    8.61    3.62
  -3  -1  16   39.57    4.33
  -3   1  16   46.34    4.34
   3   1 -16   53.97    6.38
   3   1 -16   36.36    4.19
   3  -1 -16   41.48    4.35
   3  -1 -16   49.66    6.08
  -3   1  15   39.03    3.86
   3   1 -15   43.11    4.34
   3  -1 -15   37.08    3.99
   3  -1 -15   44.92    5.60
  -3   1  15   42.97    5.96
   3   1 -15   46.87    5.63
  -3  -1  15   48.17    4.51
   3  -1 -14  122.30    7.61
   3  -1 -14  138.84    9.80
  -3  -1  14  129.14    8.15
   3   1 -14  135.14    9.81
   3   1 -14  118.69    7.74
  -3   1  14  146.75   11.14
  -3   1  14  132.26    7.72
   3   1 -13  180.48   11.42
  -3  -1  13  151.13    9.22
  -3   1  13  164.29   11.90
   3  -1 -13  164.44    8.92
  -3   1  13  172.63    8.96
   3  -1 -13  172.60   11.07
   3   1 -13  169.24    9.31
   3  -1 -12   68.58    5.99
  -3  -1  12   49.13    4.31
  -3   1  12   60.87    4.23
   3   1 -12   55.77    5.68
   3  -1 -12   57.24    4.17
  -3   1  12   64.94    6.74
   3   1 -12   54.93    4.30
  -3   1  11    8.08    1.51
   3  -1 -11    9.55    2.33
   3   1 -11    9.86    1.65
   3  -1 -11    9.01    1.57
   3   1 -11   11.10    2.61
  -3  -1  11    8.00    1.82
  -3   1  11    6.28    2.50
   3  -1 -10  148.21    9.18
  -3  -1  10  137.55    7.92
   3   1 -10  157.01    7.72
  -3   1  10  150.97    7.37
  -3  -1  10  143.51   10.16
  -3   1  10  138.93    9.90
   3   1 -10  153.50    9.44
   3  -1 -10  145.10    7.25
   3   1  -9   29.40    3.42
   3  -1  -9   25.13    2.06
   3  -1  -9   31.58    3.52
  -3  -1   9   31.76    4.10
  -3  -1   9   26.10    2.62
  -3   1   9   32.14    2.33
  -3   1   9   25.90    3.64
   3   1  -9   27.46    2.39
   3  -1  -8    3.37    0.69
   3  -1  -8    2.31    1.30
   3   1  -8    2.57    0.87
   3   1  -8    2.01    1.22
  -3  -1   8    4.84    1.19
  -3   1   8    6.77    0.95
  -3   1   8    3.74    1.68
  -3  -1   8    2.24    1.48
   3   1  -7  186.31    9.51
   3  -1  -7  165.25    9.13
  -3  -1   7  162.48    8.21
  -3   1   7  169.61    7.31
  -3  -1   7  180.63   10.43
  -3   1   7  173.72   10.27
  -3   1   6  438.63   19.99
   3   1  -6  455.62   19.83
  -3  -1   6  453.79   21.14
  -3  -1   6  449.49   18.82
  -3   1   6  476.74   21.07
  -3   1   5   14.33    1.90
   3   1  -5   11.29    1.79
  -3  -1   5    8.65    1.94
  -3  -1   5   13.86    1.42
   3   1  -5   10.51    1.94
  -3   1   5   11.47    2.00
   3   1  -4  154.83    7.61
  -3   1   4  172.61    8.12
  -3  -1   4  155.74    8.77
  -3   1   4  152.10    8.49
   3   1  -4  151.79    8.59
  -3   1   4  152.46    6.80
  -3  -1   4  152.10    7.05
   3   1  -3   25.46    2.00
  -3   1   3   27.22    2.29
  -3  -1   3   26.93    2.26
   3   1  -3   26.70    2.79
  -3  -1   3   23.36    2.65
  -3   1   3   26.32    1.72
  -3   1   3   25.46    2.61
  -3   1   2 1664.67   66.40
  -3   1   2 1731.50   65.84
  -3  -1   2 1738.55   67.67
  -3  -1   2 1722.91   66.94
   3   1  -2 1704.87   65.85
  -3   1   2 1742.98   67.13
   3  -1  -2 1700.28   66.97
   3   1  -2 1727.62   67.66
  -3   1   2 1744.32   66.19
  -3  -1   2 1706.32   66.61
  -3   1   1   21.24    1.67
   3  -1  -1   17.87    1.80
   3  -1  -1   19.10    1.52
  -3  -1   1   17.24    2.06
  -3   1   1   18.51    1.54
  -3   1   1   15.35    1.68
  -3  -1   1   18.03    1.82
   3   1  -1   17.35    2.06
   3  -1  -1   19.93    1.45
  -3  -1   1   14.11    1.71
   3  -1   0    3.04    0.63
   3  -1   0    2.78    0.75
   3   1   0    1.65    0.95
  -3  -1   0    3.04    0.88
  -3  -1   0    1.83    0.84
   3   1   0    2.36    0.78
  -3   1   0    0.91    0.55
   3  -1   0    1.90    0.68
   3  -1   0    1.51    0.63
  -3  -1   0    2.16    0.89
  -3   1   0    0.90    0.56
  -3   1   0    1.74    0.64
   3   1   0    1.17    0.83
  -3  -1  -1  800.30   31.67
  -3   1  -1  776.96   30.96
   3   1   1  802.65   31.88
  -3   1  -1  775.30   31.22
  -3   1  -1  799.42   31.94
   3   1   1  797.86   31.93
  -3  -1  -1  783.16   32.02
   3  -1   1  799.81   31.14
  -3  -1  -1  769.50   31.77
   3  -1   1  782.57   31.25
   3  -1   1  804.56   31.73
   3   1   1  793.50   31.86
  -3   1  -1  790.95   30.76
  -3   1  -2  521.33   20.59
  -3  -1  -2  508.91   21.25
  -3   1  -2  523.74   21.25
  -3   1  -2  526.94   22.16
   3  -1   2  512.26   20.80
  -3  -1  -2  523.22   21.74
   3  -1   2  523.11   21.23
   3   1   2  538.77   21.81
   3  -1   2  543.48   21.92
  -3  -1  -2  489.51   22.02
  -3   1  -2  534.53   20.85
   3   1   2  493.17   21.50
  -3   1  -3   10.61    1.27
  -3  -1  -3   14.00    1.15
   3   1   3   10.82    1.61
   3  -1   3   14.89    2.02
  -3  -1  -3   10.05    1.72
  -3   1  -3   10.42    1.00
  -3  -1  -3   17.56    1.96
  -3  -1  -3   13.31    1.43
   3   1   3   13.38    1.58
   3  -1   3   11.69    1.20
   3  -1   3   12.05    1.53
  -3   1  -3   14.47    2.01
  -3  -1  -4    3.20    1.38
  -3  -1  -4    5.91    0.97
   3  -1   4    5.05    1.41
  -3   1  -4    6.85    0.91
  -3  -1  -4    3.99    0.97
   3  -1   4    4.77    1.11
   3  -1   4    5.47    0.87
   3   1   4    5.42    1.20
   3   1   4    6.65    1.37
  -3  -1  -5   96.09    5.30
  -3  -1  -5   89.68    5.15
   3  -1   5   95.34    4.83
   3   1   5   95.20    5.40
   3   1   5  101.06    6.32
  -3  -1  -5   95.61    5.92
  -3   1  -5   95.53    6.55
   3   1   5   94.57    5.81
  -3  -1  -5   91.02    6.36
   3  -1   5   97.46    6.35
   3  -1   6  501.40   20.65
  -3  -1  -6  540.88   21.65
   3   1   6  505.37   21.25
  -3  -1  -6  503.03   21.27
  -3   1  -6  478.39   23.07
   3  -1   6  521.00   21.82
  -3  -1  -6  492.10   23.03
   3   1   6  488.60   21.93
   3  -1   6  510.13   22.81
   3   1   6  552.07   22.90
  -3  -1  -7  248.35   12.54
   3  -1   7  260.68   11.63
   3   1   7  277.55   12.20
  -3  -1  -7  266.05   12.27
  -3   1  -7  271.10   14.17
   3  -1   7  272.41   12.81
   3   1   7  269.90   12.98
  -3  -1  -7  249.33   13.80
   3  -1   7  267.53   13.81
   3   1   7  283.35   13.78
  -3  -1  -8  147.02    8.14
   3  -1   8  147.18    7.09
   3   1   8  126.83    7.26
  -3   1  -8  141.68    9.31
   3  -1   8  143.16    8.05
   3   1   8  135.51    8.10
   3  -1   8  140.30    8.89
   3   1   8  147.72    8.86
  -3  -1  -9   25.21    3.14
   3  -1   9   33.05    4.02
   3  -1   9   34.49    3.50
   3  -1   9   28.21    2.59
   3   1   9   27.37    2.80
   3   1   9   29.55    3.34
  -3  -1 -10  383.46   18.50
   3  -1  10  377.36   17.00
   3   1  10  391.03   17.36
   3  -1  10  396.05   18.33
   3   1  10  397.35   18.46
   3  -1  11    9.20    2.23
  -3  -1 -11   10.77    2.45
  -3  -1 -11   14.26    3.35
   3  -1  11   16.75    2.28
   3   1  11   16.21    2.77
   3   1  11   17.34    2.37
   3  -1  12   18.12    2.52
   3   1  12   22.21    3.40
   3   1  12   22.47    2.89
  -3  -1 -12   21.87    3.99
   3  -1  12   26.93    3.58
   3   1  12   20.01    3.46
  -3  -1 -12   22.07    3.47
   3  -1  13   20.32    3.98
  -3  -1 -13   17.00    3.35
   3   1  13   23.26    3.54
   3   1  13   18.19    2.80
  -3   1 -13   16.08    3.55
   3  -1  13   13.18    2.82
   3  -1  13   15.43    2.35
  -3  -1 -13   15.61    3.58
   3   1  13   18.71    3.56
  -3  -1 -14  186.66   12.10
   3   1  14  208.62   10.80
  -3   1 -14  209.90   13.79
   3  -1  14  199.09   10.47
  -3  -1 -14  190.98   13.21
   3  -1  14  184.50   11.52
  -3   1 -14  179.90   12.15
  -3   1 -15   32.97    4.79
  -3  -1 -15   25.81    4.41
   3  -1  15   24.27    3.06
   3   1  15   28.08    3.56
  -3   1 -15   21.85    4.68
  -3  -1 -15   28.60    5.00
   3  -1  16    3.35    1.76
  -3   1 -16    7.71    3.61
  -3  -1 -16    1.91    2.77
  -3   1 -16    2.30    3.09
  -3  -1 -16    7.24    2.85
  -3   1 -17    9.85    3.22
  -3  -1 -17    2.31    2.33
  -3   1 -17    1.02    2.55
  -3  -1 -17    3.03    2.93
  -3   1 -18   64.46    7.50
  -3  -1 -18   74.15    7.63
  -3   1 -18   44.98    7.25
  -3  -1 -18   60.84    7.86
  -3   1 -19    2.77    2.79
  -3  -1 -19    6.03    2.98
  -3   1 -19    7.90    4.33
  -3  -1 -19    4.49    3.12
  -3   1 -20   11.59    4.37
  -3  -1 -20    7.25    3.40
   3   2 -20   25.38    5.59
   3   2 -19  112.14    9.89
  -3  -2  19   63.96    8.62
  -3  -2  18   13.72    4.54
   3   2 -18   20.18    3.55
  -3   2  18   22.33    5.25
   3   2 -18   18.41    4.27
   3   2 -17   14.83    3.97
   3   2 -17   14.70    3.12
   3  -2 -17   18.94    3.17
  -3  -2  17    7.57    3.55
  -3   2  17   17.88    4.44
   3   2 -16   40.26    5.59
   3   2 -16   53.81    4.94
   3  -2 -16   38.34    4.06
  -3   2  16   53.35    6.79
  -3  -2  16   37.70    6.17
  -3  -2  16   33.53    4.21
   3  -2 -15  127.36    7.90
   3   2 -15  141.05    8.51
  -3  -2  15  122.81    8.50
  -3  -2  15  124.54   10.73
  -3   2  15  109.28   10.04
   3   2 -15  138.54   10.31
   3   2 -14  206.46   13.00
   3  -2 -14  186.66   10.35
  -3  -2  14  210.09   11.57
  -3   2  14  210.28   13.93
   3   2 -14  200.50   10.95
  -3  -2  13  166.48    9.91
  -3   2  13  183.87   12.44
   3   2 -13  154.37   10.97
   3  -2 -13  175.91    9.14
   3   2 -13  174.85    9.55
   3  -2 -12  107.31    6.20
  -3  -2  12  113.11    7.20
   3   2 -12  102.29    6.52
  -3   2  12   92.15    8.44
   3   2 -12  117.29    8.45
   3  -2 -11   42.64    3.22
   3   2 -11   46.60    3.68
  -3   2  11   45.04    5.35
  -3  -2  11   42.02    3.98
   3   2 -11   43.31    4.76
   3  -2 -10   41.92    2.90
   3   2 -10   34.27    4.10
  -3  -2  10   42.39    3.81
   3   2 -10   40.84    3.36
  -3   2  10   41.41    4.75
   3  -2  -9   18.23    1.60
   3   2  -9   17.01    2.00
   3   2  -9   22.13    3.04
  -3  -2   9   16.87    2.24
  -3   2   9   18.05    3.19
   3   2  -8  139.20    8.29
   3  -2  -8  126.57    5.80
  -3  -2   8  139.72    7.44
  -3  -2   8  131.52    9.00
  -3   2   8  139.29    8.90
  -3   2   8  126.41    8.20
  -3   2   7  358.29   17.93
   3   2  -7  396.09   18.79
  -3   2   7  428.86   19.05
  -3  -2   7  381.72   16.99
  -3  -2   7  377.26   18.88
  -3   2   6   89.80    5.96
  -3  -2   6   93.27    6.73
  -3  -2   6   88.30    5.22
   3   2  -6   91.79    6.51
  -3   2   6   89.28    6.32
  -3  -2   5    1.61    0.84
  -3  -2   5   -0.43    1.08
  -3   2   5    1.52    1.08
   3   2  -5   -0.41    1.03
  -3   2   5    1.48    0.98
  -3   2   4   34.40    2.85
  -3   2   4   30.97    3.04
  -3  -2   4   29.11    3.19
  -3   2   4   32.16    1.60
   3   2  -4   28.86    3.18
  -3  -2   4   23.49    2.15
  -3   2   3   13.52    1.79
  -3   2   3   10.67    1.12
  -3  -2   3    8.09    1.71
   3   2  -3   12.24    2.01
  -3  -2   2  215.62   10.19
  -3   2   2  215.11    9.03
  -3  -2   2  208.35   10.80
   3   2  -2  209.34   10.83
   3  -2  -2  213.89    8.94
  -3   2   2  226.23   10.19
  -3  -2   2  227.84   10.51
  -3   2   2  221.08    9.07
  -3  -2   1  951.81   38.35
  -3   2   1  977.90   37.50
   3  -2  -1  968.54   36.99
  -3  -2   1  941.57   38.68
  -3  -2   1  918.08   38.18
  -3   2   1  962.06   36.94
   3   2  -1  952.97   38.86
  -3   2   1  921.82   37.65
   3  -2  -1  971.40   37.30
   3  -2  -1  945.77   37.47
   3  -2   0    6.50    1.10
  -3  -2   0    6.92    1.31
  -3  -2   0    3.52    1.09
  -3   2   0    5.33    1.07
  -3   2   0    7.60    0.99
   3   2   0    8.76    1.49
   3   2   0    9.95    1.63
  -3  -2   0    7.47    1.39
  -3   2   0    7.53    0.88
   3  -2   0    9.02    0.96
   3   2   0    6.55    1.28
   3  -2   0    9.69    1.17
   3   2   1   36.10    3.01
  -3   2  -1   36.53    3.00
  -3  -2  -1   42.38    3.11
  -3   2  -1   39.79    2.09
   3   2   1   40.75    3.23
   3  -2   1   36.52    2.86
   3  -2   1   44.82    2.52
   3  -2   1   36.17    2.17
  -3   2  -1   42.51    2.60
   3   2   1   47.39    3.38
   3  -2   1   36.89    2.68
  -3  -2  -1   39.88    3.10
  -3   2  -2   11.99    0.81
  -3  -2  -2   10.40    1.72
  -3  -2  -2   12.44    1.60
   3   2   2   12.44    1.72
   3  -2   2   10.71    0.92
   3  -2   2   12.48    1.32
  -3   2  -2   14.74    1.95
   3   2   2    9.12    1.59
   3   2   2   14.64    1.83
  -3  -2  -2   11.33    1.66
  -3   2  -2   12.67    1.42
   3  -2   2   11.06    1.65
  -3  -2  -3    1.62    1.05
   3   2   3    1.33    0.97
  -3  -2  -3    2.27    0.88
   3  -2   3    1.91    0.76
  -3  -2  -3    1.34    0.93
   3   2   3    1.69    0.97
   3  -2   3    2.98    0.49
  -3   2  -3    1.98    1.07
   3  -2   3    1.43    1.02
   3   2   3    3.12    1.09
  -3   2  -3    2.00    0.92
  -3  -2  -4  222.32   10.10
  -3   2  -4  203.31   11.10
   3  -2   4  216.77    8.99
   3   2   4  212.30   10.27
   3  -2   4  213.57    9.97
  -3  -2  -4  220.03   10.65
   3  -2   4  219.16   10.99
   3   2   4  219.50   10.62
  -3  -2  -4  220.46   11.23
  -3  -2  -5   28.73    2.26
  -3  -2  -5   20.69    2.81
   3  -2   5   21.58    2.25
  -3  -2  -5   25.75    2.72
  -3  -2  -5   26.48    2.44
   3  -2   5   23.49    1.69
   3   2   5   28.04    2.57
   3   2   5   27.38    2.73
  -3   2  -5   28.29    3.26
   3  -2   5   22.18    2.76
  -3  -2  -6  151.56    7.67
  -3  -2  -6  133.61    7.49
   3   2   6  143.44    7.72
  -3  -2  -6  141.48    8.28
   3  -2   6  158.83    7.98
   3   2   6  166.16    8.48
   3  -2   6  159.71    8.94
  -3  -2  -6  145.83    8.98
   3  -2   6  146.30    6.72
  -3   2  -6  154.85    9.26
   3  -2   7  158.19    7.62
   3   2   7  163.63    8.57
  -3  -2  -7  194.38    9.06
   3  -2   7  169.49    8.90
   3   2   7  168.85    9.19
   3  -2   7  165.47    9.80
  -3  -2  -7  168.81    8.66
  -3   2  -7  163.84   10.14
   3  -2   8    8.42    1.85
  -3  -2  -8   10.25    1.94
  -3  -2  -8    9.76    1.72
   3  -2   8    9.41    1.40
   3   2   8    5.11    1.44
   3   2   8    8.28    1.86
  -3   2  -8   11.30    2.65
   3  -2   8    4.85    2.01
   3  -2   9    1.58    1.65
   3  -2   9    3.71    1.71
   3  -2   9    4.13    1.17
   3   2   9    7.62    1.64
   3   2   9    6.47    1.89
  -3   2  -9    3.68    1.99
  -3  -2  -9    3.79    1.46
   3  -2  10   47.86    5.13
   3  -2  10   46.17    3.45
   3   2  10   43.99    3.90
   3   2  10   48.16    4.47
  -3  -2 -10   52.79    4.64
   3  -2  10   45.76    4.30
   3  -2  11    4.84    1.96
  -3  -2 -11    6.63    2.07
   3  -2  11    7.93    1.59
   3   2  11    8.52    2.57
   3   2  11    5.93    1.84
   3   2  11    9.75    2.41
  -3  -2 -11    6.76    2.67
   3  -2  12   28.42    2.79
   3   2  12   21.83    3.79
   3   2  12   24.98    3.03
   3   2  12   17.36    3.14
  -3  -2 -12   21.80    4.03
  -3  -2 -12   21.31    3.31
   3  -2  12   21.36    3.17
  -3  -2 -13   77.61    6.68
   3  -2  13   83.54    5.54
   3   2  13   76.79    5.84
   3   2  13   74.87    6.98
   3  -2  13   79.58    6.43
  -3  -2 -13   96.80    8.33
   3   2  13   82.99    6.63
  -3  -2 -14    9.21    2.92
   3  -2  14   13.64    2.27
   3   2  14    5.94    2.09
  -3  -2 -14    8.34    2.98
  -3   2 -14    6.92    2.91
  -3  -2 -15    0.66    1.99
   3   2  15    2.25    1.85
  -3   2 -15    0.92    2.30
   3  -2  15   -0.76    1.79
  -3  -2 -15   -0.89    2.35
  -3   2 -16   26.10    4.76
   3  -2  16   21.12    3.10
  -3   2 -16   25.26    5.08
  -3  -2 -16   20.74    4.61
  -3  -2 -16   23.24    4.04
  -3   2 -17   37.09    5.81
  -3   2 -17   39.10    6.28
   3  -2  17   38.69    4.19
  -3  -2 -17   42.22    6.37
  -3  -2 -17   50.31    6.03
  -3   2 -18   19.70    4.55
  -3  -2 -18   21.61    4.40
  -3   2 -18   11.96    4.22
  -3  -2 -18   22.41    5.25
  -3  -2 -19    2.55    2.93
   3  -2  19   -0.89    2.78
  -3   2 -19    1.14    2.87
  -3  -2 -19    1.12    2.49
  -3   2 -19   -0.95    2.75
  -3   2 -20   38.98    6.40
  -3  -2 -20   33.24    5.58
  -3   3  19   27.07    5.77
  -3  -3  19   33.91    6.27
   3   3 -19   29.63    5.41
   3   3 -18   11.22    3.93
  -3  -3  18    9.18    3.61
  -3   3  18    6.67    3.73
   3   3 -18   10.40    2.67
   3   3 -17   12.44    2.80
   3   3 -17    8.85    3.51
  -3  -3  17   16.58    3.33
  -3   3  17   15.72    4.50
  -3  -3  17   15.20    4.38
   3   3 -16   51.54    6.47
   3  -3 -16   58.34    5.00
   3   3 -16   56.23    5.26
  -3  -3  16   62.49    7.55
  -3  -3  16   42.03    5.06
  -3   3  16   61.10    7.33
   3   3 -15    0.78    2.26
   3   3 -15    3.30    1.89
   3  -3 -15    0.39    1.49
  -3  -3  15    1.11    2.13
  -3  -3  15    4.82    3.12
   3  -3 -14  379.59   17.52
  -3  -3  14  364.10   18.81
   3   3 -14  387.33   18.27
  -3  -3  14  422.84   22.32
   3   3 -14  385.33   20.51
   3   3 -13  162.71   11.28
   3  -3 -13  171.73    8.99
  -3  -3  13  158.74   10.08
  -3  -3  13  177.45   12.48
   3   3 -13  178.04    9.72
   3  -3 -12   61.40    4.20
  -3  -3  12   62.18    5.33
  -3  -3  12   53.94    6.24
   3   3 -12   49.84    5.56
   3   3 -12   65.13    4.83
   3   3 -11    3.69    1.46
   3  -3 -11    3.61    1.08
  -3  -3  11    4.40    1.77
   3   3 -10   13.01    2.00
  -3   3  10   17.61    3.06
   3  -3 -10   13.99    1.59
  -3  -3  10    9.76    2.21
  -3   3   9   93.74    6.92
   3  -3  -9   87.44    4.59
  -3  -3   9  100.55    6.37
  -3   3   8    5.51    1.82
  -3  -3   8    9.40    1.88
   3  -3  -8    6.56    0.82
  -3   3   7    0.83    1.09
  -3  -3   7    1.90    1.03
   3   3  -7    0.51    1.27
  -3   3   6  152.93    8.98
   3   3  -6  170.27    9.92
  -3  -3   6  164.55    8.48
  -3  -3   5   10.03    1.55
  -3   3   5   14.58    2.09
  -3  -3   5    9.02    2.14
   3   3  -5   12.52    2.37
  -3  -3   4  426.59   20.03
   3   3  -4  435.78   20.10
  -3  -3   4  439.68   18.53
  -3  -3   3  541.60   22.78
   3  -3  -3  488.27   19.87
   3   3  -3  533.87   22.91
  -3   3   3  553.22   21.88
  -3   3   3  511.58   19.90
   3  -3  -2  929.76   35.29
  -3  -3   2  920.00   37.49
  -3   3   2  871.43   35.14
   3   3  -2  920.21   37.57
  -3   3   2  876.33   36.15
  -3  -3   2  904.63   36.75
   3  -3  -2  947.41   36.13
  -3  -3   2  905.56   36.96
  -3   3   1  260.44   10.95
   3  -3  -1  244.99   11.13
  -3  -3   1  247.72   11.74
  -3  -3   1  251.32   12.18
   3  -3  -1  239.02   10.83
   3   3  -1  261.95   12.46
  -3   3   1  238.16   10.93
   3   3  -1  266.86   10.35
  -3  -3   1  233.99   11.78
  -3   3   0  120.21    6.18
   3   3   0  123.45    6.79
  -3  -3   0  118.51    6.69
   3  -3   0  117.11    6.03
   3   3   0  130.78    7.11
  -3   3   0  112.31    5.29
  -3  -3   0  126.44    6.77
   3  -3   0  115.00    5.12
   3  -3   0  125.67    6.21
  -3  -3   0  111.99    6.51
  -3   3  -1  957.28   37.89
  -3  -3  -1  942.20   38.02
  -3   3  -1  954.70   37.29
   3  -3   1  937.93   37.68
   3   3   1  966.36   38.41
   3  -3   1  931.86   36.44
  -3  -3  -1  929.65   38.06
   3   3   1  905.86   38.08
   3   3   1  965.13   38.22
   3  -3   1  917.24   37.57
   3   3   2    0.86    0.86
   3   3   2    0.51    0.38
   3  -3   2    0.78    0.56
   3  -3   2    0.54    0.84
  -3  -3  -2    2.01    0.97
   3   3   2    0.29    0.93
   3   3   2    0.58    0.81
  -3   3  -2    0.90    1.06
  -3  -3  -2    1.13    0.94
  -3   3  -2    1.22    0.76
  -3  -3  -2    1.41    0.41
   3   3   3  157.38    7.04
  -3   3  -3  162.52    8.02
  -3   3  -3  162.67    8.83
  -3  -3  -3  153.67    7.98
   3   3   3  153.99    8.28
   3  -3   3  154.91    7.39
   3  -3   3  147.91    8.35
  -3  -3  -3  153.96    8.36
   3   3   3  163.99    8.53
   3   3   3  161.36    8.47
  -3  -3  -3  174.58    8.99
   3  -3   4    6.12    1.21
  -3   3  -4    7.67    1.49
   3   3   4    9.34    1.71
  -3  -3  -4    8.26    1.45
   3  -3   4    6.65    0.61
   3   3   4    7.32    1.71
  -3  -3  -4    8.76    1.64
   3   3   4    6.23    1.43
  -3   3  -4    7.01    1.75
  -3  -3  -4    8.72    1.92
   3  -3   4    8.65    1.76
  -3  -3  -5   54.25    3.82
   3  -3   5   51.53    2.62
  -3   3  -5   53.22    4.70
   3   3   5   58.53    4.12
   3  -3   5   51.99    3.70
  -3  -3  -5   52.31    4.18
   3  -3   5   51.36    4.41
   3   3   5   56.36    4.26
  -3  -3  -5   51.86    4.53
  -3  -3  -6   78.53    5.32
   3  -3   6   93.51    4.29
   3   3   6   96.96    5.79
  -3  -3  -6   76.05    5.84
  -3   3  -6   95.26    6.82
   3  -3   6   93.57    6.50
   3   3   6   87.76    5.90
  -3  -3  -7  116.57    6.80
   3  -3   7  116.81    5.59
  -3   3  -7  113.04    8.05
   3   3   7  120.94    6.90
   3  -3   7  123.84    7.98
   3   3   7  113.40    7.20
  -3  -3  -8  575.89   25.68
   3  -3   8  593.80   27.21
   3  -3   8  604.89   24.30
  -3   3  -8  611.36   27.94
   3   3   8  606.92   25.73
   3   3   8  620.32   26.46
   3  -3   9   10.98    1.51
   3   3   9   13.12    2.29
  -3   3  -9   15.05    3.14
   3   3   9   15.28    2.58
   3  -3   9   15.74    2.81
   3  -3  10  135.41    6.95
   3   3  10  122.74    7.76
  -3   3 -10  122.91    9.43
   3  -3  10  141.72    9.52
  -3  -3 -10  139.91    9.68
  -3  -3 -10  145.79    8.53
  -3  -3 -11   13.60    2.62
   3  -3  11   11.36    1.89
   3   3  11   12.17    2.34
  -3  -3 -11   14.97    3.40
   3  -3  11   13.78    2.96
   3  -3  12   52.71    3.88
   3   3  12   49.88    4.56
  -3  -3 -12   45.90    4.85
  -3  -3 -12   49.80    5.86
  -3  -3 -13   18.57    3.54
   3  -3  13   24.52    2.76
   3   3  13   27.70    3.42
  -3  -3 -13   17.99    4.02
  -3  -3 -14   18.31    3.61
   3  -3  14   13.24    2.31
   3   3  14    8.58    2.50
  -3   3 -14   13.27    3.95
  -3  -3 -14   15.88    3.86
  -3  -3 -15   13.43    3.78
   3  -3  15   13.61    2.53
  -3   3 -15   14.08    4.18
  -3  -3 -15   10.51    2.95
   3  -3  15   15.35    3.29
   3  -3  16   85.80    5.97
   3  -3  16   83.55    7.54
  -3   3 -16   91.36    9.03
  -3  -3 -16   59.68    7.82
  -3  -3 -16   76.18    7.32
  -3   3 -17    3.14    2.90
  -3  -3 -17    1.00    2.66
   3  -3  17    0.75    2.28
  -3   3 -18   12.10    4.33
  -3  -3 -18    6.38    3.68
   3  -3  18    7.31    3.05
  -3   3 -18    6.47    3.29
  -3   3 -19   40.06    6.34
  -3  -3 -19   37.16    6.55
   3   4 -19    1.00    2.91
   3   4 -19    4.38    2.62
  -3   4  19    2.35    3.41
  -3  -4  19   -1.21    3.35
   3   4 -18   15.19    4.40
   3   4 -18   13.68    3.29
   3   4 -17   13.44    3.87
  -3  -4  17   15.94    3.44
  -3  -4  17   19.50    4.84
   3   4 -17   18.45    3.23
   3   4 -16  117.28    9.96
  -3  -4  16  114.42    8.89
  -3  -4  16  140.05   11.57
   3   4 -16  117.00    8.22
   3   4 -15  105.27    9.13
  -3  -4  15   99.84    8.02
   3  -4 -15   96.71    6.74
  -3  -4  15  119.49   10.24
   3   4 -15  115.48    7.67
   3   4 -14   16.08    2.83
  -3  -4  14   15.40    3.96
   3  -4 -14   10.01    2.16
  -3  -4  14    6.98    2.37
   3   4 -13   33.73    3.65
  -3  -4  13   31.39    5.10
   3  -4 -13   28.66    3.00
  -3  -4  13   30.52    4.13
   3  -4 -12   52.88    3.89
  -3  -4  12   54.77    6.28
  -3  -4  12   49.74    5.16
   3   4 -12   60.12    4.79
  -3   4  11   79.91    6.99
  -3  -4  11   93.05    6.69
   3  -4 -11   79.23    4.89
  -3  -4  11   79.91    7.47
   3   4 -11   93.74    6.06
  -3   4  10   57.28    5.53
  -3  -4  10   59.19    5.10
   3  -4 -10   58.10    3.63
  -3  -4  10   51.00    5.65
  -3   4   9   56.45    5.24
  -3  -4   9   52.96    4.74
   3  -4  -9   55.19    3.28
  -3   4   8  181.30   10.49
  -3  -4   8  178.13    9.91
   3  -4  -8  173.84    7.74
  -3   4   7  171.22    9.89
   3  -4  -7  173.04    7.32
  -3   4   7  172.92    7.18
  -3  -4   7  167.68    9.38
  -3   4   6   53.18    4.53
  -3  -4   6   53.94    4.20
   3  -4  -6   54.08    2.57
   3  -4  -5  536.18   21.40
   3   4  -5  572.13   25.20
  -3  -4   5  589.76   23.58
   3  -4  -4   52.84    2.73
  -3   4   4   49.92    2.42
   3   4  -4   55.16    4.84
  -3  -4   4   54.63    3.94
   3  -4  -3  360.82   14.87
  -3  -4   3  360.16   17.35
   3   4  -3  358.44   17.42
   3  -4  -3  376.90   16.09
  -3  -4   3  370.10   16.85
  -3  -4   2    6.24    1.41
   3  -4  -2    4.09    0.86
  -3  -4   2    4.06    1.43
   3   4  -2    4.98    0.98
   3   4  -2    5.97    1.67
  -3  -4   2    6.05    1.51
   3  -4  -2    5.45    1.24
  -3   4   1   91.48    4.18
  -3  -4   1   88.46    5.63
   3   4  -1   85.43    5.97
   3  -4  -1   88.89    4.86
  -3   4   1   85.18    4.65
  -3  -4   1   96.64    5.99
  -3  -4   1   84.58    5.50
   3  -4  -1   93.23    5.28
   3   4  -1   86.54    4.36
  -3   4   1   83.10    4.65
   3   4   0    9.50    1.79
  -3   4   0   13.04    0.86
  -3   4   0   13.61    1.71
   3   4   0   13.27    1.15
  -3  -4   0   10.21    1.84
   3   4   0   16.15    2.29
   3  -4   0   11.91    1.60
  -3   4   0   10.40    0.99
   3  -4   0   10.36    0.78
  -3  -4   0   15.40    2.04
  -3  -4   0   14.20    1.99
   3  -4   0   11.28    1.62
  -3   4  -1  123.65    6.66
  -3  -4  -1  114.82    6.70
   3   4   1  110.10    6.91
   3  -4   1  116.92    5.18
  -3  -4  -1  117.47    6.84
   3  -4   1  113.70    6.46
  -3  -4  -1   99.24    6.54
  -3  -4  -1  118.23    5.56
   3   4   1  122.39    7.01
  -3   4  -1  117.50    6.29
   3  -4   1  122.85    6.65
   3   4   1  112.04    6.78
  -3   4  -2  117.61    6.82
  -3  -4  -2  105.35    6.41
   3  -4   2  111.93    6.60
   3  -4   2  114.79    5.37
   3   4   2  103.71    6.64
  -3   4  -2  122.97    6.40
   3   4   2  119.81    6.94
  -3  -4  -2  113.83    5.39
   3   4   2  109.99    6.72
  -3  -4  -3  384.61   17.19
   3   4   3  390.35   16.12
   3  -4   3  397.01   16.24
   3  -4   3  380.89   17.67
   3   4   3  391.08   17.68
   3   4   3  384.38   17.64
   3   4   3  368.23   17.61
  -3  -4  -3  388.08   15.92
  -3   4  -3  392.51   17.15
  -3   4  -3  403.34   18.01
   3   4   4   51.79    3.24
  -3  -4  -4   49.67    3.84
   3   4   4   51.86    4.13
  -3   4  -4   44.59    4.17
   3   4   4   38.09    3.83
   3   4   4   51.03    4.09
   3  -4   4   44.12    3.99
  -3   4  -4   47.26    3.82
   3   4   5  326.54   14.09
  -3   4  -5  320.84   16.04
  -3  -4  -5  336.52   14.69
   3   4   5  337.46   15.07
   3  -4   5  334.72   15.76
   3  -4   5  307.79   12.49
  -3   4  -5  335.95   15.24
  -3  -4  -6   36.10    3.27
   3   4   6   36.05    3.40
  -3   4  -6   38.02    4.11
   3  -4   6   36.46    2.41
   3  -4   6   36.83    2.07
   3  -4   6   39.77    4.03
   3  -4   7    1.89    0.71
  -3  -4  -7    1.95    1.09
   3   4   7    2.44    1.27
  -3   4  -7    0.55    1.31
   3  -4   7    2.45    1.64
   3  -4   7    0.97    0.82
   3  -4   8   19.62    1.79
  -3  -4  -8   22.46    2.82
   3  -4   8   26.53    3.70
   3   4   8   26.15    2.95
  -3   4  -8   20.48    3.48
   3  -4   8   19.99    2.26
  -3  -4  -9   16.51    3.36
  -3  -4  -9   17.94    2.61
   3   4   9   17.02    2.61
  -3   4  -9   14.97    3.16
   3  -4   9   20.58    3.43
   3  -4   9   21.38    2.02
   3  -4   9   21.83    2.49
   3   4  10   65.65    5.38
  -3   4 -10   64.38    6.58
   3  -4  10   71.13    6.46
   3  -4  10   71.80    5.13
   3  -4  10   68.23    4.23
   3  -4  11    3.65    1.29
  -3  -4 -11    0.69    1.92
   3   4  11    4.54    1.86
  -3   4 -11    6.00    2.88
   3  -4  11    3.64    1.48
   3  -4  11    4.58    2.45
   3  -4  12    5.51    1.97
   3  -4  12    4.16    2.33
   3  -4  12    6.28    1.63
   3   4  12    7.84    2.23
  -3  -4 -12    3.69    2.63
   3  -4  13   35.93    3.33
   3   4  13   37.71    4.33
   3  -4  13   40.06    4.49
  -3  -4 -13   30.20    4.90
   3  -4  14   86.51    5.72
   3   4  14   83.20    6.56
  -3  -4 -14   89.70    8.37
   3  -4  14   84.73    7.01
  -3   4 -15   41.06    6.07
   3  -4  15   39.97    5.01
  -3  -4 -15   43.13    6.30
   3  -4  16   72.82    7.05
  -3  -4 -16   74.58    8.38
  -3   4 -16   71.59    8.46
   3  -4  17    2.21    2.76
  -3   4 -17    1.06    2.35
  -3  -4 -17    1.01    3.05
  -3   4 -18   14.47    4.79
  -3  -4 -18   17.06    4.59
  -3   4 -19   14.14    4.17
   3   5 -19   45.47    5.38
   3   5 -19   37.66    6.65
  -3  -5  19   55.23    7.96
   3   5 -18   69.53    8.18
   3   5 -18   87.14    7.09
  -3  -5  18   74.12    9.08
   3   5 -17    3.65    3.24
   3   5 -17    5.26    2.40
  -3  -5  17    2.16    3.38
  -3   5  16   18.85    3.14
   3   5 -16   21.55    3.49
  -3  -5  16    8.99    2.90
  -3  -5  16   24.53    5.10
  -3   5  15   14.67    2.77
   3   5 -15   20.33    3.40
   3  -5 -15   12.64    2.34
  -3  -5  15   22.16    4.67
  -3  -5  15   13.31    3.20
  -3   5  14   36.23    4.09
   3   5 -14   34.94    4.18
   3  -5 -14   38.73    3.70
  -3  -5  14   39.67    4.94
  -3  -5  14   42.62    5.85
   3   5 -13    6.06    2.11
  -3   5  13    5.52    2.07
  -3   5  13    5.37    1.88
  -3  -5  13    5.47    2.29
   3  -5 -13    7.21    1.69
  -3   5  13    3.70    2.41
  -3  -5  13    6.82    2.68
  -3   5  12   58.19    6.06
   3  -5 -12   51.80    3.94
  -3  -5  12   48.76    5.21
  -3  -5  12   54.37    6.32
  -3   5  12   54.33    4.43
   3   5 -12   56.98    4.89
  -3   5  11   57.49    5.96
  -3   5  11   63.24    4.61
   3  -5 -11   63.88    4.13
  -3  -5  11   59.51    5.56
  -3  -5  11   60.53    6.50
  -3   5  10   94.81    7.57
  -3  -5  10   86.86    6.90
   3  -5 -10   99.55    5.33
   3   5 -10   95.51    8.02
  -3   5  10   94.12    5.72
  -3   5   9    0.23    0.85
  -3   5   9    0.55    1.45
  -3  -5   9    0.97    1.40
  -3  -5   9    0.65    1.64
  -3   5   9    1.52    0.66
   3  -5  -9    0.53    0.59
   3   5  -9    1.29    1.70
  -3  -5   8   74.44    5.74
  -3   5   8   68.00    5.80
  -3   5   8   68.63    4.05
   3  -5  -8   65.90    3.66
  -3  -5   8   61.35    5.98
  -3   5   8   61.14    3.30
  -3   5   7  100.39    7.07
  -3   5   7  103.26    5.14
   3  -5  -7   98.17    4.90
  -3  -5   7   97.90    6.71
  -3   5   6  161.11    7.94
  -3   5   6  148.48    6.61
   3  -5  -6  133.87    6.57
   3  -5  -6  157.16    6.63
  -3  -5   6  135.58    8.33
  -3   5   5  221.93   10.20
  -3   5   5  211.97    8.78
   3  -5  -5  217.06    9.24
  -3  -5   5  200.97   10.85
   3  -5  -4  530.87   21.11
   3  -5  -4  511.38   22.44
  -3   5   4  518.57   21.62
  -3  -5   4  519.87   22.68
  -3   5   3    5.96    1.05
   3  -5  -3    6.15    1.05
   3   5  -3    8.33    2.13
   3  -5  -3    6.95    1.43
   3   5  -3    7.80    1.39
   3  -5  -2  218.64   10.32
  -3   5   2  227.41    9.78
   3  -5  -2  241.65   11.16
   3   5  -2  214.29   12.03
   3   5  -2  233.31   10.36
  -3  -5   2  222.18   11.40
  -3   5   1   23.78    1.66
  -3  -5   1   25.69    2.87
   3  -5  -1   25.96    2.61
   3  -5  -1   24.16    2.30
  -3  -5   1   21.08    2.76
   3   5  -1   27.87    3.16
   3   5  -1   23.69    1.95
  -3   5   1   27.13    2.23
   3  -5   0   89.06    5.38
  -3  -5   0   86.18    5.90
  -3   5   0   88.32    4.00
  -3   5   0   90.79    5.40
   3   5   0   85.90    6.15
  -3  -5   0   84.48    5.72
   3   5   0   92.00    4.57
   3  -5   0   83.34    5.50
  -3   5   0   89.24    5.23
  -3   5  -1   22.75    2.47
   3  -5   1   20.46    1.42
  -3   5  -1   26.04    2.51
  -3  -5  -1   23.86    2.65
  -3  -5  -1   16.84    2.39
   3  -5   1   20.03    2.41
   3   5   1   29.15    3.16
   3  -5   1   23.06    2.66
  -3  -5  -1   22.10    2.00
  -3   5  -2    1.02    0.94
  -3  -5  -2    1.29    1.01
   3   5   2    1.52    1.19
   3  -5   2    1.68    1.16
  -3  -5  -2    1.06    0.61
   3   5   2    0.74    0.93
  -3   5  -2    1.43    1.07
  -3   5  -3   29.89    3.25
  -3  -5  -3   31.59    3.06
   3   5   3   28.18    3.16
   3  -5   3   30.21    3.24
  -3   5  -3   28.09    2.89
  -3  -5  -3   30.26    2.30
   3   5   4   10.24    1.48
  -3   5  -4   12.64    2.43
  -3  -5  -4   13.75    1.99
   3   5   4   11.25    2.10
   3  -5   4   12.28    2.21
  -3  -5  -4   10.86    1.45
  -3   5  -4   14.19    2.16
   3   5   5    9.65    1.53
  -3  -5  -5    5.72    1.38
  -3   5  -5    7.23    1.86
   3   5   5    5.27    1.69
   3  -5   5    6.66    1.76
  -3   5  -5    5.29    1.60
   3   5   6   29.04    2.76
   3  -5   6   26.42    1.59
  -3  -5  -6   25.49    2.81
  -3   5  -6   23.75    3.37
   3   5   6   29.81    3.20
   3  -5   6   25.52    1.79
   3  -5   6   26.07    3.38
  -3   5  -6   33.12    3.56
   3   5   7  203.56   10.27
  -3   5  -7  202.24   11.90
   3  -5   7  198.40    8.47
  -3  -5  -7  196.47   10.44
   3   5   7  214.55   10.86
   3  -5   7  209.97   11.76
   3  -5   7  188.40    8.88
  -3   5  -7  179.32   10.73
  -3  -5  -8  198.73   12.41
  -3   5  -8  209.86   12.87
   3  -5   8  219.59    9.51
  -3  -5  -8  230.68   11.54
   3   5   8  229.71   11.71
  -3  -5  -8  191.34   11.62
   3  -5   8  238.64   12.99
   3  -5   8  219.15   10.16
   3   5   8  205.96   11.90
   3  -5   9   53.90    3.31
   3   5   9   54.25    4.70
  -3   5  -9   47.65    5.42
   3  -5   9   46.19    3.70
   3  -5   9   42.17    5.08
  -3  -5  -9   47.85    4.44
  -3   5 -10   99.96    8.48
   3  -5  10  111.86    5.80
  -3  -5 -10  107.69    7.32
   3   5  10  108.86    7.28
   3  -5  10  105.95    8.34
   3   5  10   97.88    7.32
  -3  -5 -10   96.71    8.17
   3  -5  10  109.66    6.63
  -3  -5 -11    2.15    2.00
   3  -5  11    3.07    1.24
   3   5  11    2.08    1.63
   3   5  11    4.98    1.94
  -3   5 -11    3.84    2.32
   3  -5  11    3.51    1.43
   3  -5  11    3.42    2.22
   3  -5  12    0.80    1.16
   3   5  12    1.42    1.68
   3   5  12    0.55    1.78
   3  -5  12   -0.44    1.44
   3  -5  12    0.73    1.92
  -3  -5 -12    0.76    2.00
   3  -5  13    4.43    1.57
   3   5  13    6.40    2.34
   3  -5  13    6.99    2.33
  -3  -5 -13    4.02    2.52
  -3  -5 -14  132.20   10.62
   3  -5  14  130.35    9.01
   3  -5  15    0.61    1.98
  -3  -5 -15   -0.91    2.53
  -3  -5 -16    1.93    2.80
  -3   5 -16    4.10    2.97
   3  -5  16    1.33    1.93
  -3   5 -17   18.30    4.89
  -3  -5 -17   15.34    4.57
  -3   5 -18   42.94    7.09
  -3  -5 -18   48.59    7.37
   3   6 -19    4.79    2.56
   3   6 -18   19.58    3.68
   3   6 -18   21.67    5.08
  -3  -6  18   30.74    5.62
   3   6 -17   10.57    2.97
  -3  -6  17   10.79    4.35
   3   6 -16   19.53    3.29
  -3  -6  16   18.40    4.50
   3   6 -15    0.56    1.76
  -3   6  15    2.22    1.58
  -3  -6  15    0.73    2.19
  -3  -6  15    0.97    2.55
  -3  -6  14    9.02    3.09
   3  -6 -14    8.30    1.96
  -3   6  14    8.94    2.15
  -3  -6  14   10.91    3.58
  -3   6  13   24.41    3.05
  -3   6  13   23.64    3.35
  -3  -6  13   25.06    4.18
   3  -6 -13   21.09    2.62
  -3  -6  13   22.26    4.32
  -3   6  12    5.06    2.50
  -3   6  12    5.66    1.68
  -3   6  12    2.35    1.72
  -3  -6  12    0.63    1.91
  -3  -6  12    2.42    2.34
   3  -6 -12    4.39    1.43
  -3   6  12    4.51    1.37
  -3   6  11   14.19    3.35
  -3   6  11   16.60    2.75
  -3   6  11   16.28    2.34
  -3  -6  11   15.00    3.23
  -3  -6  11   16.72    3.48
  -3   6  11   15.48    1.76
   3  -6 -11   17.78    2.14
   3   6 -11   14.20    3.42
  -3   6  10   55.57    5.88
  -3   6  10   62.56    5.12
  -3  -6  10   69.17    6.08
  -3   6  10   65.17    4.37
   3  -6 -10   60.61    4.07
  -3  -6  10   68.73    6.63
  -3   6  10   66.96    3.78
   3   6 -10   64.92    6.58
  -3   6   9    1.72    1.60
  -3   6   9    3.33    1.65
  -3   6   9    5.99    1.35
  -3  -6   9    3.74    1.96
  -3  -6   9    4.71    2.26
   3   6  -9    6.82    2.36
  -3   6   9    4.64    0.90
   3  -6  -9    3.16    1.04
  -3   6   8   91.97    5.82
  -3   6   8   87.99    4.79
  -3  -6   8   89.49    7.30
   3   6  -8   86.99    7.38
   3  -6  -8   82.62    4.70
  -3  -6   8   75.28    6.29
  -3   6   8   84.45    6.72
  -3   6   7   98.60    5.93
   3  -6  -7   93.75    4.87
  -3  -6   7   92.50    7.38
  -3   6   7   98.84    4.84
   3   6  -7   93.02    7.57
   3  -6  -7   89.58    4.89
  -3  -6   7   87.46    6.64
  -3   6   6  212.91   10.18
  -3  -6   6  214.71   12.24
  -3   6   6  201.26    8.82
   3  -6  -6  208.82    9.25
  -3  -6   6  200.29   11.14
  -3  -6   5   42.32    3.87
  -3   6   5   37.88    3.11
  -3   6   5   38.85    2.07
   3  -6  -5   41.46    2.79
   3  -6  -5   45.94    3.90
  -3   6   4  117.45    6.41
   3  -6  -4  124.58    6.40
  -3  -6   4  126.56    7.58
   3  -6  -4  137.92    7.64
   3   6  -4  132.00    7.28
   3  -6  -3  393.65   17.77
  -3   6   3  423.42   17.43
   3   6  -3  430.11   18.27
   3  -6  -3  430.92   18.86
  -3   6   2    5.88    1.05
   3  -6  -2    5.99    1.22
  -3  -6   2    4.56    1.47
   3  -6  -2    6.69    1.52
   3   6  -2    6.05    1.23
   3  -6  -1   37.97    3.48
  -3   6   1   33.83    2.23
   3  -6  -1   32.26    2.96
  -3  -6   1   28.28    3.22
   3   6  -1   36.19    2.68
  -3   6   0    7.29    0.87
   3  -6   0    5.88    1.49
   3   6   0    6.34    1.07
   3   6   0    6.81    1.99
  -3   6   0    6.86    1.40
  -3   6   0    4.89    1.30
   3  -6   0    9.00    1.72
  -3   6  -1  542.17   22.58
   3  -6   1  513.16   23.10
   3   6   1  527.46   23.53
  -3   6  -1  504.51   20.32
  -3  -6  -1  507.67   21.86
   3  -6   1  545.86   22.79
  -3   6  -1  530.95   22.46
   3  -6   2   54.31    4.60
  -3  -6  -2   68.58    4.86
   3   6   2   57.66    4.94
  -3  -6  -2   61.82    4.00
  -3   6  -2   57.36    4.45
  -3   6  -2   61.03    4.73
  -3   6  -3   10.53    2.04
  -3  -6  -3    8.07    1.41
  -3  -6  -3    9.09    1.84
   3   6   3   12.77    2.22
   3  -6   3    8.22    1.92
  -3  -6  -3    8.87    1.86
  -3   6  -3    9.66    1.92
  -3  -6  -4   41.58    3.71
  -3   6  -4   35.19    3.93
   3   6   4   38.09    3.91
  -3  -6  -4   43.26    3.99
   3  -6   4   47.55    4.45
  -3  -6  -4   42.56    3.13
  -3   6  -4   44.84    3.98
   3   6   5   65.24    4.28
  -3   6  -5   53.99    5.03
   3   6   5   55.91    4.79
  -3  -6  -5   55.90    4.67
   3  -6   5   50.08    4.95
  -3   6  -5   58.64    4.80
   3   6   5   47.66    4.47
  -3  -6  -5   58.98    4.59
  -3  -6  -5   50.40    3.70
   3   6   6    3.45    1.40
  -3  -6  -6    5.43    1.64
  -3   6  -6    4.94    1.84
  -3  -6  -6    4.33    1.63
   3   6   6    3.87    1.61
   3  -6   6    4.24    0.67
   3   6   6    3.94    1.64
   3  -6   6    4.70    2.06
   3   6   6    2.79    1.41
  -3   6  -6    2.23    1.50
   3   6   7  105.68    6.54
  -3   6  -7  112.84    8.07
  -3  -6  -7  109.18    6.81
   3   6   7  106.44    7.02
   3  -6   7  107.57    7.79
  -3  -6  -7   95.18    6.91
   3  -6   7   97.07    4.97
   3   6   7   89.21    6.72
  -3  -6  -7   81.27    7.14
   3   6   7   94.29    7.00
  -3   6  -7   98.09    7.16
  -3   6  -8   46.06    4.86
   3   6   8   47.03    4.22
  -3  -6  -8   52.99    4.81
  -3  -6  -8   46.12    4.30
  -3  -6  -8   56.40    5.54
   3   6   8   43.96    4.51
   3   6   8   52.06    4.69
  -3   6  -8   33.53    4.63
   3  -6   8   51.22    3.36
   3   6   8   41.89    4.47
   3  -6   8   43.55    4.93
   3   6   9   58.43    5.00
  -3  -6  -9   64.32    6.10
  -3  -6  -9   49.24    4.78
   3   6   9   52.28    5.23
  -3  -6  -9   69.18    5.79
  -3   6  -9   50.67    5.86
   3   6   9   56.88    5.18
   3  -6   9   62.49    6.14
   3  -6   9   64.18    4.18
   3   6   9   64.51    5.52
  -3  -6 -10   37.48    4.88
  -3  -6 -10   27.32    3.82
  -3   6 -10   29.72    4.77
   3   6  10   38.89    4.30
   3  -6  10   45.51    5.29
   3  -6  10   41.64    3.53
   3   6  10   34.87    4.36
   3   6  10   35.64    4.32
   3   6  11    4.34    1.87
   3   6  11    1.00    1.67
  -3   6 -11    3.17    2.39
  -3  -6 -11    5.94    2.71
   3   6  11    3.01    2.02
   3  -6  11    2.20    1.34
   3  -6  11    5.75    2.69
  -3  -6 -12    2.36    2.38
   3   6  12    0.52    1.79
   3  -6  12    0.42    1.37
  -3   6 -12    0.84    2.44
  -3  -6 -13   23.13    4.49
   3  -6  13   18.14    3.21
   3  -6  14    5.86    2.33
  -3  -6 -14    7.86    3.11
   3  -6  15    7.06    2.26
  -3  -6 -15    0.93    2.58
  -3   6 -16    7.31    3.52
  -3  -6 -16   18.67    4.52
  -3   6 -17   -3.28    3.43
  -3  -6 -17    1.03    3.12
  -3  -6 -18    4.36    3.53
  -3  -7  18    7.96    3.81
  -3  -7  17   -1.08    2.56
  -3  -7  16  182.52   13.98
  -3  -7  15   32.07    5.65
  -3  -7  14   96.60    8.53
  -3   7  14  116.11    7.21
  -3  -7  14  126.94   10.34
  -3   7  14   92.16    6.04
   3  -7 -13   -1.03    1.29
  -3   7  13   -0.73    1.40
  -3  -7  13   -1.43    2.24
  -3  -7  13   -0.87    2.18
  -3   7  13   -0.26    1.02
  -3   7  12  320.95   15.99
  -3  -7  12  317.31   17.35
  -3   7  12  303.99   14.55
   3  -7 -12  291.12   14.35
  -3  -7  12  341.17   18.57
  -3   7  12  311.53   13.77
  -3   7  11    3.52    2.12
  -3   7  11    2.19    1.64
  -3  -7  11    1.31    1.90
  -3   7  11    2.92    1.32
  -3  -7  11    1.55    1.84
   3  -7 -11    2.59    1.30
   3  -7 -10   26.09    2.63
  -3   7  10   23.45    3.94
  -3   7  10   30.86    3.44
  -3  -7  10   21.73    3.70
  -3   7  10   28.72    2.71
  -3  -7  10   25.70    4.24
   3   7 -10   23.32    4.15
  -3   7   9    0.60    1.75
   3  -7  -9    0.98    0.95
  -3   7   9    4.86    1.80
  -3   7   9    4.61    1.21
  -3  -7   9    4.15    2.31
  -3  -7   9    1.76    1.63
   3   7  -9    0.72    2.10
  -3  -7   8  321.06   17.38
  -3   7   8  323.62   17.56
  -3   7   8  354.38   16.11
  -3  -7   8  349.02   18.41
  -3   7   8  361.71   14.79
   3   7  -8  317.22   18.34
   3  -7  -8  343.92   15.04
   3   7  -7    9.99    2.81
   3  -7  -7    8.35    1.40
  -3   7   7    9.37    1.21
  -3  -7   7    8.68    2.28
  -3   7   7    5.87    1.62
  -3  -7   7    9.79    2.53
   3  -7  -6   -0.43    0.73
  -3  -7   6   -0.47    1.31
   3   7  -6   -0.41    1.27
  -3   7   6    0.28    1.06
  -3  -7   6   -0.58    1.61
   3  -7  -6    1.23    1.33
   3   7  -6    0.64    1.69
  -3   7   6   -0.11    0.49
  -3  -7   5   20.09    2.86
   3   7  -5   19.98    3.29
   3  -7  -5   22.88    2.22
  -3   7   5   20.53    2.27
  -3  -7   5   21.16    3.20
   3  -7  -5   16.79    2.45
   3   7  -5   15.31    2.43
  -3   7   4  220.77   10.35
  -3  -7   4  242.65   12.78
   3   7  -4  234.47   11.39
   3  -7  -4  232.12   11.73
  -3  -7   4  215.80   11.77
   3  -7  -4  226.50   10.63
   3  -7  -3   55.96    4.10
  -3   7   3   63.44    3.85
  -3  -7   3   55.54    5.15
   3  -7  -3   57.07    3.05
   3  -7  -3   59.00    4.74
   3   7  -3   65.40    4.42
   3  -7  -2    3.02    1.10
  -3   7   2    9.28    1.22
  -3  -7   2    7.98    2.03
  -3  -7   2    7.54    1.98
   3   7  -2    7.97    1.45
   3  -7  -2    8.14    1.79
  -3  -7   1   12.37    2.20
   3  -7  -1    9.54    1.86
  -3   7   1    8.29    1.20
   3   7  -1   10.51    1.60
   3  -7  -1   10.37    2.03
   3  -7   0  149.58    8.25
   3   7   0  139.55    7.14
  -3   7   0  141.40    6.58
  -3  -7   0  134.77    8.39
  -3   7   0  136.72    8.03
   3  -7   0  137.97    8.47
  -3   7  -1    1.33    1.18
  -3  -7  -1    2.07    1.30
   3  -7   1    1.17    1.22
  -3   7  -1    1.53    0.60
  -3   7  -1    2.50    1.34
   3  -7   1    2.22    1.34
  -3  -7  -1    1.84    1.00
  -3  -7  -2    2.06    1.54
  -3   7  -2    2.56    1.40
   3   7   2    4.42    1.53
  -3   7  -2    3.39    1.48
   3  -7   2    2.10    1.54
   3   7   2    1.43    1.55
  -3  -7  -2    3.76    1.21
   3   7   3    2.68    1.40
  -3   7  -3    1.69    1.28
  -3  -7  -3    2.50    1.09
   3  -7   3    2.27    1.74
   3   7   3    2.85    1.59
  -3  -7  -3    2.09    1.31
  -3   7  -3    0.77    1.20
  -3  -7  -4   99.04    5.88
  -3  -7  -4   94.92    6.45
   3  -7   4   97.05    7.07
   3   7   4  103.75    7.18
   3   7   4   91.83    6.72
  -3   7  -4  100.65    7.07
  -3  -7  -4  100.96    6.82
  -3   7  -4   94.08    6.62
   3   7   4  100.21    7.06
   3  -7   5    2.26    0.41
   3   7   5    2.30    1.68
  -3   7  -5    1.03    1.30
  -3  -7  -5    1.54    1.33
   3   7   5    2.38    1.78
  -3  -7  -5    1.33    1.29
   3  -7   5    1.58    1.77
   3   7   5    1.47    1.42
  -3  -7  -5    1.71    1.07
  -3   7  -5    1.31    1.37
  -3   7  -6  123.95    7.99
  -3  -7  -6  116.45    7.36
   3   7   6  120.31    7.10
   3  -7   6  102.88    7.97
   3   7   6  106.13    7.72
   3  -7   6  107.93    5.17
   3   7   6  119.75    7.90
  -3  -7  -6  129.93    8.01
  -3  -7  -6  114.92    6.75
   3   7   6  118.83    7.80
  -3   7  -6  131.24    8.58
   3   7   7    0.38    1.28
  -3   7  -7    0.61    1.84
  -3  -7  -7    2.08    1.59
  -3  -7  -7    0.96    1.50
  -3  -7  -7    3.02    1.75
   3   7   7   -0.49    1.63
   3  -7   7    0.82    0.61
   3   7   7    1.95    1.82
   3  -7   7   -0.60    1.89
   3   7   7    0.52    1.51
  -3   7  -7   -1.55    1.78
   3   7   8  105.91    7.08
  -3  -7  -8  104.67    7.11
   3   7   8  109.08    7.51
   3  -7   8  106.03    8.25
  -3  -7  -8   93.58    7.20
   3  -7   8   99.73    5.35
  -3   7  -8   87.54    7.65
   3   7   8   90.51    7.11
   3   7   8   97.08    7.44
  -3  -7  -8  115.54    8.56
  -3   7  -8  113.26    7.99
  -3  -7  -9   24.65    3.61
  -3  -7  -9   22.95    3.93
  -3  -7  -9   21.80    3.27
   3   7   9   21.16    3.20
  -3   7  -9   23.35    4.03
   3   7   9   24.94    3.75
   3   7   9   27.92    3.74
   3   7   9   29.60    3.88
   3  -7   9   20.21    2.23
   3  -7   9   24.34    4.02
  -3   7  -9   30.73    4.37
   3   7  10  173.36   10.63
  -3   7 -10  173.95   12.16
  -3  -7 -10  179.80   10.70
   3   7  10  207.67   11.35
   3  -7  10  177.72   12.04
   3  -7  10  190.42    9.38
   3   7  10  170.27   10.88
  -3  -7 -10  192.43   12.28
   3   7  10  160.51   10.98
  -3   7 -10  160.19   11.35
  -3   7 -11    7.29    2.91
  -3  -7 -11   13.06    2.81
   3   7  11   11.93    2.83
   3  -7  11   14.01    2.24
   3   7  11    9.35    2.99
   3   7  11   10.80    2.85
  -3  -7 -11   19.10    3.97
  -3   7 -12  162.14   12.03
   3   7  12  173.29   11.14
   3  -7  12  158.96    9.31
  -3  -7 -12  151.22   11.49
  -3  -7 -13   -0.86    2.59
   3  -7  13   -0.45    1.54
  -3   7 -13    2.72    2.74
   3   7  13    4.13    2.51
   3  -7  14   35.58    4.47
   3   7  14   46.57    5.69
  -3  -7 -14   45.88    6.48
   3   7  15   25.94    4.60
  -3  -7 -15   21.72    4.83
   3   7  16   47.17    6.00
  -3  -7 -16   58.03    7.36
  -3   7 -17   -1.10    2.92
   3   7  17    1.67    2.80
  -3  -7 -17   -1.05    2.64
  -3  -8  17    2.18    3.15
  -3  -8  16    1.03    2.74
  -3  -8  15    0.98    2.73
  -3  -8  14   -0.93    2.59
   3  -8 -13    5.17    1.65
  -3  -8  13    5.30    2.96
  -3   8  12   37.37    4.25
  -3  -8  12   36.38    5.18
  -3  -8  12   37.01    5.61
   3  -8 -12   31.85    3.33
  -3   8  11    1.74    1.28
   3  -8 -11    0.65    1.09
  -3   8  11    0.45    1.63
  -3  -8  11    1.42    2.05
  -3  -8  11    5.53    3.03
  -3   8  10   52.70    6.04
  -3  -8  10   56.21    6.17
  -3   8  10   67.29    4.45
  -3  -8  10   73.93    7.13
   3  -8 -10   68.27    4.71
   3   8 -10   68.21    7.12
  -3   8  10   75.91    5.60
  -3   8   9    5.73    1.33
  -3   8   9    5.81    2.30
   3  -8  -9    3.66    1.26
  -3   8   9    2.30    1.48
  -3  -8   9    7.69    2.58
   3   8  -9    6.14    2.65
  -3  -8   9    5.63    2.43
  -3   8   8   47.15    4.12
  -3  -8   8   49.81    5.33
  -3  -8   8   51.41    5.62
  -3   8   8   46.87    3.19
   3   8  -8   39.91    5.40
   3  -8  -8   48.41    3.57
   3  -8  -7    6.28    1.38
  -3   8   7    5.18    1.04
  -3  -8   7    7.90    2.22
   3   8  -7    6.20    2.08
  -3   8   7    4.19    1.56
  -3  -8   7    8.87    2.61
   3   8  -7   10.68    3.32
   3  -8  -7    5.19    1.95
   3  -8  -6    4.14    1.93
   3  -8  -6    5.57    1.56
  -3  -8   6    3.67    1.77
  -3   8   6    5.92    1.62
  -3  -8   6    7.76    2.55
   3   8  -6    7.49    2.62
  -3   8   6    5.05    0.95
   3   8  -6    3.55    1.83
  -3   8   5  132.63    7.03
  -3  -8   5  136.38    8.93
   3   8  -5  112.08    8.88
   3  -8  -5  118.17    7.94
   3   8  -5  123.83    7.82
  -3  -8   5  121.53    8.21
   3  -8  -5  124.01    6.98
   3  -8  -4    8.88    1.76
  -3  -8   4   11.89    2.55
  -3   8   4   10.75    1.65
  -3  -8   4    8.03    2.18
  -3  -8   4   11.60    2.39
   3   8  -4    9.37    2.59
   3  -8  -4   10.58    2.21
   3   8  -4    7.83    1.99
   3  -8  -3   58.62    4.52
  -3   8   3   58.11    3.98
  -3  -8   3   67.79    5.71
  -3  -8   3   66.30    5.61
   3   8  -3   53.98    5.61
   3  -8  -3   62.09    3.43
   3  -8  -3   58.47    5.05
   3   8  -3   61.32    4.59
   3  -8  -2  193.84   10.26
  -3   8   2  190.85    9.19
   3   8  -2  163.03   11.22
   3   8  -2  179.48    9.64
  -3  -8   2  217.42   11.44
   3  -8  -2  201.17   10.95
  -3  -8   2  224.51   11.64
  -3  -8   1    1.85    1.34
   3  -8  -1    1.15    1.20
  -3   8   1    2.44    1.01
  -3  -8   1    0.93    1.41
   3   8  -1    1.36    1.31
   3  -8  -1    0.92    1.33
   3  -8   0   25.86    3.32
  -3   8   0   34.79    2.58
  -3  -8   0   38.07    3.94
   3  -8   0   31.70    1.94
   3   8   0   38.00    3.11
   3  -8   0   34.69    3.94
  -3  -8  -1   30.13    3.54
  -3   8  -1   33.12    3.45
   3  -8   1   17.60    2.95
  -3   8  -1   27.73    2.25
  -3  -8  -1   28.42    3.52
   3  -8   1   30.31    3.69
   3  -8   1   29.09    2.04
  -3  -8  -1   27.78    3.10
   3  -8   2   77.90    6.29
  -3   8  -2   85.70    4.48
   3   8   2   74.57    6.16
  -3  -8  -2   76.80    6.03
  -3   8  -2   85.63    6.14
  -3  -8  -2   93.69    6.61
  -3   8  -2   84.38    5.96
  -3  -8  -2   79.12    5.56
  -3  -8  -3    2.01    1.28
  -3   8  -3   -0.44    1.22
   3  -8   3    0.34    0.41
   3  -8   3   -0.50    1.39
  -3   8  -3   -0.42    1.63
  -3   8  -3    0.42    0.50
  -3  -8  -3    1.35    1.46
   3   8   3    0.49    1.29
   3   8   4   19.28    3.18
  -3   8  -4   20.97    3.19
   3  -8   4   22.08    1.42
  -3   8  -4   18.65    2.97
  -3  -8  -4   23.06    2.71
   3   8   4   20.64    3.44
   3  -8   4   19.78    3.20
  -3  -8  -4   27.68    3.38
   3  -8   5  166.90    7.32
   3  -8   5  189.95   11.23
  -3  -8  -5  181.33    9.40
   3   8   5  172.85   10.60
  -3  -8  -5  181.13   10.38
  -3   8  -5  176.35   10.35
   3   8   5  161.68   10.36
   3   8   5  202.95   10.92
  -3   8  -5  169.46   10.65
   3   8   6   32.31    3.51
  -3   8  -6   26.62    4.04
   3  -8   6   27.10    1.76
  -3  -8  -6   17.95    2.84
   3   8   6   24.04    3.52
  -3  -8  -6   21.06    3.21
   3   8   6   26.05    3.63
   3   8   6   27.56    3.69
   3  -8   6   17.69    3.47
  -3  -8  -6   26.13    2.97
  -3   8  -6   22.60    3.36
   3   8   7  101.03    6.81
  -3  -8  -7   98.01    6.89
   3   8   7  113.08    7.89
   3  -8   7  102.69    4.97
  -3  -8  -7  101.94    7.43
   3  -8   7   78.44    7.48
  -3   8  -7   92.27    7.68
   3   8   7  110.84    7.62
   3   8   7   96.21    7.53
  -3  -8  -7   91.00    6.25
  -3   8  -7  106.23    7.61
   3   8   8   33.82    4.20
  -3  -8  -8   30.81    4.05
  -3   8  -8   30.39    4.54
  -3  -8  -8   34.07    3.99
  -3  -8  -8   43.64    5.08
   3  -8   8   40.30    2.72
   3   8   8   32.30    4.19
  -3  -8  -8   37.32    3.71
   3  -8   8   30.91    4.69
   3   8   8   29.59    4.17
   3   8   8   41.70    4.64
  -3   8  -8   36.64    4.58
  -3  -8  -9  133.19    8.64
   3   8   9  136.13    9.04
   3   8   9  129.70    9.17
   3  -8   9  101.07    9.01
  -3  -8  -9  142.53    9.28
   3  -8   9  126.59    6.69
  -3   8  -9  127.74    9.78
   3   8   9  119.65    8.67
  -3  -8  -9  142.49   10.06
   3   8   9  122.89    8.44
  -3   8  -9  142.27    9.67
  -3  -8 -10    1.78    1.93
   3   8  10    1.07    1.90
  -3  -8 -10    1.61    1.75
  -3   8 -10    5.39    2.50
   3   8  10    1.16    1.88
   3  -8  10    1.09    1.20
  -3  -8 -10    4.48    2.73
   3   8  10    1.88    1.81
  -3   8 -10    3.33    1.93
  -3  -8 -11   -0.79    2.89
  -3  -8 -11   -0.58    1.93
  -3   8 -11   -1.64    2.47
   3  -8  11   -0.32    1.17
   3   8  11   -1.31    2.18
   3   8  11   -1.72    2.30
  -3   8 -12    0.87    2.18
  -3  -8 -12   -0.84    2.63
   3  -8  12    1.50    1.40
   3   8  12    1.36    2.14
  -3  -8 -13    4.47    3.09
  -3   8 -13    6.42    3.17
   3   8  13    7.13    2.81
   3   8  14    5.22    2.88
  -3   8 -14   12.54    3.88
  -3  -8 -14   13.07    4.15
   3   8  15   -0.78    2.44
  -3  -8 -15    1.95    2.82
   3   8  16   13.86    3.78
  -3  -8 -16   15.27    4.29
   3   8  17   -0.85    2.47
  -3  -8 -17   -3.23    3.24
  -3  -9  17   -2.19    3.31
  -3  -9  16   24.05    5.18
  -3  -9  15    1.99    2.63
  -3  -9  14   59.45    7.20
  -3  -9  13   29.45    5.29
   3  -9 -12   -0.38    1.23
  -3  -9  12    3.38    2.12
  -3   9  11   57.06    5.03
  -3  -9  11   49.73    6.05
   3  -9 -11   48.54    4.31
   3  -9 -10    9.12    1.89
  -3   9  10   11.17    2.46
  -3  -9  10    5.88    2.41
  -3   9  10    9.09    1.69
  -3  -9  10   10.68    2.94
  -3   9   9   96.55    6.53
  -3  -9   9   79.68    7.52
  -3  -9   9   90.03    7.87
  -3   9   9   87.05    5.14
   3  -9  -9   94.08    5.87
   3  -9  -9   94.50    7.29
   3   9  -9   78.68    7.90
   3   9  -9   88.81    7.34
  -3   9   8   49.41    4.49
   3  -9  -8   61.18    5.57
  -3  -9   8   46.57    5.53
  -3   9   8   55.90    3.67
  -3  -9   8   63.01    6.28
   3   9  -8   66.66    6.91
   3  -9  -8   62.93    4.36
   3   9  -8   59.65    5.69
  -3   9   7  192.62    9.08
  -3   9   7  205.40   10.62
  -3  -9   7  216.57   12.76
   3   9  -7  202.14   13.19
   3  -9  -7  206.15   11.82
   3   9  -7  215.43   12.00
   3  -9  -7  203.70   10.20
  -3  -9   7  191.85   12.25
  -3   9   6  166.21    8.93
  -3  -9   6  165.75   10.75
   3   9  -6  169.65   11.57
   3  -9  -6  161.22   10.06
   3   9  -6  155.90    9.70
   3  -9  -6  164.19    8.84
  -3  -9   6  171.63   10.71
  -3  -9   5   23.57    3.65
   3   9  -5   25.24    4.27
   3  -9  -5   21.71    2.84
  -3   9   5   27.35    2.95
   3  -9  -5   22.95    3.45
  -3  -9   5   17.90    3.45
  -3  -9   5   19.98    3.48
   3   9  -5   21.92    3.13
  -3   9   4  937.80   38.33
   3   9  -4 1054.73   39.57
  -3  -9   4  957.90   40.79
   3   9  -4  951.95   41.81
   3  -9  -4  881.81   38.81
   3  -9  -4  913.87   40.02
  -3  -9   4  956.86   40.77
  -3  -9   4  891.77   40.12
   3  -9  -3   98.75    6.55
  -3   9   3   98.38    5.84
  -3  -9   3  102.72    7.46
   3   9  -3   90.34    7.74
   3  -9  -3   95.03    5.11
   3   9  -3   88.10    6.15
  -3  -9   3  106.52    7.61
   3  -9  -3   87.37    6.85
  -3  -9   3  100.25    7.28
  -3   9   2  868.89   36.48
  -3  -9   2  933.82   38.93
   3  -9  -2  918.95   36.05
   3   9  -2  873.94   39.86
   3  -9  -2  879.92   37.87
  -3  -9   2  978.12   39.23
   3   9  -2  891.62   37.15
   3  -9  -2  902.69   38.81
   3  -9  -1  520.50   23.41
  -3  -9   1  524.50   23.94
  -3   9   1  513.42   21.71
   3   9  -1  470.55   24.45
   3  -9  -1  511.74   20.18
  -3  -9   1  552.33   24.15
   3   9  -1  551.15   22.48
   3  -9  -1  489.72   23.87
  -3  -9   1  480.60   23.59
   3  -9   0  115.56    8.20
  -3   9   0  116.48    6.15
   3   9   0  104.83    8.28
   3  -9   0  109.50    5.18
  -3  -9   0  106.64    7.72
  -3  -9   0  107.74    7.63
   3  -9   0  111.84    7.71
  -3  -9  -1    1.95    1.47
   3  -9   1    1.48    1.60
  -3  -9  -1    0.93    1.82
  -3   9  -1   -0.22    0.96
  -3  -9  -1    0.49    1.64
  -3   9  -1   -0.44    1.38
   3  -9   1    0.92    0.73
   3  -9   1    0.57    2.07
  -3  -9  -1   -0.85    1.91
   3  -9   2  260.81   14.42
   3  -9   2  287.56   11.46
  -3   9  -2  289.32   14.26
  -3   9  -2  266.12   12.00
  -3  -9  -2  274.25   14.22
  -3  -9  -2  289.09   14.59
  -3  -9  -2  256.56   13.49
  -3   9  -3   38.93    4.13
   3  -9   3   37.47    2.31
   3  -9   3   30.06    4.17
   3   9   3   39.09    4.42
  -3   9  -3   41.18    2.92
  -3  -9  -3   39.70    4.51
  -3  -9  -3   31.53    3.89
  -3   9  -3   30.00    3.75
  -3  -9  -3   27.65    3.33
   3   9   4  246.38   13.91
   3  -9   4  262.04   10.69
  -3   9  -4  269.75   14.06
   3  -9   4  249.43   14.44
  -3  -9  -4  268.47   13.93
  -3   9  -4  245.57   11.29
  -3   9  -4  253.49   13.62
  -3  -9  -4  257.90   12.98
   3  -9   5  126.99    5.70
   3  -9   5  125.21    9.05
  -3  -9  -5  129.58    8.68
   3   9   5  136.45    8.98
  -3  -9  -5  117.94    7.57
  -3   9  -5  124.64    8.48
  -3   9  -5  118.96    8.60
  -3   9  -6   43.35    4.84
  -3   9  -6   48.30    5.21
   3  -9   6   47.14    2.72
  -3  -9  -6   43.71    4.68
   3   9   6   37.56    4.74
   3   9   6   46.97    4.98
   3  -9   6   46.10    5.31
  -3  -9  -6   47.49    4.29
   3   9   7  336.76   16.42
   3  -9   7  326.68   18.12
   3  -9   7  319.25   13.65
   3   9   7  343.59   17.48
   3   9   7  306.54   17.11
  -3  -9  -7  318.71   16.84
   3   9   7  314.59   16.96
  -3  -9  -7  341.38   16.02
  -3   9  -7  340.43   17.29
  -3   9  -7  337.13   17.71
   3   9   8  379.77   19.48
  -3  -9  -8  374.19   19.59
   3  -9   8  416.92   21.69
   3   9   8  435.93   20.87
   3  -9   8  414.20   17.14
  -3  -9  -8  407.28   20.26
   3   9   8  424.92   20.59
  -3   9  -8  403.19   21.19
  -3   9  -8  402.49   20.64
  -3  -9  -8  445.45   19.48
   3   9   8  404.40   20.71
   3   9   9    5.87    2.28
  -3   9  -9    3.68    2.54
  -3  -9  -9    3.76    2.11
  -3  -9  -9    3.71    2.33
  -3  -9  -9    3.51    2.14
   3   9   9    5.14    2.41
   3  -9   9    4.92    1.21
  -3  -9  -9    3.55    1.67
  -3  -9 -10   34.59    4.66
   3   9  10   40.83    4.78
  -3   9 -10   33.73    5.02
  -3  -9 -10   34.83    4.50
  -3  -9 -10   34.23    5.28
   3  -9  10   41.82    3.28
   3   9  10   35.08    4.81
   3   9  11   71.64    6.80
  -3  -9 -11   87.65    7.25
  -3  -9 -11   87.17    8.13
  -3   9 -11   89.28    8.50
   3   9  11   84.42    7.48
   3   9  12    5.86    2.62
  -3  -9 -12    3.48    2.92
  -3   9 -12    6.18    3.14
   3   9  12    4.99    2.61
  -3  -9 -13    2.75    2.65
  -3   9 -13    3.72    2.70
   3   9  13    1.49    2.06
  -3  -9 -14   15.49    4.08
  -3   9 -14   16.61    4.20
   3   9  14    8.51    3.33
  -3  -9 -15    8.05    3.67
  -3   9 -15    3.07    2.58
   3   9  15    6.45    2.87
  -3  -9 -16   29.27    5.68
   3   9  16   21.80    4.75
  -3 -10  16    2.09    3.03
  -3 -10  15    1.99    2.76
  -3 -10  14   86.19    8.82
  -3 -10  13   32.48    5.63
  -3 -10  12   -0.86    2.79
   3 -10 -11   61.75    6.31
  -3 -10  11   77.10    7.66
   3 -10 -11   71.99    5.43
  -3  10  10   57.68    5.18
  -3 -10  10   70.66    7.06
   3 -10 -10   58.12    4.76
   3 -10 -10   49.40    5.44
   3 -10  -9   35.86    3.53
  -3  10   9   36.58    3.96
  -3 -10   9   36.16    5.02
   3 -10  -9   32.12    4.34
   3  10  -9   45.87    5.27
   3 -10  -8   35.49    3.40
  -3 -10   8   26.48    4.36
  -3  10   8   26.39    3.41
  -3 -10   8   35.73    4.88
   3 -10  -8   36.52    4.35
  -3  10   8   32.43    2.69
   3  10  -8   33.86    4.59
   3 -10  -7   12.11    2.15
  -3 -10   7   14.26    3.14
  -3  10   7   12.24    2.43
   3  10  -7    8.46    2.65
   3  10  -7    9.71    3.13
  -3 -10   7   18.69    3.42
   3 -10  -7    5.73    2.23
  -3  10   6  201.30   10.45
  -3 -10   6  216.26   12.59
   3 -10  -6  202.24   11.82
   3  10  -6  215.42   11.55
   3  10  -6  163.48   12.36
   3 -10  -6  192.44   10.39
  -3 -10   6  171.82   11.87
  -3 -10   6  187.05   12.02
  -3  10   5  334.15   15.30
  -3 -10   5  349.71   17.54
   3  10  -5  294.40   17.69
  -3 -10   5  288.69   16.69
   3 -10  -5  308.05   16.63
   3  10  -5  336.71   16.11
  -3 -10   5  335.23   17.36
   3 -10  -5  317.97   15.51
  -3  10   4  101.40    6.36
  -3 -10   4  104.13    7.90
   3  10  -4  104.28    8.60
   3 -10  -4   94.81    7.45
   3  10  -4  113.54    7.15
  -3 -10   4   93.11    7.62
  -3 -10   4   98.04    7.70
   3 -10  -4   94.56    6.72
   3 -10  -3   91.47    6.45
  -3  10   3   87.46    5.61
  -3 -10   3   68.16    6.43
   3 -10  -3   82.81    4.81
   3  10  -3   89.35    7.64
   3  10  -3   80.86    5.91
  -3 -10   3   92.72    7.18
   3 -10  -3   73.25    6.55
  -3 -10   3   80.11    6.81
  -3 -10   2   40.00    4.55
   3 -10  -2   37.96    4.09
   3 -10  -2   34.83    2.93
   3 -10  -2   32.57    1.99
  -3 -10   2   35.89    4.29
  -3  10   2   33.20    3.23
   3  10  -2   40.66    5.01
  -3 -10   2   36.08    4.29
   3 -10  -2   31.07    4.03
   3  10  -2   34.43    3.61
  -3 -10   1    0.52    1.75
  -3  10   1    0.59    1.10
   3 -10  -1    1.09    0.59
   3  10  -1    0.68    1.90
  -3 -10   1   -0.54    1.74
  -3 -10   1    0.54    1.75
   3  10  -1    0.35    1.32
   3 -10  -1    0.99    1.66
   3 -10  -1   -0.60    1.86
   3 -10   0   13.17    1.34
  -3 -10   0   13.70    2.72
  -3 -10   0   12.72    2.84
  -3  10   0    7.82    1.69
   3 -10   0    7.86    2.52
   3  10   0   13.43    3.11
  -3 -10   0   16.42    3.07
   3 -10   0   11.73    2.86
  -3 -10  -1   35.38    4.05
   3 -10   1   38.84    2.83
  -3 -10  -1   41.44    4.49
   3 -10   1   41.91    4.72
  -3 -10  -1   45.88    4.65
   3  10   1   46.95    5.20
  -3  10  -1   35.49    3.17
  -3  10  -1   32.87    3.90
  -3 -10  -1   47.08    4.80
   3 -10   1   41.78    2.81
   3 -10   1   47.37    5.26
  -3 -10  -2   44.00    4.80
   3 -10   2   49.58    3.07
  -3 -10  -2   41.18    4.40
  -3 -10  -2   49.66    4.71
   3 -10   2   40.13    4.82
  -3  10  -2   43.56    3.48
   3  10   2   50.66    5.56
  -3 -10  -2   47.26    5.04
   3 -10   2   48.75    3.40
  -3  10  -2   52.20    4.95
  -3  10  -3    9.56    2.47
   3 -10   3    6.38    1.08
  -3 -10  -3    5.99    2.06
  -3 -10  -3    7.66    2.32
   3 -10   3    7.35    2.53
   3  10   3    7.71    2.53
  -3 -10  -3    5.93    2.32
  -3  10  -3    7.84    1.53
  -3 -10  -3    6.77    2.28
  -3  10  -4    1.62    1.87
   3 -10   4    0.80    0.61
   3  10   4   -0.58    2.10
  -3 -10  -4    2.88    2.04
   3 -10   4   -0.64    1.87
  -3 -10  -4    4.76    2.12
  -3  10  -4    1.17    0.90
  -3  10  -4    1.04    1.85
  -3 -10  -4    0.90    1.50
  -3  10  -5   21.19    3.57
   3 -10   5   31.94    2.09
  -3 -10  -5   24.85    3.37
   3 -10   5   22.92    4.04
  -3 -10  -5   27.09    3.82
  -3  10  -5   21.13    3.63
   3  10   5   28.63    4.18
  -3  10  -5   25.63    2.43
   3  10   6   14.29    3.07
   3 -10   6   18.49    1.71
  -3 -10  -6   23.77    3.44
  -3  10  -6   15.94    3.16
   3 -10   6   15.60    3.58
  -3 -10  -6   23.61    3.20
  -3  10  -6   19.28    3.59
   3  10   7   76.72    6.18
  -3  10  -7   56.95    6.05
   3 -10   7   66.59    3.77
  -3 -10  -7   69.97    6.18
   3 -10   7   69.61    7.03
   3  10   7   67.21    6.38
  -3 -10  -7   61.92    5.46
   3  10   8    2.12    1.88
  -3 -10  -8   -1.18    1.97
   3 -10   8   -0.18    0.86
  -3  10  -8   -0.70    2.36
   3  10   8    1.33    2.07
  -3 -10  -8    1.40    1.56
  -3  10  -9    4.49    2.51
  -3 -10  -9    0.61    2.05
   3  10   9    2.86    2.35
  -3 -10  -9    3.90    2.26
   3  10   9    4.10    2.36
  -3 -10  -9    3.90    1.83
  -3 -10 -10   37.23    5.13
   3  10  10   46.80    5.38
  -3  10 -10   39.93    5.63
  -3 -10 -10   38.10    4.76
  -3 -10 -10   52.07    6.23
  -3 -10 -10   47.91    4.99
   3  10  10   45.18    5.65
  -3  10 -11    1.69    2.55
  -3 -10 -11    3.21    2.08
  -3 -10 -11    0.85    2.48
   3  10  11    2.62    2.57
   3  10  11    0.73    2.44
  -3 -10 -11    1.06    2.13
  -3 -10 -12   46.96    6.36
  -3  10 -12   52.65    6.80
   3  10  12   36.87    5.26
  -3 -10 -13    7.58    3.65
  -3  10 -13    9.40    3.70
   3  10  13    9.32    3.20
  -3 -10 -14    2.00    2.77
  -3  10 -14   -1.97    2.61
   3  10  14    2.41    2.33
  -3 -10 -15    3.13    3.38
   3  10  15    5.01    2.97
  -3 -11  15   69.14    8.33
  -3 -11  14   82.50    8.57
  -3 -11  13   71.24    7.90
   3 -11 -13   73.56    7.32
  -3 -11  12  193.53   13.14
   3 -11 -12  168.50   11.75
  -3 -11  11   28.13    4.95
   3 -11 -11   25.19    4.26
  -3 -11  10  151.08   10.98
   3 -11 -10  145.59   10.29
   3 -11 -10  141.99    8.72
  -3  11   9    8.39    2.40
   3 -11  -9   13.16    3.18
  -3 -11   9    8.27    3.23
   3 -11  -8    5.93    1.86
  -3  11   8    6.24    2.03
   3  11  -8    7.12    2.73
  -3 -11   8   12.98    3.21
   3 -11  -8   11.53    2.75
   3 -11  -7   52.22    4.81
  -3  11   7   65.37    5.30
  -3 -11   7   62.89    6.46
  -3 -11   7   65.27    6.46
   3 -11  -7   66.73    6.26
   3  11  -7   61.41    5.81
  -3 -11   6   74.45    6.86
  -3  11   6   62.78    5.19
   3  11  -6   75.47    6.13
  -3 -11   6   63.74    6.34
   3 -11  -6   72.23    6.40
   3 -11  -6   56.87    5.17
  -3 -11   5  122.30    8.77
   3  11  -5   98.03    7.28
  -3  11   5   95.22    6.72
  -3 -11   5  102.94    8.24
   3  11  -5  108.11    9.13
   3 -11  -5  121.52    8.57
  -3 -11   4   10.19    2.67
  -3 -11   4    2.54    2.14
   3 -11  -4    3.81    1.61
  -3  11   4    9.83    2.21
  -3 -11   4   12.81    3.07
   3 -11  -4    4.98    2.16
   3  11  -4   11.78    3.48
   3  11  -4    6.72    2.10
   3 -11  -3   85.03    6.61
   3 -11  -3   85.22    5.12
  -3 -11   3   84.98    7.02
  -3  11   3   86.84    5.91
   3  11  -3   81.04    7.93
  -3 -11   3   87.31    7.21
   3  11  -3   78.98    6.09
   3 -11  -3   73.89    6.79
  -3 -11   3   81.82    7.11
   3 -11  -2  192.21   10.91
  -3 -11   2  181.79   10.89
  -3 -11   2  181.26   11.03
  -3  11   2  172.11    9.32
   3 -11  -2  164.20    7.42
   3  11  -2  137.32   11.09
   3 -11  -2  174.93    8.78
  -3 -11   2  170.54   10.83
   3  11  -2  167.45    9.69
   3 -11  -2  164.24   11.08
  -3 -11   2  178.37   11.07
   3 -11  -1   31.18    4.14
  -3 -11   1   24.83    3.69
   3 -11  -1   34.48    2.26
  -3  11   1   33.86    3.41
   3  11  -1   33.49    5.01
  -3 -11   1   37.58    4.49
  -3 -11   1   26.58    3.88
   3  11  -1   29.36    3.40
   3 -11  -1   38.65    4.72
  -3 -11   0  417.38   20.41
   3 -11   0  397.49   20.67
   3 -11   0  433.14   21.75
  -3  11   0  394.87   18.64
   3  11   0  394.36   21.63
   3 -11   0  413.79   17.23
  -3 -11   0  477.02   21.25
  -3 -11   0  448.52   21.00
   3 -11   1   17.43    3.56
   3 -11   1   14.05    3.09
   3 -11   1   14.80    1.93
  -3 -11  -1   20.25    3.32
  -3 -11  -1   24.89    3.55
   3  11   1   25.28    4.40
  -3  11  -1   14.03    2.37
  -3 -11  -1   19.35    3.40
   3 -11   1   17.42    1.90
  -3  11  -1   17.38    3.24
  -3  11  -2   81.50    6.81
   3 -11   2   81.99    7.43
   3 -11   2  100.68    5.10
   3 -11   2   91.26    5.22
  -3 -11  -2  100.93    7.22
  -3  11  -2   83.05    5.55
   3  11   2   73.76    7.39
  -3 -11  -2   96.10    7.25
  -3 -11  -2   83.44    7.10
  -3 -11  -2   82.39    6.91
   3 -11   3  188.08   11.91
   3 -11   3  187.51    8.33
  -3 -11  -3  167.47   10.52
  -3 -11  -3  166.76   10.56
  -3  11  -3  168.97   10.75
   3  11   3  164.58   11.62
  -3 -11  -3  199.11   11.35
  -3  11  -3  179.33    9.18
  -3 -11  -3  178.29   11.18
   3 -11   3  172.50    8.97
   3 -11   4  132.37    6.15
   3 -11   4   97.10    8.78
  -3 -11  -4  123.56    8.40
  -3 -11  -4  115.59    8.20
  -3 -11  -4  144.05    9.14
  -3  11  -4  119.39    6.90
   3 -11   5   84.31    4.41
  -3  11  -5   94.56    7.33
   3  11   5   75.25    7.00
   3 -11   5   65.31    7.09
  -3 -11  -5   93.38    7.24
  -3  11  -5   81.21    5.14
  -3 -11  -5   77.37    6.47
  -3 -11  -5   83.17    6.51
  -3  11  -6   38.07    4.87
   3 -11   6   45.43    2.85
  -3 -11  -6   40.85    4.58
  -3 -11  -6   33.98    4.50
   3 -11   6   38.28    5.51
  -3 -11  -6   44.40    4.55
  -3 -11  -7    1.20    2.19
  -3  11  -7    1.36    2.13
  -3 -11  -7    4.07    1.91
  -3  11  -8   67.52    6.74
   3  11   8   58.23    5.96
  -3 -11  -8   62.45    6.20
  -3 -11  -8   72.80    6.16
  -3  11  -9   59.45    6.70
   3  11   9   67.28    6.37
  -3 -11  -9   51.04    5.88
  -3 -11  -9   76.56    7.59
  -3 -11 -10   38.75    5.08
   3  11  10   37.98    5.28
  -3  11 -10   44.51    5.87
  -3 -11 -10   42.66    5.83
  -3 -11 -10   41.97    4.87
  -3  11 -11   20.57    4.29
  -3 -11 -11   16.92    4.33
   3  11  11   18.39    4.11
  -3 -11 -11   21.31    3.79
  -3 -11 -11   11.93    3.38
  -3 -11 -12  145.31   10.57
  -3 -11 -12  136.49   11.41
   3  11  12  146.43   11.01
  -3 -11 -12  156.58   10.26
  -3  11 -12  142.43   11.48
  -3  11 -13    0.95    2.51
  -3 -11 -13    4.91    3.39
  -3 -11 -13    0.63    2.51
   3  11  13    8.18    3.06
  -3 -11 -14    5.14    3.67
   3  11  14    8.44    3.62
   3  11  15   13.06    3.89
  -3 -11 -15   16.30    3.77
  -3 -12  14   -2.88    3.31
   3 -12 -13    5.62    2.77
  -3 -12  13    0.92    2.55
  -3 -12  12    5.27    3.37
   3 -12 -12    7.77    3.32
  -3 -12  11   97.95    8.76
   3 -12 -11   86.59    8.05
  -3 -12  10  133.50   10.34
   3 -12 -10  128.61    9.81
  -3 -12   9   32.50    5.19
   3 -12  -9   29.90    4.65
  -3  12   8   17.80    3.10
  -3 -12   8   27.88    4.68
  -3 -12   8   17.82    4.04
   3 -12  -8   18.22    3.59
  -3  12   7   18.50    3.04
  -3 -12   7   14.22    3.60
  -3 -12   7   14.94    3.77
   3 -12  -7   18.00    3.80
  -3  12   6  228.87   12.41
  -3 -12   6  226.33   13.93
   3 -12  -6  237.01   14.04
   3  12  -6  224.83   12.95
  -3 -12   6  227.22   14.18
   3 -12  -6  234.84   12.86
  -3  12   5  122.94    8.02
  -3 -12   5  113.33    8.96
   3  12  -5  122.01    8.44
   3 -12  -5  140.68    9.80
  -3 -12   5  135.05    9.76
   3 -12  -5  121.34    8.45
   3 -12  -4    0.54    1.62
  -3 -12   4    0.64    2.32
  -3  12   4    2.13    1.47
  -3 -12   4   -0.68    2.12
   3  12  -4    0.48    1.76
   3 -12  -4    1.39    2.01
  -3 -12   3   74.34    6.59
   3 -12  -3   63.31    6.07
  -3  12   3   72.53    5.43
  -3 -12   3   59.07    6.03
   3  12  -3   61.12    5.36
   3 -12  -3   56.45    6.16
   3 -12  -2   89.76    7.40
   3 -12  -2   80.94    5.53
  -3 -12   2   99.53    7.57
  -3  12   2   90.23    6.32
   3 -12  -2   92.88    4.59
   3  12  -2   88.76    6.52
   3 -12  -2   88.21    7.93
  -3 -12   2   94.98    7.63
   3 -12  -1   -1.85    2.13
  -3 -12   1    1.16    1.75
   3 -12  -1    1.09    0.80
  -3 -12   1    0.62    1.87
   3 -12  -1    0.98    1.23
   3 -12  -1    0.74    2.06
   3 -12   0   29.07    4.37
  -3 -12   0   39.87    4.58
  -3 -12   0   34.70    4.65
   3 -12   0   37.24    2.69
  -3  12   0   36.35    3.72
   3 -12   0   40.95    5.33
   3 -12   1   52.68    6.39
   3 -12   1   60.46    4.13
  -3 -12  -1   61.80    6.00
  -3 -12  -1   59.44    5.70
  -3  12  -1   59.86    4.83
   3 -12   1   64.28    3.96
   3 -12   2  151.46    7.44
  -3 -12  -2  137.76    9.39
  -3  12  -2  151.76    8.41
  -3 -12  -2  137.16    9.63
   3 -12   2  139.77    7.49
  -3 -12  -2  158.73   10.16
   3 -12   2  146.75   10.56
   3 -12   3   71.30    4.30
  -3 -12  -3   71.42    6.22
  -3 -12  -3   72.62    6.46
  -3 -12  -3   68.59    6.46
   3 -12   3   76.58    4.93
   3 -12   4    0.19    0.87
  -3 -12  -4   -0.55    1.65
   3 -12   4    0.76    2.02
  -3 -12  -4    2.41    2.07
  -3 -12  -4   -0.59    1.90
  -3 -12  -5   43.63    4.96
  -3 -12  -5   49.58    5.44
  -3 -12  -5   46.58    5.12
  -3 -12  -6    1.70    2.01
  -3 -12  -6    1.24    1.87
  -3 -12  -6    1.71    2.02
  -3  12  -7   29.59    4.77
  -3 -12  -7   24.66    3.85
  -3 -12  -7   24.06    3.96
  -3 -12  -7   21.62    3.65
  -3  12  -8   33.23    5.14
   3  12   8   43.10    5.51
  -3 -12  -8   43.52    5.12
  -3 -12  -8   46.05    5.33
  -3 -12  -8   43.86    4.92
  -3  12  -9   35.48    5.27
  -3 -12  -9   37.39    4.97
  -3 -12  -9   30.21    4.71
  -3 -12  -9   32.90    4.58
  -3 -12 -10   16.03    3.73
  -3  12 -10   14.08    3.90
  -3 -12 -10   19.70    4.65
  -3 -12 -10   13.23    3.15
  -3  12 -11   53.93    6.58
  -3 -12 -11   57.59    7.21
  -3 -12 -11   45.25    5.55
  -3 -12 -11   48.84    6.06
  -3  12 -12    9.14    3.61
  -3 -12 -12   11.63    3.92
  -3 -12 -12   15.42    3.59
   3  12  13    0.85    2.36
  -3 -12 -13   -2.67    2.50
  -3 -12 -14   14.54    3.70
  -3 -12 -15   10.09    3.54
  -3 -13  12   63.01    7.47
  -3 -13  11   -0.86    2.15
  -3 -13  10   87.92    8.50
   3 -13 -10   86.64    8.23
  -3 -13   9    0.84    2.54
  -3 -13   9    0.79    2.47
   3 -13  -9    1.55    2.60
   3 -13  -8  194.24   12.79
  -3 -13   8  194.52   12.86
  -3 -13   8  184.37   13.02
  -3 -13   7   27.87    4.64
  -3 -13   7   34.58    5.38
   3 -13  -7   27.34    4.54
  -3 -13   6    0.76    2.71
  -3  13   6   -0.51    1.80
  -3 -13   6   -0.70    2.36
   3 -13  -6    1.52    2.11
  -3 -13   5   12.30    3.26
  -3  13   5    8.36    2.50
  -3 -13   5    8.86    3.17
   3 -13  -5   13.72    3.40
  -3 -13   4  128.70    9.64
  -3 -13   4  148.09   10.33
   3 -13  -4  124.21    9.98
   3 -13  -4  134.97    9.45
  -3 -13   3   71.69    6.83
   3 -13  -3   64.19    6.25
  -3 -13   3   71.73    6.62
   3  13  -3   58.35    5.60
  -3 -13   2   77.98    6.70
   3 -13  -2   60.15    6.32
   3  13  -2   71.42    5.92
  -3 -13   2   67.01    6.60
   3 -13  -2   52.14    6.53
   3 -13  -1    7.50    2.75
  -3 -13   1   13.44    3.20
  -3 -13   1    5.93    2.60
   3 -13  -1    4.95    2.69
  -3 -13   0   23.98    3.99
   3 -13   0   24.85    4.11
  -3 -13   0   22.68    3.86
   3 -13   0   14.93    3.89
  -3 -13  -1   19.06    3.70
   3 -13   1   18.42    2.38
  -3 -13  -1   13.34    2.98
   3 -13   1   19.13    3.99
  -3 -13  -2   86.18    6.95
  -3 -13  -2   72.66    6.95
  -3 -13  -2   81.58    7.07
  -3 -13  -3   -2.00    2.79
  -3 -13  -3   -0.58    1.93
  -3 -13  -3   -0.63    1.98
  -3 -13  -4   42.96    5.06
  -3 -13  -4   35.57    5.05
  -3 -13  -5   78.58    6.74
  -3 -13  -5   71.96    6.79
  -3 -13  -5   76.22    6.96
  -3 -13  -6   14.46    3.15
  -3 -13  -6   12.43    3.37
  -3 -13  -6   12.76    3.33
  -3 -13  -7    1.87    2.03
  -3 -13  -7    8.66    2.79
  -3 -13  -7    3.18    2.26
  -3 -13  -8   22.10    3.91
  -3 -13  -8   29.29    4.54
  -3 -13  -8   20.52    3.86
  -3 -13  -9   98.71    7.97
  -3 -13  -9   86.54    8.03
  -3 -13  -9   78.04    7.34
  -3  13  -9   90.84    8.53
  -3  13 -10   25.26    4.80
  -3 -13 -10   19.58    4.24
  -3 -13 -10   21.42    4.05
  -3 -13 -10   22.57    4.86
  -3 -13 -10   25.01    4.24
  -3 -13 -11    8.32    3.24
  -3 -13 -11    7.75    3.81
  -3 -13 -11    4.73    2.78
  -3 -13 -12    2.77    2.46
  -3 -13 -13   41.97    5.65
  -3 -14  11   -0.87    2.31
  -3 -14  10   51.01    6.51
  -3 -14   9    5.29    3.22
  -3 -14   9    0.80    2.43
   3 -14  -9    4.22    2.82
  -3 -14   8    3.10    2.61
  -3 -14   8    9.36    3.42
   3 -14  -8    9.18    3.13
  -3 -14   7    4.13    3.09
  -3 -14   7   -0.75    2.43
   3 -14  -7   -1.66    2.31
  -3 -14   6   13.05    3.62
  -3 -14   6   13.59    3.64
   3 -14  -6   12.51    3.45
  -3 -14   5    7.72    3.11
  -3 -14   5    7.76    2.90
   3 -14  -5    4.19    2.44
  -3 -14   4    3.73    2.58
  -3 -14   4    4.76    2.68
   3 -14  -4    5.11    3.03
  -3 -14   3   -1.99    2.36
  -3 -14   3    1.46    2.11
   3 -14  -3   -0.87    2.63
  -3 -14   2    7.80    2.70
  -3 -14   2   12.79    3.39
   3 -14  -2   16.81    3.87
  -3 -14   1    2.55    2.14
  -3 -14   1    6.28    2.80
   3 -14  -1   -1.79    2.70
   3 -14   0    0.90    2.26
  -3 -14   0   -0.69    2.43
  -3 -14   0    0.62    2.01
  -3 -14  -1   -0.67    2.52
  -3 -14  -1   -1.22    1.91
  -3 -14  -2   25.58    4.00
  -3 -14  -2   18.09    3.68
  -3 -14  -3    2.19    2.21
  -3 -14  -3   -1.22    2.04
  -3 -14  -3   -0.67    2.10
  -3 -14  -4    6.13    2.63
  -3 -14  -4    6.09    2.54
  -3 -14  -4    5.86    2.46
  -3 -14  -5    2.49    1.95
  -3 -14  -5    2.05    2.21
  -3 -14  -5    2.17    2.42
  -3 -14  -6    6.40    2.63
  -3 -14  -6    3.44    2.52
  -3 -14  -6    5.00    2.68
  -3 -14  -7    7.94    2.78
  -3 -14  -7    6.29    2.70
  -3 -14  -7    9.17    3.13
  -3 -14  -8   16.51    3.61
  -3 -14  -8   18.52    3.92
  -3 -14  -8   16.95    3.84
  -3 -14  -9   -0.73    2.72
  -3 -14 -10   12.07    3.46
  -3 -14 -10    0.72    2.70
  -3 -14 -11    2.20    2.37
  -3 -14 -12    2.98    3.12
  -3 -15   8  100.96    8.92
  -3 -15   7   11.54    3.44
  -3 -15   7   12.92    4.23
  -3 -15   6   25.76    4.96
  -3 -15   6   33.50    5.23
   3 -15  -6   34.69    5.63
   3 -15  -5   97.18    9.19
  -3 -15   5  106.21    9.09
  -3 -15   5   92.67    8.23
  -3 -15   4   36.68    5.15
  -3 -15   4   40.73    5.79
   3 -15  -4   29.18    5.67
  -3 -15   3  145.62   10.92
   3 -15  -3  130.84   11.54
  -3 -15   2    9.48    3.11
  -3 -15   2    6.00    2.95
   3 -15  -2    0.97    3.04
   3 -15  -1   29.15    5.27
  -3 -15   1   30.15    4.90
  -3 -15   1   32.24    4.75
  -3 -15   0    9.36    3.64
  -3 -15   0   12.91    3.18
  -3 -15  -1   80.32    7.18
  -3 -15  -1   71.86    7.20
  -3 -15  -2    2.56    2.34
  -3 -15  -2    7.78    3.35
  -3 -15  -3   23.15    4.10
  -3 -15  -3   18.41    4.09
  -3 -15  -4  111.86    8.58
  -3 -15  -4  113.33    9.00
  -3 -15  -4   98.05    9.08
  -3 -15  -5   10.55    3.08
  -3 -15  -5    7.15    2.75
  -3 -15  -5    0.80    2.85
  -3 -15  -6   10.10    3.44
  -3 -15  -6   13.49    3.72
  -3 -15  -7   68.59    7.14
  -3 -15  -8   36.47    5.26
  -3 -15  -8   39.70    5.44
  -3 -15  -9    1.56    2.44
  -3 -15 -10    7.89    3.31
  -3 -16   4   62.07    7.06
  -3 -16   3    0.71    2.73
  -3 -16   3    0.80    2.50
  -3 -16   2    9.01    3.02
  -3 -16   2    4.71    2.64
  -3 -16   1   13.87    3.82
  -3 -16   1    2.04    2.14
  -3 -16   0   18.87    3.90
  -3 -16   0   17.55    3.59
  -3 -16  -1    1.49    2.58
  -3 -16  -2   -1.49    2.57
  -3 -16  -3   20.82    4.15
  -3 -16  -4   -0.86    2.49
  -3 -16  -4    0.75    2.50
  -3 -16  -5    0.75    2.17
  -3 -16  -5   -0.86    2.89
  -3 -16  -6   12.20    3.81
  -3 -16  -7    1.73    2.98
   4   0 -19   -0.95    2.75
  -4   0  19    1.27    3.52
   4   0 -18   71.73    8.07
  -4   0  18   90.35   10.06
   4   0 -17   -0.84    2.44
  -4   0  17   -1.14    2.53
   4   0 -16   -0.79    2.19
  -4   0  16    7.55    3.49
   4   0 -15    1.21    1.07
   4   0 -15    0.74    2.13
  -4   0  15   -1.02    2.25
   4   0 -14  123.06    9.33
  -4   0  14  118.68    7.09
  -4   0  14  123.24   10.62
   4   0 -14  125.06    6.82
   4   0 -13   -0.24    0.98
  -4   0  13   -0.57    1.07
   4   0 -13    0.63    2.18
  -4   0  13   -0.90    2.37
   4   0 -12  479.91   22.59
  -4   0  12  460.87   19.72
  -4   0  12  434.65   23.99
   4   0 -11    0.53    1.53
  -4   0  11   -0.78    1.72
  -4   0  11    0.66    0.94
   4   0 -10  340.37   17.09
  -4   0  10  343.49   14.78
  -4   0  10  359.00   19.14
   4   0  -9    1.28    1.34
  -4   0   9    0.16    0.62
  -4   0   9    0.67    1.85
   4   0  -8  321.95   15.09
  -4   0   8  305.01   13.01
  -4   0   8  321.55   16.85
   4   0  -7    0.33    0.96
  -4   0   7    0.73    0.45
  -4   0   6  120.52    5.53
  -4   0   6  116.58    8.05
  -4   0   5   -0.21    0.39
  -4   0   5   -0.20    0.72
  -4   0   5    0.91    1.07
  -4   0   4  993.21   39.29
   4   0  -4 1009.05   40.97
  -4   0   4 1003.18   41.28
  -4   0   4  988.66   38.63
  -4   0   4  977.97   39.88
  -4   0   3   -0.15    0.53
  -4   0   3   -0.24    0.99
  -4   0   3    0.72    1.04
  -4   0   3   -0.19    0.69
   4   0  -3    1.01    1.09
  -4   0   2 1491.21   56.89
   4   0  -2 1401.61   56.58
  -4   0   2 1430.90   55.39
  -4   0   2 1374.48   55.79
  -4   0   1    0.11    0.42
  -4   0   1   -0.22    0.66
  -4   0   1   -0.45    0.75
  -4   0   1    0.83    0.83
   4   0  -1    0.29    0.86
   4   0  -1   -0.41    0.67
   4   0  -1    0.32    0.30
  -4   0   0  143.77    6.39
  -4   0   0  162.51    7.81
  -4   0   0  152.59    7.67
   4   0   0  147.86    7.85
  -4   0   0  163.63    8.00
   4   0   0  155.43    7.72
   4   0   0  153.70    7.62
   4   0   1   -0.24    0.74
   4   0   1    0.24    0.81
  -4   0  -1   -1.84    0.94
  -4   0  -1    0.24    0.76
   4   0   1   -0.48    0.90
  -4   0  -1    0.29    0.88
  -4   0  -2  919.06   35.92
  -4   0  -2  930.37   37.07
  -4   0  -2  944.01   37.73
   4   0   2  939.23   37.49
  -4   0  -2  958.90   38.52
   4   0   2  975.72   37.81
  -4   0  -3    1.08    0.90
   4   0   3   -0.79    0.99
  -4   0  -3    0.38    1.22
  -4   0  -3    0.17    0.63
   4   0   3    0.44    0.69
  -4   0  -3    0.31    0.39
  -4   0  -4  249.81   11.44
  -4   0  -4  258.65   12.53
   4   0   4  281.58   12.01
  -4   0  -4  276.24   13.70
   4   0   4  260.75   12.42
   4   0   4  261.36   12.97
  -4   0  -5    0.74    0.71
   4   0   5   -0.39    1.30
   4   0   5   -0.22    0.80
  -4   0  -5   -0.47    1.46
   4   0   5   -0.61    1.12
  -4   0  -6   47.72    3.39
   4   0   6   49.87    4.53
   4   0   6   54.40    3.70
   4   0   6   52.40    4.18
  -4   0  -6   55.85    5.19
  -4   0  -7    1.12    1.69
   4   0   7    1.39    1.73
   4   0   7   -0.24    0.95
   4   0   7    0.36    1.35
   4   0   8   42.27    4.75
   4   0   8   53.19    3.85
   4   0   8   55.98    4.63
  -4   0  -8   54.36    5.59
  -4   0  -9   -0.39    1.35
   4   0   9   -2.16    1.92
   4   0   9    1.40    1.15
   4   0   9    0.84    1.57
  -4   0  -9   -0.66    1.46
  -4   0 -10   22.44    3.16
   4   0  10   20.31    3.36
   4   0  10   24.08    2.71
   4   0  10   18.43    3.12
  -4   0 -10   20.58    3.84
  -4   0 -11   -0.49    1.78
   4   0  11    0.62    2.01
   4   0  11    0.32    1.34
   4   0  11   -0.48    1.89
  -4   0 -11   -0.76    2.01
  -4   0 -12   20.41    3.51
   4   0  12   21.75    3.93
   4   0  12   25.89    3.07
   4   0  12   26.73    3.63
  -4   0 -13    3.52    1.96
   4   0  13   -0.37    1.78
   4   0  14   42.80    4.21
  -4   0 -14   43.25    5.28
  -4   0 -15    0.68    2.07
   4   0  15   -2.12    1.87
  -4   0 -15   -3.96    3.20
  -4   0 -16    1.47    2.03
   4   0  16   -0.45    1.84
  -4   0 -16    2.09    3.15
  -4   0 -17   -0.78    2.16
  -4   0 -17    4.41    3.32
  -4   0 -18    4.11    2.67
  -4   0 -18   -1.16    3.75
  -4   0 -19   -0.87    2.90
  -4   0 -20    0.91    2.64
   4   1 -19  104.11    9.87
  -4   1  19  103.34   10.95
   4   1 -18  122.95   10.40
  -4   1  18  125.64   11.84
   4   1 -17   51.80    6.63
  -4   1  17   47.55    7.02
   4   1 -16    2.19    1.37
   4   1 -16   -0.80    2.21
  -4  -1  16   -2.17    2.57
  -4   1  16    1.07    2.68
   4   1 -15   20.11    2.62
  -4  -1  15    9.22    3.37
   4   1 -15   13.45    3.42
   4  -1 -15   15.71    2.18
  -4   1  15   22.15    4.80
   4   1 -14    2.45    1.36
   4  -1 -14   -0.24    1.00
   4   1 -14   -0.70    2.40
  -4   1  14    0.76    1.04
  -4  -1  14    2.89    2.55
  -4   1  14    0.94    2.37
  -4  -1  14    0.73    1.32
   4  -1 -13    0.61    0.90
   4   1 -13    2.58    2.23
  -4   1  13    3.76    1.22
  -4  -1  13    3.61    2.51
  -4   1  13   -0.88    2.34
  -4  -1  13    3.05    1.42
   4  -1 -12    2.04    0.84
   4   1 -12   -0.59    2.22
  -4   1  12   -0.19    0.77
  -4  -1  12    1.69    2.23
  -4  -1  12    3.72    1.49
  -4   1  12    0.83    2.18
   4   1 -11  192.22   11.51
  -4  -1  11  205.68    9.88
  -4  -1  11  183.42   12.73
  -4   1  11  187.31   12.75
  -4   1  11  191.89    8.68
   4   1 -10  261.00   14.11
  -4   1  10  261.36   11.16
  -4  -1  10  274.60   12.48
  -4  -1  10  270.25   15.88
  -4   1  10  304.49   16.26
   4   1  -9  224.46   11.94
  -4  -1   9  213.44   10.32
  -4  -1   9  229.23   13.59
  -4   1   9  219.85   13.28
   4   1  -8  168.84    9.47
  -4  -1   8  164.46    8.11
  -4  -1   8  169.69   10.89
  -4   1   8  163.65   10.62
   4   1  -7   96.43    6.07
  -4  -1   7   94.50    7.31
  -4   1   7   94.79    7.23
  -4  -1   7   92.51    5.12
  -4  -1   6  842.24   33.20
   4   1  -6  806.32   34.09
   4   1  -6  845.84   35.82
  -4  -1   6  839.27   36.19
  -4   1   6  841.16   36.10
  -4   1   5  260.47   12.44
   4   1  -5  262.77   11.89
  -4  -1   5  253.72   13.60
  -4   1   5  269.89   13.57
   4   1  -5  246.16   13.27
  -4   1   5  245.64   11.05
  -4  -1   5  274.06   11.27
  -4   1   4   20.27    2.22
  -4   1   4   22.96    2.17
  -4  -1   4   22.97    2.27
  -4  -1   4   23.04    2.49
  -4   1   4   19.60    1.28
  -4  -1   4   22.68    2.93
  -4   1   4   20.84    1.73
  -4   1   4   24.79    2.88
   4   1  -4   18.98    2.71
  -4   1   4   20.99    1.18
  -4   1   3   25.97    2.36
  -4   1   3   26.05    1.82
  -4  -1   3   29.51    3.24
  -4  -1   3   25.06    2.58
  -4  -1   3   27.74    2.50
  -4   1   3   25.18    2.23
   4   1  -3   24.08    2.92
  -4   1   3   30.29    3.07
  -4   1   2  465.24   18.99
   4  -1  -2  466.11   18.59
  -4   1   2  479.72   18.82
  -4  -1   2  472.77   20.48
  -4   1   2  475.55   20.06
   4   1  -2  465.53   20.52
  -4   1   2  439.89   18.99
   4  -1  -2  429.07   19.66
  -4  -1   2  441.99   19.43
  -4  -1   2  435.92   19.65
  -4  -1   1   90.20    5.85
  -4   1   1  101.54    5.33
  -4   1   1   96.77    5.55
  -4   1   1   92.96    5.11
   4   1  -1   87.56    5.92
  -4  -1   1   96.86    5.70
   4  -1  -1   96.43    5.55
   4  -1  -1   98.85    5.12
  -4  -1   1   89.26    5.37
   4  -1  -1  104.58    4.78
  -4  -1   0   16.37    2.09
  -4  -1   0   21.49    2.32
   4  -1   0   18.09    1.90
  -4   1   0   22.47    2.05
  -4   1   0   23.68    2.10
  -4  -1   0   27.21    2.56
   4   1   0   24.29    2.60
   4  -1   0   22.68    2.07
   4   1   0   22.98    2.38
   4  -1   0   24.43    2.24
  -4   1   0   21.47    2.23
   4  -1   0   24.52    1.77
   4   1   0   20.77    2.31
  -4  -1  -1  139.04    7.37
  -4   1  -1  138.54    6.77
  -4   1  -1  141.73    7.15
  -4   1  -1  145.31    7.78
   4   1   1  151.24    7.84
  -4  -1  -1  144.55    7.64
   4  -1   1  145.79    7.12
  -4  -1  -1  131.88    7.73
   4   1   1  137.36    7.58
   4  -1   1  148.81    7.20
   4   1   1  144.26    7.68
   4  -1   1  145.13    7.46
  -4   1  -2  982.61   37.64
  -4  -1  -2  929.64   38.37
  -4   1  -2  935.34   38.33
  -4   1  -2 1019.33   39.57
   4   1   2  942.62   38.81
  -4  -1  -2  992.29   39.01
   4  -1   2  961.08   38.04
  -4  -1  -2  973.54   39.56
   4  -1   2  987.62   38.46
   4   1   2  956.41   38.92
   4   1   2  962.73   39.07
   4  -1   2  951.39   38.90
  -4   1  -2  931.08   37.40
  -4   1  -3    4.48    1.26
   4  -1   3    4.27    1.18
  -4  -1  -3    1.55    1.22
  -4  -1  -3    3.98    0.52
   4  -1   3    5.39    1.51
  -4   1  -3    2.81    0.70
  -4  -1  -3    4.45    1.34
  -4  -1  -3    3.37    1.05
   4   1   3    4.70    1.42
   4   1   3    2.87    1.08
  -4   1  -3    4.23    0.88
   4  -1   3    2.47    0.98
  -4   1  -3    5.34    1.63
  -4  -1  -3    3.00    0.48
  -4  -1  -4  242.12   10.27
  -4   1  -4  248.98   10.31
  -4  -1  -4  244.06   10.99
   4   1   4  241.42   11.38
  -4  -1  -4  214.80   11.59
  -4   1  -4  226.32   12.47
   4  -1   4  228.80   10.58
   4  -1   4  248.99   12.22
   4  -1   4  243.78   11.41
  -4  -1  -4  232.79   12.54
   4   1   4  250.41   11.86
  -4   1  -4  242.53   10.78
  -4  -1  -5  641.77   25.36
  -4   1  -5  616.90   25.08
  -4  -1  -5  598.94   25.69
  -4  -1  -5  640.42   26.91
   4   1   5  609.22   26.07
   4  -1   5  636.31   25.41
  -4   1  -5  615.07   27.88
   4  -1   5  649.38   26.48
  -4  -1  -5  611.35   27.79
   4   1   5  623.72   26.69
   4  -1   5  647.61   27.39
  -4  -1  -6  418.66   17.84
  -4  -1  -6  405.35   17.84
   4  -1   6  416.05   17.49
   4   1   6  434.02   18.29
  -4   1  -6  404.17   20.14
   4  -1   6  419.68   18.60
  -4  -1  -6  416.66   20.13
   4   1   6  420.84   18.95
   4  -1   6  403.78   19.49
  -4  -1  -7   72.73    4.82
  -4  -1  -7   69.90    4.65
   4  -1   7   66.58    4.22
   4   1   7   73.68    4.80
   4   1   7   73.02    5.85
  -4   1  -7   66.52    6.08
   4  -1   7   67.57    5.09
  -4  -1  -7   66.04    6.04
   4   1   7   76.42    5.48
   4  -1   7   79.37    6.08
  -4  -1  -8  216.70   11.41
   4  -1   8  244.22   10.81
   4   1   8  216.67   11.17
  -4   1  -8  216.70   13.39
   4  -1   8  239.79   11.96
  -4  -1  -8  228.18   13.46
   4   1   8  233.31   12.18
   4   1   8  250.64   13.07
   4  -1   8  220.65   12.78
  -4  -1  -9  142.20    8.30
   4  -1   9  151.69    7.47
   4   1   9  144.26    7.89
  -4   1  -9  128.16    9.72
   4  -1   9  133.65    8.32
  -4  -1  -9  120.95    9.42
   4   1   9  134.65    8.57
   4   1   9  146.42    9.38
   4  -1   9  137.86    9.29
   4  -1  10  140.84    7.54
   4   1  10  146.75    8.07
  -4   1 -10  150.81   10.58
   4  -1  10  147.87    8.83
  -4  -1 -10  127.01    9.89
   4   1  10  142.41    8.87
  -4  -1 -10  131.54    8.40
   4  -1  10  138.55    9.59
   4   1  10  134.25    9.42
  -4  -1 -11   51.24    4.78
   4  -1  11   48.26    5.59
   4  -1  11   46.28    3.80
   4   1  11   59.01    5.86
   4  -1  11   49.38    4.78
   4   1  11   44.74    4.07
   4   1  11   50.92    5.01
  -4   1 -11   45.06    5.70
  -4  -1 -12   29.52    3.82
   4  -1  12   22.95    4.20
   4  -1  12   28.22    4.02
   4  -1  12   29.11    3.08
   4   1  12   29.24    3.38
   4   1  12   24.21    3.75
  -4   1 -12   25.77    4.57
  -4   1 -13   12.76    3.09
  -4  -1 -13   12.98    2.91
   4  -1  13   12.67    2.24
   4   1  13   13.21    2.42
  -4   1 -14    8.55    2.93
  -4  -1 -14    5.48    2.24
   4  -1  14   10.36    2.23
  -4   1 -15    1.42    2.37
  -4  -1 -15    1.97    2.26
   4  -1  15   -0.40    1.66
   4   1  15   -0.45    1.56
  -4  -1 -15    2.94    3.07
  -4  -1 -16   15.42    3.60
  -4   1 -16   17.85    4.76
  -4  -1 -16    8.32    3.92
  -4   1 -17    0.81    2.44
  -4  -1 -17    0.75    2.07
  -4   1 -17    4.42    3.46
  -4  -1 -17   -1.10    2.76
  -4   1 -18   25.75    5.12
  -4  -1 -18   23.75    4.55
  -4   1 -18   32.41    5.97
  -4  -1 -18   25.46    5.57
  -4   1 -19    1.81    2.93
  -4  -1 -20   36.28    5.94
   4   2 -19    3.84    3.41
   4   2 -18    2.74    2.97
  -4   2  18   26.02    5.78
   4   2 -17    9.52    3.41
  -4   2  17    8.95    4.09
   4   2 -16   27.33    3.31
   4   2 -16   26.91    4.77
  -4   2  16   17.95    4.77
   4   2 -15    7.10    1.89
   4   2 -15    3.83    2.57
  -4   2  15    5.96    3.01
  -4  -2  15    5.38    1.89
   4   2 -14   24.38    4.23
   4  -2 -14   27.99    2.45
  -4  -2  14   22.80    3.17
  -4  -2  14   23.36    4.71
  -4   2  14   28.01    5.04
   4   2 -13  115.03    8.74
  -4  -2  13  101.39    6.97
  -4  -2  13  119.59    9.94
  -4   2  13  106.57    9.42
   4  -2 -13  107.43    5.53
   4   2 -12  219.13   12.87
  -4  -2  12  206.12   11.05
  -4  -2  12  212.58   14.16
  -4   2  12  210.87   14.01
   4  -2 -12  212.01    9.18
   4   2 -11   13.47    2.88
  -4  -2  11   16.83    2.46
  -4  -2  11   19.06    3.86
  -4   2  11   16.63    3.57
   4   2 -10   39.16    4.21
  -4  -2  10   41.65    3.51
  -4  -2  10   27.33    4.49
  -4   2  10   30.03    4.46
   4   2  -9    4.11    1.71
  -4  -2   9    3.32    1.34
  -4  -2   9    5.48    2.57
  -4   2   9    1.93    1.79
  -4   2   8    9.22    2.30
   4   2  -8    6.89    1.88
  -4  -2   8    7.60    2.44
  -4  -2   8    6.43    1.49
  -4   2   8    8.21    2.37
  -4   2   7   16.23    2.54
   4   2  -7   19.09    2.48
  -4  -2   7   11.78    1.77
  -4  -2   7   13.99    2.93
  -4   2   7   10.67    2.50
   4   2  -7   13.24    2.67
  -4   2   6   11.58    2.06
  -4  -2   6   10.03    1.52
   4   2  -6   11.47    1.81
  -4  -2   6   16.62    2.79
  -4   2   6   10.37    1.02
  -4   2   6    9.59    2.12
   4   2  -6    7.98    2.28
   4   2  -5   69.29    4.58
  -4   2   5   68.70    5.02
  -4  -2   5   77.20    6.11
  -4   2   5   82.17    5.80
   4   2  -5   71.00    5.79
  -4  -2   5   73.15    4.32
   4   2  -4  144.30    7.10
  -4   2   4  147.05    7.78
  -4  -2   4  146.05    8.91
  -4   2   4  133.00    8.23
   4   2  -4  147.28    8.87
  -4  -2   4  151.24    7.82
  -4   2   4  140.90    6.90
  -4  -2   4  137.27    8.02
   4   2  -3   42.04    2.65
  -4   2   3   40.96    3.22
  -4   2   3   41.67    2.22
  -4  -2   3   38.73    3.28
  -4  -2   3   46.97    4.19
  -4   2   3   42.76    3.64
  -4   2   3   43.19    2.73
   4   2  -3   37.84    3.88
  -4  -2   3   39.73    3.52
  -4   2   2    8.93    1.09
  -4  -2   2    9.80    1.72
  -4   2   2    6.91    1.02
  -4  -2   2    7.13    1.51
  -4  -2   2    7.13    1.63
   4   2  -2    6.94    1.82
  -4   2   2    7.96    1.45
   4  -2  -2    6.81    1.12
  -4   2   1  350.28   15.39
  -4  -2   1  376.26   16.70
  -4   2   1  372.68   14.97
  -4   2   1  366.54   15.60
   4  -2  -1  367.38   14.94
   4   2  -1  346.35   16.73
  -4  -2   1  356.55   16.23
  -4  -2   1  351.33   16.11
   4  -2  -1  348.63   15.12
   4  -2  -1  358.53   15.09
  -4   2   0 2272.62   89.47
  -4  -2   0 2314.44   90.08
   4  -2   0 2290.95   89.06
  -4   2   0 2321.30   88.55
  -4   2   0 2340.63   88.66
   4   2   0 2272.49   90.33
  -4  -2   0 2310.91   89.93
   4  -2   0 2269.48   88.72
   4   2   0 2286.14   89.85
   4  -2   0 2316.65   88.63
   4  -2   0 2302.03   88.82
   4   2   0 2334.61   90.04
  -4   2  -1  786.15   32.20
  -4  -2  -1  787.78   32.00
  -4   2  -1  779.82   30.47
  -4   2  -1  791.36   31.03
   4   2   1  799.49   32.49
  -4  -2  -1  782.17   32.18
   4  -2   1  698.56   30.66
   4  -2   1  821.28   31.81
   4  -2   1  800.00   31.05
   4   2   1  794.92   32.25
  -4  -2  -1  756.68   32.29
   4   2   1  771.16   32.23
  -4   2  -2   43.40    2.45
  -4  -2  -2   43.19    3.48
  -4   2  -2   54.52    4.22
   4   2   2   43.74    3.72
   4   2   2   45.11    3.83
   4   2   2   45.70    3.80
  -4  -2  -2   44.35    3.70
   4  -2   2   42.50    2.70
   4  -2   2   42.63    3.05
   4  -2   2   49.07    3.76
  -4  -2  -2   46.39    3.98
  -4   2  -2   47.26    2.93
   4  -2   3   17.14    2.37
  -4  -2  -3   15.96    2.47
  -4   2  -3   17.18    1.29
  -4  -2  -3   19.13    2.12
  -4  -2  -3   16.61    2.29
   4  -2   3   16.97    1.50
   4   2   3   14.85    2.21
   4   2   3   16.18    2.26
  -4   2  -3   17.28    2.54
   4   2   3   19.77    2.54
   4  -2   3   15.69    1.89
  -4   2  -3   21.72    1.92
  -4   2  -4  596.94   23.38
  -4  -2  -4  605.54   24.76
  -4   2  -4  582.87   26.36
   4   2   4  618.82   25.33
  -4  -2  -4  618.45   25.73
   4  -2   4  546.49   23.61
   4  -2   4  594.42   24.72
   4  -2   4  616.70   25.99
   4   2   4  635.56   25.77
  -4  -2  -4  567.77   26.24
   4   2   4  583.79   25.75
  -4   2  -4  615.35   24.62
  -4  -2  -5  119.16    6.47
  -4   2  -5  113.82    7.82
   4   2   5  109.71    6.66
   4  -2   5  114.00    5.54
  -4  -2  -5  102.10    6.93
   4  -2   5  117.62    6.55
   4   2   5  124.99    7.26
  -4  -2  -5  104.31    7.55
   4  -2   5  124.23    7.63
  -4   2  -5  116.41    6.54
  -4  -2  -6  217.69    9.88
  -4  -2  -6  197.65   10.27
  -4   2  -6  212.29   12.26
   4  -2   6  213.10    9.36
   4   2   6  213.71   10.68
  -4  -2  -6  200.08   11.10
   4  -2   6  224.13   10.72
   4   2   6  210.74   11.14
  -4  -2  -6  200.31   11.94
   4  -2   6  216.15   11.71
   4  -2   7    5.42    2.11
  -4  -2  -7    4.33    1.22
  -4  -2  -7    2.34    1.28
   4  -2   7    5.65    1.70
   4  -2   7    5.09    1.06
   4   2   7    3.85    1.43
  -4   2  -7    7.63    2.36
   4   2   7    1.20    1.46
  -4  -2  -7    7.89    2.31
  -4  -2  -8  218.47   10.70
  -4  -2  -8  199.51   10.66
   4  -2   8  221.32    9.74
   4   2   8  207.83   10.78
  -4   2  -8  199.76   12.64
   4  -2   8  214.39   11.07
  -4  -2  -8  202.51   12.48
   4   2   8  213.22   11.51
   4  -2   8  209.78   12.18
   4  -2   9   10.27    2.94
  -4  -2  -9   10.17    2.21
   4  -2   9   11.54    2.36
   4  -2   9   14.56    1.76
   4   2   9   17.56    2.64
  -4   2  -9   13.03    3.43
   4   2   9   14.93    2.75
  -4  -2  -9   12.48    3.05
  -4  -2 -10   57.48    4.84
   4  -2  10   65.94    6.19
   4  -2  10   64.70    4.26
   4   2  10   59.83    4.83
   4  -2  10   58.25    5.13
   4   2  10   63.65    5.61
  -4   2 -10   66.35    6.77
   4  -2  11   13.69    3.19
  -4  -2 -11    4.47    1.82
   4  -2  11    5.58    2.12
   4  -2  11    9.73    1.79
   4   2  11   10.59    2.25
   4   2  11    8.20    2.55
  -4   2 -11    7.89    3.18
  -4  -2 -12  125.94    8.25
   4  -2  12  114.26    6.75
   4   2  12  131.94    7.83
  -4   2 -12  113.57    9.65
   4  -2  12  102.28    7.80
   4   2  12  113.01    8.32
   4  -2  12  128.69    9.41
  -4  -2 -13   21.62    3.43
   4  -2  13   22.96    3.59
   4  -2  13   29.85    3.09
   4   2  13   27.65    3.49
  -4   2 -13   25.95    4.95
   4  -2  14    0.35    1.29
   4   2  14    0.91    1.87
  -4  -2 -14   -0.92    2.31
  -4  -2 -14    1.17    1.77
  -4   2 -15   24.97    4.33
  -4  -2 -15   24.07    3.94
   4   2  15   19.79    3.23
  -4  -2 -15   16.60    4.47
  -4   2 -16   43.24    5.97
  -4  -2 -16   53.23    6.06
  -4  -2 -16   45.46    6.88
  -4   2 -17   -0.84    2.71
  -4  -2 -17    3.65    2.80
  -4   2 -17    1.11    2.94
  -4  -2 -17    1.09    2.89
  -4   2 -18    3.55    2.99
  -4  -2 -18   18.70    4.19
  -4  -2 -18   12.74    4.46
  -4   2 -19   -0.94    2.49
  -4  -2 -19   -1.65    2.59
   4   3 -19   -0.98    2.84
   4   3 -18   94.10    9.40
  -4  -3  18  115.39   11.22
  -4   3  18  106.90   10.85
   4   3 -17   27.48    4.95
  -4   3  17   22.21    5.09
   4   3 -16  145.40   11.16
  -4   3  16  130.96   11.65
   4   3 -15   -0.78    2.45
  -4  -3  15    2.54    1.85
  -4   3  15    3.94    2.74
   4   3 -14   58.55    6.46
  -4   3  14   64.72    7.39
   4  -3 -14   67.32    4.01
   4   3 -13   10.19    3.07
   4  -3 -13    6.86    1.09
  -4  -3  13    7.36    2.19
  -4   3  13    7.78    3.24
   4   3 -12  327.05   16.11
  -4  -3  12  285.22   14.17
  -4   3  12  303.54   17.04
   4  -3 -12  260.85   11.28
   4   3 -11    1.72    1.73
  -4  -3  11    6.57    2.03
  -4   3  11    1.49    2.07
  -4  -3  11    0.80    1.89
  -4   3  10   71.37    6.20
  -4  -3  10   63.74    5.07
  -4  -3  10   73.17    7.02
   4   3 -10   64.29    5.82
  -4   3  10   54.52    5.97
   4   3  -9  124.01    8.27
  -4   3   9  124.50    8.61
  -4  -3   9  132.41    7.73
  -4  -3   9  121.06    9.37
  -4   3   9  139.41    9.51
   4   3  -8  229.14   11.94
  -4   3   8  211.07   12.21
  -4  -3   8  225.28   11.36
  -4  -3   8  228.40   13.58
  -4   3   8  221.82   12.93
   4   3  -8  230.50   13.25
   4   3  -7   19.61    2.58
  -4   3   7   11.91    2.36
  -4  -3   7   15.58    2.18
  -4  -3   7   13.23    2.85
   4   3  -7   12.47    2.81
  -4   3   7    9.40    2.24
  -4   3   6  474.96   21.88
  -4  -3   6  471.83   23.14
   4   3  -6  487.90   23.11
  -4   3   6  498.95   22.64
  -4  -3   6  497.70   21.02
  -4   3   5  454.75   20.05
  -4  -3   5  457.00   21.41
   4   3  -5  441.28   21.28
  -4   3   5  465.48   20.64
  -4  -3   5  427.85   19.07
  -4   3   4   98.43    6.16
  -4  -3   4   96.08    6.10
  -4  -3   4   98.76    7.04
   4   3  -4  106.02    7.30
  -4   3   4   95.56    6.34
  -4   3   4  101.63    4.82
  -4  -3   4   92.06    6.35
  -4   3   3    0.19    0.23
  -4   3   3    0.20    0.38
  -4  -3   3    0.44    1.28
   4   3  -3   -1.80    1.36
  -4  -3   3   -1.25    1.05
  -4   3   3   -0.31    0.89
   4  -3  -3   -0.23    0.78
   4   3  -2    4.98    0.80
   4  -3  -2    3.28    0.78
   4  -3  -2    4.17    0.61
  -4   3   2    4.38    0.90
  -4  -3   2    5.85    1.61
  -4   3   2    5.31    0.70
  -4  -3   2    5.62    1.59
   4   3  -2    4.24    1.47
  -4  -3   2    4.38    1.40
  -4   3   2    6.72    1.25
   4  -3  -2    6.49    1.21
   4   3  -2    5.98    0.80
   4   3  -1  108.22    5.23
  -4   3   1  134.38    6.44
  -4   3   1  132.99    5.60
  -4  -3   1  117.29    7.40
   4  -3  -1  129.48    5.78
   4   3  -1  127.19    7.75
  -4   3   1  112.02    6.13
   4  -3  -1  127.94    6.20
  -4  -3   1  112.86    7.08
  -4  -3   1  141.52    7.47
   4  -3  -1  136.49    6.60
  -4   3   0  250.09   12.05
  -4  -3   0  269.72   12.90
  -4   3   0  273.11   11.12
   4   3   0  263.28   13.21
   4  -3   0  261.32   11.87
  -4  -3   0  263.24   12.80
   4  -3   0  244.65   10.95
   4  -3   0  268.25   11.95
   4   3   0  264.55   12.84
  -4   3  -1   38.64    3.37
  -4   3  -1   38.17    2.04
  -4  -3  -1   41.11    3.62
   4  -3   1   34.92    3.01
   4  -3   1   38.89    3.22
  -4  -3  -1   39.37    3.53
   4   3   1   36.84    3.62
   4  -3   1   38.23    2.54
   4   3   1   33.49    3.44
   4   3   1   45.47    3.83
  -4   3  -2  241.99   12.32
   4   3   2  245.60   12.36
  -4  -3  -2  255.04   12.07
   4   3   2  252.76   12.45
  -4  -3  -2  259.47   12.44
   4  -3   2  254.98   12.05
   4  -3   2  246.83   10.90
   4   3   2  244.87   12.35
  -4  -3  -2  234.22   12.51
  -4   3  -2  245.76   11.21
  -4   3  -3  344.58   17.13
  -4  -3  -3  391.36   16.63
   4   3   3  383.45   17.11
   4   3   3  354.05   16.82
  -4  -3  -3  328.92   16.72
   4  -3   3  357.46   15.59
   4  -3   3  376.87   16.90
   4   3   3  370.94   17.14
  -4  -3  -3  355.24   17.39
  -4   3  -3  383.30   15.96
  -4  -3  -4   31.94    3.63
  -4  -3  -4   29.96    2.95
  -4   3  -4   26.13    2.64
  -4  -3  -4   30.86    3.29
   4  -3   4   28.98    2.59
   4   3   4   29.17    3.12
  -4   3  -4   26.23    3.40
   4   3   4   29.95    3.23
   4   3   4   30.82    3.34
   4  -3   4   32.89    3.46
  -4  -3  -5   16.45    2.78
  -4  -3  -5   17.57    2.48
  -4  -3  -5   12.87    1.91
   4   3   5   17.36    2.51
   4  -3   5   14.97    2.03
   4  -3   5   12.50    1.08
   4   3   5   13.23    2.16
  -4   3  -5   11.03    2.46
   4   3   5   18.35    2.73
  -4   3  -5   12.80    1.99
   4  -3   5   13.91    2.50
  -4  -3  -6  273.37   12.45
  -4   3  -6  267.91   14.28
   4   3   6  268.27   12.83
   4  -3   6  237.51   10.65
  -4  -3  -6  248.02   13.09
   4  -3   6  278.58   12.46
   4  -3   6  261.30   13.61
   4   3   6  265.39   13.21
  -4  -3  -6  258.80   14.16
  -4   3  -6  249.33   12.55
  -4  -3  -7    2.35    1.72
  -4  -3  -7    6.24    1.80
   4  -3   7    5.51    1.69
  -4  -3  -7    6.09    1.65
   4  -3   7    7.95    1.10
   4   3   7    6.52    1.81
  -4   3  -7    8.99    2.52
   4   3   7    2.96    1.67
   4  -3   7    6.52    2.35
  -4  -3  -8  105.10    6.81
   4  -3   8  114.11    5.56
  -4   3  -8  110.34    8.48
   4   3   8  105.08    6.85
   4  -3   8  110.44    6.95
   4   3   8  110.94    7.46
   4  -3   8  121.18    8.17
  -4  -3  -8   99.71    8.07
   4  -3   9    4.69    2.32
   4  -3   9   12.92    2.35
  -4  -3  -9    8.00    2.06
   4  -3   9    8.19    1.31
   4   3   9    5.47    1.78
  -4   3  -9   10.48    2.99
  -4  -3  -9    2.67    2.10
   4   3   9    5.66    2.18
   4  -3  10  392.19   16.82
  -4   3 -10  394.67   21.10
   4   3  10  390.83   18.62
   4  -3  10  393.15   18.66
   4   3  10  396.97   19.24
   4  -3  10  394.77   20.26
   4  -3  11    1.34    2.11
   4  -3  11    3.69    1.97
   4  -3  11    5.46    1.45
   4   3  11   -0.43    1.65
  -4   3 -11    1.60    2.12
   4   3  11    3.70    2.26
   4  -3  12  137.42    7.51
  -4   3 -12  153.24   11.46
   4   3  12  153.24    9.05
   4  -3  12  129.76    8.90
   4  -3  13   20.77    3.46
   4  -3  13   21.44    2.54
   4   3  13   22.13    3.28
  -4   3 -13   20.81    4.61
  -4  -3 -13   22.62    4.38
   4   3  14    0.99    1.84
  -4  -3 -14   -0.92    2.19
  -4  -3 -15   22.68    4.81
  -4  -3 -16    7.27    3.29
   4  -3  16   22.88    4.01
  -4   3 -17   -0.87    2.52
  -4  -3 -17   -1.09    3.04
  -4   3 -18   17.51    4.13
  -4   3 -19    0.97    2.57
   4   4 -19    1.00    2.65
   4   4 -18   -0.95    2.87
  -4   4  18   -1.17    2.93
  -4  -4  18   -1.21    3.04
   4   4 -17    2.70    2.82
  -4  -4  17   -1.15    3.19
  -4   4  17   -1.10    2.76
   4   4 -16    0.85    2.66
  -4   4  16    3.12    3.01
  -4  -4  16    1.09    2.89
   4   4 -15    0.80    2.58
  -4  -4  15    4.13    3.35
  -4  -4  15    1.70    1.90
  -4   4  15    1.95    2.45
   4   4 -14    3.72    2.41
  -4  -4  14    2.19    1.89
  -4   4  14    4.58    2.87
   4   4 -13   76.19    6.77
  -4  -4  13   57.94    5.51
  -4   4  13   57.45    6.81
   4  -4 -13   59.26    3.40
   4   4 -12   -1.92    2.21
  -4  -4  12    0.50    1.44
  -4   4  12    1.60    2.31
  -4   4  11   20.08    3.63
  -4  -4  11   12.70    2.60
  -4   4  11   11.85    3.02
  -4   4  10   27.06    4.06
  -4  -4  10   23.13    3.19
  -4   4  10   34.21    4.51
  -4   4   9    3.34    1.86
  -4  -4   9    1.25    1.49
  -4  -4   9    0.71    2.14
   4   4  -9    2.00    1.67
  -4   4   9    3.14    2.10
  -4   4   8    8.16    2.18
  -4  -4   8   11.24    2.22
  -4   4   8   14.87    2.90
  -4  -4   8   16.64    3.41
   4   4  -8   11.45    2.80
  -4   4   7   10.15    2.30
  -4  -4   7   10.96    2.02
  -4  -4   7   11.84    2.70
  -4   4   7   13.94    2.80
  -4   4   6   32.22    3.52
  -4  -4   6   25.44    2.86
  -4  -4   6   32.83    4.05
   4   4  -6   30.09    4.09
  -4   4   6   29.48    3.52
  -4   4   5   52.87    4.53
  -4  -4   5   55.18    5.21
  -4   4   5   63.69    5.01
   4   4  -5   53.34    5.32
  -4   4   5   54.39    2.92
  -4  -4   5   55.98    4.14
  -4  -4   4  211.49   11.48
   4   4  -4  213.05   11.66
  -4   4   4  183.38    7.76
  -4   4   4  206.39   10.34
  -4  -4   4  192.32   10.19
   4  -4  -4  196.08    9.69
  -4  -4   4  198.39   10.67
  -4  -4   3   38.97    3.82
  -4  -4   3   43.96    3.78
   4  -4  -3   36.01    2.23
  -4  -4   3   39.78    4.11
  -4   4   3   33.98    3.12
   4   4  -3   30.40    3.85
   4  -4  -3   34.97    3.08
  -4  -4   2  230.14   12.37
   4  -4  -2  254.33   10.43
   4   4  -2  260.24   13.05
  -4   4   2  248.78   11.06
  -4  -4   2  251.81   12.05
   4  -4  -2  202.57    9.43
  -4  -4   2  248.45   12.26
   4  -4  -2  250.81   11.34
   4   4  -2  256.38   10.19
  -4   4   2  248.74   10.29
  -4  -4   1  675.17   28.99
  -4  -4   1  695.31   29.53
   4  -4  -1  680.48   27.68
   4   4  -1  691.33   29.86
  -4   4   1  677.21   27.33
  -4  -4   1  672.07   29.14
   4   4  -1  671.41   26.53
   4  -4  -1  707.58   28.29
  -4   4   1  684.16   27.69
  -4   4   0  183.74    8.94
  -4  -4   0  189.45    9.90
  -4   4   0  176.39    7.51
   4  -4   0  178.87    8.76
   4   4   0  190.83   10.29
  -4  -4   0  177.59    9.60
  -4  -4   0  178.77    9.68
   4  -4   0  159.64    7.38
   4  -4   0  185.03    9.12
  -4   4  -1 1061.02   39.73
  -4  -4  -1 1010.86   40.02
   4   4   1  974.27   40.39
   4  -4   1  967.30   39.20
  -4  -4  -1  936.25   39.86
   4  -4   1  935.77   37.59
   4   4   1  928.92   39.87
  -4   4  -1  973.76   38.80
   4  -4   1  942.28   39.30
   4   4   1  989.95   40.18
  -4   4  -2   64.16    4.84
   4   4   2   51.56    4.60
  -4  -4  -2   62.97    4.69
   4   4   2   62.57    4.99
   4  -4   2   61.95    4.59
   4  -4   2   64.94    3.51
   4   4   2   54.70    2.92
  -4  -4  -2   57.66    4.74
   4   4   2   63.90    4.94
  -4   4  -2   60.62    4.08
  -4   4  -3  254.07   13.03
  -4  -4  -3  247.02   12.36
   4   4   3  272.19   13.01
   4  -4   3  242.40   11.13
   4  -4   3  271.04   12.79
  -4  -4  -3  267.68   13.03
   4   4   3  261.37   12.98
   4   4   3  264.18   13.06
  -4   4  -3  268.54   12.07
  -4  -4  -3  230.60   10.48
  -4  -4  -3  264.51   13.40
  -4  -4  -4    9.61    2.21
   4  -4   4    8.15    1.36
  -4  -4  -4    8.28    1.78
  -4   4  -4    5.15    1.77
  -4  -4  -4    6.02    1.73
   4   4   4    5.10    1.75
   4   4   4    5.89    1.74
   4   4   4    6.84    1.83
   4  -4   4    6.48    1.84
  -4  -4  -4    5.87    0.89
  -4   4  -4    4.48    1.46
  -4  -4  -5   23.33    3.32
   4  -4   5   24.43    2.50
  -4  -4  -5   25.05    2.86
  -4  -4  -5   29.72    3.40
   4  -4   5   33.33    3.63
  -4   4  -5   21.76    3.29
   4   4   5   21.20    2.88
   4   4   5   25.85    3.22
   4   4   5   22.53    3.06
  -4   4  -5   24.91    2.91
  -4  -4  -6    1.12    1.48
   4  -4   6    2.55    1.17
  -4  -4  -6    1.32    1.33
  -4  -4  -6    4.62    1.56
   4   4   6    2.60    1.66
   4  -4   6    5.30    1.94
  -4   4  -6    1.13    1.43
   4   4   6    0.40    1.48
   4   4   6    5.13    1.75
  -4   4  -6    1.52    1.27
  -4  -4  -7  122.46    7.55
  -4   4  -7  129.50    9.18
   4  -4   7  134.94    5.74
   4   4   7  120.11    7.86
   4  -4   7  125.77    7.44
  -4  -4  -7  120.09    8.13
   4  -4   7  145.10    9.01
   4   4   7  127.64    8.24
  -4  -4  -7  119.24    8.90
   4  -4   7  125.92    6.09
   4   4   7  129.30    8.54
  -4   4  -7  122.69    7.92
  -4  -4  -8  158.32    9.12
  -4   4  -8  150.02   10.66
   4  -4   8  165.51    7.23
   4   4   8  177.58    9.62
  -4  -4  -8  152.70    9.78
   4  -4   8  148.21    8.85
   4  -4   8  129.54    9.63
   4   4   8  169.87    9.91
  -4  -4  -8  165.60   10.97
   4  -4   8  168.20    7.84
   4  -4   9   12.54    2.43
  -4  -4  -9   13.07    2.46
   4  -4   9   13.54    1.51
   4   4   9   10.38    2.58
  -4   4  -9   15.79    3.78
   4  -4   9   14.62    1.90
   4   4   9   13.86    2.76
   4  -4   9    6.62    2.51
   4  -4  10    2.14    1.89
  -4  -4 -10    9.72    2.39
   4  -4  10   11.94    1.53
   4   4  10   11.22    2.54
  -4   4 -10    9.99    3.03
   4   4  10   11.97    2.71
   4  -4  10    7.95    1.69
   4  -4  10    8.35    2.49
   4  -4  11   53.85    5.08
   4  -4  11   56.32    3.76
   4   4  11   63.15    5.48
  -4   4 -11   55.05    6.66
   4  -4  11   59.92    4.69
   4   4  11   59.79    5.67
   4  -4  11   55.54    6.11
   4  -4  12    9.50    2.72
   4  -4  12   12.34    1.91
   4   4  12   10.78    2.53
  -4   4 -12    8.74    3.61
   4  -4  12   15.67    2.71
  -4  -4 -12   16.57    3.63
   4  -4  13   24.14    3.87
   4   4  13   27.21    3.82
  -4   4 -13   29.69    5.31
   4  -4  13   27.03    3.64
  -4  -4 -13   37.16    5.39
  -4   4 -14    0.98    2.60
   4  -4  14    1.56    1.74
  -4  -4 -15   38.58    6.03
   4  -4  15   38.41    4.80
  -4  -4 -16    1.05    2.77
  -4  -4 -17    1.11    2.93
  -4   4 -19    6.06    3.05
   4   5 -19    8.16    4.19
   4   5 -18  221.84   14.97
  -4  -5  18  185.21   15.21
  -4   5  18  202.97   15.58
   4   5 -17    1.83    2.66
  -4  -5  17    2.30    3.05
  -4   5  17    4.39    3.56
   4   5 -16   95.05    8.87
  -4  -5  16   82.94    9.14
  -4   5  16   75.56    8.77
   4   5 -15    4.87    2.63
  -4  -5  15    1.90    1.83
  -4  -5  15    1.03    2.29
   4   5 -14  151.14   11.08
  -4  -5  14  153.14   10.38
  -4  -5  14  159.28   12.41
  -4  -5  13   60.88    5.80
  -4  -5  13   52.54    6.81
  -4   5  12   18.80    3.86
  -4  -5  12   22.69    3.46
  -4   5  11   -0.68    2.19
  -4   5  11    0.46    0.48
  -4  -5  11    0.53    1.71
  -4   5  10   15.14    3.34
  -4  -5  10   14.02    2.77
  -4  -5   9   69.28    5.47
  -4   5   9   60.59    5.82
  -4  -5   8  281.89   14.58
  -4   5   8  306.11   15.57
   4   5  -8  287.29   16.30
  -4   5   7   26.37    3.53
  -4  -5   7   29.03    3.33
  -4   5   7   28.07    1.99
   4   5  -7   24.65    3.98
  -4  -5   6    3.33    1.35
  -4   5   6    1.37    1.38
  -4  -5   6    6.03    2.20
   4   5  -6    2.48    1.87
  -4  -5   5    8.62    1.85
  -4  -5   5    8.87    2.27
   4   5  -5    7.69    2.40
  -4  -5   5    9.63    2.39
  -4  -5   4  623.54   27.39
   4   5  -4  621.96   27.64
  -4   5   4  601.62   25.70
  -4  -5   4  584.26   26.08
   4  -5  -4  612.72   25.51
  -4  -5   4  533.98   26.14
  -4   5   3  353.95   14.90
   4  -5  -3  354.83   14.67
  -4  -5   3  361.66   17.51
   4   5  -3  343.89   17.66
  -4   5   3  339.58   15.77
  -4  -5   3  333.09   16.54
   4  -5  -3  364.78   16.12
  -4  -5   3  318.19   16.73
   4   5  -3  359.96   15.18
  -4   5   2   67.90    3.64
  -4   5   2   61.69    3.74
   4  -5  -2   62.25    3.94
  -4  -5   2   67.21    5.50
   4   5  -2   66.92    5.68
  -4   5   2   68.88    4.25
  -4  -5   2   65.41    5.11
  -4  -5   2   58.44    5.05
   4  -5  -2   56.12    4.46
   4   5  -2   70.12    3.81
  -4   5   1    1.32    0.88
  -4   5   1    1.24    0.53
  -4  -5   1    2.18    1.50
   4   5  -1    4.94    2.02
   4  -5  -1    2.15    1.09
  -4  -5   1    2.35    1.35
  -4   5   1    2.00    0.78
  -4  -5   1    2.45    1.28
   4   5  -1    2.02    0.71
   4  -5  -1    2.55    1.19
  -4   5   0  471.87   19.25
  -4  -5   0  460.41   20.40
   4  -5   0  440.78   19.16
   4   5   0  469.60   20.96
  -4  -5   0  458.15   20.27
  -4   5   0  405.73   17.31
  -4  -5   0  471.57   20.37
   4  -5   0  450.00   19.68
  -4  -5  -1   15.89    2.58
  -4  -5  -1   18.17    2.71
  -4   5  -1   15.22    2.32
  -4  -5  -1   14.49    2.47
   4   5   1   16.00    2.76
   4   5   1   19.91    3.07
   4  -5   1   17.20    1.30
   4  -5   1   16.21    2.36
  -4   5  -1   17.90    2.28
   4  -5   1   16.29    2.44
  -4   5  -2  247.91   12.65
  -4  -5  -2  241.16   12.52
   4  -5   2  234.19   12.31
   4   5   2  262.62   13.28
   4  -5   2  250.47   10.61
  -4  -5  -2  240.76   12.75
   4   5   2  251.03   13.02
  -4   5  -2  250.76   12.04
   4   5   2  255.49   13.00
   4   5   3   73.20    4.07
  -4   5  -3   70.67    5.75
  -4   5  -3   80.10    5.30
  -4  -5  -3   73.75    5.38
   4   5   3   74.18    5.82
   4  -5   3   83.24    5.85
   4  -5   3   76.65    4.27
  -4  -5  -3   70.13    5.64
   4   5   3   86.14    6.15
   4   5   3   82.17    5.94
  -4  -5  -3   72.48    4.03
   4   5   4  565.58   22.93
  -4   5  -4  556.72   25.53
  -4  -5  -4  565.01   24.47
   4   5   4  532.95   25.01
   4  -5   4  564.52   23.21
   4  -5   4  558.68   25.11
  -4  -5  -4  535.11   24.99
   4   5   4  577.61   25.45
   4   5   4  581.25   25.30
  -4  -5  -4  558.77   22.69
  -4   5  -4  576.87   24.40
   4  -5   5    7.84    1.55
  -4  -5  -5   10.39    2.48
  -4  -5  -5    5.70    1.71
  -4   5  -5    6.41    2.30
  -4  -5  -5    7.60    2.03
   4   5   5    7.07    2.08
   4   5   5    8.53    2.26
   4   5   5    9.88    2.30
  -4  -5  -5    6.91    1.26
  -4   5  -5    7.00    2.04
   4  -5   5    8.95    2.25
   4   5   5    7.90    1.34
   4  -5   6    7.65    1.64
  -4  -5  -6    2.92    2.03
  -4  -5  -6    5.45    1.65
  -4  -5  -6    5.12    2.14
  -4   5  -6    7.02    2.36
   4   5   6    4.44    1.84
   4   5   6    7.44    2.07
   4   5   6   10.40    2.39
   4  -5   6    9.18    2.46
  -4   5  -6    5.72    1.86
   4  -5   7    4.51    1.69
  -4  -5  -7    5.00    2.28
  -4  -5  -7    3.82    1.75
   4   5   7    2.90    1.86
  -4   5  -7    3.81    1.99
   4   5   7    4.54    1.82
   4  -5   7    4.41    2.12
  -4   5  -7    1.35    1.56
  -4   5  -8  252.20   14.58
  -4  -5  -8  239.12   12.60
   4   5   8  228.33   12.81
   4  -5   8  245.88   12.23
   4  -5   8  243.93   13.90
   4  -5   8  245.43   10.40
   4   5   8  236.49   13.16
  -4   5  -8  234.61   13.11
  -4   5  -9  198.81   12.60
  -4  -5  -9  172.97   10.28
   4  -5   9  183.20    8.01
   4   5   9  190.29   10.83
   4  -5   9  161.06    9.82
   4  -5   9  178.40   11.55
   4  -5   9  190.00    8.69
   4   5   9  177.18   10.76
  -4   5  -9  174.84   10.94
  -4  -5 -10    0.47    1.72
   4  -5  10   -0.16    0.83
  -4   5 -10    0.79    2.19
   4   5  10    0.98    1.59
   4  -5  10   -0.53    1.00
   4  -5  10   -0.86    1.62
   4  -5  11    0.19    0.90
   4   5  11   -0.51    2.05
  -4   5 -11   -1.68    2.11
   4  -5  11    1.94    1.30
   4  -5  11   -2.13    2.14
   4  -5  11    0.47    1.71
   4   5  12   46.23    4.88
  -4   5 -12   38.34    5.61
   4  -5  12   39.16    3.91
  -4  -5 -12   49.94    6.17
   4  -5  12   40.39    4.51
  -4   5 -13    2.83    2.74
   4  -5  13    3.48    1.64
  -4  -5 -13    8.05    3.18
  -4   5 -14   25.94    5.00
  -4  -5 -14   18.07    4.43
  -4   5 -15    4.20    3.05
  -4  -5 -15    6.03    3.57
  -4  -5 -16    3.18    3.20
  -4  -5 -17   -1.12    3.24
   4   6 -18    4.93    3.40
   4   6 -17   12.14    3.83
  -4  -6  17    2.30    2.73
   4   6 -16    1.76    2.66
  -4  -6  16    6.56    3.43
  -4  -6  15   -1.04    2.61
  -4  -6  14    3.33    2.24
  -4  -6  14    9.85    3.60
  -4  -6  13    6.37    2.41
  -4  -6  13   15.87    4.07
  -4   6  12   16.50    2.38
  -4   6  12   17.25    3.02
  -4  -6  12   22.09    3.70
  -4  -6  12   22.16    4.50
  -4   6  11  117.54    9.26
  -4  -6  11  126.30    8.77
  -4   6  11  117.18    7.92
  -4   6  11  116.92    6.61
  -4  -6  11  126.48   10.05
  -4   6  10   25.05    4.02
  -4   6  10   21.57    3.11
  -4   6  10   21.84    2.24
  -4  -6  10   19.48    3.39
  -4   6   9   62.72    5.91
  -4   6   9   54.77    4.64
  -4  -6   9   58.76    5.40
  -4   6   9   49.10    3.34
  -4   6   8   19.12    3.30
  -4   6   8   16.62    2.53
  -4  -6   8   21.95    3.38
  -4   6   8   17.46    1.62
  -4   6   7   -0.53    1.71
  -4  -6   7    0.91    1.32
  -4   6   7    3.18    1.48
  -4   6   7    1.74    0.52
  -4  -6   6    1.68    1.61
  -4   6   6    1.98    1.30
   4  -6  -6    2.44    0.61
   4   6  -6    3.98    2.15
   4  -6  -6    3.51    1.53
  -4   6   5  199.70    9.35
   4   6  -5  202.74    9.94
   4  -6  -5  170.69    8.29
   4   6  -5  206.39   12.19
   4  -6  -5  189.36   10.18
  -4  -6   5  196.23   10.37
  -4  -6   5  178.24   10.91
  -4   6   4    7.12    1.43
   4   6  -4    3.63    1.97
   4  -6  -4    5.89    1.09
  -4  -6   4    3.32    2.03
  -4  -6   4    5.38    2.09
  -4  -6   4    3.93    1.84
   4  -6  -4    4.76    1.63
   4   6  -4    5.61    1.51
  -4   6   3  275.54   11.70
   4  -6  -3  266.55   11.96
  -4  -6   3  266.19   14.33
   4   6  -3  276.70   14.94
  -4  -6   3  259.73   13.59
  -4  -6   3  245.20   13.73
   4  -6  -3  246.04   12.97
   4   6  -3  278.98   12.21
  -4   6   2   58.63    3.33
  -4  -6   2   49.50    4.86
   4  -6  -2   57.41    3.98
  -4  -6   2   59.54    5.32
  -4  -6   2   56.54    5.01
   4   6  -2   58.21    5.49
  -4   6   2   60.31    3.96
   4   6  -2   62.50    3.78
   4  -6  -2   60.80    4.73
  -4   6   1    1.67    1.00
  -4   6   1    0.92    0.53
  -4  -6   1   -1.87    1.56
   4  -6  -1    0.85    1.06
   4   6  -1    0.54    1.58
  -4  -6   1    0.43    1.39
  -4  -6   1    1.34    1.35
  -4   6   1    1.18    0.77
   4   6  -1    1.00    0.80
   4  -6  -1    1.86    1.39
  -4   6   0   25.77    2.64
  -4  -6   0   25.77    3.38
  -4  -6   0   30.94    3.56
  -4  -6   0   26.82    3.30
  -4   6   0   21.26    1.50
   4   6   0   26.70    3.56
   4  -6   0   23.94    2.73
   4  -6   0   25.64    3.05
  -4  -6  -1  363.14   16.65
   4  -6   1  343.75   15.95
   4   6   1  327.45   16.98
  -4   6  -1  330.90   15.73
  -4  -6  -1  291.67   16.12
  -4  -6  -1  331.46   16.49
  -4   6  -1  359.59   15.74
   4  -6   1  322.90   16.10
   4   6   1  347.84   16.73
  -4   6  -2   32.55    3.49
  -4  -6  -2   37.73    3.86
   4  -6   2   33.68    2.22
  -4   6  -2   38.63    3.46
   4   6   2   29.94    3.84
   4  -6   2   32.44    3.56
   4   6   2   41.40    4.21
  -4  -6  -2   33.00    2.69
   4   6   3   40.53    2.88
  -4   6  -3   36.70    3.85
  -4  -6  -3   31.33    3.51
   4  -6   3   35.53    2.57
   4   6   3   34.73    4.11
   4  -6   3   34.69    3.78
   4   6   3   37.71    4.18
  -4  -6  -3   37.77    2.82
   4   6   3   42.07    4.34
  -4   6  -3   39.27    3.59
   4  -6   4    2.05    1.02
   4   6   4    0.66    0.78
  -4   6  -4    2.51    1.73
   4   6   4   -0.50    1.50
  -4  -6  -4    1.95    1.42
   4   6   4    2.39    1.60
   4   6   4    0.49    1.58
   4  -6   4    3.26    1.66
  -4   6  -4    1.50    1.44
  -4  -6  -4    1.22    0.92
   4  -6   5   15.33    1.94
   4   6   5   13.02    1.82
  -4  -6  -5    9.94    2.57
  -4   6  -5    7.19    2.30
  -4  -6  -5    8.61    2.00
   4   6   5   10.80    2.36
   4  -6   5   10.62    2.60
  -4  -6  -5    7.72    1.35
  -4   6  -5   11.72    2.37
   4   6   6   68.50    4.65
  -4   6  -6   77.36    6.62
  -4  -6  -6   67.20    5.30
  -4  -6  -6   63.34    6.15
   4   6   6   77.49    6.15
   4  -6   6   65.90    5.97
  -4  -6  -6   72.74    4.43
  -4   6  -6   62.01    5.37
  -4   6  -7   83.77    7.20
  -4  -6  -7   74.50    5.81
  -4   6  -7   88.43    6.59
   4   6   7   87.91    6.65
   4  -6   7   78.63    6.86
  -4   6  -8  100.08    8.56
  -4  -6  -8  113.81    7.53
   4   6   8  121.38    8.17
   4  -6   8  105.58    8.36
  -4   6  -8  118.87    8.17
  -4  -6  -9    3.74    1.87
  -4   6  -9    2.27    2.28
   4   6   9    1.05    2.15
   4  -6   9    1.03    0.75
   4  -6   9   -0.66    2.14
  -4   6  -9   -0.56    1.76
  -4   6 -10  162.23   11.81
  -4  -6 -10  165.51   10.04
   4  -6  10  169.47    7.44
   4   6  10  175.84   10.52
   4  -6  10  161.59   11.30
   4  -6  10  161.80    7.97
   4   6  10  159.79   10.71
  -4   6 -10  137.90   10.22
  -4   6 -11    3.18    2.50
  -4  -6 -11    5.02    2.43
  -4  -6 -11    2.68    2.01
   4   6  11    3.31    2.54
  -4   6 -11    5.15    3.22
   4   6  11    7.78    2.67
   4  -6  11    4.94    1.50
  -4  -6 -12   93.88    8.83
  -4   6 -12  105.66    9.61
   4  -6  12   97.37    6.16
   4   6  12   91.55    7.99
  -4   6 -13    2.89    2.68
   4   6  13    5.13    3.00
  -4  -6 -13    0.92    2.43
  -4   6 -14   29.48    5.53
   4   6  14   20.73    4.37
  -4  -6 -14   30.95    5.51
  -4   6 -15    1.07    2.53
   4   6  15    0.80    2.13
  -4  -6 -15   -1.02    2.84
  -4   6 -16   10.11    3.90
  -4  -6 -16   12.95    4.53
   4   7 -18   29.21    5.51
  -4  -7  17    9.26    4.34
  -4  -7  16   68.44    8.35
  -4  -7  15    5.25    2.92
  -4  -7  14   37.55    5.15
  -4  -7  14   48.87    6.70
  -4  -7  13   40.56    5.11
  -4  -7  13   43.60    6.34
  -4  -7  12  207.53   13.12
  -4   7  12  210.98   11.94
  -4  -7  12  222.50   14.72
  -4   7  11   21.40    3.27
   4  -7 -11   20.60    1.79
  -4  -7  11   29.52    4.54
  -4   7  11   22.92    2.43
  -4  -7  11   25.67    4.66
  -4   7  10  278.82   16.23
  -4  -7  10  284.42   15.77
  -4   7  10  301.38   14.54
   4  -7 -10  261.14   11.91
  -4   7  10  318.13   12.83
  -4  -7  10  326.21   17.73
  -4   7   9   30.11    4.36
  -4   7   9   22.80    3.01
  -4  -7   9   21.35    3.67
   4  -7  -9   23.38    1.80
  -4   7   9   26.86    2.13
   4  -7  -8   36.76    2.49
  -4   7   8   48.86    5.26
  -4  -7   8   38.42    4.52
  -4   7   8   39.35    3.75
  -4   7   8   35.96    2.29
   4  -7  -8   35.85    2.37
  -4   7   7  484.96   20.43
   4  -7  -7  463.51   21.38
   4  -7  -7  449.87   18.61
  -4  -7   7  456.53   21.75
   4  -7  -6  818.85   33.03
  -4   7   6  854.23   34.12
   4  -7  -6  835.54   35.48
   4   7  -6  844.63   35.06
  -4  -7   6  802.21   35.59
   4  -7  -5   75.95    4.51
  -4   7   5   80.74    4.93
   4   7  -5   70.94    5.30
  -4  -7   5   85.49    6.23
   4  -7  -5   77.16    5.86
  -4  -7   5   75.79    6.49
  -4  -7   4   23.65    3.20
   4  -7  -4   33.04    2.71
  -4   7   4   28.83    2.52
  -4  -7   4   21.74    3.44
   4   7  -4   28.65    4.23
  -4  -7   4   17.21    3.00
   4  -7  -4   22.40    3.05
   4   7  -4   31.56    2.93
  -4   7   3   91.04    5.06
   4  -7  -3   95.37    5.65
   4   7  -3  106.56    8.06
  -4  -7   3   81.02    6.51
   4  -7  -3   98.90    6.69
   4   7  -3  100.21    5.70
   4  -7  -2  458.59   20.69
  -4   7   2  453.00   18.33
   4  -7  -2  470.91   19.69
  -4  -7   2  404.04   21.15
   4   7  -2  424.22   21.87
  -4  -7   2  449.72   20.99
   4   7  -2  441.95   18.95
  -4   7   1    1.65    0.71
  -4  -7   1    2.99    1.62
   4  -7  -1    0.33    1.10
   4   7  -1    0.59    1.79
  -4  -7   1    4.20    2.03
   4   7  -1    1.23    0.94
   4  -7  -1    2.60    1.45
   4  -7   0  137.16    7.87
  -4  -7   0  133.06    8.47
  -4   7   0  130.90    5.62
   4   7   0  133.77    9.13
  -4   7   0  130.69    7.35
  -4   7   0  117.58    5.74
  -4  -7   0  124.79    8.26
   4  -7   0  133.27    8.31
   4  -7   1   56.71    4.74
  -4  -7  -1   53.20    4.87
   4  -7   1   47.96    2.41
   4   7   1   61.53    5.58
  -4  -7  -1   54.24    5.01
  -4   7  -1   48.76    4.31
  -4   7  -1   55.84    4.51
   4  -7   1   56.43    5.01
  -4   7  -2   35.97    3.91
   4  -7   2   35.18    2.25
  -4  -7  -2   37.86    4.03
   4   7   2   44.16    4.69
   4  -7   2   37.45    3.95
  -4  -7  -2   34.62    3.05
  -4   7  -2   42.10    3.87
  -4   7  -3   42.90    4.40
   4  -7   3   49.40    3.12
  -4  -7  -3   40.80    4.27
   4   7   3   47.27    4.94
   4  -7   3   55.12    4.97
  -4   7  -3   47.23    4.30
  -4  -7  -3   52.00    3.73
   4   7   4  101.84    5.76
  -4  -7  -4  105.01    6.92
   4  -7   4   85.35    6.81
   4   7   4   94.90    7.28
  -4   7  -4   98.61    6.79
  -4  -7  -4   94.99    5.57
  -4   7  -4   85.18    6.84
  -4   7  -5  220.05   12.91
   4   7   5  227.53   11.10
  -4  -7  -5  223.68   12.04
   4  -7   5  220.79   12.87
   4   7   5  221.53   12.85
  -4  -7  -5  233.62   10.90
  -4   7  -5  237.60   12.36
  -4   7  -6  119.23    8.61
   4   7   6  112.70    6.72
  -4  -7  -6   99.07    7.10
   4   7   6  111.73    8.11
   4  -7   6  115.91    8.39
  -4  -7  -6  109.77    8.65
  -4  -7  -6  121.46    6.53
  -4   7  -6   96.52    7.38
   4   7   7    8.46    1.99
  -4  -7  -7    7.61    2.16
  -4   7  -7    4.01    2.10
  -4  -7  -7    5.96    2.28
   4   7   7    7.16    2.49
   4  -7   7    8.67    2.80
  -4  -7  -7    7.03    1.73
  -4   7  -7    5.07    2.05
   4   7   8    2.70    1.53
  -4  -7  -8    7.94    2.47
  -4  -7  -8    6.59    2.23
  -4   7  -8    5.76    2.63
   4   7   8   11.74    2.77
   4  -7   8    7.25    2.92
   4   7   8    4.26    2.28
  -4   7  -8    1.65    2.01
  -4  -7  -9   60.82    6.01
  -4  -7  -9   51.87    5.14
  -4   7  -9   55.63    6.41
   4  -7   9   52.41    2.73
   4   7   9   45.92    5.11
   4   7   9   56.29    5.73
   4  -7   9   44.66    5.62
  -4   7  -9   62.25    6.00
  -4   7 -10  232.32   14.83
  -4  -7 -10  237.33   13.12
  -4   7 -10  230.06   13.70
  -4  -7 -10  236.15   13.78
   4  -7  10  217.15   10.00
  -4  -7 -10  229.63   14.70
   4   7  10  251.88   14.21
  -4  -7 -11   16.36    4.05
  -4  -7 -11   13.63    3.10
  -4   7 -11   17.54    4.06
   4   7  11   19.28    3.73
  -4   7 -11   13.48    3.53
  -4  -7 -12   78.39    8.27
  -4   7 -12   85.42    8.79
   4   7  12   82.78    7.53
  -4  -7 -13    0.95    3.08
  -4   7 -13   -0.98    3.18
   4   7  13    1.50    2.18
  -4   7 -14   58.88    7.97
   4   7  14   70.86    7.23
  -4  -7 -14   76.46    8.42
  -4   7 -15    2.17    3.14
   4   7  15    0.82    2.38
  -4  -7 -15    1.04    2.89
   4   7  16   22.32    4.61
  -4  -7 -16   20.89    4.93
  -4  -8  16    6.67    3.73
  -4  -8  15   12.73    3.90
  -4  -8  14    1.01    2.24
  -4  -8  13   25.89    4.91
  -4  -8  12   40.84    5.25
  -4  -8  12   31.96    5.58
  -4   8  11   63.89    5.49
  -4  -8  11   65.78    6.79
  -4  -8  11   65.57    7.34
  -4   8  10    5.72    1.19
  -4   8  10    8.43    2.13
  -4  -8  10    8.69    3.02
  -4  -8  10    9.86    3.44
   4  -8 -10    5.17    1.19
  -4  -8   9  141.36    9.83
  -4   8   9  137.36   10.06
  -4   8   9  129.82    8.16
  -4  -8   9  162.13   11.10
   4  -8  -9  137.27    6.78
  -4   8   9  137.23    6.43
   4  -8  -9  136.20    6.82
   4   8  -8   29.25    3.75
  -4   8   8   27.88    4.27
  -4  -8   8   22.08    3.75
   4  -8  -8   20.79    2.14
  -4   8   8   25.47    2.98
  -4  -8   8   29.03    4.32
   4  -8  -8   25.52    2.16
   4   8  -8   20.27    4.17
   4  -8  -8   24.45    3.40
   4  -8  -7   56.00    3.81
  -4   8   7   57.35    4.40
  -4  -8   7   59.89    5.76
  -4  -8   7   69.05    6.62
   4   8  -7   50.17    6.13
   4  -8  -7   59.99    5.36
   4   8  -7   62.45    5.38
   4  -8  -6  239.78   11.01
  -4   8   6  229.74   11.37
  -4  -8   6  227.74   13.90
   4  -8  -6  214.57   12.55
   4   8  -6  251.49   12.59
  -4  -8   6  239.77   13.19
   4  -8  -5  142.03    7.61
  -4   8   5  144.36    7.62
   4  -8  -5  151.20    9.24
   4   8  -5  138.55    8.30
  -4  -8   5  146.99    9.29
   4  -8  -4  288.38   13.48
  -4   8   4  291.68   13.01
  -4  -8   4  261.52   14.85
   4  -8  -4  288.53   14.86
   4   8  -4  300.10   13.87
  -4  -8   4  292.39   15.06
   4  -8  -3  317.86   14.83
  -4   8   3  317.72   13.88
  -4  -8   3  292.45   16.03
   4   8  -3  330.02   14.73
   4  -8  -3  322.12   16.07
   4  -8  -2  128.65    7.58
  -4   8   2  122.78    6.39
  -4  -8   2  140.67    8.82
   4   8  -2  108.59    9.05
   4   8  -2  140.98    7.19
   4  -8  -2  128.73    8.41
   4  -8  -1  322.11   15.57
  -4   8   1  324.33   13.71
   4   8  -1  313.60   17.44
  -4  -8   1  304.44   16.32
   4   8  -1  333.02   14.49
   4  -8  -1  334.47   16.59
   4  -8   0  122.75    7.90
  -4  -8   0  115.33    8.48
  -4   8   0  130.92    5.93
   4   8   0  150.65    9.71
  -4  -8   0  127.11    8.50
   4  -8   0  119.60    8.50
  -4   8  -1  537.92   23.59
   4  -8   1  476.16   23.43
  -4  -8  -1  524.54   24.20
   4   8   1  558.63   25.48
   4  -8   1  484.19   24.22
  -4   8  -1  564.73   23.47
  -4  -8  -2  109.99    7.74
   4  -8   2  124.27    8.03
   4  -8   2  117.77    5.43
   4   8   2  115.99    8.72
  -4  -8  -2   91.35    7.72
  -4   8  -2  126.44    7.81
  -4  -8  -2  114.14    6.84
  -4   8  -2  126.51    7.81
  -4   8  -3    3.78    1.69
  -4  -8  -3    6.06    2.11
   4   8   3    4.18    2.24
   4  -8   3    4.64    1.89
  -4  -8  -3    3.10    1.99
  -4   8  -3    3.50    1.80
  -4  -8  -3    5.43    1.59
  -4   8  -4   31.95    3.90
  -4  -8  -4   28.10    3.50
   4   8   4   30.20    4.20
   4   8   4   30.30    4.22
   4  -8   4   27.61    4.10
  -4  -8  -4   30.03    3.97
  -4   8  -4   33.20    3.80
  -4  -8  -4   26.63    2.87
   4   8   5   51.64    4.26
  -4   8  -5   52.36    5.30
   4   8   5   60.84    5.66
  -4  -8  -5   45.17    4.61
   4   8   5   63.15    5.94
  -4  -8  -5   54.66    5.37
   4  -8   5   52.25    5.46
  -4  -8  -5   59.81    4.32
  -4   8  -5   44.41    4.71
   4   8   6   44.70    3.91
  -4   8  -6   21.95    3.93
  -4  -8  -6   40.69    4.18
   4   8   6   33.99    4.45
  -4  -8  -6   33.81    4.30
   4   8   6   42.52    4.90
   4  -8   6   28.54    4.53
  -4  -8  -6   32.33    3.27
  -4   8  -6   35.95    4.29
   4   8   7   16.93    2.73
   4   8   7   15.28    3.34
  -4   8  -7   24.37    3.99
  -4  -8  -7   23.11    3.30
  -4  -8  -7   16.58    3.18
   4   8   7   12.71    3.25
   4  -8   7   23.04    3.92
   4   8   7   22.05    3.76
  -4  -8  -7   23.47    2.75
  -4   8  -7   18.83    3.33
   4   8   8   15.75    2.86
  -4  -8  -8   14.29    3.22
  -4   8  -8   21.88    3.91
  -4  -8  -8   22.70    3.33
  -4  -8  -8   16.90    2.58
   4   8   8   17.18    3.47
   4  -8   8   17.44    3.70
   4   8   8   14.26    3.45
  -4   8  -8   17.26    3.33
  -4   8  -9   88.98    8.00
   4   8   9   69.39    5.80
  -4  -8  -9   70.74    6.45
  -4  -8  -9   78.81    6.36
  -4  -8  -9   65.39    7.04
   4   8   9   72.16    6.87
  -4   8  -9   54.33    6.11
  -4  -8  -9   67.14    5.16
  -4  -8 -10    9.83    3.18
  -4  -8 -10   15.17    3.89
  -4  -8 -10   10.73    2.91
  -4   8 -10   11.67    3.44
   4   8  10   11.77    3.15
   4   8  11   32.39    4.88
  -4  -8 -11   30.20    5.12
  -4  -8 -11   34.24    4.59
  -4   8 -11   25.69    4.94
  -4  -8 -12    0.94    2.72
  -4  -8 -12    2.54    2.38
  -4   8 -12    0.94    2.60
   4   8  12    3.00    2.08
  -4  -8 -13   20.73    4.71
  -4   8 -13   16.82    4.27
   4   8  13   14.04    3.80
  -4  -8 -14    1.03    2.85
  -4   8 -14    1.04    3.02
   4   8  14   -0.81    2.15
  -4   8 -15    3.28    3.54
  -4  -8 -15    4.28    3.23
  -4  -9  15    9.57    3.90
  -4  -9  14   77.00    8.59
  -4  -9  13    0.97    2.29
  -4  -9  12   93.99    9.13
  -4   9  11   10.19    2.55
  -4  -9  11   14.08    3.71
   4   9 -10   21.80    3.82
  -4   9  10   25.34    3.37
  -4  -9  10   24.69    4.17
  -4  -9  10   20.99    4.36
   4  -9 -10   21.41    3.55
  -4  -9   9   39.25    5.07
  -4  -9   9   35.06    5.28
   4  -9  -9   40.41    3.13
   4  -9  -9   34.00    4.40
   4   9  -9   42.11    4.79
  -4  -9   8   36.61    4.88
   4  -9  -8   27.98    2.80
  -4   9   8   31.39    3.46
  -4  -9   8   31.15    4.78
   4  -9  -8   37.39    4.49
   4   9  -8   33.40    4.24
  -4  -9   7    6.81    2.61
   4  -9  -7    9.93    1.80
  -4  -9   7   15.19    3.22
   4  -9  -7    7.62    2.44
   4   9  -7   10.63    2.48
   4  -9  -6   43.50    3.60
  -4  -9   6   29.78    4.31
  -4   9   6   44.76    3.71
  -4  -9   6   42.68    5.12
   4   9  -6   43.46    5.68
   4  -9  -6   36.67    4.33
   4   9  -6   42.17    4.24
  -4  -9   5   19.96    3.56
   4   9  -5   29.74    3.36
  -4   9   5   31.18    3.04
   4  -9  -5   28.41    3.04
  -4  -9   5   32.45    4.45
   4   9  -5   23.31    4.24
   4  -9  -5   25.91    3.79
  -4  -9   4    0.54    1.69
  -4   9   4    0.26    1.05
   4  -9  -4    0.70    1.14
  -4  -9   4    0.63    1.76
  -4  -9   4    1.13    1.56
   4  -9  -4    0.53    1.53
   4   9  -4    1.06    1.18
  -4   9   3   42.18    3.26
   4  -9  -3   38.44    3.81
   4  -9  -3   38.85    2.35
  -4  -9   3   40.09    4.83
   4   9  -3   44.99    3.78
   4  -9  -3   39.86    4.53
   4  -9  -2  452.56   20.35
  -4   9   2  449.79   18.66
   4  -9  -2  437.98   18.00
  -4  -9   2  394.97   20.94
  -4  -9   2  407.02   21.15
   4   9  -2  452.49   19.40
   4  -9  -2  463.71   21.53
  -4   9   1   41.66    2.94
   4  -9  -1   37.32    4.05
  -4  -9   1   33.76    4.45
  -4  -9   1   41.59    4.72
   4   9  -1   36.80    3.32
   4  -9  -1   40.42    4.64
   4  -9   0  667.21   29.53
  -4   9   0  656.63   26.79
  -4  -9   0  707.34   30.56
   4  -9   0  678.96   30.59
  -4  -9  -1    4.40    2.48
   4  -9   1    3.95    1.85
   4   9   1    4.06    2.54
  -4   9  -1    5.01    0.82
   4  -9   1    7.71    2.68
  -4   9  -2  567.49   24.87
   4  -9   2  571.90   25.64
   4   9   2  527.42   26.35
  -4  -9  -2  556.83   25.63
  -4   9  -2  558.87   25.02
  -4  -9  -2  517.79   24.08
  -4   9  -3   10.25    2.64
  -4  -9  -3    8.48    2.57
   4   9   3   13.11    3.22
   4  -9   3    7.89    2.70
  -4  -9  -3    9.93    2.80
  -4   9  -3   14.42    2.78
   4   9   3   11.86    3.12
  -4  -9  -3    9.90    2.22
  -4  -9  -4  252.54   13.49
   4  -9   4  255.23   14.23
   4   9   4  243.94   14.35
  -4  -9  -4  260.95   13.93
  -4   9  -4  272.17   13.66
  -4  -9  -4  227.79   12.14
   4   9   4  214.78   13.50
  -4   9  -4  243.96   13.54
  -4   9  -5   11.15    2.82
   4   9   5   13.42    3.19
  -4  -9  -5   16.38    2.98
   4   9   5   16.95    3.57
  -4  -9  -5   11.51    2.89
   4  -9   5   15.26    3.68
  -4   9  -5    9.81    2.68
  -4  -9  -5   15.61    2.37
   4   9   6   82.76    5.97
  -4   9  -6   86.05    7.36
  -4  -9  -6   82.04    6.48
  -4  -9  -6   81.85    5.73
   4   9   6   88.19    7.45
  -4  -9  -6   83.84    6.98
   4  -9   6   83.88    7.51
   4   9   6   72.06    6.90
  -4   9  -6   86.34    6.83
   4   9   7   72.05    5.78
  -4  -9  -7   77.01    6.29
  -4   9  -7   67.62    6.74
  -4  -9  -7   65.12    6.35
  -4  -9  -7   75.50    5.49
   4  -9   7   83.83    7.46
   4   9   7   70.39    6.74
  -4   9  -7   79.23    6.68
  -4  -9  -8   52.89    4.57
   4   9   8   48.24    4.80
  -4   9  -8   52.50    6.07
  -4  -9  -8   58.63    5.79
  -4  -9  -8   50.13    5.16
   4   9   8   53.22    5.86
   4   9   9    7.01    2.21
  -4  -9  -9   16.16    3.40
  -4   9  -9   11.12    3.47
  -4  -9  -9    8.32    3.36
  -4  -9  -9   11.33    2.75
   4   9   9    7.84    2.76
  -4  -9  -9   10.34    2.33
   4   9  10  131.75    8.82
  -4  -9 -10  108.12    7.66
  -4  -9 -10  117.39    8.80
  -4  -9 -10  114.08    9.04
   4   9  10  142.85   10.11
  -4  -9 -10  129.34   10.47
  -4   9 -10  132.86   10.59
  -4  -9 -11   33.17    5.42
  -4  -9 -11   31.64    4.49
  -4   9 -11   19.71    4.33
   4   9  11   26.42    4.60
  -4  -9 -11   17.97    3.26
  -4  -9 -12   64.81    7.73
  -4  -9 -12   55.00    6.07
  -4   9 -12   49.21    6.74
   4   9  12   49.34    6.17
  -4  -9 -13   23.49    4.92
  -4   9 -13   20.97    4.96
   4   9  13   27.62    4.80
  -4  -9 -14    2.13    3.08
  -4   9 -14    5.24    2.91
   4   9  14    2.53    2.82
   4   9  15    3.50    2.84
  -4 -10  14    3.08    3.21
  -4 -10  13    2.95    3.29
  -4 -10  12   20.66    4.42
   4 -10 -12   13.80    3.27
  -4 -10  11    2.68    2.70
   4 -10 -11    2.66    2.29
  -4  10  10    2.25    1.84
  -4 -10  10    0.85    2.47
   4 -10 -10    7.09    2.47
  -4  10   9    0.42    1.45
  -4 -10   9    3.24    2.35
   4 -10  -9    0.62    2.16
   4  10  -9    0.59    1.99
  -4  10   8    5.85    1.86
  -4 -10   8    5.44    2.69
   4 -10  -8    7.91    2.50
   4  10  -8    7.68    2.40
  -4 -10   7    2.04    2.13
   4 -10  -7    3.56    2.17
  -4  10   7    2.92    1.53
  -4 -10   7    2.98    2.33
  -4 -10   7    0.72    2.26
   4  10  -7    4.50    2.05
  -4 -10   6   11.61    2.90
   4 -10  -6   12.06    2.26
  -4  10   6   13.18    2.31
  -4 -10   6   11.49    3.16
  -4 -10   6   13.89    3.22
   4 -10  -6   13.55    3.00
   4  10  -6   13.27    2.61
  -4 -10   5   33.13    4.50
  -4 -10   5   25.73    4.07
   4 -10  -5   24.47    3.22
  -4  10   5   33.66    3.22
  -4 -10   5   27.52    4.16
   4 -10  -5   19.32    3.58
   4  10  -5   28.40    3.44
  -4 -10   4   10.64    2.92
   4 -10  -4    9.86    2.14
  -4  10   4    9.88    1.93
  -4 -10   4   15.84    3.16
  -4 -10   4   10.44    2.77
   4  10  -4   17.75    2.56
   4 -10  -4   13.54    2.95
  -4 -10   3   66.12    5.95
  -4 -10   3   63.16    6.05
  -4  10   3   55.30    4.10
  -4 -10   3   54.57    5.79
   4  10  -3   40.26    5.66
   4 -10  -3   57.70    3.28
   4  10  -3   55.54    4.55
   4 -10  -3   54.88    4.86
   4 -10  -3   57.26    5.74
   4 -10  -2  161.46    9.33
  -4 -10   2  166.39   10.32
  -4  10   2  140.00    7.56
  -4 -10   2  142.65    9.80
   4 -10  -2  138.51    6.99
   4  10  -2  140.28    8.14
   4 -10  -2  152.47   10.08
   4 -10  -1   61.45    5.41
  -4  10   1   60.96    4.04
  -4 -10   1   50.03    5.36
   4 -10  -1   67.39    6.31
  -4 -10   0   -1.19    2.28
   4 -10   0   -0.52    1.63
  -4  10   0    0.20    0.81
   4 -10   0    0.65    1.81
   4 -10   1    3.29    2.06
  -4 -10  -1   -0.59    1.91
  -4  10  -1    2.77    0.82
   4 -10   2  278.51   15.10
   4 -10   2  269.23   11.58
  -4 -10  -2  287.21   15.23
  -4  10  -2  276.65   14.63
  -4  10  -3    9.37    2.52
   4 -10   3    7.38    2.54
  -4 -10  -3    8.83    2.53
  -4  10  -3    8.92    2.46
  -4 -10  -3    7.48    2.07
  -4  10  -4    1.66    1.86
   4 -10   4    3.25    2.43
  -4 -10  -4    0.60    1.93
  -4  10  -4   -0.54    1.96
  -4 -10  -4    0.86    1.44
  -4  10  -5    1.79    1.94
  -4 -10  -5    1.60    1.67
  -4 -10  -5    0.61    1.91
   4 -10   5    4.80    2.69
  -4  10  -5    0.55    2.02
  -4 -10  -5    2.54    1.73
  -4  10  -6   42.18    5.22
   4  10   6   51.25    4.61
  -4 -10  -6   41.43    4.66
  -4 -10  -6   39.62    4.81
   4 -10   6   36.87    5.27
  -4 -10  -6   39.67    4.10
   4  10   7    7.08    2.07
  -4  10  -7    6.28    2.69
  -4 -10  -7    6.08    2.37
  -4 -10  -7    5.71    2.51
  -4 -10  -7    9.40    2.16
   4  10   8   46.76    4.80
  -4  10  -8   52.41    6.04
  -4 -10  -8   52.30    5.68
  -4 -10  -8   54.72    5.53
  -4 -10  -8   51.05    6.60
  -4 -10  -8   55.76    4.99
  -4  10  -9   42.47    5.84
  -4 -10  -9   28.33    4.44
  -4 -10  -9   22.87    3.83
  -4 -10  -9   26.91    4.84
   4  10   9   28.59    4.72
  -4 -10  -9   35.89    3.93
  -4 -10 -10    7.77    2.99
  -4  10 -10   17.90    4.24
  -4 -10 -10   11.83    3.83
  -4 -10 -10   12.05    3.17
   4  10  10    7.76    3.08
  -4 -10 -10   15.22    2.98
  -4 -10 -11   20.99    4.48
  -4  10 -11   18.08    4.45
  -4 -10 -11   18.07    3.72
   4  10  11   13.61    3.60
  -4 -10 -11   15.51    2.99
  -4 -10 -11   13.34    3.87
  -4 -10 -12   -2.00    2.90
  -4  10 -12    6.68    3.29
  -4 -10 -12   -0.71    2.36
   4  10  12   -0.82    2.29
  -4 -10 -12   -0.53    1.82
  -4 -10 -13    1.05    3.04
  -4  10 -13    3.02    3.26
   4  10  13    1.70    2.36
  -4 -10 -13    3.31    2.36
   4  10  14    7.02    3.37
  -4 -11  13   53.22    7.17
   4 -11 -13   50.57    6.22
  -4 -11  12  120.15   10.70
   4 -11 -12  139.99   10.28
  -4 -11  11    0.90    2.50
   4 -11 -11   -0.72    2.54
  -4 -11  10  125.42   10.36
   4 -11 -10  120.37    9.26
  -4 -11   9   11.43    3.58
  -4  11   9   12.61    2.55
  -4 -11   9   15.72    4.01
   4 -11  -9   12.84    3.43
  -4  11   8  194.31   10.75
  -4 -11   8  192.27   13.01
   4 -11  -8  198.84   12.35
   4  11  -8  183.17   11.47
  -4 -11   8  191.33   12.89
  -4  11   7   45.97    4.46
  -4 -11   7   57.61    6.52
  -4 -11   7   45.85    5.97
   4 -11  -7   57.76    6.00
   4  11  -7   54.71    5.35
  -4  11   6  153.98    9.00
  -4 -11   6  160.30   11.25
   4 -11  -6  157.26   10.68
   4  11  -6  159.25    9.71
  -4 -11   6  170.70   11.47
   4 -11  -5    4.49    1.89
  -4  11   5    6.82    2.03
  -4 -11   5    1.42    2.24
  -4 -11   5    7.88    2.88
   4  11  -5    5.38    2.10
   4 -11  -5    8.45    2.73
  -4  11   4   84.98    5.91
  -4 -11   4   95.62    7.92
  -4 -11   4  107.94    8.33
   4  11  -4   93.61    6.53
   4 -11  -4   80.69    7.30
   4 -11  -3   96.80    7.35
  -4 -11   3   98.45    8.20
  -4  11   3  105.41    6.45
  -4 -11   3   98.68    8.23
   4  11  -3  119.49    7.20
   4 -11  -3  106.04    8.38
   4 -11  -2    5.74    2.29
  -4 -11   2    8.32    2.79
  -4  11   2    7.20    1.63
  -4 -11   2    7.19    2.58
   4  11  -2    7.18    1.84
   4 -11  -2   10.29    2.77
   4 -11  -1  178.84   11.01
  -4 -11   1  185.35   11.61
  -4  11   1  187.15    9.25
  -4 -11   1  197.59   12.02
   4 -11  -1  163.52   11.75
  -4 -11   0   43.82    5.21
  -4 -11   0   49.49    5.26
   4 -11   0   46.36    5.07
   4 -11   0   40.90    5.37
   4 -11   1   24.54    4.25
  -4 -11  -1   16.90    3.48
  -4 -11  -1   20.10    3.37
   4 -11   1   22.49    3.75
   4 -11   2   29.88    4.41
  -4 -11  -2   54.88    5.50
   4 -11   3   68.16    6.54
  -4 -11  -3   55.13    5.79
   4 -11   3   59.82    3.80
  -4 -11  -3   55.31    5.20
  -4 -11  -4  105.13    8.26
  -4 -11  -4  100.55    7.38
  -4  11  -4  111.32    8.17
  -4  11  -5   17.54    3.41
  -4 -11  -5   16.79    3.47
   4 -11   5   17.77    3.91
  -4 -11  -5   13.19    2.81
   4  11   6   20.77    3.60
  -4 -11  -6   24.85    4.21
  -4 -11  -6   24.58    3.39
  -4  11  -7   13.52    3.34
  -4 -11  -7   21.82    3.82
  -4 -11  -7   23.39    3.98
  -4  11  -8   76.69    7.55
  -4 -11  -8   86.99    7.12
  -4 -11  -8   68.50    6.92
  -4 -11  -8   72.57    6.12
  -4  11  -9   33.26    5.14
  -4 -11  -9   25.44    4.59
  -4 -11  -9   27.51    4.25
  -4 -11  -9   30.00    5.10
  -4 -11  -9   26.70    3.85
  -4 -11 -10   -2.94    2.54
  -4  11 -10    1.72    2.79
  -4 -11 -10    1.34    2.38
  -4 -11 -10   -0.95    2.85
  -4 -11 -10    1.56    1.80
  -4 -11 -11    1.54    2.49
  -4  11 -11    0.91    2.41
  -4 -11 -11   -3.95    3.31
  -4 -11 -11    1.41    2.04
  -4 -11 -11    1.08    1.86
   4  11  11    3.35    2.72
  -4  11 -12   59.53    7.39
  -4 -11 -12   56.01    7.78
  -4 -11 -12   66.79    7.01
   4  11  12   68.29    7.58
   4  11  13   -0.89    2.69
  -4 -12  12    4.75    3.08
  -4 -12  11   -0.91    2.96
   4 -12 -11    1.54    2.80
  -4 -12  10   24.68    4.98
  -4 -12  10   23.12    4.86
   4 -12 -10   27.68    4.70
  -4 -12   9    5.95    3.19
  -4 -12   9    4.31    2.80
   4 -12  -9    8.80    3.14
  -4 -12   8    4.92    2.92
  -4 -12   8    9.16    3.20
   4 -12  -7   48.02    5.76
  -4 -12   7   48.30    6.19
  -4 -12   7   49.03    6.05
  -4 -12   6   -0.76    2.01
  -4 -12   6    0.78    2.26
   4  12  -6    2.04    1.86
   4 -12  -6   -0.71    2.15
  -4 -12   5   13.93    3.43
  -4 -12   5    6.80    2.85
   4  12  -5    9.60    2.40
   4 -12  -5   10.07    3.03
  -4 -12   4   62.10    6.61
  -4 -12   4   64.37    6.50
   4  12  -4   59.97    5.42
   4 -12  -4   63.98    6.58
   4 -12  -3    1.68    1.87
  -4 -12   3    1.37    2.07
   4  12  -3    1.74    1.63
  -4 -12   3   -0.71    2.30
   4 -12  -3    0.74    2.15
   4 -12  -2    2.92    1.83
  -4 -12   2    2.66    2.16
  -4 -12   2    1.39    2.02
   4  12  -2    3.34    1.56
   4 -12  -2   -0.76    2.01
  -4 -12   1   62.25    6.13
   4 -12  -1   48.27    5.37
  -4 -12   1   50.77    5.83
   4 -12  -1   52.27    6.24
  -4 -12   0   10.83    3.13
  -4 -12   0   16.51    3.43
   4 -12   0   10.25    2.92
   4 -12   0   11.80    3.32
  -4 -12  -1   -0.66    2.01
  -4 -12  -1    0.62    2.32
   4 -12   1    1.34    1.94
  -4 -12  -2   22.34    3.76
   4 -12   2   22.98    3.95
  -4 -12  -2   18.56    3.77
  -4 -12  -3   41.75    4.72
  -4 -12  -3   39.06    4.72
   4 -12   3   41.41    5.41
  -4 -12  -3   38.61    5.15
  -4 -12  -4    0.67    2.25
  -4 -12  -4    2.80    2.10
  -4 -12  -5    6.83    2.86
  -4 -12  -5    4.43    2.37
  -4  12  -6    2.81    2.50
  -4 -12  -6    2.07    2.38
  -4 -12  -6    2.74    1.59
  -4  12  -7   48.75    5.90
  -4 -12  -7   42.87    5.55
  -4 -12  -7   42.45    4.74
  -4  12  -8   84.03    7.93
  -4 -12  -8   75.41    6.58
  -4  12  -9   13.93    3.74
  -4 -12  -9    9.61    3.44
  -4 -12  -9   13.55    3.59
  -4 -12  -9   21.93    4.82
  -4 -12  -9   22.88    3.75
  -4  12 -10   15.63    4.01
  -4 -12 -10   10.70    3.42
  -4 -12 -10   14.18    3.34
  -4 -12 -10   11.83    4.23
  -4 -12 -10   11.44    2.95
  -4 -12 -11   92.52    8.62
  -4  12 -11   94.41    9.17
  -4 -13  10  121.49   10.18
   4 -13 -10  102.48    9.15
  -4 -13   9   58.91    7.19
  -4 -13   9   77.60    8.01
   4 -13  -9   60.63    7.04
  -4 -13   8   82.89    8.29
  -4 -13   8   80.58    7.98
   4 -13  -8   59.92    6.83
   4 -13  -7   29.08    4.96
  -4 -13   7   35.50    5.47
  -4 -13   7   38.99    5.77
  -4 -13   6  172.30   12.08
  -4 -13   6  174.01   12.44
   4 -13  -6  174.32   12.18
  -4 -13   5   13.49    3.74
  -4 -13   5   15.89    3.73
   4 -13  -5   13.47    3.67
  -4 -13   4   -0.77    2.41
  -4 -13   4    2.20    2.37
   4 -13  -4    0.80    2.42
  -4 -13   3    0.71    2.29
  -4 -13   3    1.50    2.18
   4 -13  -3   -0.82    2.57
  -4 -13   2   82.33    7.20
  -4 -13   2   64.23    6.96
   4 -13  -2   67.93    7.52
  -4 -13   1   14.19    3.37
  -4 -13   1   10.18    3.30
   4 -13  -1    6.82    3.21
   4 -13   0   47.94    6.48
  -4 -13   0   63.79    6.71
  -4 -13   0   74.93    6.75
   4 -13   0   64.01    6.66
  -4 -13  -1   11.28    3.46
  -4 -13  -1    7.74    2.83
   4 -13   1   15.37    3.54
  -4 -13  -2  104.90    8.26
  -4 -13  -2  102.58    8.61
  -4 -13  -3    3.80    2.12
  -4 -13  -3    4.23    2.44
  -4 -13  -4   39.29    4.85
  -4 -13  -4   30.62    4.78
  -4 -13  -4   30.36    4.30
  -4 -13  -5    0.64    2.14
  -4 -13  -5    2.16    2.41
  -4 -13  -5    4.98    2.44
  -4 -13  -6   66.71    6.57
  -4 -13  -6   77.68    7.38
  -4 -13  -6   81.54    7.01
  -4 -13  -7   -1.48    2.76
  -4  13  -8   23.68    4.77
  -4 -13  -8   21.79    4.31
  -4 -13  -8   25.00    4.02
  -4  13  -9    2.57    2.68
  -4 -13  -9    3.86    2.89
  -4 -14   8   19.61    4.52
  -4 -14   7   10.72    3.68
  -4 -14   7   17.74    4.41
   4 -14  -7   10.32    3.48
  -4 -14   6   -0.86    2.68
  -4 -14   6   -0.80    2.60
   4 -14  -6    0.86    2.50
  -4 -14   5    4.99    3.13
  -4 -14   5    6.22    3.06
  -4 -14   4   15.81    3.87
  -4 -14   4   12.99    3.76
   4 -14  -4   13.32    4.17
  -4 -14   3   67.56    6.87
  -4 -14   3   53.97    6.38
   4 -14  -3   48.73    6.71
   4 -14  -2   34.15    5.71
  -4 -14   2   30.86    4.82
  -4 -14   2   37.48    5.54
  -4 -14   1   70.69    7.19
  -4 -14   1   57.15    6.34
   4 -14  -1   49.93    7.02
  -4 -14   0   39.96    5.39
  -4 -14   0   29.56    4.56
  -4 -14  -1    0.67    1.95
  -4 -14  -1   -1.49    2.86
  -4 -14  -2    4.02    2.75
  -4 -14  -2    2.97    2.64
  -4 -14  -3    0.67    2.30
  -4 -14  -3   -0.75    2.42
  -4 -14  -4   -0.68    2.47
  -4 -14  -4    2.01    2.31
  -4 -14  -4   -0.75    2.59
  -4 -14  -5    0.67    2.10
  -4 -14  -5    3.78    2.83
  -4 -14  -5    4.10    2.49
  -4 -14  -6    6.10    3.00
  -4 -14  -7    0.77    2.42
  -4 -15   4   95.13    8.81
  -4 -15   3   40.91    5.86
   4 -15  -3   36.73    6.22
  -4 -15   2   27.06    5.01
  -4 -15   2   35.75    5.25
   4 -15  -2   21.90    5.50
  -4 -15   1  173.42   12.08
  -4 -15   1  202.53   13.16
   4 -15  -1  162.30   13.19
  -4 -15   0   46.71    6.39
  -4 -15   0   53.22    6.14
  -4 -15  -1   70.75    7.37
  -4 -15  -2    1.57    3.00
  -4 -15  -3  141.95   10.76
  -4 -15  -4    6.31    3.24
  -5   0  18   -1.27    3.20
  -5   0  17   -1.21    4.42
  -5   0  16    2.30    3.33
  -5   0  15    1.09    2.88
  -5   0  14   78.96    8.67
  -5   0  13   -1.93    2.55
  -5   0  12   95.82    8.72
  -5   0  12   74.69    4.13
  -5   0  11   -0.84    2.64
  -5   0  10   24.25    4.44
  -5   0   9   -0.72    2.00
  -5   0   9   -0.08    0.40
  -5   0   8 1981.59   81.23
  -5   0   7    0.41    0.43
  -5   0   7    0.61    1.84
  -5   0   7    0.97    1.13
  -5   0   6  805.32   31.78
  -5   0   6  851.20   35.98
  -5   0   6  794.82   31.70
  -5   0   6  847.05   32.99
  -5   0   6  825.11   33.92
  -5   0   5   -0.12    0.48
  -5   0   5    0.68    0.63
   5   0  -5    0.91    1.57
  -5   0   5   -0.32    1.42
  -5   0   5    0.51    1.64
  -5   0   5    0.91    1.13
  -5   0   4 1376.99   56.14
  -5   0   4 1375.87   53.34
   5   0  -4 1378.44   55.82
  -5   0   4 1344.23   54.55
  -5   0   3   -0.21    0.81
  -5   0   3   -2.49    1.51
  -5   0   3    0.86    1.13
   5   0  -3   -0.40    1.55
  -5   0   2  364.84   17.58
  -5   0   2  388.96   16.60
  -5   0   2  375.25   16.90
   5   0  -2  365.41   17.49
   5   0  -2  387.11   15.40
  -5   0   1    0.32    1.01
   5   0  -1   -0.35    0.97
  -5   0   1    0.56    1.07
  -5   0   1    1.12    0.88
  -5   0   0  523.48   21.78
  -5   0   0  489.58   21.65
  -5   0   0  482.94   21.89
   5   0   0  494.70   22.00
   5   0   0  510.42   21.69
   5   0   0  524.45   21.84
  -5   0  -1   -0.25    1.10
  -5   0  -1   -0.29    1.01
   5   0   1    1.20    0.90
   5   0   1   -0.31    1.28
   5   0   1   -0.30    1.20
  -5   0  -1    1.45    1.25
  -5   0  -2  760.60   30.47
  -5   0  -2  736.32   31.07
  -5   0  -2  734.68   31.99
   5   0   2  756.40   31.03
   5   0   2  731.68   31.27
   5   0   2  756.24   31.16
  -5   0  -3    0.33    1.25
  -5   0  -3    0.83    0.92
   5   0   3   -0.28    1.11
   5   0   3    0.32    1.17
  -5   0  -3    0.45    1.41
  -5   0  -4  693.40   28.26
  -5   0  -4  724.52   29.66
   5   0   4  693.90   28.91
  -5   0  -4  671.27   30.65
   5   0   4  698.44   29.46
  -5   0  -4  693.07   27.33
   5   0   5    0.71    1.33
  -5   0  -5   -0.21    1.08
   5   0   5   -0.83    1.13
  -5   0  -5   -1.08    1.76
  -5   0  -5    0.17    0.73
  -5   0  -6  283.74   12.66
   5   0   6  296.45   14.76
   5   0   6  276.32   13.09
  -5   0  -6  261.54   15.14
   5   0   6  275.77   13.84
  -5   0  -7   -0.28    1.09
  -5   0  -7   -1.52    1.27
   5   0   7    0.51    2.01
   5   0   7   -0.58    1.17
  -5   0  -7   -1.28    2.00
   5   0   7   -0.81    1.56
  -5   0  -8   -0.33    1.47
   5   0   8    1.65    2.20
   5   0   8   -0.31    1.53
   5   0   8    0.87    1.67
  -5   0  -8    0.69    2.16
  -5   0  -9    1.12    1.53
   5   0   9    1.76    2.02
   5   0   9   -0.32    1.29
   5   0   9   -3.26    1.78
  -5   0  -9    0.74    2.32
  -5   0 -10   18.52    2.97
   5   0  10   16.86    3.46
   5   0  10   20.49    2.70
   5   0  10   17.42    3.30
  -5   0 -10   18.21    4.09
  -5   0 -11    0.47    1.52
   5   0  11   -1.09    1.61
   5   0  11   -0.53    1.98
  -5   0 -11    0.84    2.55
  -5   0 -12    5.18    2.26
   5   0  12    6.58    1.82
  -5   0 -12    4.50    2.72
  -5   0 -13    0.57    1.89
   5   0  13    0.41    1.65
  -5   0 -13   -0.96    2.66
  -5   0 -14    3.07    2.30
  -5   0 -14    4.08    3.08
  -5   0 -15    1.98    2.28
  -5   0 -15    1.08    2.85
  -5   0 -16   42.25    5.35
  -5   0 -17   -2.24    2.58
   5   1 -19   24.70    5.35
   5   1 -18   74.57    8.11
  -5   1  18   58.18    8.58
   5   1 -17    5.91    2.83
  -5  -1  17   -2.44    3.23
  -5   1  17    2.40    3.48
   5   1 -16  202.24   13.10
  -5  -1  16  170.22   14.21
  -5   1  16  167.48   14.20
   5   1 -15    0.74    2.46
  -5  -1  15   -3.29    2.90
  -5   1  15    1.08    2.21
   5   1 -14   33.41    4.68
  -5  -1  14   20.64    4.52
  -5   1  14   28.41    5.33
   5   1 -13   84.79    7.32
  -5  -1  13   94.00    9.17
  -5   1  13   87.68    8.82
   5   1 -12   13.22    2.95
  -5   1  12   17.83    4.26
  -5  -1  12   14.90    1.99
   5   1 -11    1.57    1.63
  -5  -1  11   -0.23    0.89
  -5  -1  11   -1.70    2.56
  -5   1  11   -0.83    2.41
   5   1 -10   13.62    2.65
  -5   1  10   16.21    3.53
  -5  -1  10   16.70    1.96
  -5  -1  10   22.88    4.27
   5   1  -9  139.15    8.22
  -5  -1   9  127.30    6.54
  -5  -1   9  138.61   10.07
  -5   1   9  109.41    9.13
   5   1  -8  146.34    8.71
  -5  -1   8  158.03    7.64
  -5   1   8  159.85    7.70
  -5  -1   8  167.57   11.06
  -5   1   8  161.16   10.74
  -5  -1   7   17.80    1.90
  -5  -1   7   24.38    3.84
  -5   1   7   24.48    3.81
  -5   1   7   16.58    1.79
  -5  -1   7   21.24    2.47
  -5  -1   6  323.62   17.35
  -5   1   6  328.76   17.10
  -5   1   6  335.08   14.26
   5   1  -6  341.05   17.09
  -5  -1   6  344.18   15.24
  -5   1   6  313.17   15.14
  -5  -1   6  349.51   14.34
  -5  -1   6  327.97   15.86
  -5  -1   5   24.88    2.98
  -5  -1   5   34.55    4.15
  -5   1   5   36.02    4.00
  -5  -1   5   35.67    3.15
   5   1  -5   28.46    3.77
  -5  -1   5   34.73    2.47
  -5   1   5   28.94    2.88
  -5   1   4  868.64   34.16
  -5   1   4  819.06   32.56
  -5  -1   4  892.90   36.25
  -5   1   4  817.56   35.48
   5   1  -4  841.84   35.77
  -5  -1   4  838.40   34.11
  -5  -1   4  771.03   34.59
  -5   1   4  836.69   33.96
  -5  -1   4  842.91   33.45
  -5   1   3   68.71    4.30
  -5   1   3   72.46    3.92
  -5  -1   3   60.38    5.21
  -5   1   3   72.03    5.24
   5   1  -3   61.04    5.18
  -5   1   3   64.40    4.29
  -5  -1   3   56.23    4.55
   5  -1  -3   63.56    4.83
  -5  -1   3   62.77    4.17
   5  -1  -3   65.14    3.81
  -5   1   2   58.66    3.65
  -5   1   2   62.45    3.84
  -5  -1   2   56.63    4.78
  -5   1   2   61.52    4.53
  -5   1   2   54.24    3.83
   5   1  -2   58.82    4.86
  -5  -1   2   50.50    4.13
   5  -1  -2   51.79    4.23
  -5  -1   2   59.68    4.08
   5   1  -2   54.62    2.73
   5  -1  -2   54.49    3.28
  -5   1   1    8.80    1.23
  -5  -1   1    7.96    1.68
  -5  -1   1    7.59    1.64
  -5  -1   1    8.17    1.76
  -5   1   1    9.51    1.62
  -5   1   1    9.71    1.55
   5   1  -1    7.40    1.90
  -5   1   1    9.33    1.60
   5  -1  -1    8.40    1.41
   5  -1  -1    9.07    1.80
   5  -1  -1   10.60    1.22
   5   1   0    2.60    1.38
  -5  -1   0    6.48    1.70
  -5   1   0    6.10    1.32
  -5  -1   0    3.56    1.26
  -5   1   0    5.65    1.33
   5   1   0    8.44    1.83
   5  -1   0    3.47    1.17
   5   1   0    6.30    1.55
   5  -1   0    5.61    1.46
   5  -1   0    7.79    1.44
  -5  -1   0    3.52    1.38
  -5   1   0    6.56    1.60
  -5  -1  -1   14.12    2.28
   5   1   1   16.69    2.43
  -5   1  -1   15.60    1.99
  -5   1  -1   14.38    1.76
  -5  -1  -1   12.88    1.94
   5  -1   1   12.31    1.90
   5   1   1   10.55    1.97
  -5  -1  -1   13.86    2.17
   5  -1   1   17.87    2.14
   5   1   1   12.95    2.24
  -5   1  -1   16.15    2.35
   5  -1   1   16.45    2.04
  -5   1  -2   10.55    2.18
  -5  -1  -2    6.72    1.92
  -5   1  -2    8.74    1.64
   5   1   2    8.54    1.86
  -5  -1  -2    7.81    1.55
  -5  -1  -2    6.80    1.72
   5   1   2   11.21    1.94
   5  -1   2    7.06    1.45
   5   1   2    7.00    1.74
   5  -1   2   11.22    1.81
  -5  -1  -3    3.66    1.63
  -5   1  -3    1.20    1.13
   5  -1   3    5.06    1.74
  -5  -1  -3    3.55    1.49
  -5   1  -3    3.91    0.95
  -5  -1  -3    4.82    1.22
   5  -1   3    1.46    1.18
   5   1   3    3.29    1.46
   5  -1   3    2.81    1.06
   5   1   3    3.75    1.60
  -5   1  -3    2.26    1.52
   5   1   3    1.76    1.29
  -5   1  -3    5.11    0.84
  -5   1  -4  431.98   17.65
  -5  -1  -4  430.74   18.41
  -5  -1  -4  402.28   19.31
  -5   1  -4  444.31   20.59
   5   1   4  436.05   19.18
   5  -1   4  423.63   18.26
  -5  -1  -4  423.33   20.44
   5  -1   4  442.80   19.05
   5   1   4  438.67   19.57
   5   1   4  424.58   19.75
   5  -1   4  449.10   19.83
  -5  -1  -4  409.82   16.65
  -5   1  -4  449.17   17.63
  -5  -1  -5   16.41    2.61
  -5  -1  -5   13.29    1.37
  -5   1  -5   18.51    1.81
   5  -1   5   13.51    2.53
  -5  -1  -5   15.51    2.05
   5   1   5   13.52    2.46
   5   1   5   12.53    2.15
   5  -1   5   16.48    1.95
  -5   1  -5   14.75    2.98
  -5  -1  -5    8.68    2.58
  -5   1  -5   13.36    1.68
   5  -1   5   15.31    2.42
  -5  -1  -5   14.40    1.43
  -5  -1  -6  328.52   13.91
  -5   1  -6  325.86   13.96
  -5  -1  -6  327.30   14.66
  -5   1  -6  312.29   17.02
   5   1   6  313.05   15.07
   5  -1   6  324.02   14.30
  -5  -1  -6  331.43   17.25
   5  -1   6  319.46   15.30
   5   1   6  298.36   15.48
  -5   1  -6  325.33   14.45
   5  -1   6  314.33   16.13
  -5  -1  -7   30.38    2.67
  -5  -1  -7   27.02    2.78
   5  -1   7   19.55    3.24
   5   1   7   18.14    2.68
   5  -1   7   25.75    2.58
  -5   1  -7   24.46    3.95
   5  -1   7   26.02    3.15
  -5  -1  -7   19.82    3.74
   5   1   7   25.71    3.41
  -5  -1  -8  310.20   15.08
  -5   1  -8  358.57   18.38
   5   1   8  335.67   15.53
   5  -1   8  308.49   14.66
  -5  -1  -8  319.56   17.90
   5  -1   8  345.08   16.28
   5   1   8  333.19   16.40
   5  -1   8  342.22   17.27
  -5  -1  -8  332.99   15.01
  -5  -1  -9   96.16    6.08
   5  -1   9   93.63    5.70
   5   1   9   91.07    6.23
  -5  -1  -9   87.69    7.88
   5  -1   9   91.32    6.71
   5   1   9   99.90    7.11
  -5   1  -9   80.63    7.82
   5  -1   9   83.52    7.23
  -5  -1 -10   10.14    2.18
   5  -1  10   20.22    3.86
   5  -1  10   18.09    2.47
   5   1  10   16.86    2.68
   5  -1  10   18.35    3.16
  -5   1 -10   23.23    4.28
   5   1  10   21.53    3.59
  -5  -1 -10   12.63    3.42
  -5  -1 -11    1.75    1.51
   5  -1  11    1.63    1.28
   5   1  11    3.61    1.58
   5  -1  11    4.63    2.24
  -5   1 -11    7.73    3.21
   5   1  11    2.72    1.88
  -5  -1 -11    1.69    2.35
  -5   1 -12   47.46    4.96
  -5  -1 -12   52.40    5.17
   5  -1  12   47.19    4.23
   5   1  12   53.65    4.74
  -5   1 -12   61.28    7.18
  -5  -1 -12   40.41    6.07
  -5   1 -13    0.59    1.93
  -5  -1 -13    3.72    2.22
   5   1  13    3.15    1.99
  -5   1 -13    1.94    2.30
  -5  -1 -13    5.71    3.09
  -5   1 -14    0.64    2.01
  -5  -1 -14   -0.58    1.87
   5   1  14    0.48    1.59
  -5   1 -14   -1.03    2.84
  -5  -1 -14    2.02    2.80
  -5   1 -15    1.39    2.17
  -5  -1 -15   -1.25    1.95
  -5   1 -15   -1.08    2.56
  -5   1 -16   28.93    4.79
  -5  -1 -16   34.08    4.76
  -5   1 -16   29.62    5.76
  -5   1 -17   -0.79    2.64
   5   2 -19   13.32    4.09
   5   2 -18  106.07   10.02
  -5   2  18  120.50   11.93
   5   2 -17   -0.85    2.36
  -5  -2  17   -2.44    3.23
  -5   2  17    3.57    3.73
   5   2 -16  117.98    9.76
  -5   2  16   97.13   10.48
   5   2 -15   51.55    6.12
  -5  -2  15   59.16    7.78
  -5   2  15   56.52    7.54
   5   2 -14   77.79    7.19
  -5  -2  14   91.08    9.03
  -5   2  14   62.26    7.73
   5   2 -13   43.03    5.02
  -5  -2  13   43.85    6.19
  -5   2  13   35.83    5.79
   5   2 -12  187.63   11.43
  -5  -2  12  169.47    9.36
  -5  -2  12  182.95   13.17
  -5   2  12  192.36   13.19
   5   2 -11   48.27    4.88
  -5  -2  11   39.43    3.63
  -5  -2  11   44.53    5.96
  -5   2  11   46.79    5.77
   5   2 -10  154.60    9.49
  -5  -2  10  149.47    8.13
  -5  -2  10  151.19   11.23
  -5   2  10  155.94   11.16
   5   2  -9    9.45    2.12
  -5  -2   9    9.03    1.78
  -5  -2   9   19.37    3.87
  -5   2   9   16.67    1.62
  -5   2   9    9.82    2.79
   5   2  -8  105.21    6.61
  -5  -2   8  101.51    5.92
  -5  -2   8   99.21    8.18
  -5   2   8   95.81    7.86
  -5   2   8   94.23    4.80
  -5   2   7    3.93    1.72
   5   2  -7    3.56    1.36
  -5   2   7    3.91    0.82
  -5  -2   7    4.76    1.30
  -5   2   7    0.59    1.63
  -5  -2   7    1.94    2.24
   5   2  -7    5.87    2.20
  -5   2   6  197.96   10.73
   5   2  -6  197.34    9.74
  -5  -2   6  214.18   12.35
  -5   2   6  183.86   11.25
   5   2  -6  201.60   11.82
  -5  -2   6  184.75   10.08
  -5   2   6  197.01    9.58
  -5  -2   6  198.58    9.42
  -5  -2   6  191.89   10.69
  -5  -2   5    0.88    0.83
  -5   2   5    0.35    1.28
   5   2  -5    0.22    0.81
  -5   2   5    0.46    0.86
  -5  -2   5   -0.40    1.38
  -5  -2   5   -0.56    1.62
  -5   2   5    0.47    1.57
  -5  -2   5    1.29    1.01
   5   2  -5    0.53    1.66
  -5   2   4   16.42    2.22
  -5  -2   4   19.43    3.07
  -5  -2   4   13.14    2.31
  -5   2   4   12.28    1.68
  -5   2   4   13.64    2.48
  -5  -2   4   16.00    2.28
   5   2  -4   17.70    2.98
  -5  -2   3    4.08    1.55
  -5   2   3    1.61    1.06
  -5   2   3    3.31    0.91
  -5   2   3    3.63    0.78
  -5  -2   3    2.91    1.35
  -5  -2   3    0.47    1.37
  -5   2   3    0.36    1.28
   5   2  -3    1.44    1.56
   5  -2  -3    1.04    0.78
  -5   2   2   69.29    4.50
  -5   2   2   75.28    4.33
  -5  -2   2   78.81    5.81
  -5   2   2   71.11    4.94
  -5   2   2   79.25    4.36
   5   2  -2   82.62    6.03
  -5  -2   2   68.49    5.18
   5  -2  -2   66.96    4.23
  -5  -2   1    3.63    1.29
  -5  -2   1    0.72    1.20
  -5   2   1    0.77    0.79
  -5  -2   1    0.39    0.93
  -5   2   1    0.26    0.89
  -5   2   1    2.30    1.05
   5   2  -1    1.72    1.44
   5  -2  -1    0.78    0.78
   5  -2  -1    1.75    0.86
  -5  -2   0    3.61    1.39
  -5   2   0    1.83    0.80
  -5  -2   0    1.08    1.17
  -5   2   0    1.43    0.75
  -5   2   0    3.10    1.19
   5   2   0    3.68    1.64
   5  -2   0    3.10    1.03
   5   2   0    2.45    1.31
   5  -2   0    2.51    0.96
   5  -2   0    1.50    0.86
  -5  -2   0    2.86    1.34
   5  -2   0    3.20    0.93
  -5   2  -1    1.78    0.84
  -5  -2  -1    1.59    1.20
   5  -2   1    3.41    1.17
  -5   2  -1    1.94    0.81
  -5  -2  -1    1.33    1.37
   5  -2   1    2.73    1.03
   5   2   1    2.22    1.38
  -5   2  -1    4.68    1.57
   5   2   1    4.75    1.69
  -5  -2  -1    3.63    1.55
   5   2   1    1.46    1.23
   5  -2   1    1.84    0.79
  -5   2  -2  101.73    4.92
  -5  -2  -2  100.64    6.18
  -5   2  -2   99.59    6.76
   5   2   2   90.79    6.43
  -5  -2  -2   98.62    6.53
   5  -2   2   98.88    5.29
  -5  -2  -2   95.66    6.82
   5  -2   2  103.33    5.75
   5   2   2   89.90    6.33
   5  -2   2   99.57    6.26
   5   2   2   99.75    6.56
   5   2   3   -1.92    1.33
  -5  -2  -3    2.87    1.44
   5   2   3   -0.40    1.50
   5  -2   3    1.83    1.26
  -5   2  -3   -0.23    0.50
   5  -2   3   -0.26    0.96
  -5  -2  -3   -0.30    1.16
  -5  -2  -3    1.16    1.21
   5  -2   3    0.53    0.69
   5   2   3    1.12    1.40
  -5   2  -3    0.46    1.21
  -5   2  -3   -0.35    0.67
  -5  -2  -4   48.99    4.77
   5   2   4   38.23    4.05
  -5   2  -4   46.03    2.62
   5  -2   4   35.00    3.80
  -5  -2  -4   44.03    3.56
  -5  -2  -4   38.65    3.93
   5  -2   4   40.39    2.86
   5   2   4   44.26    4.03
   5  -2   4   39.57    3.48
  -5   2  -4   49.35    4.82
   5   2   4   41.71    3.97
  -5   2  -4   48.21    3.19
  -5  -2  -5   11.76    2.67
   5  -2   5    6.26    2.01
  -5  -2  -5    6.37    2.04
  -5  -2  -5   11.38    1.98
   5   2   5    7.88    2.08
   5   2   5    8.06    1.84
   5  -2   5   10.67    1.45
  -5   2  -5    6.70    2.26
   5   2   5    8.17    2.00
   5  -2   5    7.48    1.91
  -5   2  -5   10.77    1.62
  -5  -2  -6  239.23   11.66
  -5   2  -6  227.16   13.69
  -5  -2  -6  231.78   12.74
   5   2   6  257.20   12.44
   5  -2   6  239.69   10.77
   5  -2   6  234.65   11.97
  -5  -2  -6  228.97   13.62
   5   2   6  238.89   12.73
   5  -2   6  247.28   13.22
  -5   2  -6  249.91   11.69
   5   2   7    0.91    1.86
   5  -2   7    1.58    1.93
  -5  -2  -7    2.52    1.42
   5   2   7   -0.38    1.46
   5  -2   7    2.41    1.04
   5  -2   7    1.49    1.71
  -5   2  -7    3.96    2.34
  -5  -2  -7    0.64    1.70
  -5   2  -7    1.00    1.31
  -5  -2  -8  273.44   13.51
  -5   2  -8  265.71   16.00
   5   2   8  290.29   13.97
   5  -2   8  285.02   12.56
   5  -2   8  296.87   14.26
  -5  -2  -8  269.34   15.89
   5   2   8  271.16   14.49
   5  -2   8  263.99   14.99
  -5  -2  -9    1.90    1.43
   5  -2   9    2.43    2.22
  -5  -2  -9    2.60    1.59
   5  -2   9    1.43    1.15
   5   2   9    3.65    1.89
   5  -2   9    3.93    2.07
  -5   2  -9    4.57    2.63
  -5  -2  -9    3.72    2.49
   5   2   9    1.51    2.06
  -5  -2 -10  298.09   14.57
  -5   2 -10  283.57   17.41
   5  -2  10  312.91   13.77
   5   2  10  301.88   15.00
  -5  -2 -10  282.99   17.20
   5  -2  10  295.12   15.30
   5   2  10  288.81   15.73
   5  -2  10  310.79   16.81
  -5  -2 -11    6.21    1.98
   5  -2  11    8.60    1.85
   5  -2  11   11.59    2.78
   5   2  11    8.42    2.31
  -5   2 -11    9.55    3.42
  -5  -2 -11    5.08    3.48
  -5  -2 -12   30.52    3.65
   5  -2  12   27.44    4.13
   5   2  12   29.76    3.77
  -5   2 -12   30.45    5.29
  -5  -2 -12   27.94    5.01
  -5  -2 -13    1.53    1.86
   5   2  13    1.47    1.58
  -5   2 -13   -0.98    2.71
  -5  -2 -13    0.96    2.90
  -5  -2 -14   74.32    6.46
  -5   2 -14   81.75    7.34
   5   2  14   69.18    6.24
  -5   2 -14   74.36    8.31
  -5   2 -15   27.57    4.70
  -5  -2 -15   26.70    4.00
  -5   2 -15   28.26    5.84
  -5   2 -16    0.77    2.59
  -5  -2 -16    0.65    1.90
  -5   2 -16    1.14    2.86
  -5   2 -17    9.06    3.18
  -5   2 -18   27.07    5.27
   5   3 -19    3.85    3.23
   5   3 -17   18.24    4.29
  -5  -3  17   17.08    4.73
  -5   3  17   17.70    4.78
  -5  -3  16   96.30   10.37
  -5   3  16  117.40   10.88
   5   3 -15   -0.77    2.65
  -5  -3  15    2.20    2.76
  -5   3  15    2.11    2.92
   5   3 -14   13.62    3.42
  -5  -3  14    6.24    3.16
  -5   3  14   12.91    4.00
   5   3 -13    1.99    2.22
  -5  -3  13    2.94    2.32
  -5   3  13    0.93    2.70
   5   3 -12  289.31   15.65
  -5  -3  12  258.76   13.81
  -5  -3  12  311.81   18.09
  -5   3  12  292.27   17.37
   5   3 -11   12.36    2.84
  -5   3  11    8.10    3.05
  -5  -3  11    9.52    2.12
  -5  -3  11    8.65    3.17
   5   3 -10  288.31   14.81
  -5  -3  10  292.61   13.77
  -5  -3  10  282.78   16.76
  -5   3  10  276.79   16.35
  -5   3  10  268.97   11.45
  -5   3   9   97.33    7.34
   5   3  -9  116.59    7.21
  -5  -3   9  103.00    6.25
  -5  -3   9  102.19    8.51
  -5   3   9   90.48    7.82
  -5   3   9   79.78    3.87
   5   3  -9  103.32    8.29
  -5  -3   8  291.33   14.20
  -5   3   8  306.43   15.76
   5   3  -8  308.14   14.92
  -5  -3   8  318.32   17.43
  -5   3   8  298.96   16.47
   5   3  -8  299.60   16.76
  -5   3   7    0.93    1.56
   5   3  -7    0.35    1.23
  -5  -3   7    0.30    1.14
  -5  -3   7    0.67    1.68
  -5   3   7    1.15    1.66
   5   3  -7   -0.63    1.89
  -5   3   6  402.36   18.57
   5   3  -6  411.28   17.52
  -5  -3   6  405.09   20.16
  -5   3   6  359.47   18.93
   5   3  -6  377.04   19.67
  -5  -3   6  394.11   18.12
  -5   3   6  391.03   16.59
  -5  -3   6  398.80   17.31
  -5  -3   6  356.48   18.40
   5   3  -5  181.39    9.13
  -5   3   5  188.59   10.30
  -5  -3   5  178.75   11.48
  -5  -3   5  191.63   10.21
  -5   3   5  193.93   10.89
   5   3  -5  196.80   11.77
  -5   3   5  197.73    8.74
  -5  -3   5  192.42   10.69
  -5  -3   5  182.63    9.40
   5   3  -4   76.48    4.35
  -5   3   4   76.04    5.39
  -5  -3   4   82.20    6.50
  -5   3   4   80.58    5.81
  -5   3   4   80.18    4.22
   5   3  -4   78.29    6.45
  -5  -3   4   76.45    5.47
   5  -3  -4   74.66    4.88
  -5  -3   4   78.89    5.84
   5   3  -3    0.12    0.51
  -5  -3   3    2.46    1.42
  -5   3   3    0.32    0.40
  -5  -3   3   -0.50    1.56
  -5   3   3    1.11    0.65
  -5   3   3    0.34    1.06
  -5  -3   3    0.36    1.29
   5   3  -3    0.52    1.74
   5  -3  -3   -0.25    1.04
  -5   3   2  119.69    5.93
  -5  -3   2  117.16    7.75
  -5   3   2  121.13    5.58
   5  -3  -2  101.00    6.13
  -5   3   2  117.98    6.66
   5   3  -2  111.82    7.80
  -5  -3   2  111.75    7.28
  -5  -3   2  112.11    7.19
  -5   3   1    6.19    0.99
   5  -3  -1    7.70    1.34
  -5  -3   1    5.16    1.83
  -5   3   1    4.49    1.20
  -5  -3   1    9.85    2.19
   5  -3  -1    6.75    1.16
  -5   3   1    3.55    1.10
   5   3  -1    4.24    1.69
   5  -3  -1    7.10    1.45
  -5  -3   0   25.94    3.16
   5  -3   0   29.70    2.77
  -5  -3   0   30.53    3.35
  -5   3   0   28.50    2.21
  -5   3   0   26.32    2.83
  -5  -3   0   31.73    3.46
   5   3   0   33.71    3.76
   5  -3   0   30.17    2.47
   5  -3   0   28.88    2.73
   5  -3   0   27.89    2.29
   5   3   1    0.82    1.23
   5  -3   1    4.71    1.38
  -5  -3  -1    5.94    2.01
  -5   3  -1    2.94    0.71
   5  -3   1    2.71    1.06
  -5  -3  -1    1.48    1.24
  -5   3  -1    1.08    1.24
   5   3   1    2.66    1.58
   5   3   1    2.82    1.58
  -5  -3  -1    1.99    1.45
  -5   3  -2  282.83   11.43
  -5   3  -2  277.78   14.24
  -5  -3  -2  278.68   13.82
   5   3   2  285.96   14.45
  -5  -3  -2  295.11   14.39
   5  -3   2  290.79   12.74
   5  -3   2  283.18   13.80
   5   3   2  290.15   14.38
  -5  -3  -2  275.62   14.49
   5   3   2  299.47   14.48
   5  -3   3    3.05    1.63
  -5  -3  -3    4.47    1.61
   5  -3   3    2.61    1.25
  -5   3  -3    3.49    0.51
   5   3   3    3.37    1.73
  -5  -3  -3    4.71    1.60
  -5  -3  -3    5.88    1.83
  -5   3  -3    5.12    1.99
   5   3   3    4.64    1.81
   5   3   3    4.76    1.74
  -5   3  -3    4.21    1.21
   5  -3   4    2.12    1.70
  -5  -3  -4    1.08    1.62
  -5  -3  -4    2.90    1.38
  -5  -3  -4    2.17    1.62
  -5   3  -4    0.52    1.50
   5   3   4    2.47    1.62
   5   3   4    0.45    1.47
   5  -3   4    1.35    0.46
   5  -3   4    1.84    1.05
  -5   3  -4    0.98    0.87
   5   3   4   -0.43    1.44
  -5  -3  -5    5.23    2.01
   5  -3   5    0.46    1.55
  -5  -3  -5    2.26    1.47
  -5  -3  -5    2.90    1.32
   5   3   5    4.52    1.82
  -5   3  -5    2.84    1.96
   5   3   5    3.56    1.83
   5  -3   5    2.05    1.20
   5   3   5    0.95    1.44
  -5   3  -5    2.79    1.21
  -5  -3  -6   88.41    5.59
  -5   3  -6   84.11    7.03
  -5  -3  -6   75.24    6.08
   5   3   6   76.49    5.95
   5  -3   6   76.66    3.99
   5  -3   6   80.60    5.47
  -5  -3  -6   75.15    6.89
   5  -3   6   76.78    6.32
   5   3   6   73.78    6.03
   5   3   6   87.46    6.57
  -5   3  -6   73.15    5.19
  -5  -3  -7    0.67    1.93
  -5  -3  -7    2.52    1.69
   5  -3   7   -0.55    1.88
  -5  -3  -7    2.08    1.45
   5   3   7    3.39    2.10
   5   3   7    4.67    1.94
   5  -3   7    1.79    1.37
  -5   3  -7    2.01    2.02
   5   3   7    1.60    1.89
  -5   3  -7    0.74    1.38
   5  -3   8    4.09    2.25
   5   3   8    4.02    1.94
  -5  -3  -8    5.96    1.98
   5  -3   8    8.22    2.23
   5   3   8    4.79    2.04
   5  -3   8    4.23    1.05
  -5   3  -8    6.49    2.57
  -5  -3  -8    8.47    3.02
  -5   3  -8    2.46    1.69
  -5   3  -9   10.76    2.62
   5   3   9   20.50    3.21
   5  -3   9   16.90    3.63
  -5  -3  -9   10.43    2.36
   5  -3   9   20.02    2.94
   5  -3   9   14.95    1.84
   5   3   9    9.00    2.28
  -5   3  -9   12.37    3.34
  -5  -3  -9   11.28    3.12
   5  -3  10   37.99    5.17
  -5  -3 -10   54.81    4.73
   5  -3  10   44.40    3.29
   5  -3  10   47.90    4.63
   5   3  10   42.46    4.61
  -5   3 -10   47.86    5.98
  -5  -3 -10   41.84    5.68
   5   3  10   38.67    4.79
   5  -3  11    0.50    1.85
   5  -3  11    0.74    1.12
   5   3  11    0.48    1.52
  -5   3 -11   -1.75    2.84
  -5  -3 -11    0.86    2.15
   5   3  12    2.53    1.80
  -5   3 -12    3.72    2.34
  -5  -3 -12    8.19    2.95
   5   3  13    2.12    2.17
  -5   3 -13    0.98    2.73
  -5   3 -14  104.04   10.13
  -5   3 -15    2.20    2.91
  -5   3 -16    3.25    2.35
  -5   3 -16    1.16    3.06
  -5  -3 -16   -1.14    4.03
  -5   3 -17   -0.86    2.50
  -5   3 -18   20.03    4.63
   5   4 -18   20.66    4.78
   5   4 -17   38.28    6.00
  -5   4  17   40.79    6.85
   5   4 -16   10.94    3.60
  -5   4  16    5.51    3.47
   5   4 -15    7.14    3.06
  -5  -4  15    5.50    3.70
  -5   4  15   10.41    3.70
   5   4 -14  103.69    8.89
  -5  -4  14  113.71   10.44
  -5   4  14  111.63   10.11
   5   4 -13  217.37   13.18
  -5  -4  13  195.33   14.37
  -5   4  13  199.26   14.07
   5   4 -12    9.54    2.84
  -5  -4  12   12.12    2.50
  -5  -4  12    7.47    3.24
  -5   4  12   12.00    3.46
  -5   4  11   55.86    6.07
   5   4 -11   52.37    5.44
  -5  -4  11   60.40    5.15
  -5  -4  11   51.11    6.37
  -5   4  11   48.64    6.13
  -5   4  10   87.22    7.43
   5   4 -10   82.99    6.78
  -5  -4  10   87.89    6.40
  -5  -4  10   98.20    8.65
  -5   4  10   96.62    8.14
   5   4  -9   88.59    6.72
  -5   4   9   96.68    7.58
  -5  -4   9   86.96    6.34
  -5  -4   9   94.04    8.39
  -5   4   9  103.77    8.11
   5   4  -9   94.39    8.16
   5   4  -8    4.66    1.82
  -5   4   8    7.01    2.44
  -5  -4   8    7.26    1.96
  -5   4   8    4.96    2.28
   5   4  -8    4.18    2.55
   5   4  -7   12.25    2.18
  -5   4   7   10.36    2.45
  -5  -4   7   15.93    2.38
  -5  -4   7    9.71    2.70
  -5   4   7   15.19    2.90
   5   4  -7    8.69    2.72
  -5   4   7   12.05    1.54
   5   4  -6  168.95    9.03
  -5   4   6  185.68   10.23
  -5  -4   6  163.24   11.02
  -5   4   6  162.13   10.18
   5   4  -6  180.70   11.37
  -5  -4   6  173.81    9.79
  -5   4   6  169.29    7.68
  -5  -4   6  163.68    9.07
  -5  -4   6  168.14   10.23
   5   4  -5  173.81    8.79
  -5   4   5  170.02    9.74
  -5  -4   5  184.18   11.26
  -5   4   5  162.35    7.47
  -5   4   5  186.49   10.31
   5   4  -5  184.79   11.39
  -5  -4   5  183.22    9.95
   5  -4  -5  168.58    9.12
  -5  -4   5  183.00   10.38
  -5  -4   5  169.82    9.15
   5   4  -4  174.73    8.27
  -5  -4   4  189.09   11.00
  -5   4   4  167.49    7.11
  -5   4   4  162.97    9.41
   5   4  -4  175.67   11.04
   5  -4  -4  166.67    8.97
  -5  -4   4  168.46    9.63
  -5  -4   4  164.44    9.93
   5   4  -3   58.12    3.36
  -5   4   3   53.25    2.69
  -5  -4   3   50.03    5.16
  -5   4   3   58.48    4.40
  -5  -4   3   55.65    4.78
   5   4  -3   57.92    5.55
  -5  -4   3   62.53    5.21
   5  -4  -3   63.36    4.39
   5   4  -3   57.80    3.28
  -5   4   3   54.67    2.96
   5   4  -2  641.62   25.14
  -5  -4   2  706.57   29.13
   5   4  -2  606.11   24.92
  -5   4   2  644.68   26.68
   5   4  -2  640.16   29.07
  -5  -4   2  641.15   28.25
  -5  -4   2  675.49   28.15
   5  -4  -2  635.61   25.85
   5  -4  -2  692.41   27.17
  -5   4   2  673.00   25.99
  -5   4   1  166.29    8.11
  -5  -4   1  152.89    9.14
  -5  -4   1  155.14    9.49
  -5   4   1  161.95    7.57
   5   4  -1  153.46    9.71
  -5  -4   1  145.45    9.07
   5  -4  -1  150.12    7.67
   5  -4  -1  153.19    7.10
   5  -4  -1  146.77    8.21
  -5   4   0   78.81    5.15
  -5  -4   0   68.01    5.59
  -5   4   0   71.58    3.71
   5   4   0   77.33    6.24
   5  -4   0   71.95    5.06
  -5  -4   0   71.54    5.69
   5  -4   0   74.12    4.81
  -5   4  -1  214.14   11.20
  -5  -4  -1  220.57   11.61
   5   4   1  212.76   12.02
  -5  -4  -1  210.68   11.62
   5  -4   1  220.28   10.90
   5  -4   1  222.28    9.62
   5   4   1  193.98   11.50
  -5   4  -2  209.15   11.15
  -5  -4  -2  206.08   10.95
   5   4   2  200.22   11.42
  -5  -4  -2  199.02   11.21
   5  -4   2  192.73   10.59
   5  -4   2  209.45    9.37
   5   4   2  206.42   11.43
  -5   4  -2  190.14    9.75
  -5  -4  -2  211.91   11.69
   5   4   2  210.19   11.43
   5  -4   3   39.29    3.96
  -5  -4  -3   41.35    4.72
  -5  -4  -3   43.07    3.91
  -5   4  -3   41.77    4.29
   5   4   3   43.12    4.51
   5   4   3   38.18    4.16
   5  -4   3   42.75    3.13
  -5  -4  -3   43.95    4.41
   5   4   3   40.80    4.30
  -5   4  -3   43.13    3.45
  -5   4  -4   66.90    5.92
  -5  -4  -4   71.68    5.24
   5   4   4   68.37    5.71
  -5  -4  -4   78.55    6.00
   5  -4   4   70.60    4.53
   5  -4   4   81.70    6.01
   5   4   4   69.36    5.86
  -5  -4  -4   78.65    6.48
   5   4   4   66.27    5.67
  -5   4  -4   63.96    4.66
   5  -4   5   23.61    3.38
  -5  -4  -5   26.58    3.93
  -5  -4  -5   33.77    3.44
  -5  -4  -5   33.22    3.93
  -5   4  -5   36.47    4.36
   5   4   5   23.77    3.53
   5   4   5   33.48    3.76
   5  -4   5   29.48    2.88
  -5  -4  -5   27.23    1.82
   5   4   5   26.33    3.61
  -5   4  -5   32.31    3.18
   5  -4   6   37.11    4.63
  -5  -4  -6   54.80    5.60
  -5  -4  -6   49.24    4.74
  -5  -4  -6   41.79    4.01
   5  -4   6   42.08    3.69
  -5   4  -6   51.71    5.46
   5   4   6   41.95    4.44
   5   4   6   42.01    4.56
   5   4   6   53.46    5.19
  -5   4  -6   45.35    4.01
  -5  -4  -7  258.67   12.79
  -5   4  -7  265.80   15.01
  -5  -4  -7  251.95   13.80
   5   4   7  235.50   13.30
   5  -4   7  249.87   12.55
   5  -4   7  253.58   14.15
  -5  -4  -7  235.43   14.69
   5   4   7  238.69   13.54
   5   4   7  273.18   14.34
  -5   4  -7  253.68   12.89
  -5  -4  -8  132.50    7.93
  -5   4  -8  129.81    9.78
  -5  -4  -8  139.33    9.09
   5   4   8  117.25    8.08
   5  -4   8  119.20    5.58
   5  -4   8  126.43    7.78
   5  -4   8  116.81    8.90
  -5  -4  -8  134.10    9.93
   5   4   8  143.17    9.02
   5  -4   8  120.71    5.83
   5   4   8  114.47    8.58
  -5   4  -8  128.00    8.14
  -5  -4  -9    6.99    2.77
   5  -4   9    5.18    2.49
   5   4   9    6.66    2.51
  -5  -4  -9    3.02    1.74
   5  -4   9    5.43    2.05
   5   4   9    1.97    1.95
   5  -4   9    6.25    1.03
  -5   4  -9    6.29    2.95
   5   4   9    4.94    2.32
   5  -4   9    6.41    1.27
  -5   4  -9    5.84    2.13
   5   4  10   83.00    7.22
   5  -4  10   71.05    7.12
  -5  -4 -10   80.69    6.37
   5  -4  10   88.86    4.63
   5   4  10   84.76    6.71
   5  -4  10   79.26    6.13
  -5   4 -10   67.30    7.42
  -5  -4 -10  100.11    8.49
   5  -4  10   74.06    4.85
  -5   4 -10   85.65    6.75
   5  -4  11   34.33    3.23
   5  -4  11   28.35    3.82
   5   4  11   28.55    4.03
  -5   4 -11   39.43    5.84
  -5  -4 -11   41.71    5.81
   5  -4  12   32.05    4.18
   5   4  12   36.90    4.56
  -5  -4 -12   28.73    5.13
  -5   4 -13    4.03    3.04
  -5   4 -14    8.49    3.88
  -5   4 -15   20.10    4.73
  -5   4 -16   11.73    4.30
  -5  -4 -16   10.34    4.32
  -5   4 -18    0.95    2.87
   5   5 -18    7.70    3.52
   5   5 -17    9.14    3.51
  -5   5  17    3.47    2.74
   5   5 -16  101.83    9.26
  -5   5  16   98.38    9.98
   5   5 -15   -0.81    2.35
  -5   5  15    1.03    2.73
   5   5 -14  161.40   11.57
  -5   5  14  170.64   12.91
   5   5 -13   -0.71    2.29
  -5  -5  13    1.10    1.67
  -5   5  13   -0.91    2.40
   5   5 -12   39.24    5.16
  -5  -5  12   43.85    4.83
  -5  -5  12   57.04    7.10
  -5   5  12   48.38    6.14
   5   5 -11    9.64    2.65
  -5   5  11   14.09    3.31
  -5  -5  11    9.76    2.50
  -5  -5  11    9.89    3.30
  -5   5  11    9.46    3.57
   5   5 -10   98.53    7.38
  -5   5  10   98.37    8.04
  -5  -5  10   91.58    6.93
  -5  -5  10   90.09    8.53
  -5   5  10   89.66    7.97
  -5   5   9    2.46    2.24
  -5  -5   9    0.47    1.61
  -5  -5   9    0.81    2.02
  -5   5   9    2.68    2.10
   5   5  -9   -1.54    2.65
  -5   5   8  450.47   22.10
  -5  -5   8  475.37   23.75
   5   5  -8  473.53   23.64
  -5   5   8  454.77   22.42
  -5  -5   8  444.88   20.99
  -5   5   7   32.80    3.99
  -5  -5   7   29.55    3.31
  -5  -5   7   24.14    4.25
  -5  -5   7   20.57    3.47
  -5   5   7   20.92    1.67
   5   5  -7   20.71    3.97
  -5   5   7   26.50    3.65
  -5  -5   6    8.31    1.97
  -5   5   6    8.19    2.30
  -5  -5   6    5.92    2.40
  -5  -5   6   10.10    2.95
   5  -5  -6    6.30    1.91
   5   5  -6   12.36    3.21
  -5  -5   6    8.15    2.36
  -5   5   6   12.84    2.70
  -5  -5   5   10.34    2.12
  -5  -5   5   11.44    2.52
  -5  -5   5   10.75    2.61
   5   5  -5    6.62    2.56
  -5  -5   5    4.94    1.91
  -5   5   5    6.95    2.02
   5  -5  -5   11.81    2.12
  -5  -5   4  530.78   25.50
   5   5  -4  535.85   25.79
  -5   5   4  531.86   23.68
  -5  -5   4  540.29   24.40
  -5  -5   4  508.42   24.61
   5  -5  -4  548.34   23.52
   5   5  -4  551.56   22.45
   5  -5  -3   11.23    1.26
  -5  -5   3   11.21    2.61
  -5  -5   3   10.00    2.66
   5   5  -3    7.27    2.52
  -5   5   3    9.30    1.96
  -5  -5   3   14.60    2.46
   5  -5  -3   10.57    1.95
   5   5  -3    9.70    1.34
   5  -5  -2   18.41    1.99
  -5   5   2   20.10    1.89
  -5  -5   2   19.99    3.16
   5   5  -2   18.02    3.27
  -5   5   2   17.93    2.12
  -5  -5   2   18.26    2.86
  -5  -5   2   23.87    3.28
   5   5  -2   19.29    1.51
   5  -5  -2   19.27    2.52
  -5   5   1   46.85    2.62
  -5  -5   1   48.13    4.71
  -5   5   1   47.34    2.99
  -5  -5   1   44.87    4.53
   5  -5  -1   44.85    3.44
   5   5  -1   39.56    4.70
   5  -5  -1   45.85    2.74
  -5  -5   1   56.03    4.83
   5  -5  -1   41.86    3.94
  -5   5   1   48.84    3.56
  -5   5   0  309.30   13.65
  -5  -5   0  311.55   15.03
  -5   5   0  270.57   11.30
   5   5   0  313.25   15.62
   5  -5   0  299.92   13.42
  -5  -5   0  291.35   14.83
   5  -5   0  280.71   13.97
  -5  -5  -1    6.07    2.15
   5   5   1    6.29    2.15
  -5   5  -1    4.48    1.57
  -5  -5  -1    5.79    1.98
   5  -5   1    6.09    0.93
   5   5   1    2.68    2.11
   5  -5   1    5.71    1.63
  -5   5  -2    0.43    1.30
   5  -5   2    0.31    0.64
  -5  -5  -2   -0.43    1.63
   5   5   2    1.05    1.96
  -5  -5  -2    1.42    1.63
   5   5   2   -0.49    1.59
  -5   5  -2    2.39    1.12
   5  -5   2    1.13    1.30
  -5   5  -3  157.67    9.92
  -5  -5  -3  159.02    9.53
   5   5   3  167.46   10.34
  -5  -5  -3  163.01   10.03
   5  -5   3  186.78    9.91
   5  -5   3  173.19    8.05
   5   5   3  158.40   10.19
  -5   5  -3  160.89    8.86
   5   5   3  179.25   10.43
  -5  -5  -3  169.42   10.69
  -5   5  -4  479.06   21.98
  -5  -5  -4  482.77   20.91
   5   5   4  481.93   21.84
  -5  -5  -4  434.70   21.35
   5  -5   4  465.68   19.28
   5  -5   4  467.25   21.27
   5   5   4  475.71   21.96
   5   5   4  465.24   21.62
  -5  -5  -4  455.13   22.28
  -5   5  -4  495.32   20.36
  -5  -5  -4  410.98   18.08
  -5   5  -5   82.20    6.66
  -5  -5  -5   67.72    5.41
  -5  -5  -5   64.92    6.25
   5   5   5   75.45    6.10
  -5  -5  -5   75.19    6.14
   5  -5   5   72.58    4.72
   5  -5   5   73.36    6.09
   5   5   5   72.33    6.22
   5   5   5   64.85    5.83
  -5   5  -5   79.69    5.41
  -5  -5  -5   65.62    3.68
  -5  -5  -6   34.32    4.68
  -5  -5  -6   44.44    4.72
  -5  -5  -6   34.43    3.80
  -5   5  -6   32.90    4.63
   5  -5   6   39.66    3.45
   5   5   6   39.66    4.54
   5   5   6   42.06    4.66
  -5  -5  -6   34.02    2.47
   5   5   6   33.29    4.35
  -5   5  -6   43.27    3.99
   5  -5   6   29.65    4.09
  -5  -5  -7   11.45    3.24
  -5  -5  -7    6.08    2.20
  -5  -5  -7    7.03    1.95
   5  -5   7    7.77    2.01
  -5   5  -7    7.67    2.70
   5   5   7    8.84    2.48
   5   5   7   10.34    2.71
   5   5   7   14.03    2.91
  -5   5  -7   11.10    2.42
   5  -5   7    8.70    2.59
  -5  -5  -8   32.02    5.00
  -5  -5  -8   33.10    4.34
  -5  -5  -8   36.52    3.91
   5  -5   8   37.41    3.77
  -5   5  -8   33.81    5.01
   5   5   8   35.56    4.48
   5   5   8   41.93    4.66
   5   5   8   37.87    4.82
  -5   5  -8   36.50    4.15
   5  -5   8   32.25    4.55
  -5  -5  -9    1.23    1.79
  -5  -5  -9   -1.62    2.25
  -5  -5  -9    0.46    1.69
   5  -5   9    1.24    1.69
  -5   5  -9    0.80    2.02
   5   5   9    1.28    1.93
  -5   5  -9   -0.52    1.94
   5  -5   9   -0.66    2.07
  -5  -5 -10    1.71    2.57
  -5  -5 -10    2.47    1.85
   5  -5  10    1.35    1.73
  -5   5 -10   -0.86    2.49
   5   5  10    1.12    2.19
   5   5  10    1.34    2.17
  -5   5 -10    1.69    1.89
  -5  -5 -11   -0.53    1.87
   5  -5  11    0.49    1.73
  -5   5 -11   -3.65    2.75
   5   5  11    1.15    2.15
  -5  -5 -11    1.79    2.59
  -5   5 -11   -3.01    2.08
  -5   5 -12   16.01    3.40
   5  -5  12   15.22    3.16
  -5   5 -12   15.47    4.24
  -5   5 -13    4.09    2.84
  -5   5 -14   -1.08    2.70
  -5   5 -15   -1.13    2.84
  -5  -5 -15    1.11    3.20
   5   6 -18   43.27    6.63
   5   6 -17    1.87    3.02
  -5   6  17    5.73    3.72
   5   6 -16   36.99    5.75
  -5  -6  16   47.02    7.34
  -5   6  16   50.97    7.39
   5   6 -15   10.78    3.55
  -5   6  15    6.14    2.98
   5   6 -14   65.35    6.97
  -5   6  14   66.38    7.95
   5   6 -13   39.97    5.44
  -5   6  13   46.82    6.37
  -5  -6  12   58.67    5.79
  -5   6  12   52.13    6.52
  -5  -6  11   -0.57    1.98
  -5   6  11   -0.78    2.27
  -5   6  10   34.04    5.27
  -5  -6  10   54.99    5.36
  -5   6  10   49.98    3.25
  -5  -6  10   46.83    6.16
  -5   6  10   43.35    5.43
  -5  -6   9  100.81    7.57
  -5   6   9  106.84    8.37
  -5  -6   9  104.01    9.13
  -5   6   9  110.23    8.48
  -5   6   8   64.42    6.30
  -5  -6   8   81.56    7.54
  -5   6   8   73.90    6.45
   5   6  -8   70.06    7.16
  -5   6   8   66.86    3.32
  -5  -6   8   65.91    5.68
  -5   6   7  104.47    7.89
  -5  -6   7  108.91    8.93
   5   6  -7  112.48    9.21
  -5   6   7  106.15    7.86
   5  -6  -7  112.73    7.45
  -5  -6   7  108.06    7.44
  -5  -6   7  120.34    8.56
  -5  -6   6   42.51    4.25
  -5   6   6   31.04    4.04
  -5   6   6   37.97    3.44
  -5  -6   6   41.09    5.20
   5   6  -6   30.78    4.68
  -5  -6   6   38.06    4.29
  -5   6   6   36.59    4.16
   5  -6  -6   35.26    3.81
  -5  -6   6   42.86    4.85
  -5   6   5  231.91   11.17
  -5  -6   5  226.42   13.79
   5   6  -5  252.04   14.62
  -5   6   5  236.17   12.41
  -5  -6   5  222.64   12.74
   5  -6  -5  219.90   12.04
  -5  -6   5  222.20   13.13
   5   6  -5  249.72   11.57
  -5  -6   5  259.19   12.73
  -5   6   4   -0.22    0.90
  -5  -6   4    1.09    1.64
  -5  -6   4    3.08    2.00
   5   6  -4    3.38    2.53
  -5  -6   4    2.90    1.81
  -5   6   4    1.10    1.11
   5  -6  -4    4.34    1.75
   5   6  -4    0.47    0.99
  -5   6   3  349.95   14.70
  -5  -6   3  340.08   17.95
  -5  -6   3  314.79   17.19
   5  -6  -3  347.64   14.76
   5   6  -3  337.76   18.31
  -5   6   3  347.94   15.77
  -5  -6   3  344.56   17.16
   5  -6  -3  357.82   16.55
   5   6  -3  348.72   14.78
  -5   6   2   53.01    3.02
   5  -6  -2   49.44    3.55
  -5  -6   2   48.56    5.11
  -5   6   2   45.65    3.41
   5   6  -2   39.08    5.06
  -5  -6   2   51.68    4.96
  -5  -6   2   41.77    4.56
   5   6  -2   60.67    3.26
   5  -6  -2   50.61    4.46
  -5   6   1   82.86    4.00
  -5  -6   1   88.06    6.84
   5  -6  -1   95.55    5.61
   5   6  -1   86.85    7.21
  -5   6   1   80.40    4.40
  -5  -6   1   92.23    6.86
  -5  -6   1   90.42    6.76
   5  -6  -1   89.24    6.28
  -5   6   1   90.91    5.32
  -5  -6   0  169.60   10.60
  -5  -6   0  177.03   10.72
   5  -6   0  176.01    9.45
   5   6   0  171.24   11.21
  -5  -6   0  199.26   11.11
   5  -6   0  174.64   10.15
  -5   6   0  186.60    9.50
  -5  -6  -1  279.37   14.40
   5  -6   1  269.29   13.49
   5   6   1  284.88   15.19
  -5  -6  -1  279.40   14.51
   5  -6   1  265.82   11.00
  -5   6  -1  285.35   13.68
   5   6   2   33.98    2.15
  -5   6  -2   29.93    3.64
  -5  -6  -2   30.98    3.75
   5   6   2   29.34    4.17
   5  -6   2   39.83    2.40
   5   6   2   33.98    4.22
  -5  -6  -2   25.37    3.76
   5  -6   2   36.55    3.83
  -5   6  -2   36.18    3.52
   5   6   3   23.35    1.94
  -5   6  -3   32.02    3.80
  -5  -6  -3   30.58    3.70
   5   6   3   31.13    4.07
   5  -6   3   33.26    2.39
   5   6   3   31.27    4.24
  -5  -6  -3   32.57    3.98
   5  -6   3   41.02    4.14
  -5   6  -3   27.99    3.11
  -5  -6  -4   13.90    3.11
  -5   6  -4   12.64    2.75
   5   6   4   14.68    3.16
  -5  -6  -4   11.71    2.44
   5   6   4   11.16    2.72
   5  -6   4    9.37    1.62
  -5  -6  -4   10.10    2.74
   5   6   4    9.30    2.50
   5  -6   4    8.34    2.36
  -5   6  -4   11.97    2.23
  -5  -6  -4   12.84    1.49
  -5  -6  -5   51.04    5.64
  -5  -6  -5   48.95    4.54
  -5   6  -5   46.64    5.02
   5   6   5   47.63    5.08
   5  -6   5   46.11    3.51
  -5  -6  -5   43.40    4.78
   5   6   5   45.11    4.96
   5   6   5   36.55    4.68
  -5   6  -5   59.29    4.64
  -5  -6  -5   40.07    2.87
   5  -6   5   41.38    4.62
   5   6   6    0.57    1.71
  -5  -6  -6    2.11    2.20
  -5  -6  -6    3.05    1.63
   5  -6   6    1.17    1.27
  -5  -6  -6    1.68    1.75
  -5   6  -6    4.61    2.34
   5   6   6    1.69    1.77
   5   6   6    2.38    1.50
   5  -6   6    3.99    2.13
  -5  -6  -6    2.50    1.03
  -5   6  -6    1.28    1.43
  -5  -6  -7   71.45    6.97
  -5  -6  -7   64.43    5.42
  -5  -6  -7   65.09    6.17
  -5   6  -7   70.43    6.73
   5  -6   7   70.14    5.03
   5   6   7   55.96    5.79
   5   6   7   64.20    6.24
  -5  -6  -7   68.23    4.21
  -5   6  -7   72.10    5.81
   5   6   7   67.77    6.21
   5  -6   7   63.76    6.26
  -5  -6  -8   -0.61    2.03
  -5  -6  -8    5.54    2.73
   5  -6   8    1.48    1.42
  -5  -6  -8   -0.47    2.00
  -5   6  -8    2.30    2.31
   5   6   8    1.74    2.28
   5   6   8    0.64    2.08
  -5  -6  -8    1.71    1.04
   5  -6   8    1.94    2.16
  -5   6  -8    0.50    1.67
  -5  -6  -9   21.08    3.78
  -5  -6  -9   29.26    4.99
   5  -6   9   22.97    3.23
  -5  -6  -9   19.79    3.34
  -5   6  -9   21.31    4.17
   5   6   9   28.99    4.19
   5   6   9   29.38    4.43
   5  -6   9   28.80    4.47
  -5   6  -9   31.60    4.11
  -5  -6 -10   49.75    6.32
   5  -6  10   46.09    4.50
  -5  -6 -10   39.98    4.53
  -5   6 -10   43.67    6.04
  -5   6 -10   47.74    5.17
   5  -6  11    4.36    2.34
  -5  -6 -11    4.49    2.26
  -5   6 -11    5.56    3.11
  -5   6 -11    5.10    2.39
  -5   6 -12  150.25   12.12
   5  -6  12  145.06    9.59
  -5   6 -13    1.04    2.30
  -5   6 -14   22.91    5.33
   5   6  14   23.98    4.59
  -5  -6 -14   34.32    6.03
   5   6  15   12.98    3.85
  -5   6 -15    8.02    3.85
  -5  -6 -15    7.89    3.79
   5   7 -17   19.98    4.57
   5   7 -16    9.01    3.72
  -5   7  16   15.10    4.62
   5   7 -15    1.70    2.25
  -5  -7  15    5.66    3.54
  -5   7  15   -1.02    2.55
  -5  -7  14   66.02    8.03
  -5   7  14   58.37    7.40
  -5   7  13    5.39    2.38
  -5  -7  12   27.72    4.23
  -5   7  12   27.67    4.66
  -5   7  11   42.15    4.54
  -5  -7  11   47.06    5.42
  -5   7  11   52.27    5.99
  -5  -7  10  195.79   12.13
  -5   7  10  196.02   11.04
  -5   7  10  208.36   13.14
  -5   7   9    6.08    2.55
  -5   7   9    8.00    2.11
  -5  -7   9    8.04    2.47
  -5   7   9    8.61    2.73
  -5   7   8   48.70    5.29
  -5  -7   8   39.17    4.94
  -5   7   8   47.94    4.12
  -5  -7   8   41.92    4.80
  -5  -7   8   43.22    5.67
   5  -7  -8   36.98    4.22
  -5   7   8   38.66    4.82
   5   7  -7   23.47    3.11
  -5   7   7   25.87    3.82
  -5  -7   7   14.89    3.08
  -5   7   7   23.79    2.77
  -5  -7   7   23.49    4.09
  -5  -7   7   24.42    3.77
   5   7  -7   25.04    4.45
   5  -7  -7   15.62    2.86
  -5   7   7   20.17    3.32
  -5   7   6  271.46   12.05
   5  -7  -6  227.83   12.87
  -5  -7   6  238.76   14.67
   5   7  -6  261.61   15.60
  -5   7   6  237.84   13.13
  -5  -7   6  240.98   13.65
   5   7  -6  254.75   12.52
  -5  -7   6  228.53   13.91
  -5  -7   6  249.30   13.31
  -5   7   5  214.83   10.45
  -5  -7   5  211.84   13.32
   5  -7  -5  210.35    9.39
   5   7  -5  228.85   14.18
  -5   7   5  205.51   11.55
  -5  -7   5  219.62   12.53
   5  -7  -5  221.87   12.00
  -5  -7   5  232.38   13.17
   5   7  -5  244.58   11.23
  -5  -7   5  221.17   12.14
  -5   7   4   29.93    2.57
   5  -7  -4   30.01    2.41
  -5  -7   4   33.29    4.23
  -5  -7   4   33.00    4.49
   5   7  -4   24.67    4.24
  -5  -7   4   31.99    4.08
  -5   7   4   35.91    3.46
   5  -7  -4   35.76    3.85
   5   7  -4   31.46    2.86
  -5  -7   3    1.13    1.77
  -5   7   3   -0.17    0.72
  -5  -7   3    1.24    1.71
   5   7  -3   -0.70    1.95
   5  -7  -3   -0.24    0.86
  -5  -7   3   -1.04    1.69
  -5   7   3   -0.60    1.09
   5   7  -3   -0.22    0.96
   5  -7  -3   -1.35    1.68
  -5   7   2   36.68    2.46
   5  -7  -2   45.77    3.52
  -5  -7   2   38.86    4.54
  -5   7   2   36.18    2.94
   5   7  -2   31.38    4.66
  -5  -7   2   38.20    4.42
  -5  -7   2   39.64    4.45
   5   7  -2   40.25    2.84
   5  -7  -2   43.85    4.25
  -5  -7   1   24.62    3.76
  -5  -7   1   26.85    3.96
  -5   7   1   26.71    1.95
   5   7  -1   30.70    4.46
  -5  -7   1   34.16    4.15
   5  -7  -1   27.01    2.95
  -5   7   1   36.83    3.07
   5  -7  -1   34.13    3.84
  -5   7   0   12.95    2.14
  -5  -7   0   13.07    2.96
  -5  -7   0   14.49    2.91
   5   7   0    8.52    2.78
  -5  -7   0   11.26    2.77
   5  -7   0   13.95    2.35
   5  -7   0   14.26    2.58
   5  -7   1   43.97    4.50
  -5  -7  -1   36.63    4.35
  -5   7  -1   37.83    3.79
  -5  -7  -1   41.65    4.50
   5  -7   1   48.02    4.27
   5   7   1   45.37    5.23
   5   7   2  432.35   17.93
  -5  -7  -2  450.16   20.88
   5  -7   2  443.93   20.32
   5   7   2  454.15   21.99
  -5  -7  -2  454.59   21.20
   5  -7   2  412.46   17.21
  -5   7  -2  420.25   19.65
  -5   7  -2  442.71   20.21
   5   7   2  462.89   21.56
   5   7   3   24.62    2.13
   5   7   3   19.68    3.60
  -5   7  -3   21.42    3.36
  -5  -7  -3   21.38    3.34
   5   7   3   28.58    4.21
   5  -7   3   19.86    1.88
  -5  -7  -3   29.77    3.95
   5  -7   3   18.89    3.25
  -5   7  -3   26.62    3.14
  -5   7  -4  335.28   16.71
   5   7   4  299.24   13.56
  -5  -7  -4  294.69   15.57
   5   7   4  314.20   16.84
   5  -7   4  308.92   16.19
   5  -7   4  305.45   13.52
  -5  -7  -4  301.73   16.37
  -5   7  -4  329.25   15.46
   5   7   4  343.15   16.95
  -5  -7  -4  308.86   13.67
   5   7   5   33.59    2.88
  -5   7  -5   39.12    4.75
  -5  -7  -5   27.47    4.56
  -5  -7  -5   39.88    4.31
   5  -7   5   33.55    2.96
  -5  -7  -5   32.19    4.25
   5   7   5   37.95    4.84
  -5  -7  -5   31.97    2.71
   5   7   5   29.26    4.20
   5   7   5   42.26    4.94
   5  -7   5   35.34    4.52
  -5   7  -5   38.21    3.95
  -5  -7  -6   30.99    4.68
   5  -7   6   31.68    3.08
  -5   7  -6   36.07    4.75
  -5  -7  -6   29.36    3.74
  -5  -7  -6   18.32    3.68
   5   7   6   23.00    3.89
   5   7   6   38.19    4.80
   5   7   6   37.77    4.87
   5  -7   6   30.66    4.50
  -5  -7  -6   32.27    2.76
  -5   7  -6   30.59    3.79
  -5   7  -7  417.14   21.94
  -5  -7  -7  441.74   20.45
   5   7   7  434.90   21.53
   5  -7   7  441.92   19.12
   5  -7   7  397.15   21.32
   5   7   7  437.54   21.79
  -5  -7  -7  422.42   22.36
  -5  -7  -7  410.86   18.29
  -5   7  -7  428.23   20.43
   5  -7   8   46.32    4.10
  -5  -7  -8   41.84    5.53
  -5  -7  -8   30.18    4.11
  -5   7  -8   29.58    4.84
   5  -7   8   33.41    4.93
  -5  -7  -8   34.07    3.09
  -5   7  -8   37.64    4.59
  -5  -7  -9    0.87    2.62
  -5  -7  -9   -0.53    1.98
  -5   7  -9    3.34    2.32
  -5  -7  -9    2.72    1.36
  -5   7  -9   -2.28    2.29
  -5  -7 -10   65.50    6.04
  -5   7 -10   64.13    7.12
   5  -7  10   65.16    5.54
  -5   7 -10   59.71    6.15
   5  -7  11   28.36    3.83
  -5  -7 -11   34.41    4.47
  -5   7 -11   26.44    5.18
  -5  -7 -12   -1.26    2.17
  -5   7 -12    1.00    3.01
   5   7  12   -0.79    2.28
  -5   7 -13    5.26    3.30
   5   7  13    3.27    2.91
  -5  -7 -13    1.05    3.16
  -5   7 -14   24.37    5.76
   5   7  14   17.88    4.16
  -5  -7 -14   18.60    5.15
   5   8 -17   48.72    7.06
  -5   8  16   12.92    4.25
  -5   8  15   12.21    3.74
  -5  -8  14   -2.17    3.01
  -5  -8  13    5.18    3.01
  -5  -8  12   32.50    4.98
  -5  -8  12   30.59    5.54
  -5  -8  11    9.77    2.88
  -5   8  10    5.17    2.01
  -5  -8  10    4.01    2.79
   5  -8 -10   -0.57    1.85
  -5  -8   9   56.35    6.01
   5  -8  -9   71.99    6.08
  -5   8   8  115.57    7.13
   5  -8  -8  113.09    8.06
   5   8  -8  112.13    7.74
  -5  -8   8  107.15    8.80
  -5  -8   8  114.62    8.51
  -5  -8   7   74.80    6.80
  -5  -8   7   63.77    6.09
  -5   8   7   67.49    4.90
   5  -8  -7   62.87    5.70
   5   8  -7   59.48    5.14
  -5  -8   6    5.37    2.07
  -5   8   6    6.83    1.71
  -5  -8   6    5.98    2.37
  -5  -8   6    6.95    2.57
   5  -8  -6    5.07    1.96
   5   8  -6    5.31    1.66
  -5  -8   5   41.55    4.60
  -5   8   5   41.45    3.29
   5  -8  -5   37.98    2.89
   5   8  -5   40.93    5.74
  -5  -8   5   41.02    5.28
  -5  -8   5   41.90    5.00
  -5  -8   5   33.85    4.50
   5   8  -5   43.29    3.74
  -5   8   5   36.78    4.03
   5  -8  -5   46.80    4.71
  -5   8   4  191.23    8.84
   5  -8  -4  179.63    8.96
  -5  -8   4  188.07   11.95
   5   8  -4  164.00   12.04
  -5   8   4  182.52    9.81
  -5  -8   4  182.60   11.19
  -5  -8   4  192.23   11.77
   5   8  -4  171.94    9.18
   5  -8  -4  176.28   10.70
  -5  -8   3    4.24    2.39
  -5   8   3    6.21    1.17
  -5  -8   3    4.53    2.31
   5  -8  -3    4.06    1.32
  -5  -8   3    6.73    2.31
  -5   8   3    4.47    1.38
   5   8  -3    5.73    1.46
   5  -8  -3    7.10    2.17
  -5   8   2  127.99    6.09
   5  -8  -2  114.25    7.16
  -5  -8   2  119.41    9.01
   5   8  -2  114.08    9.40
  -5   8   2  119.89    6.52
  -5  -8   2  122.88    8.80
  -5  -8   2  132.81    8.91
   5   8  -2  141.19    6.80
   5  -8  -2  126.86    8.56
  -5  -8   1   20.21    3.65
  -5  -8   1   18.80    3.47
  -5   8   1   22.13    1.71
   5   8  -1   20.93    4.22
   5  -8  -1   27.78    3.12
  -5  -8   1   19.16    3.27
   5  -8  -1   24.12    3.63
  -5  -8   0  342.21   18.00
   5  -8   0  344.44   16.81
   5   8   0  357.18   19.21
  -5  -8   0  330.79   17.91
  -5  -8   0  339.02   17.97
   5  -8   0  342.78   17.87
  -5   8   0  394.44   16.72
   5  -8   1   16.10    3.06
  -5   8  -1   16.47    2.56
  -5  -8  -1   10.37    2.94
  -5  -8  -1   13.74    3.13
   5   8   1   13.85    3.42
   5  -8   1   15.67    2.88
  -5  -8  -2  266.33   14.52
   5  -8   2  278.94   14.32
   5   8   2  240.94   15.15
  -5   8  -2  281.59   14.05
   5   8   3  108.78    6.02
  -5  -8  -3  109.61    7.87
   5  -8   3  110.65    7.91
   5   8   3   99.82    8.42
   5  -8   3  105.78    5.22
  -5   8  -3  119.18    7.57
   5   8   3   96.66    8.02
  -5   8  -3  107.29    7.65
   5   8   4  175.38    8.53
  -5  -8  -4  179.39   10.44
   5  -8   4  161.85   10.57
   5   8   4  159.83   11.08
   5  -8   4  166.41    7.95
  -5   8  -4  172.64   10.08
  -5  -8  -4  167.73    8.59
   5   8   4  141.25   10.43
  -5   8  -4  159.99   10.34
   5   8   5   85.17    5.51
  -5  -8  -5   91.70    6.92
   5  -8   5   94.96    7.58
   5  -8   5   87.49    5.25
   5   8   5   86.32    7.56
  -5   8  -5   96.25    6.98
  -5  -8  -5   85.34    5.45
  -5   8  -5  107.92    8.04
   5   8   6   -0.31    1.37
   5  -8   6    1.41    1.44
  -5   8  -6    0.67    2.03
  -5  -8  -6   -1.56    2.35
  -5  -8  -6    1.02    2.09
   5  -8   6   -0.64    2.13
  -5   8  -6   -0.50    1.98
  -5  -8  -6   -0.28    1.15
  -5   8  -7  307.78   17.32
  -5  -8  -7  300.65   15.71
   5  -8   7  314.91   14.33
   5  -8   7  273.41   16.49
  -5  -8  -7  321.18   17.98
  -5  -8  -7  282.13   13.79
  -5   8  -7  310.55   15.88
  -5  -8  -8   67.41    7.23
  -5   8  -8   84.48    7.82
  -5  -8  -8   55.45    5.58
   5  -8   8   68.41    5.25
  -5  -8  -8   67.49    4.78
  -5   8  -8   66.63    6.28
  -5  -8  -9   20.71    4.51
  -5  -8  -9   19.74    3.54
  -5   8  -9   20.14    4.38
  -5  -8  -9   17.01    2.64
  -5  -8 -10   12.47    3.20
  -5   8 -10   20.56    4.65
   5   8  10   16.78    3.93
  -5  -8 -10   18.40    2.71
  -5  -8 -11   48.27    5.42
  -5   8 -11   46.56    6.57
   5   8  11   37.09    5.53
  -5  -8 -12    9.29    3.13
  -5   8 -12   12.08    4.07
   5   8  12   20.44    4.08
  -5  -8 -13   23.90    5.36
  -5   8 -13   19.07    4.76
   5   8  13   20.36    4.82
  -5   8 -14   37.84    6.58
   5   8  14   32.54    5.56
  -5  -9  13   -1.05    3.16
  -5  -9  12   32.09    5.76
  -5  -9  11   84.47    8.54
   5  -9 -11   77.45    7.00
  -5   9  10   15.12    2.64
  -5  -9  10   10.99    3.87
   5  -9 -10   16.62    3.26
   5   9 -10   14.64    3.30
  -5  -9   9   16.39    3.76
  -5  -9   9   17.31    3.59
  -5   9   9   19.41    2.90
  -5  -9   9   18.34    4.26
   5  -9  -9   17.93    3.43
   5   9  -9   21.79    3.54
  -5  -9   8    5.28    2.35
  -5  -9   8    4.53    2.45
  -5   9   8    5.41    1.87
   5  -9  -8    6.98    2.49
   5   9  -8    3.96    2.12
  -5   9   7  123.76    7.08
   5  -9  -7  118.04    8.39
   5   9  -7  118.82    7.81
  -5  -9   7   96.85    8.65
  -5  -9   7  106.91    8.46
  -5  -9   6   45.34    5.41
  -5  -9   6   38.71    4.74
  -5   9   6   43.45    3.63
   5  -9  -6   43.30    4.79
   5   9  -6   43.81    4.18
  -5  -9   5   37.92    4.68
  -5   9   5   32.29    3.00
  -5  -9   5   27.49    4.41
   5  -9  -5   34.15    4.37
   5   9  -5   34.81    3.51
  -5  -9   4    5.70    2.30
  -5  -9   4    7.32    2.57
  -5   9   4    6.09    1.49
   5  -9  -4    6.82    1.56
   5   9  -4   10.73    2.05
   5  -9  -4    9.58    2.68
  -5   9   3   48.72    3.34
   5  -9  -3   47.49    4.07
  -5  -9   3   43.95    5.32
  -5   9   3   42.96    3.66
   5   9  -3   48.34    3.80
   5  -9  -3   44.35    4.91
  -5  -9   2   42.18    4.92
   5  -9  -2   34.85    3.68
  -5   9   2   32.28    2.79
   5   9  -2   37.22    3.23
   5  -9  -2   36.15    4.48
  -5  -9   1    3.12    2.28
  -5   9   1    3.32    0.77
   5  -9  -1    7.22    2.14
   5  -9  -1    6.04    2.37
  -5  -9   0   15.04    3.25
   5  -9   0   20.24    3.08
   5  -9   0   16.01    3.24
  -5   9  -1   16.37    2.61
  -5  -9  -1   15.78    3.16
   5  -9   1   18.83    3.14
  -5  -9  -2   91.17    7.26
  -5   9  -2  106.01    6.98
  -5   9  -3   -0.51    1.60
  -5  -9  -3    1.11    1.91
   5  -9   3    2.27    1.78
  -5   9  -3    2.96    1.93
   5   9   4   15.87    2.40
  -5   9  -4   18.69    3.42
  -5  -9  -4   20.18    3.30
   5  -9   4   24.18    3.74
  -5   9  -4   14.69    3.01
  -5  -9  -4   18.13    2.53
  -5   9  -5   23.03    3.96
  -5  -9  -5   27.17    3.94
   5  -9   5   37.26    4.64
  -5   9  -5   39.08    4.44
  -5  -9  -5   29.03    3.12
  -5  -9  -6  158.09   10.20
   5  -9   6  149.53   10.95
  -5   9  -6  163.92   10.33
  -5  -9  -6  170.05    8.96
  -5  -9  -6  175.83   12.17
  -5   9  -6  158.77   10.93
  -5   9  -7    1.47    2.13
  -5  -9  -7    1.71    2.67
  -5  -9  -7   -0.56    1.86
  -5  -9  -7    0.67    2.10
  -5  -9  -7    2.72    1.45
  -5   9  -8    0.79    2.09
  -5  -9  -8    1.78    2.79
  -5  -9  -8   -0.69    2.09
  -5  -9  -8   -0.58    1.93
  -5  -9  -8    1.06    1.48
  -5  -9  -9   23.59    4.24
  -5   9  -9   16.08    3.94
  -5  -9  -9   16.20    3.43
   5   9   9   13.34    3.77
  -5  -9  -9   19.33    2.84
  -5   9 -10   69.26    7.83
  -5  -9 -10   74.96    6.91
  -5  -9 -10   91.20    8.06
   5   9  10   77.39    7.69
  -5  -9 -11   -3.32    2.60
  -5   9 -11   -0.96    2.40
   5   9  11   -2.49    2.87
  -5  -9 -11   -1.56    2.53
  -5  -9 -12   27.97    5.78
  -5  -9 -12   25.15    4.41
  -5   9 -12   29.22    5.68
   5   9  12   26.50    4.80
  -5   9 -13    1.06    2.95
   5   9  13    0.88    2.66
   5 -10 -13   14.66    3.67
  -5 -10  12    7.06    3.70
   5 -10 -12   14.87    3.82
  -5 -10  11    0.97    2.80
   5 -10 -11   -1.37    2.56
  -5 -10  10    1.71    2.58
  -5 -10  10    5.55    3.19
   5 -10 -10    5.32    2.49
  -5 -10   9    2.48    2.59
  -5 -10   9    3.55    2.87
   5 -10  -9   -1.29    2.29
  -5 -10   8   94.54    8.78
  -5 -10   8   90.26    8.32
   5 -10  -8   86.57    7.44
  -5 -10   7    5.74    3.08
   5 -10  -7    7.50    2.68
   5 -10  -6    1.24    2.26
   5  10  -6    1.25    1.78
   5  10  -5   37.15    3.81
   5 -10  -5   47.77    5.29
   5  10  -4   62.40    4.89
   5 -10  -4   74.16    6.64
   5  10  -3  182.12    9.63
   5 -10  -3  189.52   11.79
   5 -10  -2    4.42    1.92
  -5  10   2    2.66    1.11
   5 -10  -2    1.31    2.20
   5 -10  -1  250.44   13.60
  -5 -10   1  262.79   14.99
   5 -10  -1  261.28   15.08
   5 -10   0   75.52    6.20
  -5 -10   0   69.12    6.59
   5 -10   0   66.04    6.59
  -5 -10  -1    1.86    1.94
   5 -10   1    0.55    1.66
  -5  10  -2    9.32    2.38
  -5 -10  -2    9.71    2.80
   5 -10   2    8.18    2.70
  -5 -10  -2    7.86    2.76
  -5  10  -3   14.78    2.98
  -5 -10  -3   19.93    3.40
   5 -10   3   17.91    3.46
  -5 -10  -4   66.47    6.24
   5 -10   4   70.35    6.73
  -5 -10  -4   80.54    5.66
  -5  10  -4   72.96    6.42
  -5  10  -5    5.64    2.36
  -5 -10  -5    4.06    2.29
  -5 -10  -5    6.11    2.55
   5 -10   5    4.82    2.52
  -5 -10  -5    7.47    1.93
  -5  10  -6    2.73    2.22
  -5 -10  -6    5.26    2.55
  -5 -10  -6    8.97    2.89
  -5 -10  -6    6.27    1.92
  -5  10  -7   -0.74    2.23
  -5 -10  -7    2.38    2.11
  -5 -10  -7   -0.90    2.49
  -5 -10  -7    4.23    2.70
  -5 -10  -7    2.36    1.54
  -5  10  -8   21.36    4.27
  -5 -10  -8   12.30    3.36
  -5 -10  -8   13.49    3.21
  -5 -10  -9    5.20    2.65
  -5  10  -9    9.34    3.56
  -5 -10  -9    5.74    2.57
   5  10   9    6.59    2.93
  -5 -10 -10   20.14    4.32
  -5  10 -10   28.03    4.96
  -5 -10 -10   18.70    3.95
   5  10  10   18.63    4.32
  -5 -10 -11   17.81    4.22
  -5 -10 -11   15.96    4.75
  -5  10 -11   15.32    4.36
  -5 -10 -11   14.00    3.36
   5  10  11   16.59    4.24
  -5  10 -12   43.50    6.81
  -5 -10 -12   38.32    5.38
   5  10  12   51.26    6.46
   5 -11 -12    3.79    2.46
  -5 -11  11    8.82    3.49
   5 -11 -11    8.08    3.15
  -5 -11  10  115.33   10.14
   5 -11 -10  102.86    8.63
  -5 -11   9   36.30    5.72
   5 -11  -9   41.94    5.28
  -5 -11   8   59.71    7.01
   5 -11  -8   63.68    6.61
  -5 -11   7   53.16    6.48
   5 -11  -7   37.01    5.13
  -5 -11   6   47.28    6.13
   5 -11  -6   60.04    6.16
  -5 -11   5    2.36    2.08
   5 -11  -5    4.81    2.44
   5 -11  -4   63.82    6.57
  -5 -11   3    2.19    2.52
   5 -11  -3   -0.71    2.06
  -5 -11   2   54.71    5.95
   5 -11  -2   49.37    5.90
  -5 -11   1    3.55    2.53
   5 -11  -1    4.47    2.79
   5 -11   0    5.24    3.00
  -5 -11   0    1.40    2.42
   5 -11   0    3.41    1.96
  -5 -11  -1   39.54    5.35
  -5 -11  -1   46.31    5.46
   5 -11   1   44.04    5.03
  -5 -11  -2   69.99    6.64
   5 -11   2   60.65    6.19
  -5 -11  -2   72.22    6.99
  -5 -11  -3   60.24    5.92
   5 -11   3   49.80    5.70
  -5 -11  -3   53.84    6.12
  -5  11  -4    1.81    2.14
  -5 -11  -4   -0.62    2.00
  -5 -11  -4   -0.71    2.37
   5 -11   4   -0.71    2.51
  -5  11  -5   44.94    5.22
  -5 -11  -5   35.20    4.73
  -5 -11  -5   50.82    5.76
  -5 -11  -5   38.04    4.19
  -5  11  -6    6.89    2.77
  -5 -11  -6    3.72    2.21
  -5 -11  -6    3.63    2.51
  -5  11  -7   12.62    3.38
  -5 -11  -7   14.54    3.30
  -5 -11  -7   13.31    3.48
  -5  11  -8   11.16    3.42
  -5 -11  -8    9.07    3.31
  -5 -11  -8   11.75    3.16
  -5  11  -9    4.25    3.10
  -5 -11  -9   -0.78    2.34
  -5 -11  -9    1.35    2.47
  -5 -11 -10    8.84    3.46
  -5  11 -10   10.84    3.80
  -5 -11 -10   13.67    4.42
  -5 -11 -10   14.13    3.42
  -5  11 -11   -1.92    3.21
   5 -12 -10   11.60    3.51
  -5 -12   9   25.11    4.96
   5 -12  -9   28.94    4.79
  -5 -12   8   26.93    4.91
  -5 -12   8   27.58    5.25
   5 -12  -8   25.57    4.52
  -5 -12   7    3.45    2.80
  -5 -12   7    0.86    2.39
   5 -12  -7    2.25    2.51
  -5 -12   6   29.23    5.23
  -5 -12   6   29.23    5.23
   5 -12  -6   36.80    5.21
  -5 -12   5   21.09    4.50
  -5 -12   5   34.59    5.17
   5 -12  -5   24.26    4.41
  -5 -12   4   30.48    5.03
  -5 -12   4   32.43    5.00
   5 -12  -4   29.89    4.85
  -5 -12   3    1.52    2.38
  -5 -12   3    2.32    2.75
   5 -12  -3    0.78    2.45
  -5 -12   2   -0.73    2.45
  -5 -12   2    2.29    2.64
   5 -12  -2    4.02    2.69
  -5 -12   1    0.75    2.27
   5 -12  -1   -0.81    2.45
   5 -12   0   -4.07    2.64
  -5 -12   0   -0.74    2.06
  -5 -12  -1   45.62    5.83
  -5 -12  -2   38.95    5.35
  -5 -12  -3    0.66    2.40
  -5 -12  -3    3.69    2.76
  -5 -12  -4   40.47    5.20
  -5 -12  -4   50.76    6.10
  -5  12  -5    0.68    2.33
  -5 -12  -5    1.96    2.19
  -5 -12  -5   -0.75    2.60
  -5  12  -6   75.86    7.37
  -5 -12  -6   78.85    7.25
  -5 -12  -6   86.09    8.02
  -5  12  -7    3.02    2.68
  -5 -12  -7    2.02    2.64
  -5 -12  -7   -0.77    2.34
  -5  12  -8    3.21    2.77
  -5 -12  -8    1.38    2.39
  -5 -12  -8   -0.79    2.47
  -5  12  -9   24.75    4.83
  -5  12 -10   21.69    4.55
   5 -13  -8    4.10    2.75
  -5 -13   7   22.11    4.88
   5 -13  -7   11.47    3.61
  -5 -13   6  103.26    9.41
  -5 -13   6  127.05   10.26
   5 -13  -6   98.81    9.12
  -5 -13   5  211.87   13.89
  -5 -13   5  195.10   13.70
   5 -13  -5  201.04   13.71
  -5 -13   4   23.37    4.67
  -5 -13   4   31.62    5.25
   5 -13  -4   22.94    4.81
  -5 -13   3    6.25    3.14
  -5 -13   3    2.46    2.66
   5 -13  -3    3.45    3.31
  -5 -13   2  147.08   10.78
  -5 -13   2  145.03   11.05
   5 -13  -2  126.05   10.73
  -5 -13   1    0.80    2.49
  -5 -13   1    1.49    2.41
   5 -13  -1   -0.88    2.66
  -5 -13   0   35.93    5.43
  -5 -13   0   27.04    4.56
  -5 -13  -1   45.11    6.10
  -5 -13  -2   17.86    4.16
  -5 -13  -3   50.67    6.28
  -5 -13  -4   -3.15    3.16
  -5 -13  -5   33.23    5.40
  -5 -13  -6    6.40    3.08
  -5  13  -7   12.66    3.72
  -5  13  -8   12.52    3.66
   5 -14  -5    0.92    2.65
   5 -14  -4   38.16    6.15
   5 -14  -3   13.23    4.29
  -5 -14   2    0.85    2.66
   5 -14  -2    2.86    3.19
  -5 -14   1   49.27    6.44
  -5 -14   0    3.30    2.84
  -5 -14  -1   98.31    8.97
  -6   0  16  106.15   10.95
  -6   0  15    1.14    3.31
  -6   0  14    3.24    2.86
  -6   0  13    1.02    2.69
  -6   0  12   41.89    6.17
  -6   0  11   -0.89    2.36
  -6   0  10   89.62    8.21
  -6   0  10   79.82    5.27
  -6   0   9   -0.77    1.93
  -6   0   9    1.39    1.12
  -6   0   8   29.90    4.48
  -6   0   8   24.19    2.63
  -6   0   8   25.59    3.32
  -6   0   7   -0.40    1.64
  -6   0   7   -0.66    1.74
  -6   0   7    0.26    1.01
  -6   0   6  260.93   10.77
  -6   0   6  272.56   14.73
  -6   0   6  256.29   12.88
  -6   0   6  244.87   10.61
  -6   0   5   -0.36    1.25
  -6   0   5    0.56    1.69
  -6   0   5   -0.34    0.82
  -6   0   4  521.41   24.85
  -6   0   4  547.09   22.47
  -6   0   4  549.02   23.68
   6   0  -4  537.91   24.76
  -6   0   3    0.34    1.27
  -6   0   3    1.84    1.54
   6   0  -3    0.91    1.37
   6   0  -3    0.80    0.68
  -6   0   3    1.29    1.20
  -6   0   2  262.67   12.94
  -6   0   2  254.08   12.03
  -6   0   2  241.68   12.26
   6   0  -2  257.37   13.04
   6   0  -2  241.41   10.32
  -6   0   1   -0.37    1.30
  -6   0   1   -0.34    1.61
   6   0  -1    0.82    1.45
  -6   0   1   -0.35    1.15
  -6   0   0  560.15   23.25
  -6   0   0  494.55   23.06
  -6   0   0  525.93   23.57
   6   0   0  535.71   23.67
   6   0   0  544.75   23.25
   6   0   1   -0.71    1.33
  -6   0  -1    0.35    1.21
  -6   0  -1   -0.88    1.25
   6   0   1    1.11    1.31
   6   0   1    0.36    1.34
  -6   0  -1   -0.43    1.31
  -6   0  -2   44.63    3.63
  -6   0  -2   50.07    4.22
  -6   0  -2   57.53    5.08
   6   0   2   53.50    4.30
   6   0   2   46.07    4.23
   6   0   2   47.16    4.20
  -6   0  -3   -0.76    1.42
   6   0   3    0.38    1.23
  -6   0  -3    0.73    0.91
   6   0   3   -0.41    1.45
   6   0   3   -0.69    1.35
  -6   0  -3   -0.52    1.58
  -6   0  -4  398.22   17.02
  -6   0  -4  404.78   18.50
  -6   0  -4  369.48   19.42
   6   0   4  404.49   17.92
   6   0   4  362.80   18.08
   6   0   4  402.07   18.78
  -6   0  -5   -1.19    1.18
   6   0   5    0.83    1.43
   6   0   5   -0.34    1.32
  -6   0  -5   -0.09    0.50
  -6   0  -5    1.24    1.87
  -6   0  -6  533.12   22.57
  -6   0  -6  544.75   26.25
   6   0   6  538.81   23.45
   6   0   6  562.99   24.41
  -6   0  -6  525.79   21.59
  -6   0  -7   -0.47    1.04
   6   0   7   -0.46    1.88
  -6   0  -7   -0.27    1.37
   6   0   7    0.34    1.47
  -6   0  -7   -1.44    2.34
  -6   0  -7    0.42    1.02
  -6   0  -8  146.85    7.77
  -6   0  -8  128.80   10.40
   6   0   8  147.99    8.27
   6   0   8  149.59    9.20
  -6   0  -8  129.57    7.40
  -6   0  -9    0.67    1.29
   6   0   9    0.37    1.52
  -6   0  -9    1.64    2.28
   6   0   9    0.51    2.11
  -6   0 -10  111.79    7.20
  -6   0 -10  111.25    9.90
   6   0  10  109.16    7.28
   6   0  10  118.07    8.23
  -6   0 -11    0.43    1.54
  -6   0 -11    0.93    2.46
  -6   0 -12   19.64    3.25
  -6   0 -12   21.80    4.68
  -6   0 -13    5.26    3.06
  -6   0 -14    1.11    2.79
  -6   0 -15    1.17    2.94
  -6  -1  16   32.74    6.60
  -6   1  16   28.90    6.07
  -6  -1  15   -2.30    3.97
  -6   1  15   -1.14    3.16
  -6  -1  14   71.78    8.43
  -6   1  14   55.79    7.72
  -6  -1  13   18.45    4.58
  -6   1  13   16.11    4.50
  -6  -1  12  202.26   13.94
  -6   1  12  160.30   12.80
  -6  -1  11  105.60    9.35
  -6   1  11   99.38    9.18
  -6  -1  10   25.24    4.67
  -6   1  10   28.57    4.88
  -6   1  10   30.16    2.58
  -6  -1  10   21.09    2.79
  -6  -1   9    0.46    0.66
  -6  -1   9    1.57    2.18
  -6   1   9    3.02    2.10
  -6   1   9    1.07    0.92
  -6  -1   9    0.67    1.32
  -6  -1   8    0.92    1.72
  -6  -1   8    0.45    0.61
  -6   1   8   -1.51    1.37
  -6  -1   8   -1.47    2.21
  -6   1   8   -0.70    1.84
  -6   1   8   -0.21    0.88
  -6  -1   8   -1.62    1.65
  -6  -1   7  259.28   11.11
  -6  -1   7  266.72   15.02
  -6   1   7  233.45   14.23
  -6  -1   7  246.15   12.15
  -6  -1   7  240.07   10.93
  -6   1   7  249.18   12.45
  -6  -1   7  256.57   13.17
  -6  -1   6    0.19    0.80
  -6  -1   6    0.99    0.76
  -6   1   6   -0.33    1.34
  -6  -1   6   -0.63    1.35
  -6  -1   6    1.27    1.77
  -6  -1   6    2.55    1.63
  -6   1   6    1.17    1.76
   6   1  -6    1.73    2.26
  -6   1   5  394.13   16.67
  -6  -1   5  467.84   21.51
  -6   1   5  439.21   20.86
  -6   1   5  442.70   19.01
  -6  -1   5  480.59   19.34
   6   1  -5  421.18   20.78
  -6  -1   5  457.37   18.28
  -6  -1   5  437.40   19.77
  -6  -1   4    3.93    1.41
  -6   1   4    2.71    1.44
  -6  -1   4    4.83    1.91
  -6   1   4    4.50    1.02
  -6   1   4    3.36    2.17
  -6  -1   4    4.32    1.59
   6   1  -4    2.61    1.81
   6  -1  -4    6.22    1.31
  -6   1   3   -2.03    1.26
  -6  -1   3   -0.30    1.19
  -6  -1   3    0.39    1.48
  -6  -1   3    1.95    1.73
  -6   1   3   -0.43    1.60
  -6   1   3    1.56    0.83
   6   1  -3    0.50    1.78
   6   1  -3    0.09    0.42
   6  -1  -3    0.18    0.76
  -6   1   2  125.92    6.37
  -6   1   2  120.78    6.84
  -6  -1   2  116.33    7.83
  -6   1   2  133.08    7.74
  -6   1   2  124.12    7.03
  -6  -1   2  121.92    7.52
  -6  -1   2  122.37    7.27
   6   1  -2  115.09    7.97
   6  -1  -2  136.17    7.85
   6  -1  -2  121.43    6.01
  -6   1   1  164.98    7.86
  -6  -1   1  159.74    9.53
  -6   1   1  167.65    9.17
  -6   1   1  182.03    9.30
  -6   1   1  179.74    9.03
  -6  -1   1  181.24    9.65
  -6  -1   1  174.93    9.54
   6   1  -1  163.55    9.92
   6  -1  -1  171.26    9.42
  -6   1   0  155.92    7.32
  -6  -1   0  167.06    9.21
  -6   1   0  178.23    8.73
  -6   1   0  160.85    9.19
  -6   1   0  166.34    8.68
  -6  -1   0  162.20    9.25
  -6  -1   0  167.00    9.48
   6   1   0  169.60    9.66
   6  -1   0  152.65    8.76
   6  -1   0  168.78    8.73
   6   1   0  150.17    9.01
  -6   1  -1    1.55    0.63
  -6   1  -1    0.62    1.19
  -6   1  -1    0.49    0.97
  -6  -1  -1    0.34    1.40
   6   1   1    1.18    1.55
  -6  -1  -1    2.34    1.60
   6   1   1    0.42    1.48
  -6   1  -1   -0.43    1.67
   6  -1   1   -0.98    1.34
   6   1   1    1.96    1.54
   6  -1   1    0.64    1.25
   6  -1   1   -0.32    1.22
  -6  -1  -1    0.45    1.30
   6   1   2   48.59    4.47
  -6   1  -2   52.67    3.56
  -6  -1  -2   50.25    4.03
  -6   1  -2   48.22    3.99
  -6  -1  -2   44.44    4.20
   6   1   2   62.03    4.81
   6  -1   2   44.60    3.83
  -6   1  -2   50.72    4.76
   6  -1   2   48.99    4.19
   6   1   2   47.66    4.47
   6  -1   2   50.83    4.11
  -6  -1  -2   45.89    4.69
  -6   1  -3   19.49    2.65
   6  -1   3   15.86    2.44
  -6  -1  -3   18.66    2.77
  -6   1  -3   16.86    1.88
  -6  -1  -3   19.16    2.40
   6   1   3   14.93    2.75
   6   1   3   22.54    2.92
  -6   1  -3   15.15    3.10
   6  -1   3   15.04    2.16
   6  -1   3   17.44    2.66
   6   1   3   17.79    2.89
  -6  -1  -3   23.36    3.39
  -6  -1  -4   32.07    3.64
  -6   1  -4   26.42    2.27
  -6  -1  -4   24.82    2.68
   6   1   4   23.85    3.16
   6  -1   4   23.57    3.03
   6  -1   4   26.80    2.73
  -6   1  -4   23.41    3.57
   6   1   4   20.69    3.29
  -6  -1  -4   24.18    3.69
   6   1   4   22.58    3.27
  -6  -1  -5    1.38    1.93
  -6   1  -5    1.58    0.95
  -6  -1  -5    0.28    1.23
   6  -1   5    0.77    1.44
   6   1   5   -0.39    1.78
   6  -1   5   -0.28    1.08
   6   1   5   -0.44    1.62
  -6   1  -5    0.62    2.20
   6   1   5   -0.49    1.74
  -6  -1  -5   -0.63    2.16
  -6   1  -5    0.15    0.72
  -6   1  -6   64.44    3.98
  -6  -1  -6   59.18    4.39
   6   1   6   56.31    4.94
   6  -1   6   61.28    4.37
   6  -1   6   60.89    5.04
   6   1   6   62.28    5.42
  -6   1  -6   57.68    6.21
   6   1   6   63.60    5.62
  -6   1  -6   60.54    3.78
  -6  -1  -6   56.76    3.05
  -6  -1  -6   80.06    6.99
  -6  -1  -7  141.01    7.90
  -6   1  -7  164.95   11.06
   6   1   7  149.00    8.66
   6  -1   7  141.21    7.82
  -6  -1  -7  134.11   10.18
   6  -1   7  140.03    8.74
   6   1   7  138.44    9.11
  -6   1  -7  148.80    7.53
  -6  -1  -7  139.56    6.90
   6  -1   7  139.46    9.54
  -6  -1  -8    1.87    1.16
   6   1   8    2.04    2.05
  -6  -1  -8    1.99    1.60
   6  -1   8    0.60    2.12
   6   1   8    1.61    1.47
   6  -1   8    1.81    1.34
  -6   1  -8   -1.55    2.15
  -6  -1  -8    4.63    2.74
   6  -1   8    1.85    1.64
  -6   1  -8    2.11    1.33
  -6   1  -9    9.11    2.08
   6   1   9    6.96    2.51
  -6  -1  -9    8.60    1.75
   6  -1   9    8.28    2.78
   6   1   9    9.19    2.28
   6  -1   9    6.35    1.84
  -6   1  -9    8.30    3.27
  -6  -1  -9    6.59    3.10
   6  -1   9    9.40    2.60
  -6   1  -9    6.33    1.66
  -6   1 -10   53.71    4.71
  -6  -1 -10   44.87    3.95
   6   1  10   50.04    4.60
  -6   1 -10   42.56    6.00
  -6  -1 -10   41.46    5.93
   6  -1  10   39.54    4.61
  -6   1 -11    1.42    1.94
  -6  -1 -11    0.39    1.52
   6   1  11    0.91    1.48
  -6   1 -11   -0.94    2.37
  -6  -1 -11   -0.93    2.59
  -6   1 -12    2.60    2.00
  -6   1 -12    6.00    3.24
  -6  -1 -12    1.98    2.87
  -6   1 -13   14.80    3.21
  -6   1 -13   14.79    4.37
  -6  -1 -13   15.67    4.41
  -6   1 -14   10.02    4.08
  -6  -1 -14    8.85    3.83
  -6   1 -15    3.51    3.54
  -6  -1 -15   14.03    4.59
   6   2 -17   15.11    4.01
   6   2 -16  111.29    9.39
  -6  -2  16  114.59   11.34
  -6   2  16  104.64   10.78
   6   2 -15    5.10    2.45
  -6  -2  15    6.94    3.36
  -6   2  15    7.89    3.89
   6   2 -14  179.97   11.99
  -6  -2  14  173.01   13.95
  -6   2  14  206.20   14.71
   6   2 -13   -1.24    1.94
  -6  -2  13   -1.03    2.59
  -6   2  13    1.00    2.64
   6   2 -12   45.73    4.99
  -6  -2  12   54.48    6.98
  -6   2  12   40.29    6.02
   6   2 -11    9.18    2.58
  -6   2  11    5.22    2.84
  -6  -2  10  175.69   12.38
  -6   2  10  158.60   11.63
  -6  -2   9   54.40    3.95
  -6  -2   9   49.39    6.17
  -6  -2   9   54.93    4.63
  -6   2   9   54.15    6.29
  -6  -2   8  257.22   11.47
  -6  -2   8  276.82   15.42
  -6   2   8  244.07   14.43
  -6  -2   8  219.88   12.00
  -6   2   8  211.99   11.62
  -6  -2   8  256.51   13.37
  -6  -2   7  182.70   12.02
  -6   2   7  179.19   11.52
   6   2  -7  194.95   12.10
  -6  -2   7  177.21    9.82
  -6   2   7  177.88    9.41
  -6  -2   7  189.73   10.78
  -6  -2   7  180.92    9.02
  -6  -2   6  571.55   27.09
  -6   2   6  574.34   26.21
   6   2  -6  557.07   26.59
  -6  -2   6  553.26   24.52
  -6   2   6  556.30   23.81
  -6  -2   6  548.21   25.31
  -6  -2   6  571.67   23.51
  -6   2   5   28.47    3.48
  -6  -2   5   27.42    3.47
  -6  -2   5   38.48    4.68
  -6   2   5   37.11    3.16
  -6   2   5   37.94    4.29
  -6  -2   5   33.93    3.55
   6   2  -5   27.21    4.12
   6  -2  -5   34.08    2.99
  -6   2   4  649.52   27.59
  -6   2   4  619.31   25.32
  -6  -2   4  675.59   29.87
  -6   2   4  679.31   28.82
  -6   2   4  673.00   26.94
   6   2  -4  698.08   29.96
  -6  -2   4  648.78   27.97
  -6  -2   4  643.58   28.45
   6  -2  -4  676.95   26.89
  -6  -2   4  656.41   27.40
  -6   2   3   23.64    2.70
  -6   2   3   27.43    2.21
  -6  -2   3   30.69    3.13
  -6  -2   3   27.79    3.43
  -6  -2   3   25.42    3.67
  -6   2   3   32.51    3.44
  -6   2   3   23.28    2.51
   6   2  -3   18.53    3.32
   6  -2  -3   34.08    2.69
  -6   2   2  242.69   11.80
  -6   2   2  255.96   11.86
  -6  -2   2  265.02   13.76
  -6   2   2  269.68   12.78
  -6   2   2  267.64   11.94
   6   2  -2  245.36   13.83
  -6  -2   2  256.67   13.28
  -6  -2   2  248.82   12.74
   6  -2  -2  258.78   11.61
  -6  -2   1    8.35    2.03
  -6   2   1    5.91    1.36
  -6  -2   1    7.17    1.79
  -6   2   1    8.01    1.56
  -6  -2   1    7.95    2.18
  -6   2   1    7.17    1.66
  -6   2   1   10.29    1.79
   6   2  -1    8.99    2.35
   6  -2  -1    8.78    1.58
   6  -2  -1    9.63    1.51
  -6  -2   0    2.17    1.50
  -6   2   0    0.51    0.95
  -6  -2   0    0.41    1.52
  -6   2   0   -0.24    0.89
  -6   2   0   -0.37    1.15
   6   2   0   -0.48    1.60
  -6  -2   0    0.42    1.41
   6  -2   0   -0.27    1.06
   6  -2   0   -1.40    1.12
  -6   2  -1  367.34   15.13
  -6   2  -1  346.69   16.91
  -6  -2  -1  354.24   16.65
  -6   2  -1  359.35   15.81
  -6  -2  -1  342.20   16.92
   6   2   1  328.71   17.07
  -6  -2  -1  336.52   17.19
   6  -2   1  363.91   15.65
   6  -2   1  344.29   15.93
   6   2   1  343.42   16.92
   6  -2   1  341.81   15.78
   6   2   1  363.04   17.19
  -6  -2  -2   44.94    4.70
  -6   2  -2   46.27    3.02
  -6  -2  -2   50.46    4.26
  -6  -2  -2   44.19    4.41
  -6   2  -2   45.07    4.57
   6  -2   2   44.69    3.44
   6   2   2   44.87    4.51
   6  -2   2   47.57    4.05
   6   2   2   49.95    4.60
   6  -2   2   51.90    3.99
   6   2   2   54.21    4.81
  -6   2  -3   82.25    4.21
  -6  -2  -3   69.85    5.27
  -6   2  -3   89.98    6.81
  -6  -2  -3   83.30    6.23
   6   2   3   78.97    6.03
  -6  -2  -3   73.90    6.45
   6  -2   3   77.71    4.71
   6  -2   3   73.84    5.17
   6   2   3   73.80    6.10
   6   2   3   80.33    6.09
  -6  -2  -4   14.24    3.08
   6   2   4   11.99    2.50
  -6   2  -4    9.34    1.25
  -6  -2  -4   12.11    2.61
   6  -2   4    6.68    2.14
  -6  -2  -4   16.08    2.25
   6  -2   4    8.35    1.89
   6   2   4    9.19    2.29
  -6   2  -4    9.25    2.63
   6  -2   4    6.72    1.40
   6   2   4    8.28    2.41
  -6   2  -4   14.51    1.57
  -6  -2  -5   -0.49    1.57
  -6   2  -5    0.76    0.80
   6  -2   5    0.97    1.72
   6  -2   5   -0.72    1.44
  -6  -2  -5    0.32    1.33
   6   2   5    0.87    1.75
  -6   2  -5   -0.63    2.04
   6  -2   5    0.64    0.88
   6   2   5    0.51    1.61
   6   2   5    0.95    1.73
  -6   2  -5   -0.60    0.92
  -6  -2  -5    1.27    1.92
  -6  -2  -6  115.67    6.71
  -6   2  -6   93.40    8.16
  -6  -2  -6  107.53    7.68
   6   2   6  101.39    7.16
   6  -2   6  106.19    5.85
  -6  -2  -6  111.39    8.69
   6  -2   6  105.33    6.93
   6   2   6  102.17    7.54
   6   2   6  103.41    7.86
   6  -2   6  107.75    7.80
  -6   2  -6  109.71    5.98
   6  -2   7   -0.56    1.94
  -6  -2  -7    0.34    1.34
   6   2   7    3.09    2.11
   6   2   7   -0.44    1.69
  -6   2  -7    0.73    2.13
   6  -2   7    0.93    1.06
   6   2   7    1.72    1.92
  -6  -2  -7   -0.73    2.11
   6  -2   7    0.41    1.58
  -6   2  -7   -0.28    1.05
  -6  -2  -7    0.14    0.68
  -6  -2  -8  142.59    8.30
  -6   2  -8  163.71   11.43
   6   2   8  136.88    8.81
   6  -2   8  149.96    7.56
  -6  -2  -8  140.75   10.69
   6  -2   8  139.48    8.77
   6   2   8  147.17    9.54
   6   2   8  133.11    9.53
   6  -2   8  135.84    9.64
  -6   2  -8  141.44    8.04
  -6  -2  -9    4.71    1.77
   6  -2   9    3.86    2.35
   6   2   9    3.26    1.79
  -6   2  -9    5.04    2.81
   6  -2   9    0.48    1.83
  -6  -2  -9    0.83    2.51
  -6   2  -9    1.54    1.48
   6   2  10   41.56    4.38
  -6   2 -10   43.85    6.01
   6  -2  10   44.60    4.77
  -6  -2 -10   36.26    5.47
  -6   2 -10   28.12    3.76
   6   2  11    1.00    1.68
  -6   2 -11   -0.95    2.75
  -6  -2 -11   -1.88    2.48
  -6   2 -12   18.10    4.49
  -6  -2 -12   14.96    4.22
  -6   2 -13    9.73    2.87
  -6   2 -13   14.86    4.09
  -6  -2 -13   12.64    4.34
  -6   2 -14   15.63    4.71
  -6  -2 -14   17.75    4.68
  -6   2 -15   11.71    4.72
   6   3 -17    1.69    2.74
   6   3 -16    1.58    2.29
  -6  -3  16    3.67    2.90
  -6   3  16    1.18    3.55
   6   3 -15    4.42    2.55
  -6  -3  15    9.30    3.90
  -6   3  15    6.68    3.61
   6   3 -14  104.49    8.57
  -6  -3  14  110.37   10.67
  -6   3  14  112.23   10.73
   6   3 -13   23.30    3.76
  -6  -3  13   28.25    5.33
  -6   3  13   20.69    4.60
   6   3 -12   24.72    3.97
  -6  -3  12   16.84    4.37
  -6   3  12   15.66    4.14
   6   3 -11    4.68    2.14
  -6   3  11    4.29    3.14
  -6  -3  11    6.55    2.93
   6   3 -10  259.86   13.91
  -6  -3  10  275.83   13.20
  -6  -3  10  279.43   16.91
  -6   3  10  256.07   16.03
   6   3  -9  115.39    7.56
  -6  -3   9  115.26    7.07
  -6  -3   9  120.51    9.86
  -6   3   9  117.32    9.34
  -6  -3   9  118.39    7.65
  -6   3   9  120.77    6.90
  -6  -3   8  114.11    6.74
  -6   3   8   97.00    7.65
   6   3  -8  124.96    7.18
  -6  -3   8  128.40    9.71
  -6   3   8  117.47    8.78
   6   3  -8  115.20    9.09
  -6  -3   8  102.53    7.22
  -6   3   8  106.50    6.33
  -6  -3   8  102.66    7.76
  -6   3   7  114.34    7.99
   6   3  -7  124.48    7.08
  -6  -3   7  134.60    9.89
  -6   3   7  117.40    8.70
   6   3  -7  119.09    9.28
  -6  -3   7  122.72    7.81
  -6   3   7  125.46    6.70
  -6  -3   7  114.99    8.25
  -6  -3   7  126.36    7.16
  -6   3   6  158.85    9.38
  -6  -3   6  149.62   10.67
  -6   3   6  164.65   10.08
  -6   3   6  167.30    7.90
   6   3  -6  146.73   10.55
  -6  -3   6  155.59    9.18
  -6  -3   6  142.82    9.45
  -6  -3   6  151.97    8.28
  -6   3   5  128.77    8.32
  -6  -3   5  142.91   10.05
  -6   3   5  151.49    9.17
  -6   3   5  143.84    7.11
   6   3  -5  144.15   10.04
  -6  -3   5  130.49    8.40
  -6  -3   5  145.31    9.09
   6  -3  -5  156.16    8.01
  -6   3   4  158.22    9.31
  -6  -3   4  165.31   10.83
  -6   3   4  167.57    9.88
  -6   3   4  175.73    8.12
   6   3  -4  189.55   11.43
  -6  -3   4  165.02    9.71
  -6  -3   4  172.72   10.16
   6  -3  -4  179.11    8.94
  -6   3   3   55.01    3.27
  -6   3   3   62.95    4.63
  -6   3   3   67.65    3.75
  -6   3   3   53.91    4.51
  -6  -3   3   60.00    5.62
  -6  -3   3   62.20    5.26
   6   3  -3   44.94    5.23
   6  -3  -3   55.84    4.09
  -6   3   2  404.41   17.83
  -6   3   2  396.32   17.12
  -6  -3   2  416.52   19.70
  -6   3   2  397.03   16.77
  -6   3   2  381.46   17.77
   6   3  -2  394.70   19.97
  -6  -3   2  417.11   19.26
  -6  -3   2  395.34   18.54
   6  -3  -2  404.38   17.55
  -6   3   1   13.65    1.75
  -6  -3   1   12.34    2.50
  -6  -3   1   13.28    2.38
  -6   3   1   14.48    2.08
  -6  -3   1   19.18    3.07
  -6   3   1   12.28    1.83
   6   3  -1   13.59    2.74
   6  -3  -1   14.13    1.74
   6  -3  -1   15.41    2.10
  -6  -3   0   12.47    2.62
  -6  -3   0   11.99    2.58
  -6   3   0   15.73    1.71
  -6   3   0   12.83    2.33
   6   3   0   12.58    2.93
   6  -3   0   14.33    1.93
  -6  -3   0   21.07    2.99
  -6  -3  -1   51.89    4.84
  -6   3  -1   45.30    2.77
  -6  -3  -1   44.25    4.29
  -6   3  -1   47.93    4.31
   6   3   1   40.90    4.42
   6   3   1   43.99    4.64
  -6  -3  -1   39.94    4.39
   6  -3   1   45.68    3.63
   6  -3   1   50.19    4.09
   6  -3   1   39.21    3.27
  -6   3  -2  323.01   13.45
  -6   3  -2  365.84   16.92
  -6  -3  -2  327.82   15.94
  -6  -3  -2  327.28   16.60
   6   3   2  357.06   17.07
  -6  -3  -2  319.88   16.93
   6   3   2  323.56   16.60
   6  -3   2  339.44   14.95
   6  -3   2  335.84   15.79
   6   3   2  336.96   16.70
  -6  -3  -3   -0.58    1.94
  -6   3  -3   -0.08    0.43
   6  -3   3   -0.82    1.72
  -6  -3  -3   -0.76    1.45
  -6  -3  -3    0.48    1.28
  -6   3  -3   -1.05    1.97
   6   3   3    0.99    1.60
   6   3   3    2.00    1.91
   6  -3   3    0.28    1.31
   6   3   3   -0.49    1.64
  -6  -3  -4    6.24    2.62
   6  -3   4    2.27    1.91
  -6  -3  -4    4.99    2.18
  -6  -3  -4    8.68    1.95
   6   3   4    7.49    2.37
   6  -3   4    4.91    1.51
  -6   3  -4    3.48    2.18
   6   3   4    6.81    2.16
   6   3   4    6.22    2.09
  -6   3  -4    5.88    1.39
  -6  -3  -5    4.65    2.23
   6   3   5    5.10    2.22
   6  -3   5    3.66    1.63
   6  -3   5    3.96    1.91
  -6  -3  -5    6.21    2.34
  -6  -3  -5    5.37    1.83
  -6   3  -5    5.07    2.44
   6   3   5    6.32    2.08
   6   3   5    4.33    2.23
  -6   3  -5    6.70    1.47
  -6  -3  -6    0.70    2.20
  -6  -3  -6   -1.08    1.69
   6  -3   6   -1.07    2.16
  -6  -3  -6    0.36    1.39
  -6   3  -6    0.69    2.07
   6   3   6    1.46    1.72
   6   3   6    0.57    1.71
   6   3   6   -0.53    1.59
  -6   3  -6   -0.56    1.10
   6  -3   6   -0.36    1.25
  -6  -3  -7   23.37    3.63
   6  -3   7   28.36    4.02
  -6  -3  -7   23.36    2.89
   6  -3   7   26.30    2.01
   6   3   7   24.50    3.59
  -6   3  -7   31.08    4.69
   6   3   7   22.35    3.80
   6   3   7   18.42    3.44
   6  -3   7   32.66    3.54
  -6   3  -7   25.85    2.98
  -6  -3  -7   25.38    4.56
   6  -3   8    5.57    2.38
  -6  -3  -8    5.18    1.95
   6   3   8    6.24    2.33
   6   3   8    3.50    1.83
  -6   3  -8    2.38    2.30
   6  -3   8    2.57    1.93
   6   3   8    3.12    2.28
  -6  -3  -8    2.38    2.66
  -6   3  -8    5.08    1.78
   6   3   9   -0.51    1.61
  -6   3  -9   -0.85    2.13
   6  -3   9    0.93    1.78
   6   3   9   -0.66    2.34
  -6  -3  -9   -1.69    2.45
  -6   3  -9    0.83    1.30
  -6  -3 -10    3.18    1.74
   6   3  10    0.53    1.66
  -6   3 -10   -0.90    2.38
   6  -3  10    2.50    1.97
   6   3  10    0.69    2.31
  -6  -3 -10    6.30    3.19
  -6   3 -10    0.47    1.56
   6   3  11    7.14    2.27
  -6   3 -11    9.55    3.40
  -6  -3 -11    9.52    3.30
   6   3  12   -0.57    1.97
  -6   3 -12   -1.01    2.53
  -6  -3 -12    1.01    2.38
  -6   3 -13   -1.07    2.82
  -6  -3 -13   -3.19    3.21
  -6   3 -14   19.10    5.09
  -6  -3 -14   11.26    4.14
   6   4 -18   37.25    6.05
   6   4 -17   -0.86    2.39
   6   4 -16   64.06    7.02
  -6   4  16   60.48    8.02
   6   4 -15   22.73    4.44
  -6  -4  15   41.16    6.83
  -6   4  15   31.91    5.99
   6   4 -14  109.69    8.60
  -6  -4  14  105.12   10.39
   6   4 -13   20.94    3.92
  -6  -4  13   27.66    5.25
  -6   4  13   17.52    4.46
   6   4 -12   68.56    6.47
  -6  -4  12   84.55    8.82
  -6   4  12   71.84    7.88
   6   4 -11   98.80    7.58
  -6   4  11  104.87    9.17
  -6  -4  11  105.98    9.70
   6   4 -10   85.88    6.68
  -6  -4  10   76.61    5.94
  -6   4  10   93.06    8.15
  -6  -4  10   95.93    8.96
  -6   4   9    2.42    2.37
   6   4  -9   -0.44    1.41
  -6  -4   9    0.41    1.48
  -6  -4   9    0.85    2.47
  -6  -4   9   -0.60    2.21
  -6   4   9   -0.25    1.09
  -6   4   9   -0.72    1.90
  -6  -4   9    0.47    1.63
  -6   4   8  133.07    8.92
   6   4  -8  114.48    7.42
  -6  -4   8  150.75   10.74
  -6   4   8  117.77    9.01
   6   4  -8  138.22   10.22
  -6  -4   8  115.09    8.01
  -6   4   8  126.25    6.50
  -6  -4   8  114.54    8.51
  -6  -4   8  121.77    7.62
  -6   4   7   20.27    3.35
   6   4  -7   21.56    2.61
  -6  -4   7   22.92    2.92
  -6  -4   7   15.79    3.26
  -6  -4   7   19.58    3.86
  -6   4   7   23.61    2.06
  -6   4   7   24.33    3.77
  -6  -4   7   17.86    3.02
   6   4  -7   18.30    3.71
  -6   4   6  257.56   12.99
   6   4  -6  223.39   11.03
  -6  -4   6  227.20   14.22
  -6   4   6  221.33   12.85
  -6   4   6  230.32   10.11
   6   4  -6  228.93   14.17
  -6  -4   6  235.94   12.60
   6  -4  -6  248.94   12.00
  -6  -4   6  233.14   13.15
  -6  -4   6  239.96   11.89
   6   4  -5   40.57    3.11
  -6   4   5   47.78    4.52
  -6  -4   5   50.93    4.96
  -6   4   5   51.89    2.80
  -6  -4   5   43.87    5.43
  -6   4   5   48.31    4.63
  -6  -4   5   45.18    4.52
   6   4  -5   51.28    5.68
   6  -4  -5   44.04    3.91
  -6   4   4   53.18    4.58
  -6   4   4   52.98    2.90
  -6   4   4   56.58    4.68
  -6  -4   4   45.35    5.20
  -6  -4   4   58.23    5.28
  -6  -4   4   49.50    4.75
   6   4  -4   54.76    5.80
   6  -4  -4   56.35    4.30
   6   4  -4   54.69    3.16
  -6   4   3   19.96    1.46
  -6  -4   3   19.22    3.30
  -6   4   3   14.95    2.37
  -6  -4   3   23.27    3.34
  -6  -4   3   12.02    2.59
   6   4  -3   12.05    2.93
   6  -4  -3   18.27    2.47
  -6   4   3   16.49    1.41
  -6   4   2   47.20    3.73
  -6  -4   2   53.23    5.34
  -6  -4   2   60.71    5.31
   6   4  -2   42.73    5.09
   6  -4  -2   57.19    4.32
  -6   4   2   57.58    3.63
  -6   4   1   42.97    3.56
  -6  -4   1   46.66    4.67
  -6   4   1   42.20    3.13
  -6  -4   1   44.21    4.70
   6   4  -1   41.86    4.88
   6  -4  -1   48.68    3.09
   6  -4  -1   47.13    3.96
  -6   4   0   71.13    5.19
  -6   4   0   72.82    3.82
  -6  -4   0   79.04    6.06
   6   4   0   87.04    6.84
  -6  -4   0   64.92    5.73
   6  -4   0   68.17    4.35
   6  -4   0   68.20    4.76
  -6  -4   0   76.56    6.21
  -6   4  -1  133.15    7.83
  -6   4  -1  117.89    4.99
  -6  -4  -1  118.10    7.79
   6   4   1  115.72    8.41
  -6  -4  -1  117.08    8.11
   6  -4   1  116.05    7.07
  -6  -4  -1  106.24    7.97
   6  -4   1  114.66    6.09
   6  -4   2   33.36    3.60
  -6  -4  -2   31.15    4.25
   6   4   2   33.20    4.16
  -6  -4  -2   35.55    3.86
  -6   4  -2   31.63    3.81
  -6  -4  -2   35.21    4.19
   6   4   2   39.77    4.57
   6  -4   2   37.11    2.92
   6   4   2   33.29    4.08
  -6   4  -3  110.02    7.70
  -6  -4  -3  117.26    7.31
   6   4   3  102.45    7.66
  -6  -4  -3  101.30    7.54
   6  -4   3   99.29    5.84
   6  -4   3   91.43    6.83
  -6  -4  -3   97.14    7.77
   6   4   3  106.64    7.73
   6   4   3  104.85    7.64
  -6   4  -4  232.20   13.14
  -6  -4  -4  227.79   11.77
  -6  -4  -4  227.29   12.70
   6   4   4  223.64   12.68
   6  -4   4  205.12   10.66
  -6  -4  -4  228.95   13.49
   6  -4   4  219.08   12.15
   6   4   4  224.03   12.84
  -6   4  -4  209.32   10.63
   6   4   4  228.66   12.77
   6  -4   5    2.16    1.42
   6  -4   5    2.58    1.73
   6   4   5    8.20    2.55
  -6  -4  -5    4.38    2.15
  -6  -4  -5    0.79    1.49
  -6   4  -5    5.12    2.46
   6   4   5    3.22    2.01
   6   4   5    3.44    2.20
  -6   4  -5    4.13    1.46
  -6  -4  -6   54.04    6.13
   6  -4   6   42.88    5.00
  -6  -4  -6   57.42    4.81
  -6  -4  -6   60.37    5.69
  -6   4  -6   69.39    6.61
   6  -4   6   58.61    4.59
   6   4   6   56.10    5.40
   6   4   6   61.37    5.87
  -6   4  -6   55.62    4.40
   6   4   6   62.58    5.82
  -6  -4  -7   21.09    4.14
  -6  -4  -7   13.66    3.25
   6  -4   7   19.12    3.77
  -6  -4  -7   21.81    3.06
  -6   4  -7   16.46    3.87
   6   4   7   14.51    3.06
   6  -4   7   18.82    2.70
   6   4   7   18.01    3.39
   6   4   7   16.69    3.26
  -6   4  -7   18.63    2.61
  -6  -4  -8   28.70    4.89
  -6  -4  -8   28.86    4.38
   6  -4   8   28.10    4.36
  -6  -4  -8   33.71    3.88
  -6   4  -8   29.70    4.84
   6   4   8   26.36    3.90
   6  -4   8   28.12    3.51
   6   4   8   27.25    4.25
  -6   4  -8   38.23    3.75
  -6  -4  -9    3.21    1.99
  -6   4  -9    0.86    2.27
   6   4   9    1.13    1.64
   6  -4   9    2.26    1.69
   6   4   9    0.68    2.12
  -6   4  -9    1.33    1.39
  -6  -4  -9    2.60    2.61
  -6  -4 -10   13.67    2.74
  -6   4 -10   13.73    3.95
   6   4  10   15.06    3.12
   6  -4  10   11.77    2.63
   6   4  10   19.17    3.76
  -6  -4 -10   21.93    4.50
  -6   4 -10   20.27    3.23
  -6   4 -11    5.83    3.15
   6   4  11    1.79    1.94
   6   4  11    0.74    2.25
  -6  -4 -11   -2.91    2.93
  -6   4 -12   45.25    6.63
   6   4  12   40.61    5.69
  -6  -4 -12   41.00    6.38
  -6   4 -13   20.60    4.85
   6   4  13   16.31    3.86
  -6  -4 -13   18.34    4.74
  -6   4 -14   10.27    4.07
   6   4  14    8.52    3.44
  -6  -4 -14   12.49    4.57
   6   5 -18   69.83    8.19
   6   5 -17   14.15    3.88
   6   5 -16   22.56    4.50
  -6   5  16    6.90    3.50
   6   5 -15    1.57    2.46
  -6  -5  15    1.19    2.81
  -6   5  15    1.09    3.15
   6   5 -14   52.25    6.06
  -6  -5  14   52.07    7.32
  -6   5  14   39.95    6.78
   6   5 -13   10.28    3.11
  -6  -5  13    6.47    3.27
  -6   5  13    9.61    3.79
   6   5 -12   53.73    5.85
  -6  -5  12   64.72    7.63
   6   5 -11    1.15    1.74
  -6  -5  11    1.95    2.70
  -6   5  11    7.51    3.12
  -6   5  10   24.61    4.25
   6   5 -10   17.75    3.26
  -6  -5  10   27.76    3.65
  -6  -5  10   22.12    4.58
  -6   5  10   22.38    4.51
  -6   5   9    3.85    2.35
   6   5  -9    5.61    2.04
  -6  -5   9    9.31    2.38
  -6  -5   9    5.19    2.50
  -6   5   9    5.37    1.14
  -6  -5   9    6.96    2.83
  -6  -5   9    6.71    2.37
   6   5  -8    7.00    1.92
  -6   5   8    1.79    2.07
  -6  -5   8    5.02    2.23
  -6  -5   8    1.33    1.49
  -6   5   8    3.76    0.76
  -6  -5   8    4.94    2.39
  -6   5   8    0.64    1.79
  -6  -5   8    3.05    1.60
   6   5  -7    0.36    1.49
  -6   5   7    2.76    2.01
  -6  -5   7    0.83    1.44
  -6  -5   7    0.61    1.68
  -6  -5   7    1.56    2.44
  -6   5   7    0.88    0.39
  -6   5   7    2.33    2.01
  -6  -5   7    3.01    2.01
   6   5  -7    1.56    2.44
   6  -5  -7    1.64    1.54
   6   5  -6  331.34   15.20
  -6   5   6  337.08   16.96
  -6  -5   6  323.88   18.34
  -6   5   6  334.44   16.93
   6   5  -6  356.08   19.03
  -6  -5   6  344.01   16.93
   6  -5  -6  332.55   15.99
  -6  -5   6  308.79   17.14
  -6  -5   6  333.79   16.03
   6   5  -5   60.75    4.13
  -6   5   5   58.96    5.33
  -6  -5   5   63.31    6.37
  -6   5   5   69.14    5.52
  -6  -5   5   71.99    5.86
  -6  -5   5   77.09    6.27
   6   5  -5   51.88    6.19
   6  -5  -5   65.23    5.03
   6   5  -5   62.54    4.09
   6   5  -4   20.70    1.90
  -6  -5   4   23.44    3.81
  -6   5   4   17.54    2.63
  -6  -5   4   18.79    3.17
   6   5  -4   20.55    3.74
   6   5  -4   20.69    1.80
   6  -5  -4   22.87    2.84
  -6  -5   4   22.23    3.47
   6   5  -3    2.63    0.60
  -6  -5   3    4.32    2.00
  -6   5   3    0.63    0.99
  -6  -5   3    1.09    1.88
  -6  -5   3    3.00    1.73
   6   5  -3    3.40    1.97
   6   5  -3    1.76    0.47
   6  -5  -3    4.11    1.43
  -6  -5   2   34.03    4.11
  -6   5   2   34.23    2.84
  -6  -5   2   40.80    4.67
   6   5  -2   32.24    4.52
  -6  -5   2   27.98    3.92
   6  -5  -2   32.42    2.59
  -6   5   2   34.73    2.63
   6  -5  -2   34.06    3.51
   6  -5  -1   11.22    1.80
  -6   5   1   16.17    2.13
  -6  -5   1   13.93    2.77
  -6  -5   1   11.01    2.77
  -6   5   1   11.49    1.38
   6   5  -1    8.28    2.81
   6  -5  -1   16.48    1.55
   6  -5  -1   14.89    2.55
  -6   5   0  176.61    9.17
  -6   5   0  163.45    6.73
  -6  -5   0  169.96   10.33
   6   5   0  167.56   11.03
  -6  -5   0  166.45   10.45
   6  -5   0  165.90    8.85
   6  -5   0  173.87    8.09
   6  -5   0  158.38    9.28
  -6   5  -1  113.04    7.56
  -6  -5  -1  126.76    8.33
   6   5   1  123.44    8.85
  -6  -5  -1  125.40    8.51
   6  -5   1  113.39    7.21
  -6  -5  -1  126.25    8.73
   6  -5   2   22.78    3.12
  -6  -5  -2   31.35    4.25
  -6   5  -2   29.79    3.64
  -6  -5  -2   23.16    3.46
   6   5   2   33.45    4.27
   6  -5   2   27.05    2.29
   6   5   2   30.12    4.16
  -6  -5  -2   26.10    3.81
   6  -5   3   11.30    2.51
  -6  -5  -3   12.78    3.05
  -6   5  -3    7.43    2.47
  -6  -5  -3   13.76    2.58
  -6  -5  -3    9.46    2.74
   6   5   3    6.52    2.46
   6   5   3    6.79    2.45
   6  -5   3   12.73    1.78
   6   5   3   16.70    3.26
  -6   5  -4  181.47   11.30
  -6  -5  -4  181.04   10.30
   6   5   4  186.47   11.41
  -6  -5  -4  167.44   10.90
   6  -5   4  189.39   10.81
   6  -5   4  174.78    8.86
  -6  -5  -4  154.40   11.26
   6   5   4  171.28   11.08
  -6   5  -4  190.75    9.56
   6   5   4  180.64   11.21
   6  -5   5   63.70    5.76
  -6  -5  -5   61.24    6.33
  -6  -5  -5   61.03    5.18
  -6  -5  -5   54.04    5.57
  -6   5  -5   60.73    6.17
   6   5   5   52.27    5.77
   6   5   5   52.19    5.63
   6  -5   5   52.33    4.14
   6   5   5   64.21    6.08
  -6   5  -5   63.07    4.70
  -6   5  -6  236.91   14.10
  -6  -5  -6  224.15   12.15
  -6  -5  -6  228.20   13.32
   6   5   6  220.90   13.07
   6  -5   6  226.70   11.28
   6  -5   6  225.58   13.04
  -6  -5  -6  248.08   14.70
   6   5   6  217.86   13.29
  -6   5  -6  214.00   11.46
   6  -5   7   15.58    3.40
  -6  -5  -7   14.60    3.55
  -6  -5  -7    8.67    2.91
  -6  -5  -7    8.05    2.40
  -6   5  -7   10.63    3.39
   6   5   7    7.05    2.54
   6  -5   7   15.16    2.58
   6   5   7   12.40    3.21
  -6   5  -7   10.74    2.34
  -6  -5  -8   -0.86    2.78
   6  -5   8    3.32    2.35
  -6  -5  -8   -0.65    2.11
  -6  -5  -8    0.47    1.70
  -6   5  -8    0.82    2.26
   6   5   8    1.20    2.07
   6   5   8    1.36    2.04
  -6   5  -8   -0.43    1.36
  -6  -5  -9   34.26    5.65
  -6  -5  -9   43.78    4.56
  -6   5  -9   44.48    5.99
   6   5   9   46.72    5.29
   6  -5   9   38.74    4.28
   6   5   9   36.66    5.13
  -6   5  -9   38.93    4.33
  -6  -5  -9   42.42    5.31
  -6  -5 -10   13.03    2.91
  -6   5 -10    2.79    3.22
   6  -5  10    7.17    2.35
   6   5  10    6.61    2.90
  -6   5 -10   10.43    2.81
  -6  -5 -10    8.49    3.17
  -6  -5 -11   13.84    3.18
  -6   5 -11   13.80    4.07
   6  -5  11   14.47    2.82
   6   5  11   12.26    3.49
  -6  -5 -11   13.86    3.92
  -6   5 -12   22.90    5.22
   6   5  12   19.99    4.05
  -6  -5 -12   27.21    5.18
  -6   5 -13   16.45    4.55
   6   5  13   20.01    4.18
  -6  -5 -13   17.65    4.75
  -6   5 -14   24.20    5.72
   6   5  14    6.08    3.11
   6   6 -16   60.51    7.11
  -6   6  16   51.14    7.60
  -6   6  15    1.08    2.70
   6   6 -14   45.02    6.00
  -6  -6  14   51.78    7.58
  -6   6  14   61.67    7.48
   6   6 -13   -2.84    2.52
  -6  -6  13    1.09    3.04
  -6   6  13    0.95    2.10
   6   6 -12   57.23    6.22
  -6  -6  12   62.34    7.71
  -6   6  12   60.34    7.09
   6   6 -11   19.31    3.62
  -6   6  11   27.22    4.72
   6   6 -10  177.29   10.86
  -6  -6  10  164.72   10.68
  -6  -6  10  186.02   13.21
  -6   6  10  172.24   11.93
  -6  -6  10  174.14   11.69
   6   6  -9   27.81    3.75
  -6   6   9   35.97    5.02
  -6  -6   9   25.13    3.69
  -6  -6   9   24.12    4.89
  -6  -6   9   23.50    3.76
  -6   6   9   23.73    4.21
  -6  -6   9   27.05    4.34
   6   6  -8   55.38    4.99
  -6   6   8   59.14    5.99
  -6  -6   8   59.66    5.42
  -6  -6   8   56.87    6.87
  -6  -6   8   70.38    6.64
  -6  -6   8   57.89    5.70
  -6   6   8   53.96    5.77
   6  -6  -8   56.76    5.14
   6   6  -7  181.39    9.89
  -6   6   7  168.72   10.94
  -6  -6   7  206.72   13.01
  -6   6   7  173.87   10.98
  -6  -6   7  160.58   10.56
   6  -6  -7  175.93   10.23
  -6  -6   7  169.61   11.31
  -6  -6   7  176.54   10.30
   6   6  -6  565.12   23.97
  -6   6   6  542.86   25.62
  -6  -6   6  527.00   27.03
  -6   6   6  565.08   25.43
  -6  -6   6  543.21   25.56
  -6  -6   6  548.68   26.34
   6  -6  -6  542.10   24.78
   6   6  -6  557.65   23.60
  -6  -6   6  557.98   24.92
  -6  -6   5   -0.45    1.55
   6   6  -5   -0.28    1.15
  -6   6   5    0.52    1.68
  -6  -6   5   -0.61    1.91
  -6  -6   5    3.59    2.40
  -6   6   5   -0.44    1.42
  -6  -6   5    0.53    1.84
   6   6  -5    0.78    2.44
   6  -6  -5   -0.43    1.57
   6   6  -5   -0.46    1.02
   6   6  -4   49.75    3.40
  -6   6   4   51.39    3.57
  -6  -6   4   50.51    5.50
  -6   6   4   43.08    4.00
   6   6  -4   50.49    6.05
  -6  -6   4   48.65    5.12
   6   6  -4   46.14    3.07
   6  -6  -4   45.71    4.36
  -6  -6   4   42.26    4.88
   6   6  -3  295.18   12.77
  -6   6   3  335.71   13.17
  -6  -6   3  311.85   16.80
  -6   6   3  302.10   13.91
   6   6  -3  300.36   17.11
  -6  -6   3  301.05   16.14
  -6  -6   3  297.09   15.88
   6  -6  -3  284.87   12.73
   6   6  -3  285.24   12.39
   6  -6  -3  335.07   15.33
  -6  -6   2   35.96    4.39
  -6   6   2   36.90    2.78
  -6  -6   2   33.90    4.40
   6  -6  -2   32.69    2.80
   6   6  -2   32.49    4.74
  -6  -6   2   30.17    4.15
  -6   6   2   45.45    3.02
   6  -6  -2   33.24    3.76
  -6  -6   1   39.67    4.70
  -6   6   1   45.91    2.49
  -6  -6   1   42.59    5.03
   6  -6  -1   50.50    3.76
   6   6  -1   44.04    5.42
  -6   6   1   44.13    3.51
   6  -6  -1   43.55    4.35
   6  -6   0    6.36    1.96
   6  -6   0    5.78    1.66
  -6  -6   0   11.39    2.75
  -6   6   0    9.85    1.95
  -6  -6   0    7.24    2.30
   6   6   0   10.15    2.85
   6  -6   1   -1.93    1.41
  -6   6  -1    0.41    1.32
  -6  -6  -1   -1.59    2.04
   6   6   1    0.66    1.93
  -6  -6  -1   -0.57    1.73
  -6   6  -2  169.04    9.77
  -6  -6  -2  163.27    9.94
   6   6   2  165.37   10.83
  -6  -6  -2  154.14   10.14
   6  -6   2  166.15    9.52
   6  -6   2  147.92    7.16
  -6  -6  -2  156.26   10.63
   6  -6   3   31.84    3.81
  -6  -6  -3   31.18    4.62
  -6   6  -3   24.02    3.81
   6   6   3   32.18    4.38
  -6  -6  -3   29.29    3.78
  -6  -6  -3   29.53    4.09
   6   6   3   32.82    4.46
   6  -6   3   34.28    2.56
  -6   6  -4  147.12    9.70
  -6  -6  -4  141.20    9.00
   6   6   4  134.37   10.03
  -6  -6  -4  150.03    9.93
   6  -6   4  124.70    9.02
   6  -6   4  141.07    7.27
   6   6   4  153.08   10.09
  -6  -6  -4  137.90   10.24
  -6   6  -4  142.76    8.30
   6   6   4  145.15    9.92
  -6   6  -5  247.29   14.11
  -6  -6  -5  251.74   12.90
   6   6   5  230.34   13.78
  -6  -6  -5  248.49   13.86
   6  -6   5  215.41   10.97
   6  -6   5  217.54   13.00
  -6  -6  -5  232.91   14.43
   6   6   5  228.97   13.90
  -6   6  -5  231.43   12.02
  -6   6  -6  229.22   13.92
  -6  -6  -6  216.23   12.08
  -6  -6  -6  200.70   12.89
   6   6   6  251.49   13.93
   6  -6   6  215.03   10.96
   6  -6   6  203.83   12.77
  -6  -6  -6  250.70   14.83
   6   6   6  241.06   13.81
  -6   6  -6  203.21   11.51
   6  -6   7   19.28    3.63
  -6  -6  -7   22.72    4.55
  -6  -6  -7   14.34    3.47
  -6  -6  -7   19.84    3.38
  -6   6  -7   12.29    3.52
   6   6   7   12.84    3.29
   6  -6   7   19.86    2.73
   6   6   7   28.90    4.51
  -6   6  -7   13.58    2.59
  -6  -6  -8    8.90    3.26
  -6  -6  -8    8.11    3.01
  -6  -6  -8   10.05    2.93
  -6   6  -8    8.26    3.11
   6  -6   8    7.39    2.11
   6   6   8   10.67    3.11
  -6   6  -8   13.18    2.58
  -6  -6  -9   96.27    7.40
  -6  -6  -9  100.81    8.61
  -6   6  -9   86.44    8.74
  -6  -6  -9  124.21   10.32
   6   6   9  106.08    8.93
  -6   6  -9  107.49    7.67
  -6  -6 -10    4.91    3.19
  -6  -6 -10    6.67    2.42
  -6   6 -10    3.76    3.05
   6   6  10    6.11    2.94
  -6  -6 -11   -3.52    2.36
  -6   6 -11    1.00    2.64
   6   6  11   -0.79    2.57
  -6  -6 -11    2.05    2.57
  -6   6 -12   -1.05    2.64
   6   6  12    0.83    2.49
  -6  -6 -12   -1.07    2.83
  -6   6 -13   23.28    5.40
   6   6  13   31.74    5.20
  -6  -6 -13   17.98    4.79
  -6   7  16   14.60    4.34
   6   7 -15    1.68    2.43
  -6   7  15    9.56    4.08
   6   7 -14   26.72    4.72
  -6   7  14   17.01    4.42
   6   7 -13    5.88    2.63
  -6  -7  13   10.98    4.22
  -6   7  13    9.38    3.34
   6   7 -12   54.64    6.15
  -6  -7  12   61.92    7.73
  -6   7  12   49.10    6.47
   6   7 -11   18.95    3.76
  -6   7  11   21.56    3.40
  -6  -7  11   17.07    4.42
  -6   7  11   13.03    3.47
   6   7 -10   11.60    2.82
  -6   7  10   18.54    2.97
  -6  -7  10   20.11    4.64
  -6  -7  10   17.56    3.88
  -6   7  10   18.02    3.72
   6  -7 -10   18.01    3.32
  -6   7   9   37.64    3.91
  -6  -7   9   29.52    4.59
  -6  -7   9   28.50    4.07
  -6  -7   9   33.74    5.49
  -6   7   9   44.10    5.18
   6  -7  -9   31.75    4.14
  -6   7   8  277.84   16.16
  -6   7   8  295.83   14.30
  -6  -7   8  328.15   18.33
  -6   7   8  259.71   15.62
   6  -7  -8  284.42   15.13
  -6  -7   8  301.53   16.86
  -6  -7   8  310.78   15.87
  -6   7   7    9.36    2.99
  -6  -7   7   11.63    2.80
  -6   7   7   14.04    2.34
  -6  -7   7   11.49    3.25
  -6   7   7   10.11    2.70
   6  -7  -7   18.92    2.98
  -6  -7   7   13.17    3.37
  -6  -7   6    7.57    2.38
  -6   7   6   12.50    3.09
  -6   7   6   12.00    2.02
  -6  -7   6   18.00    3.89
  -6  -7   6    6.74    2.73
  -6  -7   6   13.88    3.16
  -6   7   6    7.43    2.11
   6  -7  -6    9.26    2.34
  -6  -7   5   10.02    2.36
  -6   7   5    8.52    1.65
  -6  -7   5    9.80    2.91
  -6  -7   5    7.47    2.82
  -6  -7   5    9.77    2.66
  -6   7   5    9.39    2.20
   6  -7  -5   13.53    2.67
  -6   7   4  246.60   11.01
  -6  -7   4  238.78   14.62
  -6   7   4  237.43   12.00
  -6  -7   4  225.79   13.39
  -6  -7   4  215.14   13.66
   6   7  -4  256.86   10.94
   6  -7  -4  225.19   12.80
   6  -7  -3    9.97    1.52
  -6   7   3   10.02    1.34
  -6  -7   3   10.25    3.15
  -6  -7   3   12.51    2.99
  -6   7   3   13.22    1.90
   6   7  -3   12.48    3.54
  -6  -7   3    6.93    2.59
   6   7  -3   11.07    1.39
   6  -7  -3    9.74    2.41
   6  -7  -2    1.58    0.99
  -6  -7   2    3.10    2.08
  -6  -7   2    1.95    2.11
  -6   7   2    2.26    0.83
   6   7  -2    5.30    2.69
  -6  -7   2    2.92    2.34
   6  -7  -2    3.51    1.88
  -6   7   1    1.95    1.07
  -6  -7   1    1.23    1.71
  -6  -7   1    0.62    2.01
   6   7  -1    1.48    1.96
  -6  -7   1    2.38    1.99
   6  -7  -1    1.03    1.62
   6  -7  -1    1.27    1.19
   6  -7   0   -1.03    1.78
  -6  -7   0    1.22    1.76
  -6   7   0    0.34    1.23
  -6  -7   0   -0.59    1.79
   6   7   0   -0.73    2.29
   6  -7   0    0.37    1.22
  -6   7  -1   14.54    2.53
  -6  -7  -1   20.51    3.45
   6   7   1   18.03    3.77
  -6  -7  -1   12.79    2.99
   6  -7   1   15.66    2.58
  -6   7  -2   28.62    3.57
  -6  -7  -2   23.15    3.61
   6   7   2   19.80    3.81
  -6  -7  -2   26.46    3.97
   6  -7   2   26.46    3.48
  -6   7  -3    0.53    1.66
  -6  -7  -3    1.45    2.27
  -6  -7  -3   -0.53    1.79
   6   7   3   -0.70    2.48
  -6  -7  -3   -0.63    1.74
   6  -7   3   -2.00    1.67
  -6   7  -4    9.46    2.65
  -6  -7  -4   17.35    4.01
  -6  -7  -4   12.93    2.77
  -6  -7  -4    8.90    2.64
   6   7   4    6.28    2.58
  -6   7  -4   13.30    2.61
   6  -7   4   17.31    3.26
  -6  -7  -5    3.17    2.57
  -6   7  -5    7.84    3.00
  -6  -7  -5    5.13    2.19
  -6  -7  -5    6.47    2.76
   6   7   5    2.07    2.01
  -6   7  -5    7.36    2.15
   6  -7   5    2.91    2.19
  -6  -7  -6    8.33    3.62
  -6   7  -6    4.30    2.55
  -6  -7  -6    4.63    2.24
  -6  -7  -6    5.30    2.48
   6   7   6    3.55    2.66
  -6   7  -6    3.16    1.86
   6  -7   6    3.74    2.22
  -6  -7  -7   -0.88    2.75
  -6  -7  -7    2.73    2.42
  -6  -7  -7    0.52    1.95
  -6   7  -7   -0.78    2.25
   6   7   7    2.19    2.20
  -6   7  -7    0.96    1.65
   6  -7   7    0.66    2.08
  -6   7  -8  205.11   13.56
  -6  -7  -8  190.34   11.37
  -6  -7  -8  168.47   12.09
  -6  -7  -8  204.95   13.99
   6   7   8  190.84   12.76
  -6   7  -8  182.90   11.09
  -6  -7  -9   -2.20    2.60
  -6  -7  -9   -0.97    3.15
  -6  -7  -9   -0.56    1.94
  -6   7  -9   -1.79    2.48
   6   7   9    0.77    2.33
  -6   7  -9    0.54    1.82
  -6  -7 -10    1.02    2.84
  -6  -7 -10    1.77    2.32
  -6   7 -10   -1.90    2.86
   6   7  10   -0.80    2.11
  -6  -7 -10   -0.77    2.23
  -6  -7 -11    1.07    2.96
  -6  -7 -11   -0.62    2.33
  -6   7 -11    1.01    2.67
   6   7  11    0.83    2.29
  -6  -7 -12    6.56    2.87
  -6   7 -12   10.65    4.00
  -6  -7 -12   11.06    4.05
  -6   7 -13    1.12    3.51
  -6   8  15   32.70    5.78
  -6   8  14   62.64    7.81
  -6   8  13   14.00    3.78
  -6   8  12   24.38    4.94
   6  -8 -12   43.79    5.25
  -6  -8  11   25.97    4.65
  -6  -8  11   17.40    4.75
  -6   8  11   17.79    3.95
   6  -8 -11   17.70    3.50
  -6  -8  10   29.18    5.22
  -6  -8  10   44.72    6.33
  -6   8  10   40.28    5.41
   6  -8 -10   51.56    5.36
  -6  -8   9   49.50    5.87
  -6  -8   9   49.09    6.53
  -6  -8   9   48.57    6.09
  -6   8   9   50.52    5.77
   6  -8  -9   51.66    5.25
  -6  -8   8   11.07    3.12
  -6  -8   8   14.41    3.56
  -6  -8   8   10.61    3.65
  -6   8   8   13.62    3.14
   6  -8  -8   12.84    2.88
  -6  -8   7   12.30    2.72
  -6  -8   7   17.69    4.11
  -6  -8   7   19.91    4.10
  -6   8   7   21.65    3.51
   6  -8  -7   23.46    3.54
  -6  -8   6    0.56    1.75
  -6  -8   6    0.72    2.16
  -6  -8   6    3.24    2.25
  -6   8   6    0.49    1.63
   6  -8  -6    2.71    1.70
  -6  -8   5  180.57   12.34
  -6   8   5  170.08    9.91
  -6  -8   5  166.74   11.59
   6  -8  -5  181.03   10.90
  -6  -8   5  182.50   11.02
  -6  -8   4   69.98    6.97
  -6   8   4   54.20    4.51
   6  -8  -4   68.70    5.95
  -6  -8   4   68.59    6.53
  -6  -8   3   40.58    5.12
  -6  -8   3   24.67    4.19
  -6   8   3   29.44    2.79
   6  -8  -3   35.80    4.38
  -6  -8   2  156.92   10.70
  -6  -8   2  161.69   10.72
   6  -8  -2  139.50    9.71
  -6  -8   1    0.66    1.82
  -6  -8   1   -0.65    2.26
   6  -8  -1    0.71    1.23
   6  -8  -1   -0.58    2.06
  -6  -8   0   76.96    6.79
   6  -8   0   69.11    5.56
  -6  -8   0   80.17    7.10
   6  -8   0   72.97    6.52
  -6   8   0   78.64    5.42
  -6   8  -1   10.56    2.29
  -6  -8  -1   10.29    2.89
   6  -8   1   13.06    2.64
  -6  -8  -1    9.06    2.89
  -6  -8  -2  179.68   11.11
   6  -8   2  170.85   10.37
  -6  -8  -2  165.01   11.12
  -6   8  -2  176.25   10.25
  -6   8  -3    3.71    2.30
  -6  -8  -3    2.28    2.13
  -6  -8  -3    0.66    2.14
   6  -8   3    2.68    2.06
  -6   8  -4   58.17    5.78
  -6  -8  -4   61.61    6.84
  -6  -8  -4   55.63    5.63
  -6  -8  -4   72.01    6.68
  -6   8  -4   55.83    5.15
   6  -8   4   59.98    5.92
  -6   8  -5    7.19    2.74
  -6  -8  -5    5.82    3.04
  -6  -8  -5    6.62    2.45
  -6  -8  -5    6.13    2.74
  -6   8  -5    5.75    2.09
   6  -8   5    3.70    2.07
  -6  -8  -6  102.31    7.80
  -6  -8  -6  107.85    8.74
   6  -8   6   97.15    8.21
  -6  -8  -6  112.27    9.58
  -6   8  -6   99.80    7.53
  -6   8  -6  110.74    8.75
  -6  -8  -7   10.95    3.61
  -6   8  -7   13.90    3.45
  -6  -8  -7   12.82    3.46
  -6  -8  -7   12.86    2.89
   6   8   7   16.18    3.95
  -6   8  -7   12.99    2.96
  -6  -8  -8   41.35    6.16
  -6  -8  -8   44.82    5.48
  -6   8  -8   40.04    5.69
  -6  -8  -8   31.13    4.40
   6   8   8   24.62    4.60
  -6  -8  -9    4.57    2.85
  -6  -8  -9    2.01    2.92
  -6  -8  -9    6.59    2.84
  -6   8  -9    2.68    2.80
   6   8   9    2.45    2.47
  -6  -8 -10   49.34    6.21
  -6  -8 -10   60.06    7.74
  -6  -8 -10   58.93    5.92
  -6   8 -10   55.12    7.21
   6   8  10   44.45    6.20
  -6  -8 -11    4.43    3.59
  -6  -8 -11    1.97    2.40
  -6   8 -11   12.11    4.14
  -6  -8 -12   13.85    3.61
  -6   8 -12   14.97    4.50
  -6   9  15   -1.05    2.78
  -6   9  14   23.76    4.98
   6  -9 -13   21.79    4.11
  -6  -9  12   30.22    5.37
  -6   9  12   29.47    5.14
   6  -9 -12   27.84    4.43
  -6   9  11   11.27    3.34
   6  -9 -11   10.51    3.15
  -6   9  10    4.46    2.41
   6  -9 -10    5.10    2.27
  -6  -9  10    1.71    2.59
  -6  -9   9   14.07    4.13
  -6  -9   9   10.38    3.48
  -6   9   9   14.96    3.50
   6  -9  -9   14.87    3.28
  -6  -9   8    1.81    2.62
  -6   9   8    3.70    2.25
   6  -9  -8    2.43    2.09
  -6  -9   8    0.81    2.43
  -6  -9   7   54.09    6.79
  -6  -9   7   51.62    6.19
  -6   9   7   46.23    5.11
   6  -9  -7   63.79    6.04
  -6  -9   6   -0.76    2.29
  -6  -9   6    0.84    2.63
   6  -9  -6    0.60    2.12
  -6  -9   5    2.21    2.31
  -6  -9   5    1.61    2.43
   6  -9  -5    2.40    2.01
  -6  -9   4   32.41    5.03
  -6  -9   4   36.03    4.98
   6  -9  -4   30.26    4.44
  -6  -9   3   29.81    4.59
   6  -9  -3   38.82    4.82
  -6  -9   2    0.70    2.20
  -6  -9   2    2.14    2.23
   6  -9  -2    3.80    2.18
  -6  -9   1   57.69    6.01
  -6  -9   1   39.94    5.31
   6  -9  -1   43.19    5.27
   6  -9   0   18.65    3.66
  -6  -9   0   17.85    3.69
  -6  -9   0   14.56    3.52
  -6   9  -1    3.81    1.88
  -6  -9  -1    3.84    2.46
  -6  -9  -1    0.69    2.22
  -6   9  -2   55.75    5.10
  -6  -9  -2   62.56    6.05
  -6  -9  -2   51.07    5.94
   6  -9   2   50.68    5.35
  -6  -9  -3   85.66    7.27
  -6  -9  -3   85.11    7.60
  -6   9  -3   78.86    6.53
  -6   9  -4   23.67    3.84
  -6  -9  -4   18.46    3.57
  -6  -9  -4   23.39    4.30
   6  -9   4   15.40    3.34
  -6   9  -4   20.28    3.40
  -6   9  -5   18.30    3.74
  -6  -9  -5   18.40    4.40
  -6  -9  -5   19.48    3.56
  -6  -9  -5   17.90    3.81
   6  -9   5   20.36    3.67
  -6   9  -6   41.27    5.54
  -6  -9  -6   37.27    5.89
  -6  -9  -6   41.46    5.07
  -6  -9  -6   42.33    5.80
  -6   9  -7    6.95    3.11
  -6  -9  -7    4.76    2.99
  -6  -9  -7    9.57    2.97
  -6  -9  -8    1.99    2.89
  -6   9  -8    3.34    2.70
  -6  -9  -8    4.30    2.52
   6   9   8   -0.83    2.79
  -6  -9  -9   -1.04    3.27
  -6   9  -9    0.89    2.79
  -6  -9  -9   -1.27    2.26
  -6   9 -10    0.95    2.38
  -6  -9 -10    0.66    2.08
  -6  -9 -11   -0.70    2.25
  -6   9 -11    1.01    2.80
   6 -10 -12  188.01   12.46
   6 -10 -11    1.41    2.83
  -6 -10  10    9.91    3.56
   6 -10 -10   12.34    3.27
  -6 -10   9    0.88    2.64
   6 -10  -9    0.67    2.18
  -6 -10   8  102.80    9.17
   6 -10  -8   89.05    7.85
  -6 -10   7   50.31    6.43
  -6 -10   7   71.75    7.84
   6 -10  -7   63.18    6.26
  -6 -10   6   31.20    5.35
  -6 -10   6   33.79    5.63
   6 -10  -6   40.85    5.14
  -6 -10   5   30.82    5.34
   6 -10  -5   27.86    4.42
  -6 -10   5   34.32    5.14
  -6 -10   4  113.31    9.66
  -6 -10   4  128.34    9.88
  -6 -10   3   25.50    4.68
  -6 -10   3   33.91    4.82
   6 -10  -3   22.61    4.06
  -6 -10   2   14.88    3.77
  -6 -10   2   11.91    3.51
   6 -10  -2   15.48    3.47
  -6 -10   1   30.18    4.96
  -6 -10   1   46.69    5.64
   6 -10  -1   43.98    5.48
  -6 -10   0  241.28   14.12
  -6 -10   0  200.58   13.41
  -6 -10  -1   11.53    3.54
  -6 -10  -1   17.41    3.83
  -6  10  -2   11.39    2.60
  -6 -10  -2   15.22    3.45
  -6  10  -3   16.69    3.18
  -6 -10  -3   15.32    3.51
  -6 -10  -4   91.17    7.80
  -6  10  -4   98.93    7.61
  -6  10  -5   31.30    4.47
  -6 -10  -5   39.68    6.16
  -6 -10  -5   30.79    4.51
  -6  10  -6   12.81    3.23
  -6 -10  -6   21.44    3.83
  -6  10  -7    7.71    3.24
  -6 -10  -7    9.90    3.90
  -6 -10  -7    7.01    2.94
  -6  10  -8    9.14    3.28
  -6 -10  -8   14.46    4.42
  -6 -10  -8    7.86    2.71
  -6 -10  -9   -1.08    2.70
  -6  10  -9    3.55    2.78
  -6 -10  -9    1.35    2.04
  -6  10 -10   17.08    4.18
  -6 -10 -10   17.60    3.87
   6 -11 -10    1.49    2.33
   6 -11  -9   40.95    5.55
  -6 -11   8    3.58    2.80
   6 -11  -8    4.33    2.77
  -6 -11   7    9.54    3.41
   6 -11  -7    3.60    2.63
  -6 -11   6   41.41    5.85
   6 -11  -6   38.47    5.30
  -6 -11   5   10.73    3.26
   6 -11  -5    9.46    3.01
  -6 -11   4   42.33    5.95
  -6 -11   4   42.79    5.92
   6 -11  -4   34.08    5.02
  -6 -11   3    0.80    2.50
   6 -11  -3   -0.76    2.98
  -6 -11   2   88.31    8.19
   6 -11  -2   79.34    7.82
  -6 -11   1    6.75    2.96
   6 -11  -1    9.33    3.39
  -6 -11   0    5.10    2.80
  -6 -11  -1   26.39    4.53
  -6 -11  -2   35.97    4.93
  -6 -11  -3   20.97    3.88
  -6  11  -4   -1.83    1.97
  -6 -11  -4    0.67    2.02
  -6  11  -5   16.39    3.48
  -6 -11  -5   16.69    3.67
  -6  11  -6    2.13    2.15
  -6 -11  -6    2.00    2.90
  -6 -11  -6    1.34    1.94
  -6 -11  -6    0.80    2.51
  -6  11  -7   13.04    3.43
  -6 -11  -7   12.38    4.08
  -6 -11  -7   12.19    3.19
  -6 -11  -7   13.83    3.44
  -6  11  -8    4.13    2.40
  -6  11  -9    7.98    3.16
  -6  11 -10    4.73    3.27
   6 -12  -9    6.33    2.90
   6 -12  -7   34.69    5.27
   6 -12  -6   64.93    6.91
   6 -12  -5    0.81    2.94
   6 -12  -4   45.79    6.02
   6 -12  -3    8.33    3.28
  -6 -12   2    1.61    2.60
   6 -12  -2    0.84    2.55
   6 -12  -1    6.75    3.00
  -6 -12   1    3.90    2.62
  -6 -12   0    2.29    2.30
  -6 -12  -1    5.97    2.57
  -6 -12  -1   -1.62    2.79
  -6 -12  -2   28.85    4.64
  -6 -12  -2   26.76    4.72
  -6 -12  -3   46.39    5.77
  -6 -12  -3   39.13    5.69
  -6 -12  -4    2.83    2.44
  -6 -12  -4    1.65    2.67
  -6  12  -5   28.07    4.45
  -6  12  -6   11.62    3.30
  -6  12  -7    0.77    2.34
  -6  12  -8   18.20    3.91
   6 -13  -6   22.60    4.90
   6 -13  -5   50.33    6.83
   6 -13  -4   15.23    4.08
   6 -13  -3   39.31    6.15
   6 -13  -2   -2.74    3.50
  -6  13  -7   25.64    4.65
  -7   0  15    1.18    3.13
  -7   0  14   64.99    8.53
  -7   0  13    1.06    3.06
  -7   0  12   51.56    7.11
  -7   0  11   -0.52    1.68
  -7   0  11   -0.93    2.70
  -7   0  10    9.41    2.51
  -7   0  10    6.98    3.02
  -7   0   9    1.63    2.36
  -7   0   9   -0.48    1.59
  -7   0   8   55.35    6.28
  -7   0   8   63.96    5.32
  -7   0   7   -0.87    1.58
  -7   0   7   -0.71    2.04
  -7   0   6   70.05    3.72
  -7   0   6   79.10    6.92
  -7   0   6   73.35    5.60
  -7   0   5   -0.41    1.40
  -7   0   5   -0.60    2.05
  -7   0   5   -0.20    0.72
   7   0  -5    0.57    0.79
  -7   0   4  225.70   10.96
  -7   0   4  246.79   13.34
  -7   0   4  242.13   12.18
   7   0  -4  223.13   12.94
   7   0  -4  232.63   10.15
  -7   0   3    0.49    1.42
  -7   0   3    0.62    1.03
   7   0  -3    1.02    1.60
  -7   0   3    0.78    1.34
  -7   0   2   55.05    4.94
  -7   0   2   48.35    4.19
  -7   0   2   55.03    4.64
   7   0  -2   48.63    4.86
  -7   0   1   -0.40    1.27
  -7   0   1    0.39    1.27
  -7   0   1   -0.41    1.27
   7   0  -1    0.47    1.41
  -7   0   0   76.70    5.65
  -7   0   0   90.75    6.48
  -7   0   0   89.18    6.13
   7   0   0   84.64    6.30
  -7   0  -1   -0.41    1.27
  -7   0  -1   -0.33    1.10
   7   0   1    0.86    1.53
  -7   0  -1    0.50    1.57
   7   0   1    1.25    1.40
  -7   0  -2   49.66    3.96
  -7   0  -2   56.90    4.80
   7   0   2   45.38    4.40
  -7   0  -2   51.65    5.17
   7   0   2   49.92    4.67
   7   0   2   56.17    4.85
  -7   0  -3    0.44    1.65
  -7   0  -3    0.28    1.18
   7   0   3    0.40    1.72
  -7   0  -3    0.60    1.58
   7   0   3    1.39    1.65
   7   0   3    0.44    1.57
  -7   0  -4   89.18    5.40
  -7   0  -4   91.74    6.65
  -7   0  -4   91.92    7.55
   7   0   4   77.78    5.94
   7   0   4   78.38    6.42
   7   0   4  102.64    6.89
   7   0   5   -0.47    1.72
  -7   0  -5    1.32    1.15
   7   0   5    1.17    1.70
  -7   0  -5    1.40    2.27
   7   0   5   -0.52    1.52
  -7   0  -6   90.37    5.41
   7   0   6   89.70    6.66
   7   0   6   70.06    6.50
  -7   0  -6   72.63    7.35
  -7   0  -7    0.29    1.25
   7   0   7    0.52    1.56
  -7   0  -7    0.80    2.32
   7   0   7    1.78    1.92
   7   0   8   85.19    6.78
  -7   0  -8   69.90    7.73
  -7   0  -9   -1.81    2.63
  -7   0 -10    3.85    3.12
  -7   0 -11    2.04    2.84
  -7   0 -12    3.25    3.14
  -7   0 -13   -1.15    2.88
  -7  -1  15    1.20    3.16
  -7   1  15    1.17    3.10
  -7  -1  14   -1.13    2.84
  -7   1  14    1.11    3.21
  -7  -1  13    2.15    3.24
  -7   1  13    4.17    3.14
  -7   1  12  116.30   10.45
  -7  -1  12  114.34   10.69
  -7  -1  11    2.25    2.00
  -7   1  11    5.22    2.03
  -7  -1  11    1.91    2.52
  -7   1  11    3.64    2.85
  -7   1  10   25.09    3.44
  -7  -1  10   30.44    5.26
  -7   1  10   29.71    5.00
  -7  -1  10   16.20    3.22
  -7  -1   9    3.64    2.00
  -7  -1   9    5.03    2.63
  -7   1   9    0.79    2.29
  -7   1   9    1.71    1.64
  -7   1   8   19.71    2.78
  -7  -1   8   17.50    3.07
  -7  -1   8   18.86    4.04
  -7   1   8    8.07    2.87
  -7  -1   7   49.04    4.83
  -7  -1   7   50.87    3.23
  -7  -1   7   41.55    5.43
  -7   1   7   52.12    5.62
  -7   1   7   46.97    4.22
  -7  -1   6    1.35    0.94
  -7   1   6    0.73    1.26
  -7  -1   6    2.03    1.96
  -7   1   6    1.25    1.95
  -7  -1   6    1.40    1.56
   7  -1  -6    0.76    0.98
  -7  -1   5   18.43    2.33
  -7   1   5   17.14    1.29
  -7   1   5   20.44    2.63
  -7  -1   5   19.51    3.12
  -7  -1   5   16.99    3.32
  -7   1   5   22.56    3.51
   7   1  -5   18.81    3.44
   7  -1  -5   22.46    2.25
  -7  -1   4    4.91    1.87
  -7   1   4    3.08    0.95
  -7  -1   4    4.61    2.05
  -7   1   4    2.05    1.55
   7   1  -4    1.16    1.69
   7  -1  -4    2.39    1.01
  -7   1   4    5.11    1.59
  -7  -1   4    1.54    1.13
  -7  -1   3   21.38    3.10
  -7  -1   3   20.05    3.33
  -7   1   3   25.12    3.37
  -7   1   3   30.92    2.81
  -7   1   3   30.28    3.11
   7   1  -3   18.97    3.57
   7  -1  -3   28.49    2.23
  -7  -1   3   26.12    3.03
  -7  -1   2    8.28    2.13
  -7   1   2    8.93    2.00
  -7   1   2    6.43    1.72
  -7   1   2    6.21    1.73
   7   1  -2    4.85    1.93
  -7  -1   2    5.64    1.76
   7  -1  -2    4.79    1.73
  -7  -1   2   10.89    2.07
  -7   1   1    1.36    1.37
  -7  -1   1    0.44    1.18
  -7   1   1   -0.36    1.17
  -7   1   1    0.38    1.11
  -7  -1   1    1.31    1.46
   7   1  -1   -0.52    1.57
   7  -1  -1    0.82    1.46
  -7  -1   1    0.43    1.44
  -7   1   0    4.89    1.65
  -7   1   0    0.32    1.24
  -7  -1   0    2.44    1.60
  -7  -1   0    6.22    1.93
  -7   1   0    1.31    1.37
   7   1   0    4.01    1.63
   7  -1   0    4.62    1.55
   7  -1   0    3.10    1.56
  -7  -1   0    1.89    1.58
  -7   1  -1   13.07    2.38
  -7   1  -1   12.21    1.90
  -7  -1  -1   14.55    2.36
  -7  -1  -1   17.09    2.95
  -7   1  -1    8.80    2.22
   7   1   1   16.44    2.87
   7  -1   1   12.60    2.26
   7   1   1   15.81    2.66
   7  -1   1    9.25    2.09
  -7  -1  -1   14.46    2.87
  -7   1  -2    8.06    1.91
  -7  -1  -2    4.60    1.77
  -7   1  -2    2.94    1.21
  -7  -1  -2    5.20    1.77
   7   1   2    4.64    1.83
  -7   1  -2    2.70    1.76
   7   1   2    2.34    1.62
   7  -1   2    6.93    1.84
   7   1   2    6.17    2.25
   7  -1   2    5.31    1.79
  -7  -1  -2    4.50    1.89
   7  -1   2    3.10    1.56
   7   1   3   -1.43    2.00
  -7  -1  -3   -0.48    1.44
  -7   1  -3   -1.79    1.12
  -7  -1  -3   -0.32    1.04
  -7   1  -3    0.59    1.64
   7   1   3    0.46    1.53
   7  -1   3   -0.44    1.32
   7  -1   3    0.34    1.11
   7   1   3   -0.49    1.49
   7  -1   3   -0.40    1.51
  -7  -1  -3   -0.61    1.91
  -7  -1  -4    4.47    1.95
  -7   1  -4    3.21    1.05
   7  -1   4    4.19    1.79
  -7  -1  -4    1.87    1.43
   7   1   4    5.41    2.06
  -7   1  -4    6.41    2.40
   7   1   4    3.61    1.65
   7  -1   4    2.98    1.47
   7  -1   4    1.41    1.47
   7   1   4    3.12    1.95
  -7  -1  -4    0.66    2.33
  -7  -1  -5   17.33    3.28
   7   1   5   16.17    3.07
  -7   1  -5   14.00    1.89
  -7  -1  -5   18.44    2.46
   7   1   5   11.69    2.39
  -7   1  -5   15.93    3.47
   7  -1   5   16.19    3.08
   7   1   5   15.36    3.03
  -7  -1  -5   15.46    3.47
   7  -1   5   12.70    2.63
  -7   1  -6    3.46    1.24
  -7  -1  -6    6.02    1.74
   7  -1   6    2.30    1.60
   7   1   6    5.87    2.11
  -7   1  -6    7.46    2.80
   7   1   6    5.78    2.32
  -7  -1  -6    1.51    2.09
   7   1   6    4.71    2.32
  -7  -1  -7    3.67    1.72
   7  -1   7    4.89    2.16
  -7   1  -7    1.60    2.33
   7   1   7    0.54    2.14
   7   1   7    2.44    2.11
  -7  -1  -7    4.02    2.69
  -7  -1  -8    3.19    1.54
   7  -1   8    1.55    1.56
  -7   1  -8    5.14    3.04
  -7  -1  -8    0.86    2.49
  -7   1  -9   69.50    7.64
  -7  -1  -9   65.91    7.53
   7   1   9   57.25    6.28
  -7   1 -10    0.97    2.93
  -7  -1 -10    2.90    3.62
  -7   1 -11    1.03    2.28
  -7  -1 -11   -1.02    2.71
  -7   1 -12    1.09    2.72
  -7  -1 -12    1.08    3.00
  -7   1 -13   14.87    4.73
  -7  -1 -13   17.12    4.91
  -7   2  15    1.16    2.75
  -7  -2  14   41.51    6.94
  -7   2  14   42.70    6.67
  -7  -2  13   42.61    6.55
  -7   2  13   33.93    6.01
  -7  -2  12  165.43   13.28
  -7   2  12  173.31   13.09
  -7  -2  11    5.46    2.44
  -7  -2  11    3.90    2.71
  -7   2  11    5.39    2.91
  -7  -2  10  202.33   13.79
  -7   2  10  187.97   12.95
  -7   2  10  176.55    9.99
  -7  -2  10  173.60   11.11
  -7  -2   9    0.56    1.76
  -7   2   9    3.72    1.81
  -7  -2   9    4.34    2.72
  -7   2   9    1.53    2.40
  -7  -2   8  167.39   12.33
  -7   2   8  189.75   12.31
  -7  -2   8  191.18   10.37
  -7   2   8  182.02    9.78
  -7  -2   8  193.03   11.33
  -7  -2   7    9.30    1.70
  -7  -2   7    8.41    2.30
  -7   2   7    9.08    2.02
  -7  -2   7    5.29    2.62
  -7   2   7    7.82    2.85
  -7  -2   7    6.43    1.93
   7   2  -7    9.87    2.96
  -7  -2   6   -0.26    1.05
  -7  -2   6   -0.29    1.02
  -7   2   6    0.31    1.18
  -7  -2   6   -0.71    2.05
  -7   2   6    2.38    1.92
   7   2  -6    1.35    2.04
   7  -2  -6    0.29    0.98
  -7  -2   6    0.51    1.76
  -7   2   5   46.97    3.67
  -7  -2   5   40.06    5.17
  -7  -2   5   37.84    4.32
  -7   2   5   48.30    4.89
  -7  -2   5   40.70    3.64
   7  -2  -5   41.25    3.40
   7   2  -5   41.12    5.22
  -7   2   4   82.52    3.96
  -7  -2   4   74.52    6.76
  -7   2   4   71.52    6.03
  -7   2   4   85.21    5.25
  -7  -2   4   76.62    6.23
  -7  -2   4   79.12    5.56
   7   2  -4   77.35    6.91
   7  -2  -4   84.02    5.01
  -7   2   3   90.76    5.62
  -7   2   3  100.88    5.32
  -7  -2   3   86.73    7.13
  -7   2   3   90.08    6.47
  -7   2   3   94.24    5.76
  -7  -2   3   99.95    7.04
  -7  -2   3   73.36    5.85
   7   2  -3   85.90    7.47
   7  -2  -3  100.53    5.49
  -7   2   2   52.28    3.68
  -7  -2   2   50.39    4.58
  -7   2   2   48.79    3.86
  -7   2   2   56.88    4.54
  -7   2   2   54.07    4.00
  -7  -2   2   48.86    4.93
   7   2  -2   41.17    4.92
   7  -2  -2   50.24    3.51
  -7  -2   2   49.77    4.83
  -7   2   1   50.09    3.55
  -7  -2   1   52.04    4.90
  -7   2   1   56.47    4.46
  -7   2   1   58.83    4.36
  -7   2   1   58.50    4.16
  -7  -2   1   55.26    5.12
  -7  -2   1   53.72    5.09
   7   2  -1   46.24    5.13
  -7   2   0  198.26    8.93
  -7   2   0  181.60   10.55
  -7   2   0  206.82    9.69
  -7  -2   0  193.75   10.91
  -7   2   0  201.39   10.01
  -7  -2   0  192.07   11.10
   7   2   0  161.76   11.06
  -7  -2   0  195.12   11.31
   7  -2   0  185.61    9.92
  -7   2  -1    1.63    1.39
  -7  -2  -1    3.26    1.76
  -7   2  -1    0.98    0.87
  -7   2  -1    0.67    1.00
  -7  -2  -1    1.25    1.60
  -7  -2  -1    2.46    1.79
  -7   2  -1    0.48    1.45
   7   2   1    1.60    1.94
   7  -2   1    1.74    1.24
   7  -2   1    2.99    1.32
  -7   2  -2   74.37    4.24
  -7  -2  -2   77.75    5.61
  -7   2  -2   67.50    5.98
  -7  -2  -2   71.15    6.05
  -7  -2  -2   70.92    6.30
   7  -2   2   74.02    4.83
   7   2   2   62.75    5.81
   7  -2   2   69.19    5.31
   7   2   2   63.30    5.77
   7  -2   2   76.89    5.39
   7   2   2   66.97    5.92
  -7   2  -3   34.58    2.51
  -7  -2  -3   36.42    4.27
  -7  -2  -3   36.75    3.67
   7   2   3   30.84    4.01
  -7   2  -3   40.16    4.61
   7   2   3   35.23    4.23
   7  -2   3   31.95    3.46
   7  -2   3   35.16    3.82
   7   2   3   33.41    4.20
   7  -2   3   34.57    3.13
  -7  -2  -3   29.97    4.41
  -7   2  -4  102.93    5.24
  -7  -2  -4  103.15    6.61
  -7   2  -4   95.44    7.95
  -7  -2  -4  104.79    7.74
   7   2   4  105.34    7.50
  -7  -2  -4  106.84    8.56
   7  -2   4  104.27    7.12
   7   2   4   98.70    7.64
   7  -2   4   91.95    6.56
   7   2   4  111.68    7.87
  -7  -2  -5    9.41    2.66
  -7   2  -5   11.48    1.48
  -7  -2  -5   13.67    2.35
   7   2   5   11.91    2.79
  -7   2  -5   14.67    3.39
   7   2   5   10.12    2.65
   7   2   5   13.26    2.85
   7  -2   5   10.15    2.30
  -7  -2  -5   14.36    3.48
  -7  -2  -6   17.49    3.40
   7   2   6   17.24    3.18
  -7  -2  -6   16.39    2.46
   7  -2   6    9.52    2.37
  -7   2  -6   20.32    4.08
   7   2   6   17.15    3.01
   7   2   6   21.14    3.76
  -7  -2  -6   16.91    3.85
  -7  -2  -7    1.48    1.55
   7  -2   7   -0.46    1.73
  -7   2  -7    0.81    2.78
   7   2   7   -0.51    1.71
   7   2   7   -1.27    2.31
  -7  -2  -7    0.82    2.27
  -7  -2  -8   56.35    4.68
   7  -2   8   44.22    4.74
  -7   2  -8   40.52    6.08
   7   2   8   40.60    5.38
  -7  -2  -8   53.01    6.58
   7  -2   9    5.20    2.31
  -7  -2  -9    5.82    2.04
  -7   2  -9    1.84    2.77
   7   2   9    3.49    2.41
  -7  -2  -9    8.30    3.18
  -7   2 -10   23.36    5.27
   7   2  10   39.01    5.24
  -7  -2 -10   27.38    5.23
  -7   2 -11    3.09    2.86
   7   2  11    2.31    2.58
  -7  -2 -11    6.23    3.25
  -7   2 -12   29.33    5.80
  -7  -2 -12   33.85    6.37
  -7   2 -13    1.14    3.03
  -7  -2 -13   -1.15    2.88
  -7   3  15    4.59    3.84
  -7  -3  14    1.17    3.25
  -7   3  14   -1.08    3.26
  -7  -3  13   23.32    5.34
  -7   3  13   26.42    4.97
  -7  -3  12   15.51    3.61
  -7  -3  12   14.74    4.35
  -7   3  12   11.39    3.84
  -7  -3  11    6.51    2.94
  -7  -3  11    8.00    3.14
  -7   3  11    5.29    2.77
  -7  -3  10   55.63    7.24
  -7   3  10   53.91    6.53
  -7  -3  10   49.54    5.48
  -7  -3   9   28.48    4.10
  -7  -3   9   22.13    4.60
  -7   3   9   19.52    3.93
  -7  -3   9   28.18    3.63
  -7   3   8   95.30    7.86
  -7  -3   8   78.94    8.02
  -7   3   8   87.73    5.48
  -7  -3   8   90.55    7.24
  -7   3   7    0.26    1.11
  -7  -3   7    1.14    1.84
  -7  -3   7   -0.78    2.27
  -7   3   7    0.63    1.96
  -7  -3   7    0.90    1.73
   7   3  -7   -0.75    2.08
   7  -3  -7    1.06    1.35
  -7  -3   6    0.55    1.79
  -7   3   6   -0.45    1.78
  -7  -3   6   -1.56    1.25
  -7  -3   6    1.04    1.23
  -7  -3   6    0.73    1.84
  -7   3   6   -0.57    1.71
  -7  -3   6   -0.45    1.52
   7   3  -6   -1.45    2.64
   7  -3  -6    1.00    1.27
  -7   3   6   -0.23    1.02
  -7   3   5    7.01    2.08
  -7  -3   5    4.44    1.53
  -7  -3   5    4.79    2.37
  -7   3   5    5.10    1.19
  -7   3   5    7.15    2.23
  -7  -3   5    2.70    1.64
   7   3  -5    6.31    2.49
   7  -3  -5    6.91    1.57
  -7   3   4   -0.38    1.57
  -7  -3   4    1.19    1.29
  -7   3   4   -0.21    0.92
  -7  -3   4    0.53    1.79
  -7  -3   4    0.64    2.21
  -7   3   4    1.78    1.67
   7   3  -4   -0.68    2.05
  -7   3   3   34.61    2.48
  -7   3   3   34.95    3.45
  -7  -3   3   39.46    3.95
  -7  -3   3   34.26    4.32
  -7   3   3   39.96    2.90
  -7  -3   3   31.83    4.55
  -7   3   3   31.76    3.59
   7   3  -3   25.00    4.25
   7  -3  -3   34.64    3.22
  -7  -3   2   -0.52    1.95
  -7   3   2   -0.30    1.14
  -7   3   2    0.89    1.02
  -7  -3   2    0.46    1.45
  -7   3   2    0.26    0.94
  -7  -3   2    1.12    1.62
  -7   3   2    0.97    1.26
   7   3  -2    3.83    2.51
   7  -3  -2    0.58    1.17
  -7   3   1  329.40   15.48
  -7   3   1  359.54   16.16
  -7   3   1  359.83   15.41
  -7  -3   1  365.06   17.92
  -7   3   1  348.90   15.56
  -7  -3   1  338.39   17.49
   7   3  -1  349.66   18.33
  -7  -3   1  340.99   17.32
  -7   3   0   82.86    6.11
  -7   3   0   93.03    5.12
  -7  -3   0   89.73    6.77
  -7  -3   0   85.08    6.89
   7   3   0   86.65    7.38
  -7  -3   0  100.70    7.25
   7  -3   0   88.21    5.58
  -7   3  -1  119.18    8.04
  -7   3  -1  123.46    6.07
  -7  -3  -1  113.94    7.91
  -7  -3  -1  133.48    8.81
   7   3   1  125.19    9.03
  -7  -3  -1  134.21    9.11
   7  -3   1  128.63    7.32
  -7   3  -2   81.62    4.22
  -7   3  -2   99.36    7.21
  -7  -3  -2   92.67    6.53
  -7  -3  -2  104.88    7.42
   7   3   2   87.28    7.11
  -7  -3  -2   97.98    7.65
   7  -3   2   89.34    5.98
   7   3   2   75.44    6.67
   7  -3   2   84.67    5.60
   7   3   2   77.02    6.72
  -7  -3  -3   69.83    6.57
  -7   3  -3   61.72    3.16
  -7  -3  -3   62.36    5.09
  -7  -3  -3   74.57    6.18
  -7   3  -3   69.13    6.11
   7   3   3   58.78    5.76
   7  -3   3   60.95    5.07
   7   3   3   50.99    5.42
   7   3   3   63.68    5.91
   7  -3   3   58.77    4.64
  -7  -3  -4   70.48    6.68
   7   3   4   41.44    4.99
  -7  -3  -4   64.59    5.08
  -7  -3  -4   54.90    5.43
  -7   3  -4   49.24    5.57
   7  -3   4   62.02    4.70
   7   3   4   49.34    5.43
  -7  -3  -5   14.65    3.15
   7  -3   5    4.25    2.10
  -7  -3  -5    7.47    2.23
  -7   3  -5    5.56    2.41
   7   3   5   10.45    2.81
   7  -3   5   10.50    2.26
   7   3   5    9.73    2.80
  -7  -3  -5    5.18    2.33
  -7  -3  -6    6.71    2.40
   7  -3   6    4.57    2.09
  -7  -3  -6    4.34    1.72
   7  -3   6    2.43    1.52
  -7   3  -6    2.26    2.27
   7   3   6    5.58    2.09
   7   3   6    3.80    1.99
  -7  -3  -6    2.35    2.46
  -7  -3  -7   30.17    4.65
  -7  -3  -7   29.39    3.51
   7  -3   7   31.87    4.36
   7  -3   7   32.25    3.77
  -7   3  -7   37.91    5.42
   7   3   7   21.47    3.64
   7   3   7   23.76    4.20
  -7  -3  -7   26.64    4.94
   7  -3   8   26.03    3.52
  -7  -3  -8   33.83    3.85
  -7   3  -8   28.47    5.02
   7   3   8   28.52    4.11
   7   3   8   27.56    4.45
  -7  -3  -8   28.44    5.11
   7  -3   9   23.98    3.47
  -7  -3  -9   19.01    3.16
  -7   3  -9   21.10    4.66
   7   3   9   12.96    3.54
  -7  -3  -9   22.57    4.71
  -7  -3 -10   11.97    2.65
  -7   3 -10    4.87    3.17
   7   3  10    9.80    3.29
  -7  -3 -10    7.95    3.73
  -7   3 -11    1.03    2.98
   7   3  11    0.79    2.63
  -7  -3 -11    3.14    3.40
  -7   3 -12    1.09    2.73
   7   3  12   -3.30    2.84
  -7  -3 -12   -1.11    2.77
  -7   3 -13    4.58    3.59
  -7   4  15   84.23    9.43
  -7   4  14   22.53    5.30
  -7  -4  13    5.67    3.30
  -7   4  13    9.04    3.86
  -7  -4  12  208.50   15.02
  -7   4  12  186.27   13.71
  -7  -4  12  183.48   12.31
  -7  -4  11   79.24    7.50
  -7   4  11   78.18    8.22
  -7  -4  10   95.86    9.35
  -7  -4  10   78.41    7.38
  -7   4  10   92.22    8.35
  -7  -4   9   -0.65    2.24
  -7  -4   9    0.91    2.74
  -7   4   9   -0.73    2.30
  -7  -4   9    1.51    1.88
  -7   4   8   98.61    7.80
  -7  -4   8  108.46    9.45
  -7   4   8  102.30    8.31
  -7  -4   8   93.09    7.17
   7  -4  -8  109.07    7.09
  -7  -4   8  112.28    8.37
  -7   4   7    1.61    1.61
  -7  -4   7    2.44    2.11
  -7  -4   7   -0.81    2.45
  -7   4   7    0.60    1.95
  -7  -4   7    1.49    1.76
   7  -4  -7    1.96    1.57
  -7   4   6  134.18    8.85
  -7  -4   6  137.56   10.30
  -7   4   6  133.22    9.08
  -7  -4   6  131.47    8.86
  -7  -4   6  155.16    9.89
   7  -4  -6  142.16    8.25
  -7  -4   6  137.56    8.09
  -7   4   5   11.46    2.44
  -7  -4   5    8.58    3.06
  -7   4   5    5.76    2.02
  -7  -4   5    4.54    2.13
  -7  -4   5    9.30    2.49
   7   4  -5    7.51    2.96
   7  -4  -5    3.61    1.50
  -7   4   4  154.87    9.13
  -7   4   4  154.06    6.99
  -7  -4   4  148.63   10.47
  -7   4   4  149.98    8.98
   7   4  -4  156.56   11.10
  -7  -4   4  163.19   10.21
   7  -4  -4  150.60    8.62
  -7   4   3    1.04    0.60
  -7   4   3    2.67    1.46
  -7  -4   3    1.43    1.59
  -7  -4   3    3.42    2.23
  -7  -4   3    1.27    2.13
  -7   4   3    1.75    1.44
   7   4  -3    2.83    2.29
   7  -4  -3    2.80    1.46
  -7   4   2  279.85   13.65
  -7  -4   2  295.20   15.67
  -7   4   2  272.41   12.98
   7   4  -2  285.03   16.19
  -7  -4   2  285.47   15.26
  -7  -4   2  272.04   14.59
   7  -4  -2  271.07   13.65
  -7   4   2  286.16   12.61
  -7  -4   1    2.14    2.05
  -7   4   1    1.56    1.38
  -7  -4   1    0.56    1.88
  -7   4   1    3.13    1.08
   7   4  -1    0.66    2.08
  -7  -4   1    1.68    1.94
  -7   4   0  136.61    8.04
  -7   4   0  132.92    6.20
  -7  -4   0  122.73    8.81
  -7  -4   0  132.63    9.11
   7   4   0  133.98    9.60
  -7  -4   0  132.83    9.06
   7  -4   0  129.44    7.07
  -7  -4  -1   16.42    3.04
  -7   4  -1   11.02    0.94
  -7   4  -1   12.70    2.55
  -7  -4  -1    8.01    2.44
  -7  -4  -1   11.43    2.94
   7   4   1    8.84    2.68
   7  -4   1   13.51    2.10
  -7  -4  -2   15.55    3.33
   7  -4   2   14.67    2.46
  -7  -4  -2   10.02    2.54
  -7   4  -2   15.56    3.01
  -7  -4  -2   13.96    2.96
   7   4   2    8.73    2.75
   7  -4   2   11.39    2.13
  -7  -4  -3   -0.69    2.23
   7  -4   3   -0.45    1.51
   7   4   3    0.59    1.99
  -7  -4  -3   -0.46    1.62
  -7   4  -3   -0.58    2.00
  -7  -4  -3   -0.59    1.91
   7  -4   3    0.29    1.27
   7   4   3    1.24    2.00
   7   4   3    0.60    1.89
  -7  -4  -4    0.74    2.30
   7  -4   4   -0.50    1.76
  -7  -4  -4    2.41    2.08
  -7  -4  -4    1.76    1.77
  -7   4  -4    1.92    2.01
   7   4   4    1.85    2.06
   7   4   4    0.63    1.96
  -7  -4  -5   20.25    4.21
   7  -4   5   21.05    3.57
  -7  -4  -5   19.23    3.73
  -7  -4  -5   24.74    3.26
  -7   4  -5   20.25    3.93
   7   4   5   24.39    3.85
   7   4   5   31.62    4.50
  -7  -4  -6   15.57    3.83
  -7  -4  -6   12.12    3.20
   7  -4   6   28.01    4.18
  -7  -4  -6   23.85    3.31
  -7   4  -6   21.18    4.12
   7   4   6   17.77    3.44
   7   4   6   20.62    3.84
  -7  -4  -7    2.00    2.50
   7  -4   7   -0.63    2.28
  -7  -4  -7   -0.45    1.62
  -7   4  -7   -0.81    2.36
   7   4   7   -0.62    1.94
   7   4   7    0.69    2.24
  -7  -4  -7    0.86    2.60
  -7  -4  -8    7.42    2.30
  -7   4  -8    1.74    2.43
   7   4   8    8.12    2.87
   7   4   8    6.45    2.62
  -7  -4  -8    5.46    2.95
  -7  -4  -8    5.60    2.75
  -7  -4  -9   20.50    3.41
  -7   4  -9   20.43    4.73
   7   4   9   17.91    3.93
  -7  -4  -9   29.79    5.45
  -7  -4 -10   13.41    2.95
  -7   4 -10    8.87    3.89
   7   4  10    6.99    3.14
  -7  -4 -10   11.21    3.83
  -7   4 -11   13.57    3.92
   7   4  11    7.28    3.12
  -7  -4 -11    9.64    4.12
  -7   4 -12   -1.10    3.06
   7   4  12    2.53    2.63
  -7  -4 -12   -1.12    2.82
  -7   5  15   33.68    6.15
  -7   5  14    8.46    3.44
  -7  -5  13    5.72    3.32
  -7   5  13    4.96    3.22
  -7  -5  12   45.94    6.13
  -7  -5  12   44.48    6.93
  -7   5  12   40.82    5.99
  -7  -5  11   79.11    7.63
  -7  -5  11   92.79    9.50
  -7   5  11   91.82    8.61
  -7  -5  10   81.25    7.51
  -7   5  10   70.89    7.36
  -7   5   9   -3.95    2.27
  -7  -5   9    0.69    2.39
  -7  -5   9    1.87    2.93
  -7   5   9    2.16    2.17
  -7  -5   9    3.83    2.24
   7  -5  -9    1.87    1.66
  -7   5   8    3.08    2.00
  -7  -5   8    2.66    2.97
  -7  -5   8    2.69    2.52
  -7   5   8    5.21    2.18
  -7  -5   8    2.71    1.88
   7  -5  -8    6.30    2.17
  -7   5   7    7.50    2.60
  -7  -5   7    2.61    2.19
  -7  -5   7    0.84    2.62
  -7   5   7    3.51    2.14
  -7  -5   7    4.86    2.08
   7  -5  -7    5.63    2.02
  -7  -5   6    8.27    2.65
  -7  -5   6   11.81    2.38
  -7  -5   6   14.17    3.87
  -7   5   6   15.00    2.94
  -7  -5   6    9.75    2.60
   7  -5  -6   14.29    2.55
  -7   5   5    5.93    2.00
  -7  -5   5    8.19    3.25
  -7   5   5    7.70    2.10
  -7  -5   5    7.09    2.47
  -7  -5   5    7.46    2.40
   7  -5  -5    9.86    2.22
  -7   5   4    5.02    1.92
  -7  -5   4   10.66    2.86
  -7  -5   4    8.62    2.53
  -7   5   4    5.39    1.75
  -7  -5   4    4.98    2.28
   7  -5  -4    5.69    2.16
  -7   5   3   21.95    3.25
  -7  -5   3   30.50    4.29
  -7  -5   3   26.86    4.13
  -7   5   3   29.10    2.96
   7   5  -3   21.23    4.13
   7  -5  -3   27.09    3.28
  -7   5   2    8.25    1.47
  -7  -5   2    9.66    3.00
  -7  -5   2    4.43    2.19
  -7  -5   2    4.45    2.45
  -7   5   2    6.80    1.42
   7   5  -2   11.01    3.26
   7  -5  -2    7.47    1.98
   7  -5  -1   28.46    3.52
  -7  -5   1   33.61    4.42
  -7   5   1   36.04    3.23
  -7  -5   1   31.28    4.39
  -7   5   1   29.36    2.18
  -7  -5   1   30.05    4.37
   7   5  -1   35.75    5.03
  -7   5   0   59.18    4.88
  -7  -5   0   51.12    5.57
  -7  -5   0   72.42    6.27
   7   5   0   57.85    6.35
   7  -5   0   63.32    4.05
  -7  -5   0   64.53    6.08
  -7  -5  -1    9.02    2.87
   7  -5   1    8.12    2.08
  -7   5  -1    9.77    2.38
  -7  -5  -1    9.73    2.74
  -7  -5  -1   13.40    3.16
   7   5   1    7.54    2.59
   7  -5   1    9.47    1.82
  -7  -5  -2   12.29    3.40
   7  -5   2   10.04    2.30
  -7   5  -2   11.26    2.77
  -7  -5  -2    6.74    2.37
  -7  -5  -2   12.38    3.00
   7  -5   2   11.12    2.04
  -7  -5  -3    3.62    2.35
   7  -5   3    0.47    1.71
  -7   5  -3    4.60    2.10
  -7  -5  -3    3.99    2.09
  -7  -5  -3    3.76    2.23
   7   5   3    2.69    2.39
  -7  -5  -4    5.37    2.80
   7  -5   4    5.66    2.15
  -7  -5  -4    2.41    1.81
  -7   5  -4    5.10    2.20
  -7  -5  -4    5.11    2.45
   7   5   4    0.67    2.38
   7   5   4    0.66    2.22
  -7  -5  -5    1.62    2.54
   7  -5   5    0.56    1.99
  -7  -5  -5   -1.96    2.18
  -7  -5  -5    0.95    1.82
  -7   5  -5    0.70    1.94
   7   5   5    1.33    2.23
   7   5   5    2.74    2.36
  -7  -5  -6   33.63    5.28
   7  -5   6   30.78    4.38
  -7  -5  -6   24.24    4.22
  -7  -5  -6   28.41    3.83
  -7   5  -6   42.49    5.54
   7   5   6   28.75    4.48
   7   5   6   31.70    4.82
  -7  -5  -7   -6.33    3.38
  -7  -5  -7   -0.70    2.18
  -7  -5  -7    0.48    1.81
  -7   5  -7    0.82    2.47
   7   5   7   -0.72    2.71
  -7  -5  -8   25.49    5.19
  -7  -5  -8   26.86    4.51
  -7  -5  -8   23.54    3.62
  -7   5  -8   18.44    4.38
   7   5   8   24.72    4.39
  -7  -5  -9   15.19    3.14
  -7   5  -9   15.91    4.41
   7   5   9   18.61    4.05
  -7  -5  -9   23.75    4.87
  -7  -5 -10   -1.10    2.11
  -7   5 -10   -0.99    2.76
   7   5  10   -0.80    2.77
  -7  -5 -10    1.04    2.46
  -7  -5 -11    3.49    2.19
  -7   5 -11    8.42    3.64
   7   5  11    7.51    3.13
  -7  -5 -11    7.69    4.01
  -7   5 -12    5.55    3.22
  -7   6  15    8.85    4.05
  -7   6  14  141.76   12.17
  -7  -6  13   20.16    4.31
  -7   6  13   27.36    5.18
  -7  -6  12   25.40    5.59
  -7  -6  12   26.81    4.81
  -7   6  12   11.85    3.73
  -7  -6  11   44.31    6.73
  -7   6  11   49.03    6.17
  -7  -6  11   35.35    5.41
  -7  -6  10  157.82   12.96
  -7   6  10  167.50   11.90
   7  -6 -10  181.39   10.78
  -7  -6  10  179.74   12.24
  -7  -6   9    3.83    3.41
  -7   6   9    8.47    3.08
   7  -6  -9    8.15    2.64
  -7  -6   9    5.17    2.63
  -7   6   8   41.51    5.13
  -7  -6   8   45.22    6.29
  -7  -6   8   43.00    5.55
  -7   6   8   48.45    5.31
   7  -6  -8   32.96    4.07
  -7   6   7   -1.23    2.35
  -7  -6   7   -2.09    2.60
  -7  -6   7   -0.86    2.88
  -7   6   7   -1.70    2.28
   7  -6  -7   -3.34    1.92
  -7   6   6   76.06    6.74
  -7  -6   6   73.11    7.05
  -7  -6   6   74.18    7.66
  -7   6   6   78.34    6.25
   7  -6  -6   92.10    6.62
  -7  -6   6   87.57    6.55
  -7  -6   5   19.72    3.08
  -7   6   5   21.36    3.38
  -7  -6   5   19.52    4.23
  -7   6   5   13.20    2.57
  -7  -6   5   14.60    3.53
   7  -6  -5   17.14    2.95
  -7   6   4   72.96    6.26
  -7   6   4   80.74    5.63
  -7  -6   4   79.74    7.62
  -7  -6   4   88.62    7.47
  -7  -6   4   95.98    7.46
   7  -6  -4   88.48    6.57
  -7  -6   3    3.25    2.38
  -7  -6   3    0.71    2.13
   7  -6  -3    7.98    2.26
  -7  -6   2   90.95    7.87
  -7  -6   2  104.99    8.18
   7  -6  -2   93.51    6.96
   7  -6  -1   20.29    3.33
  -7  -6   1   24.28    4.20
  -7   6   1   23.52    2.60
  -7  -6   1   29.98    4.33
  -7   6   0   -0.35    1.19
  -7  -6   0   -1.32    2.27
  -7  -6   0    1.21    2.09
  -7  -6   0   -0.64    1.86
  -7   6  -1   12.90    2.54
  -7  -6  -1   11.68    3.08
  -7  -6  -1    9.86    3.03
  -7  -6  -1   12.29    3.14
   7  -6   1   13.50    2.03
  -7  -6  -2   39.76    5.56
  -7   6  -2   59.58    5.33
  -7  -6  -2   58.13    5.67
  -7  -6  -2   59.16    6.09
   7  -6   3   29.97    4.12
  -7  -6  -3   37.33    5.41
  -7   6  -3   34.75    4.45
  -7  -6  -3   37.03    4.54
  -7  -6  -3   32.57    4.60
   7  -6   4   33.95    4.24
  -7  -6  -4   31.46    4.97
  -7   6  -4   29.86    4.33
  -7  -6  -4   33.43    4.19
  -7  -6  -4   35.07    4.85
   7  -6   5   -0.58    1.95
  -7  -6  -5    0.85    2.46
  -7  -6  -5   -0.51    1.83
  -7   6  -5    2.80    2.62
  -7  -6  -5    2.75    2.57
  -7  -6  -6   38.51    6.04
   7  -6   6   47.07    5.31
  -7  -6  -6   40.89    5.63
  -7  -6  -6   46.28    4.87
  -7   6  -6   41.87    5.66
   7   6   6   50.60    5.95
  -7  -6  -7   31.21    5.55
  -7  -6  -7   28.93    4.83
  -7  -6  -7   30.24    4.05
  -7   6  -7   28.74    5.00
   7   6   7   36.77    5.30
  -7   6  -8  179.00   12.72
  -7  -6  -8  173.91   10.62
  -7  -6  -8  172.38   11.92
  -7  -6  -8  147.56   12.46
   7   6   8  159.64   11.84
  -7  -6  -9   14.44    4.60
  -7  -6  -9   14.95    3.82
  -7  -6  -9   18.50    3.56
  -7   6  -9   13.16    4.05
   7   6   9   13.75    3.56
  -7  -6 -10   15.26    3.28
  -7   6 -10   18.01    4.92
   7   6  10   16.73    4.07
  -7  -6 -10   16.12    4.36
  -7  -6 -11   14.83    3.48
  -7   6 -11   32.82    5.99
   7   6  11   24.20    4.91
  -7   6 -12   12.28    4.31
   7  -7 -13   10.22    3.09
  -7  -7  12    0.86    2.78
   7  -7 -12   -0.61    2.23
  -7  -7  11   35.41    6.19
  -7  -7  11   24.03    4.69
   7  -7 -11   33.12    4.49
  -7  -7  10    2.42    2.43
  -7  -7  10    7.16    3.53
   7  -7 -10    1.71    1.97
  -7  -7   9    6.81    3.82
  -7  -7   9    0.78    2.36
   7  -7  -9    3.87    2.17
  -7  -7   8   24.36    4.62
  -7  -7   8   26.93    5.26
   7  -7  -8   31.14    4.03
  -7   7   7   29.35    4.54
  -7  -7   7   27.34    4.76
  -7  -7   7   35.33    5.55
  -7   7   6    8.57    2.77
  -7  -7   6   12.71    3.83
   7  -7  -6    7.82    2.52
  -7  -7   6    4.32    2.50
  -7  -7   5   24.57    3.64
  -7   7   5   29.21    4.19
  -7  -7   5   26.01    4.63
  -7  -7   5   35.33    4.98
   7  -7  -5   26.05    3.77
  -7  -7   4   28.65    4.75
  -7  -7   4   29.32    4.80
   7  -7  -4   28.20    3.84
  -7  -7   3   74.66    7.01
  -7  -7   3   74.60    7.29
   7  -7  -3   68.20    6.11
  -7  -7   2    6.86    2.70
  -7  -7   2    8.45    2.96
   7  -7  -2    7.08    2.51
   7  -7  -1    2.68    1.86
  -7  -7   1    5.42    2.78
  -7  -7   1    4.04    2.65
  -7   7   0   -0.35    1.19
  -7  -7   0   -0.65    2.09
  -7  -7   0    1.36    2.20
  -7   7  -1   23.51    3.14
  -7  -7  -1   20.62    3.88
  -7  -7  -1   24.76    3.96
  -7  -7  -1   15.05    3.62
  -7   7  -2    3.43    1.75
  -7  -7  -2    7.67    3.01
  -7  -7  -2    4.20    2.36
  -7  -7  -2    2.77    2.46
  -7   7  -3    5.58    2.29
  -7  -7  -3    2.41    2.43
  -7  -7  -3    8.63    2.68
  -7  -7  -3    2.11    2.21
  -7  -7  -4   15.17    3.76
  -7   7  -4   14.36    3.08
  -7  -7  -4   12.94    3.09
  -7  -7  -4   10.65    3.24
  -7  -7  -5    6.22    3.33
  -7   7  -5    8.31    2.90
  -7  -7  -5    3.89    2.29
  -7  -7  -5    4.34    2.50
  -7  -7  -6   -1.87    3.12
  -7  -7  -6    0.74    2.47
  -7   7  -6    1.52    2.20
  -7  -7  -6    1.66    2.13
   7   7   6    1.56    2.53
  -7  -7  -7   29.38    5.83
  -7  -7  -7   33.38    5.14
  -7  -7  -7   26.34    4.11
  -7   7  -7   23.01    4.68
   7   7   7   28.15    5.01
  -7  -7  -8   33.96    6.00
  -7  -7  -8   29.69    4.88
  -7  -7  -8   28.23    4.22
  -7   7  -8   28.31    5.29
   7   7   8   23.19    4.61
  -7  -7  -9    8.62    3.75
  -7  -7  -9   10.56    3.43
  -7  -7  -9   13.74    3.19
  -7   7  -9   18.91    4.70
   7   7   9   11.06    3.73
  -7  -7 -10    1.12    3.24
  -7  -7 -10    0.62    2.22
  -7   7 -10   -1.01    2.79
   7   7  10    2.62    2.64
  -7  -7 -11    0.65    2.12
  -7   7 -11    1.06    3.21
  -7  -7 -12    2.06    2.29
   7  -8 -12   30.79    4.50
  -7  -8  11   16.67    4.01
   7  -8 -11   19.03    3.58
  -7  -8  10   62.29    7.53
  -7  -8  10   72.38    8.48
  -7  -8   9   27.88    5.54
  -7  -8   9   38.09    5.60
   7  -8  -9   34.08    4.57
  -7  -8   8   58.67    6.72
  -7  -8   8   58.08    7.16
   7  -8  -8   59.45    5.86
  -7  -8   7    7.03    3.21
  -7  -8   7    5.48    2.97
   7  -8  -7    6.39    2.29
  -7  -8   6   59.93    7.14
   7  -8  -6   60.28    5.89
  -7  -8   6   62.60    6.70
  -7  -8   5   19.35    4.33
  -7  -8   5   17.22    3.82
   7  -8  -5   17.43    3.47
  -7  -8   4   14.52    3.72
  -7  -8   4    7.40    2.94
   7  -8  -4   16.49    3.55
  -7  -8   3   11.73    3.21
  -7  -8   3    6.15    2.68
   7  -8  -3   11.40    2.86
  -7  -8   2   10.17    3.14
   7  -8  -2   12.77    3.14
   7  -8  -1   -3.61    2.31
  -7  -8   1   -1.44    2.48
  -7  -8   1    0.71    2.14
  -7  -8   0   51.22    5.88
  -7  -8   0   49.57    6.01
  -7  -8  -1   -0.66    1.99
  -7  -8  -1   -0.72    2.42
  -7   8  -2   23.60    3.41
  -7  -8  -2   22.83    4.61
  -7  -8  -2   21.11    3.88
  -7  -8  -2   23.33    4.27
  -7   8  -3    0.55    1.72
  -7  -8  -3   -0.85    2.46
  -7  -8  -3    3.07    2.30
  -7  -8  -3    2.22    2.70
  -7  -8  -4   78.37    6.94
  -7  -8  -4   79.81    8.23
  -7  -8  -4   76.08    7.48
  -7   8  -4   79.80    6.96
  -7  -8  -5   37.04    5.76
  -7   8  -5   28.05    4.48
  -7  -8  -5   35.72    4.71
  -7  -8  -5   26.52    4.72
  -7  -8  -6   54.50    7.53
  -7   8  -6   56.79    6.44
  -7  -8  -6   55.91    5.80
  -7  -8  -6   54.70    6.40
  -7  -8  -7   -1.02    2.83
  -7  -8  -7   -0.79    2.65
  -7   8  -7    0.81    2.35
  -7  -8  -7    0.60    2.07
  -7  -8  -8    8.53    3.48
  -7  -8  -8   11.35    3.55
  -7   8  -8   13.99    3.68
  -7  -8  -8   15.40    3.60
   7   8   8    8.65    3.65
  -7  -8  -9   21.31    5.18
  -7  -8  -9   15.91    3.63
  -7   8  -9   24.40    4.89
   7   8   9   13.35    3.93
  -7  -8 -10   13.92    3.53
  -7   8 -10    8.00    3.67
  -7  -8 -11    0.69    2.08
  -7   8 -11   -1.06    2.81
   7  -9 -12    3.50    2.55
   7  -9 -11   -1.35    2.83
   7  -9 -10   -1.99    2.48
  -7  -9   9   15.71    4.04
   7  -9  -9   14.97    3.41
  -7  -9   8    9.32    3.55
  -7  -9   8    0.98    3.08
  -7  -9   7    9.89    3.32
  -7  -9   7    9.43    3.80
   7  -9  -7    7.66    2.69
  -7  -9   6   -1.82    2.84
  -7  -9   6    2.43    2.53
   7  -9  -6   -1.28    2.00
  -7  -9   5   -0.87    2.42
  -7  -9   5   -0.79    2.65
   7  -9  -5    1.29    2.41
  -7  -9   4   18.33    4.11
  -7  -9   4   18.02    3.93
   7  -9  -4   15.72    3.57
  -7  -9   3   10.86    3.33
  -7  -9   3   13.68    3.65
   7  -9  -3    9.99    3.23
  -7  -9   2    9.97    3.40
  -7  -9   2    5.41    3.11
   7  -9  -2    5.38    2.82
   7  -9  -1   -0.67    1.93
  -7  -9   1    1.52    2.29
  -7  -9   1   -0.74    2.64
  -7  -9   0   87.01    7.68
  -7  -9   0   67.47    7.14
  -7  -9  -1   22.29    4.13
  -7  -9  -1   23.60    4.45
  -7  -9  -2    0.68    1.88
  -7  -9  -2    2.30    2.40
  -7   9  -3    7.58    2.37
  -7  -9  -3    6.27    3.19
  -7  -9  -3   11.06    3.09
  -7  -9  -3    5.44    3.13
  -7   9  -4   18.89    3.49
  -7  -9  -4   24.13    4.71
  -7  -9  -4   20.57    4.02
  -7  -9  -4   14.10    4.00
  -7   9  -5    0.68    2.26
  -7  -9  -5    2.90    2.92
  -7  -9  -5    2.54    2.26
  -7  -9  -5    3.18    2.66
  -7   9  -6    5.91    2.97
  -7  -9  -6    1.01    3.17
  -7  -9  -6    1.27    1.92
  -7  -9  -6    4.84    2.78
  -7  -9  -7    1.06    3.07
  -7   9  -7    0.80    2.52
  -7  -9  -7    0.82    2.38
  -7  -9  -7    0.64    2.21
  -7   9  -8    1.74    2.52
  -7  -9  -8    1.96    2.05
  -7   9  -9    0.93    2.47
  -7  -9  -9    1.35    2.26
  -7   9 -10    1.98    3.10
   7 -10 -11  134.63   10.31
   7 -10 -10   22.93    4.37
   7 -10  -8   40.56    5.33
   7 -10  -7    3.51    2.43
  -7 -10   7   11.30    3.57
  -7 -10   6   25.18    4.89
  -7 -10   6   23.03    4.43
   7 -10  -6   23.87    4.13
  -7 -10   5    3.59    2.81
  -7 -10   5    3.35    2.72
   7 -10  -5    2.84    2.38
  -7 -10   4   51.92    6.56
  -7 -10   4   53.85    6.68
   7 -10  -4   57.99    6.38
  -7 -10   3    0.82    2.47
  -7 -10   3    8.35    2.97
   7 -10  -3    3.69    2.39
  -7 -10   2   87.23    8.51
  -7 -10   2   98.10    8.95
   7 -10  -2  114.46    9.12
  -7 -10   1   14.41    3.89
  -7 -10   1   15.58    3.79
  -7 -10   0   76.20    7.63
  -7 -10   0   85.52    8.31
  -7 -10  -1  113.20    9.14
  -7 -10  -1  104.20    9.40
  -7 -10  -2   94.96    8.36
  -7 -10  -2   87.07    8.42
  -7 -10  -3   11.33    3.90
  -7 -10  -3   11.73    3.30
  -7 -10  -3   16.31    3.77
  -7 -10  -4   28.28    5.30
  -7 -10  -4   23.90    4.18
  -7 -10  -4   22.16    4.38
  -7  10  -5    2.00    2.02
  -7 -10  -5    2.02    2.93
  -7 -10  -5    6.08    2.59
  -7  10  -6   34.40    4.88
  -7 -10  -6   27.01    4.38
  -7  10  -7    0.80    2.74
  -7  10  -8   10.31    3.69
  -7  10  -9    2.76    3.08
   7 -11  -8   -0.76    2.21
   7 -11  -7   73.45    7.51
   7 -11  -5   42.22    5.77
   7 -11  -4    0.80    2.30
   7 -11  -3   -0.81    2.53
  -7 -11   2    0.84    2.62
   7 -11  -2    0.80    2.13
  -7 -11   1    2.43    2.63
  -7 -11   0    2.37    2.29
  -7 -11  -1    2.32    2.58
  -7 -11  -2    4.46    2.92
   7 -12  -5    3.43    2.59
   7 -12  -4   37.52    6.01
   7 -12  -3    3.49    2.64
   7 -12  -2    8.71    3.87
  -8   0  12   24.67    5.52
  -8   0  11   -0.97    2.91
  -8   0  10   34.58    5.54
  -8   0   9    0.85    2.65
  -8   0   8   20.12    3.33
  -8   0   8   33.81    5.09
  -8   0   7   -0.47    1.70
  -8   0   7    0.73    2.20
  -8   0   6    9.53    2.43
  -8   0   6    9.50    3.13
  -8   0   5    1.86    2.01
  -8   0   5    0.89    1.61
  -8   0   4   27.17    3.98
  -8   0   4   21.44    3.13
  -8   0   3    0.52    1.51
  -8   0   3   -0.87    1.67
   8   0  -3   -1.13    1.76
  -8   0   2    0.48    1.59
  -8   0   2    0.88    1.60
  -8   0   2    1.22    1.27
  -8   0   1   -0.43    1.44
  -8   0   1   -0.46    1.28
  -8   0   0  120.72    7.73
  -8   0   0  128.54    8.59
  -8   0   0  129.56    8.20
  -8   0  -1    0.92    1.59
  -8   0  -1   -2.13    1.51
  -8   0  -1    0.57    1.77
  -8   0  -2   29.61    3.83
  -8   0  -2   34.77    3.28
  -8   0  -2   25.29    3.90
   8   0   2   34.78    4.14
  -8   0  -3    0.50    1.78
  -8   0  -3   -0.30    1.23
   8   0   3   -0.50    1.49
  -8   0  -3   -0.67    1.85
   8   0   3    0.52    1.86
   8   0   4   51.71    5.14
  -8   0  -4   43.83    5.68
   8   0   4   48.90    5.07
  -8   0  -5   -0.77    2.58
   8   0   5    0.53    1.61
   8   0   5   -0.58    2.00
  -8   0  -6    9.90    3.47
   8   0   6    9.79    3.05
  -8   0  -7    4.38    2.94
   8   0   7    1.29    1.95
  -8   0  -8   32.63    5.41
   8   0   8   16.40    3.75
  -8   0  -9   -0.99    2.99
   8   0   9   -0.72    2.18
  -8   0 -10    3.16    3.06
   8   0  10    8.37    3.12
  -8   0 -11   -1.11    3.48
   8   0  11   -0.80    2.50
  -8   1  14    3.39    3.54
  -8  -1  13   11.13    4.48
  -8   1  13    8.53    3.70
  -8  -1  12   -1.05    2.65
  -8   1  12   -1.00    2.52
  -8  -1  11   42.76    6.54
  -8   1  11   31.99    5.57
  -8  -1  10    3.41    2.07
  -8  -1  10    1.87    2.92
  -8   1  10    0.88    2.85
  -8  -1   9    3.29    1.89
  -8  -1   9   -2.62    2.73
  -8   1   9   -0.82    2.39
  -8  -1   8    0.82    2.56
  -8   1   8    0.76    2.29
  -8  -1   8    1.06    1.66
  -8  -1   7    1.04    1.79
  -8  -1   7    0.76    2.47
  -8   1   7   -0.70    2.19
  -8   1   6   36.82    3.92
  -8  -1   6   38.67    4.45
  -8  -1   6   44.60    5.54
  -8   1   6   42.57    5.11
  -8  -1   5   47.59    4.94
  -8   1   5   60.56    4.79
  -8  -1   5   60.13    6.08
  -8   1   5   45.77    5.29
   8   1  -5   56.45    5.81
  -8  -1   4   -1.21    1.89
  -8   1   4   -0.53    1.54
  -8   1   4    0.38    1.38
   8   1  -4    3.19    2.07
  -8  -1   4    0.49    1.74
  -8  -1   3   -0.56    1.56
  -8   1   3    1.14    1.52
  -8   1   3   -0.48    1.56
  -8  -1   3    0.98    1.58
  -8  -1   3    1.97    1.62
   8   1  -3    0.62    1.78
  -8   1   2   20.54    2.92
  -8  -1   2   20.74    3.43
  -8   1   2   19.82    3.06
  -8  -1   2   23.10    3.31
   8   1  -2   14.85    3.06
  -8  -1   2   15.08    2.79
  -8   1   1    0.39    1.48
  -8   1   1    0.38    1.60
  -8  -1   1   -0.48    1.91
  -8  -1   1   -0.49    1.49
  -8   1   1   -0.86    1.40
   8   1  -1    0.58    1.60
  -8  -1   1   -1.47    1.93
  -8   1   0    7.97    2.22
  -8  -1   0   13.97    2.91
  -8   1   0    9.80    2.03
  -8  -1   0    8.32    2.17
  -8   1   0   10.33    2.46
  -8  -1   0   11.30    2.69
  -8   1  -1    6.65    1.95
  -8  -1  -1   11.16    2.79
  -8   1  -1    7.82    1.81
  -8  -1  -1    3.24    1.68
  -8   1  -1    6.59    2.44
   8  -1   1    6.04    2.15
  -8  -1  -1    8.19    2.55
  -8  -1  -2   -0.52    1.63
  -8  -1  -2   -0.75    1.50
  -8   1  -2   -0.60    1.96
   8  -1   2   -1.85    1.85
   8   1   2    1.60    1.84
  -8  -1  -2    0.63    1.98
  -8   1  -2   -0.44    1.56
  -8  -1  -3    0.54    1.62
   8   1   3   -1.07    1.79
  -8  -1  -3    0.35    1.35
  -8   1  -3   -0.66    2.13
   8  -1   3   -0.98    1.73
   8   1   3    0.56    1.87
  -8  -1  -3   -0.68    1.97
  -8  -1  -4   14.64    3.31
  -8  -1  -4   15.26    2.39
   8   1   4   20.37    3.34
  -8   1  -4   12.14    3.32
   8  -1   4   13.00    2.98
  -8  -1  -4   17.56    4.01
   8   1   4   16.31    3.49
  -8   1  -5    1.54    2.81
  -8  -1  -5    0.78    2.45
   8  -1   5    2.77    2.02
   8   1   5    4.26    2.22
  -8   1  -6   43.73    6.00
  -8  -1  -6   42.66    5.78
   8  -1   6   42.41    5.07
   8   1   6   42.11    5.15
  -8   1  -7    8.81    3.54
  -8  -1  -7    4.45    2.79
   8  -1   7    3.13    2.35
   8   1   7    2.01    2.18
  -8   1  -8   16.86    4.34
  -8  -1  -8   20.73    4.71
   8  -1   8   17.37    3.85
   8   1   8   16.89    3.59
  -8   1  -9    3.97    3.43
  -8  -1  -9    8.97    3.64
   8  -1   9    4.24    2.51
   8   1   9    2.22    2.70
  -8   1 -10   18.89    4.70
  -8  -1 -10   16.86    4.96
   8   1  10   19.37    4.06
  -8   1 -11   -1.11    2.78
  -8  -1 -11    1.11    3.22
   8   1  11    0.81    3.12
  -8   2  14   21.03    5.13
  -8  -2  13    1.14    3.02
  -8   2  13    1.04    3.14
  -8  -2  12   26.40    4.23
  -8  -2  12   32.38    5.67
  -8   2  12   27.41    5.48
  -8  -2  11   25.44    5.08
  -8  -2  11   30.60    4.56
  -8   2  11   31.15    5.48
  -8  -2  10   52.91    5.59
  -8  -2  10   48.71    6.61
  -8   2  10   44.43    6.05
  -8  -2   9   19.80    4.59
  -8   2   9   29.31    4.86
  -8  -2   8   72.84    7.81
  -8   2   8   78.75    7.40
  -8  -2   8   71.17    6.48
  -8  -2   7    3.97    2.30
  -8  -2   7    1.70    1.84
  -8   2   7    0.67    1.95
  -8  -2   6   70.15    7.06
  -8   2   6   63.62    6.22
  -8  -2   6   77.57    6.46
  -8  -2   5    1.64    1.95
  -8  -2   5    5.50    2.82
  -8   2   5    0.55    1.67
   8   2  -5    0.71    2.23
  -8  -2   4    4.31    2.26
  -8  -2   4    4.51    2.41
  -8   2   4    1.97    1.75
   8   2  -4    2.76    2.24
  -8   2   3    5.35    1.59
  -8  -2   3    4.21    2.26
  -8   2   3    5.69    2.05
   8   2  -3    4.68    2.63
  -8  -2   3    3.76    2.02
  -8  -2   3    5.26    2.05
  -8   2   2   15.73    2.45
  -8  -2   2   21.25    3.39
  -8   2   2   17.62    2.65
  -8  -2   2   20.98    3.39
   8   2  -2   18.88    3.65
  -8  -2   2   27.82    3.46
  -8   2   1    3.32    1.42
  -8   2   1    2.31    1.41
  -8  -2   1    3.64    2.14
  -8  -2   1    2.17    1.93
   8   2  -1    5.06    2.19
  -8  -2   1    3.13    1.80
  -8   2   0   15.49    2.51
  -8  -2   0   15.46    2.95
  -8  -2   0   10.94    2.74
  -8   2   0    8.81    2.37
   8   2   0    8.64    2.72
  -8  -2   0   13.52    2.90
  -8   2  -1  140.61    8.94
  -8  -2  -1  126.88    8.16
  -8  -2  -1  127.96    8.86
  -8  -2  -1  121.26    8.82
   8   2   1  112.19    8.75
   8  -2   1  120.79    7.71
  -8  -2  -2    6.20    2.44
  -8  -2  -2   18.27    3.01
  -8   2  -2   13.55    3.26
   8  -2   2   16.25    2.90
  -8  -2  -2    7.85    2.77
  -8  -2  -3    0.58    1.88
  -8  -2  -3    1.60    1.71
  -8   2  -3    1.95    2.17
   8   2   3    2.88    2.16
   8  -2   3    3.67    1.96
   8   2   3    4.75    2.38
  -8  -2  -3   -0.70    2.20
  -8  -2  -4    2.39    2.12
  -8  -2  -4    3.48    1.72
  -8   2  -4    4.23    2.44
   8  -2   4    3.95    1.98
   8   2   4    1.86    1.94
  -8  -2  -4    0.75    2.27
  -8  -2  -5   13.72    3.45
  -8  -2  -5   14.07    2.50
  -8   2  -5    6.87    3.22
   8  -2   5   12.20    2.84
   8   2   5    7.69    2.55
  -8  -2  -5   11.21    3.69
  -8  -2  -6   -0.77    1.68
  -8   2  -6    0.82    2.74
   8  -2   6   -1.14    1.78
  -8  -2  -6    1.70    2.75
  -8   2  -7   -0.88    2.54
   8  -2   7   -2.45    1.91
   8   2   7    1.39    2.33
  -8  -2  -7   -0.90    2.50
  -8   2  -8   -2.80    2.92
   8   2   8    0.73    2.02
  -8  -2  -8   -0.96    3.10
  -8   2  -9    4.95    3.51
   8   2   9    0.76    2.55
  -8   2 -10   11.51    4.21
  -8  -2 -10   13.91    4.31
   8   2  10    6.36    3.14
  -8   2 -11    8.83    4.03
   8   2  11    4.98    2.87
  -8   3  14   -1.09    3.29
  -8  -3  13    4.37    2.58
  -8   3  13    1.02    3.09
  -8  -3  12   -0.71    2.44
  -8  -3  12    1.10    2.90
  -8   3  12   -0.96    2.65
  -8   3  11    0.89    2.47
  -8  -3  11    0.68    2.14
  -8  -3  10   23.82    4.15
  -8  -3  10   31.41    5.77
  -8   3  10   24.82    4.74
  -8  -3   9    8.34    2.96
  -8  -3   9    7.43    3.49
  -8   3   9    9.19    3.09
  -8  -3   8   15.81    4.06
  -8   3   8   14.07    3.47
  -8  -3   8   13.11    3.05
  -8  -3   7    4.11    2.85
  -8   3   7    3.86    2.36
  -8  -3   7    7.94    2.66
  -8  -3   6   30.16    4.44
  -8  -3   6   40.05    5.47
  -8   3   6   34.64    4.43
  -8  -3   5   22.63    3.85
  -8  -3   5   28.99    4.56
  -8   3   5   24.87    3.67
  -8  -3   4   28.30    3.72
  -8  -3   4   35.80    4.62
  -8  -3   4   42.37    5.41
  -8   3   4   41.22    4.31
  -8  -3   3    8.77    2.42
  -8  -3   3   18.53    3.65
   8   3  -3   19.53    3.90
  -8  -3   3    9.33    2.57
  -8  -3   2    1.06    1.88
  -8  -3   2    4.80    2.51
  -8  -3   2    4.08    2.19
   8   3  -2    6.34    2.64
  -8  -3   1   -0.57    1.96
  -8  -3   1   -0.56    2.53
  -8  -3   1   -0.59    2.02
   8   3  -1   -0.69    2.07
  -8  -3   0   18.76    3.59
  -8  -3   0   17.87    3.29
  -8  -3   0   13.07    3.00
   8   3   0   15.45    3.38
  -8  -3  -1    2.57    2.01
  -8  -3  -1    0.50    1.90
  -8   3  -1    2.53    1.80
  -8  -3  -1    3.59    2.18
   8   3   1   -0.66    2.05
  -8  -3  -2   49.01    4.78
  -8  -3  -2   46.19    5.33
  -8   3  -2   54.89    5.51
   8   3   2   43.70    5.32
   8  -3   2   43.03    4.22
  -8  -3  -2   46.46    5.62
  -8  -3  -3   19.80    3.63
  -8  -3  -3   21.33    3.10
  -8   3  -3   18.35    3.67
   8  -3   3   22.02    3.26
  -8  -3  -3   21.05    4.28
  -8  -3  -4   -1.27    2.38
  -8  -3  -4   -0.43    1.66
  -8   3  -4   -1.39    2.17
   8  -3   4   -3.76    1.97
   8   3   4    1.97    2.33
  -8  -3  -4    1.54    2.32
  -8  -3  -5   31.51    4.75
  -8  -3  -5   25.52    3.43
  -8   3  -5   35.35    5.37
   8  -3   5   27.59    3.83
  -8  -3  -5   27.87    4.67
  -8  -3  -6   14.39    3.78
  -8  -3  -6    8.99    2.28
  -8   3  -6   11.35    3.61
   8  -3   6   14.96    3.03
   8   3   6    8.43    3.14
  -8  -3  -6   12.22    3.75
  -8  -3  -7   13.65    2.67
  -8   3  -7   16.52    4.28
   8   3   7   18.18    3.94
  -8  -3  -7   14.78    4.20
  -8   3  -8   61.16    7.48
   8   3   8   61.98    6.76
  -8  -3  -8   51.79    7.23
  -8   3  -9   -0.98    2.85
   8   3   9    2.36    2.79
  -8  -3  -9    5.15    3.76
  -8   3 -10    1.04    2.89
   8   3  10    0.82    3.06
  -8  -3 -10    1.09    3.15
  -8   3 -11   -1.10    3.06
  -8  -4  14   17.63    3.97
  -8  -4  13   20.11    4.15
  -8   4  13   38.19    6.20
  -8  -4  12   14.29    3.65
  -8  -4  11   10.63    4.09
  -8  -4  11   10.20    3.19
  -8   4  11   10.42    3.58
  -8   4  10  106.75    9.40
  -8  -4  10  105.30   10.20
  -8  -4  10  103.18    8.61
  -8  -4   9   60.99    6.40
  -8  -4   9   58.51    7.48
  -8  -4   8   19.82    4.79
  -8  -4   8   43.45    5.31
  -8  -4   7   33.10    5.51
  -8  -4   7   35.32    4.97
  -8  -4   6  149.24   11.00
  -8  -4   6  127.24    9.60
  -8  -4   5   51.76    5.63
  -8  -4   5   41.12    5.72
  -8  -4   4    3.47    1.91
  -8  -4   4    3.79    2.60
  -8  -4   3    5.63    2.51
  -8  -4   3    2.66    1.99
  -8  -4   3    1.35    2.12
  -8  -4   2   28.35    4.17
  -8  -4   2   45.82    5.42
  -8  -4   2   38.79    4.90
  -8  -4   1   29.60    4.41
  -8  -4   1   37.88    4.91
  -8  -4   1   34.61    4.70
  -8  -4   0   34.71    4.46
  -8  -4   0   22.71    3.88
  -8  -4   0   35.70    4.73
   8   4   0   20.26    4.10
  -8  -4  -1   35.08    4.79
  -8  -4  -1   27.99    4.20
  -8  -4  -1   34.75    4.87
   8   4   1   29.76    4.82
  -8   4  -2  317.48   16.39
  -8  -4  -2  319.85   16.14
  -8  -4  -2  293.57   16.70
   8   4   2  293.46   17.13
  -8  -4  -2  307.20   17.44
  -8   4  -3  104.09    8.20
  -8  -4  -3  102.47    7.23
  -8  -4  -3   94.46    8.10
  -8  -4  -3   92.97    8.73
   8   4   3   87.42    7.98
  -8  -4  -4   42.77    5.94
  -8  -4  -4   40.42    5.23
  -8  -4  -4   35.74    4.25
  -8   4  -4   42.71    5.52
   8   4   4   56.04    5.89
  -8  -4  -5   26.98    4.50
  -8  -4  -5   29.13    3.96
  -8   4  -5   30.07    4.75
   8  -4   5   25.77    3.75
   8   4   5   27.21    4.61
  -8  -4  -5   38.33    5.76
  -8  -4  -6   56.55    6.44
  -8  -4  -6   59.58    5.29
  -8   4  -6   47.99    6.18
   8   4   6   41.46    5.72
  -8  -4  -6   40.37    6.33
  -8  -4  -7   41.78    5.71
  -8  -4  -7   51.42    4.90
  -8   4  -7   44.55    6.19
   8   4   7   47.31    6.17
  -8  -4  -7   42.57    6.37
  -8  -4  -8    1.00    1.86
  -8   4  -8   -1.87    2.82
   8   4   8    0.79    2.46
  -8  -4  -8    1.00    2.91
  -8   4  -9    8.93    3.84
   8   4   9   17.14    4.29
  -8  -4  -9   14.80    4.54
  -8   4 -10    1.05    3.05
   8   4  10    1.69    2.45
  -8   4 -11   -1.11    3.08
  -8  -5  13    7.39    3.38
  -8  -5  12   29.57    5.08
  -8  -5  11    0.77    2.75
  -8  -5  10   -0.75    2.94
  -8  -5  10    3.10    3.35
  -8  -5   9   82.45    7.74
  -8  -5   9   70.55    8.30
  -8  -5   8   -0.93    2.91
  -8  -5   8    1.42    2.59
  -8  -5   7    1.76    2.86
  -8  -5   7    6.28    2.92
  -8  -5   6   35.22    5.61
  -8  -5   6   47.55    5.69
  -8  -5   5   23.21    4.36
  -8  -5   5   32.71    5.14
  -8  -5   4   23.01    4.12
  -8  -5   4   24.58    3.81
  -8  -5   4   33.29    5.04
  -8  -5   3   14.02    3.43
  -8  -5   3   22.48    3.74
  -8  -5   3   22.85    4.20
  -8  -5   2   13.41    3.18
  -8  -5   2   18.28    3.75
  -8  -5   2    9.34    3.15
  -8  -5   1    0.65    2.16
  -8  -5   1    0.64    2.08
  -8  -5   1   -0.67    2.10
  -8  -5   0   32.18    4.72
  -8  -5   0   34.06    4.55
  -8  -5   0   33.78    4.93
  -8  -5  -1   11.58    3.33
  -8  -5  -1    8.15    2.50
  -8  -5  -1    6.85    2.71
  -8  -5  -2   -1.53    2.71
  -8  -5  -2    2.79    2.19
  -8  -5  -2    1.38    2.64
  -8  -5  -3   29.18    5.00
  -8   5  -3   36.63    4.63
  -8  -5  -3   23.33    3.82
  -8  -5  -3   22.41    4.39
  -8  -5  -4    1.71    2.68
  -8  -5  -4   -2.13    2.66
  -8  -5  -4   -3.12    2.09
  -8   5  -4   -0.68    2.05
  -8  -5  -5   14.35    4.06
  -8  -5  -5   13.14    3.59
  -8  -5  -5    9.21    2.68
  -8   5  -5   15.60    3.86
   8   5   5    9.79    3.42
  -8  -5  -6   24.66    4.78
  -8  -5  -6   21.93    3.66
  -8   5  -6   29.85    4.92
   8   5   6   31.09    5.01
  -8  -5  -6   30.90    5.46
  -8  -5  -7    4.64    3.11
  -8  -5  -7    1.04    1.99
  -8   5  -7    4.35    2.82
   8   5   7   -0.80    2.32
  -8  -5  -7    0.98    2.96
  -8  -5  -8   11.28    3.54
  -8  -5  -8   17.71    3.37
  -8   5  -8   12.11    4.15
  -8  -5  -8   11.34    4.26
  -8  -5  -9   21.23    3.84
  -8   5  -9   28.75    5.53
   8   5   9   31.41    5.12
  -8  -5  -9   30.33    5.75
  -8   5 -10   24.18    5.35
  -8  -6  11    1.64    2.57
  -8  -6  10   50.92    6.33
  -8  -6   9   -0.77    2.74
  -8  -6   9    1.00    2.90
  -8  -6   8  138.59   11.67
  -8  -6   8  130.73   10.22
  -8  -6   7   92.90    8.91
  -8  -6   7   83.73    7.85
  -8  -6   6   20.91    4.62
  -8  -6   6   20.52    4.32
  -8  -6   5   -2.90    2.64
  -8  -6   5    1.66    2.70
  -8  -6   4   57.44    6.47
  -8  -6   4   51.94    5.51
  -8  -6   4   58.44    6.83
  -8  -6   3   12.06    3.43
  -8  -6   3   12.58    3.27
  -8  -6   3    9.01    3.23
  -8  -6   2   11.83    3.25
  -8  -6   2   17.21    3.69
  -8  -6   2   15.59    3.65
  -8  -6   1   -0.69    2.16
  -8  -6   1   -0.68    2.56
  -8  -6   1    0.71    2.22
  -8  -6   0   12.34    3.47
  -8  -6   0   10.42    2.93
  -8  -6  -1   83.38    7.92
  -8  -6  -1   95.93    7.63
  -8  -6  -1   70.95    7.41
  -8  -6  -2    3.23    2.78
  -8  -6  -2   -0.60    1.95
  -8  -6  -2    1.46    2.20
  -8  -6  -3   17.83    4.30
  -8  -6  -3   18.89    3.51
  -8  -6  -3   12.56    3.33
  -8  -6  -4    2.68    2.91
  -8  -6  -4    7.86    2.71
  -8  -6  -4   10.51    3.45
  -8  -6  -5    0.95    2.86
  -8  -6  -5    3.06    2.79
  -8  -6  -5    1.66    2.07
  -8   6  -5    5.15    2.54
  -8  -6  -6    2.96    2.86
  -8  -6  -6    1.57    2.78
  -8  -6  -6    0.55    1.84
  -8   6  -6   -0.80    2.12
   8   6   6    3.26    2.81
  -8  -6  -7    1.03    3.11
  -8  -6  -7    1.61    2.52
  -8  -6  -7    1.12    2.09
  -8   6  -7    0.87    2.62
   8   6   7    1.68    2.98
  -8  -6  -8    7.53    3.14
  -8  -6  -8    5.76    2.37
  -8   6  -8    3.72    2.59
   8   6   8    5.19    3.32
  -8  -6  -9    1.19    2.00
  -8   6  -9   -0.99    2.87
  -8   6 -10    2.11    2.92
  -8  -7  10    5.05    3.07
  -8  -7   9    2.45    2.73
  -8  -7   8   -0.98    3.49
  -8  -7   8    5.60    2.99
  -8  -7   7    0.95    2.63
  -8  -7   7   -0.78    2.27
  -8  -7   6   31.68    5.53
  -8  -7   6   19.36    4.29
  -8  -7   5   21.47    4.39
  -8  -7   5   11.23    3.80
  -8  -7   4   25.13    4.49
  -8  -7   4   19.84    4.29
  -8  -7   3    0.75    2.26
  -8  -7   3    3.94    2.95
  -8  -7   2   -0.71    2.06
  -8  -7   2    0.75    2.09
  -8  -7   2   -0.75    2.17
  -8  -7   1   -0.74    2.05
  -8  -7   1   -0.72    2.25
  -8  -7   1   -1.50    2.26
  -8  -7   0    4.63    2.58
  -8  -7   0    3.44    2.58
  -8  -7   0    0.75    2.36
  -8  -7  -1    1.62    2.24
  -8  -7  -1    1.99    2.66
  -8  -7  -1   -0.76    2.39
  -8  -7  -2   19.51    4.32
  -8  -7  -2   19.18    3.78
  -8  -7  -2   20.08    4.10
  -8  -7  -3    0.89    2.36
  -8  -7  -3    0.61    2.05
  -8  -7  -3    3.11    2.52
  -8  -7  -4    6.55    3.05
  -8  -7  -4   10.27    2.83
  -8  -7  -4    8.67    3.24
  -8  -7  -5    2.94    2.84
  -8  -7  -5    0.80    2.41
  -8  -7  -5    1.79    2.28
  -8  -7  -6    8.25    4.07
  -8  -7  -6   10.65    3.32
  -8  -7  -6   15.37    3.38
  -8  -7  -7    2.16    2.86
  -8  -7  -7    2.40    2.25
  -8   7  -7    4.29    2.96
  -8  -7  -8   62.79    6.21
  -8   7  -8   53.57    7.09
  -8  -7  -9    4.45    2.87
  -8   7  -9    4.93    3.51
  -8  -7 -10    0.66    2.59
  -8  -8   7   21.53    4.35
  -8  -8   6   31.83    5.36
  -8  -8   6   24.58    4.56
  -8  -8   5   -0.81    2.35
  -8  -8   5    0.90    2.49
  -8  -8   4   13.67    3.35
  -8  -8   4   19.72    4.29
  -8  -8   3    0.79    2.48
  -8  -8   3   -2.47    2.67
  -8  -8   2   -0.79    2.56
  -8  -8   2    0.79    2.38
  -8  -8   1    0.79    2.30
  -8  -8   1   -0.76    2.45
  -8  -8   1   -0.79    2.56
  -8  -8   0   78.01    7.92
  -8  -8   0   70.70    7.31
  -8  -8   0   82.59    7.89
  -8  -8  -1    1.71    2.48
  -8  -8  -1    8.45    2.95
  -8  -8  -1    5.60    3.15
  -8  -8  -2   21.42    4.54
  -8  -8  -2   19.70    3.93
  -8  -8  -2   17.82    4.24
  -8  -8  -3    1.87    2.60
  -8  -8  -3    9.18    3.15
  -8  -8  -3    0.81    2.73
  -8  -8  -4   16.67    4.54
  -8  -8  -4   15.47    3.43
  -8  -8  -4   23.08    4.57
  -8  -8  -5    3.08    3.33
  -8  -8  -5    3.19    2.14
  -8  -8  -6   -1.07    3.47
  -8  -8  -6    6.32    2.48
  -8  -8  -7    3.21    2.34
  -8  -8  -8   11.15    3.23
  -8  -9   3   17.52    4.25
  -8  -9   3   19.73    4.36
  -8  -9   2   48.22    6.29
  -8  -9   2   62.57    7.09
  -8  -9   1   10.31    3.66
  -8  -9   1   11.63    3.89
  -8  -9   0   78.60    8.19
  -8  -9   0   81.22    7.89
  -8  -9   0   93.38    8.76
  -8  -9  -1    2.71    3.03
  -8  -9  -1    6.70    3.30
  -8  -9  -2   17.80    4.51
  -8  -9  -2   25.76    4.35
  -8  -9  -3   31.34    5.72
  -8  -9  -3   27.90    4.54
  -8  -9  -4    6.13    3.83
  -8  -9  -4    4.80    2.87
  -8 -10  -1    0.95    2.65
  -9   0  11    2.93    2.84
  -9   0  10   20.19    4.67
  -9   0   9   -0.86    2.39
  -9   0   8    4.03    2.43
  -9   0   7   -0.74    2.24
   9   0   3   -2.30    2.45
  -9   0  -4   11.01    3.51
  -9   0  -5   -0.84    2.34
   9   0   5   -0.64    2.13
   9   0   6    2.00    2.43
  -9   0  -7    0.96    2.53
   9   0   7   -0.70    2.42
  -9   0  -8   -1.02    2.82
   9   0   8    1.47    2.39
  -9   0  -9    1.07    2.69
   9   0   9    0.77    2.15
  -9  -1  11    1.01    3.57
  -9  -1  10    1.90    2.51
  -9  -1   9   10.73    3.53
  -9  -1   8   19.16    4.19
  -9  -1   7    6.22    3.26
  -9  -1   6   74.74    7.35
  -9  -1   5    5.44    2.79
  -9  -1   4   18.29    3.57
  -9  -1   3   17.51    3.41
  -9  -1   2   41.96    4.77
  -9  -1   1    2.17    2.13
  -9  -1   0   36.84    4.58
  -9  -1  -1   24.23    4.02
  -9  -1  -2   47.46    5.27
  -9  -1  -3    0.60    2.01
  -9  -1  -3    2.25    2.08
  -9  -1  -4   20.88    4.18
   9   1   4   25.02    3.93
  -9   1  -5    7.49    3.28
  -9  -1  -5    9.41    3.29
   9   1   5    5.37    2.71
  -9   1  -6   10.68    3.66
  -9  -1  -6   12.73    3.82
   9  -1   6    5.10    2.58
   9   1   6   11.89    3.33
  -9   1  -7    8.52    3.72
  -9  -1  -7    4.82    3.33
   9  -1   7    1.35    2.19
  -9   1  -8   16.07    4.47
  -9  -1  -8    9.17    3.93
   9  -1   8   14.26    3.70
   9   1   8    9.91    3.35
  -9   1  -9   -1.06    2.67
   9  -1   9    3.01    2.67
  -9  -2  10   20.68    4.87
  -9  -2   9    1.84    3.53
  -9  -2   8   13.86    3.66
  -9  -2   7   -0.81    2.35
  -9  -2   6   17.58    3.73
  -9  -2   5   12.93    3.37
  -9  -2   5   10.04    3.00
  -9  -2   4    0.67    2.03
  -9  -2   4    0.59    1.91
  -9  -2   3   -0.63    1.97
  -9  -2   3    2.96    2.32
  -9  -2   2   -0.58    1.95
  -9  -2   2    1.79    2.06
  -9  -2   1    2.18    1.94
  -9  -2   1    1.79    2.18
  -9  -2   0    3.02    2.42
  -9  -2  -1    3.67    2.81
  -9  -2  -2   12.53    3.31
  -9  -2  -3   -0.64    2.46
  -9  -2  -3   -0.77    2.33
  -9  -2  -4    6.00    2.81
  -9  -2  -4    9.87    3.32
   9   2   4   10.84    3.12
  -9  -2  -5    0.88    2.43
   9   2   5    0.71    2.29
  -9  -2  -6    0.93    2.34
   9   2   6    0.74    2.04
  -9   2  -7    0.94    2.71
  -9  -2  -7    1.97    2.98
   9   2   7    0.76    2.39
  -9   2  -8    1.98    3.22
  -9  -2  -8    1.04    2.30
   9   2   8    4.75    2.96
  -9   2  -9    7.34    4.03
  -9  -3  10   25.26    5.36
  -9  -3   9   13.28    3.92
  -9  -3   8   75.41    8.10
  -9  -3   7   -0.66    2.20
  -9  -3   7   -0.85    3.01
  -9  -3   6    2.58    2.02
  -9  -3   6   -2.40    2.51
  -9  -3   5   -0.76    2.61
  -9  -3   5    0.64    2.21
  -9  -3   4   11.41    3.29
  -9  -3   4   10.23    3.05
  -9  -3   3   -0.67    2.62
  -9  -3   3   -3.84    2.63
  -9  -3   2    1.26    1.97
  -9  -3   2    1.94    2.10
  -9  -3   1   -0.59    1.91
  -9  -3   1    0.65    1.80
  -9  -3   0   51.68    5.34
  -9  -3   0   42.43    5.56
  -9  -3  -1    0.66    2.14
  -9  -3  -1    0.53    1.70
  -9  -3  -2   24.15    4.09
  -9  -3  -2   19.58    4.12
  -9  -3  -3    2.06    2.30
  -9  -3  -3    7.22    3.15
  -9  -3  -4   74.00    7.02
  -9  -3  -4   60.47    7.29
  -9  -3  -5    3.65    2.73
   9   3   5    1.48    2.32
  -9  -3  -5   -3.60    2.82
   9   3   6    9.25    3.25
  -9  -3  -6   11.42    4.15
  -9  -3  -7    4.02    3.26
   9   3   7    0.80    2.41
  -9  -3  -8   -1.06    2.81
  -9   3  -9   -1.05    2.77
  -9  -4   9    2.95    2.60
  -9  -4   9    0.72    2.00
  -9  -4   8   -0.71    2.15
  -9  -4   8    0.93    2.80
  -9  -4   7   28.87    4.56
  -9  -4   7   33.54    5.83
  -9  -4   6    0.70    2.10
  -9  -4   6    2.52    2.53
  -9  -4   5   -1.37    2.15
  -9  -4   5   -2.38    2.57
  -9  -4   4   12.00    3.58
  -9  -4   4   13.02    3.28
  -9  -4   3   -0.71    2.64
  -9  -4   3   -0.69    2.30
  -9  -4   2    2.67    2.37
  -9  -4   2    2.07    2.31
  -9  -4   1    1.90    2.31
  -9  -4   1    3.48    2.54
  -9  -4   0   -0.60    2.13
  -9  -4   0    1.40    2.19
  -9  -4  -1    1.72    2.14
  -9  -4  -1   -0.71    2.51
  -9  -4  -1    2.23    2.41
  -9  -4  -2    2.15    2.48
  -9  -4  -2    4.86    2.26
  -9  -4  -2    2.36    2.72
  -9  -4  -3    2.92    2.37
  -9  -4  -3    4.99    2.95
  -9  -4  -4   11.92    3.59
  -9  -4  -4    5.27    3.13
  -9  -4  -5    0.77    2.40
  -9  -4  -5    3.73    3.12
  -9  -4  -6    4.77    2.74
   9   4   6    2.42    2.70
  -9  -4  -6    6.90    3.78
   9   4   7    4.18    2.71
  -9  -4  -7    4.15    3.25
  -9  -5  10   -0.78    2.99
  -9  -5   9    1.53    2.40
  -9  -5   8   28.03    4.82
  -9  -5   7    1.50    2.34
  -9  -5   7    1.85    2.44
  -9  -5   6   56.30    6.30
  -9  -5   6   39.53    5.92
  -9  -5   5   -0.73    2.60
  -9  -5   5   -0.83    2.60
  -9  -5   4   46.48    6.20
  -9  -5   4   43.06    5.68
  -9  -5   3   13.48    3.59
  -9  -5   3   17.53    3.81
  -9  -5   2    9.26    3.12
  -9  -5   2   13.21    3.71
  -9  -5   1    3.38    2.40
  -9  -5   1    4.45    2.91
  -9  -5   0   19.27    3.84
  -9  -5   0   22.41    4.31
  -9  -5  -1   22.29    4.35
  -9  -5  -1   33.93    4.54
  -9  -5  -1   30.80    5.03
  -9  -5  -2   29.79    4.38
  -9  -5  -2   25.10    4.57
  -9  -5  -3   13.86    3.58
  -9  -5  -3   16.42    3.43
  -9  -5  -3   16.63    4.18
  -9  -5  -4   15.74    4.00
  -9  -5  -4   16.55    4.32
  -9  -5  -5    7.22    3.09
  -9  -5  -5    8.68    3.24
  -9  -5  -6   13.17    3.91
  -9  -6   8   28.09    4.86
  -9  -6   7   -0.79    2.57
  -9  -6   6   63.66    6.99
  -9  -6   6   66.47    7.93
  -9  -6   5   -1.55    2.75
  -9  -6   5    1.74    2.90
  -9  -6   4   30.46    5.34
  -9  -6   4   34.77    5.07
  -9  -6   3    3.14    2.71
  -9  -6   3   -0.77    2.50
  -9  -6   2   26.26    4.48
  -9  -6   2   20.95    4.49
  -9  -6   1   12.91    3.33
  -9  -6   1   16.41    4.17
  -9  -6   0    8.91    2.88
  -9  -6   0    7.11    2.90
  -9  -6  -1    1.32    2.41
  -9  -6  -1    0.79    2.39
  -9  -6  -2   -1.78    2.58
  -9  -6  -2    0.63    1.97
  -9  -6  -2   -0.80    2.92
  -9  -6  -3    0.93    2.80
  -9  -6  -3   -0.61    2.39
  -9  -6  -3   -1.63    2.54
  -9  -6  -4   -2.91    3.45
  -9  -6  -4    1.19    2.17
  -9  -6  -5   -1.01    3.05
  -9  -7   3    9.92    3.28
  -9  -7   3   16.27    3.88
  -9  -7   2    0.79    2.56
  -9  -7   2    1.63    3.06
  -9  -7   1    3.03    2.46
  -9  -7   1    7.39    3.08
  -9  -7   0   -0.73    2.44
  -9  -7  -1    3.55    3.23
  -9  -7  -1    0.70    2.12
  -9  -7  -2    5.58    3.32
  -9  -7  -2   11.36    3.18
  -9  -7  -3   29.23    5.54
  -9  -7  -3   21.55    4.01
  -9  -7  -4   18.45    4.99
  -9  -7  -4   23.00    4.11
  -9  -7  -5   22.74    4.15
  -9  -8  -1   -0.93    3.49
  -9  -8  -2    8.79    3.76
   0   0   0    0.00    0.00


TITL exp_1 in P2(1)/c
REM P2(1)/c (#14 in standard setting)
CELL 0.71073   7.574758  13.313406  16.618064  90.0000  93.0543  90.0000
ZERR    7.00   0.000344   0.000536   0.000903   0.0000   0.0047   0.0000
LATT  1
SYMM -x, y+1/2,-z+1/2
SFAC C H N O
UNIT 77.00 70.00 7.00 7.00
TREF
HKLF 4
END
_computing_structure_solution     'SHELXT 2014/5 (Sheldrick, 2014)'
;
_shelx_hkl_checksum              16002
loop_
_space_group_symop_operation_xyz
'x, y, z'
'-x, y+1/2, -z+1/2'
'-x, -y, -z'
'x, -y-1/2, z-1/2'
loop_
_atom_site_label
_atom_site_type_symbol
_atom_site_fract_x
_atom_site_fract_y
_atom_site_fract_z
_atom_site_U_iso_or_equiv
_atom_site_adp_type
_atom_site_occupancy
_atom_site_site_symmetry_order
_atom_site_calc_flag
_atom_site_refinement_flags_posn
_atom_site_refinement_flags_adp
_atom_site_refinement_flags_occupancy
S1 S 0.42683(8) 0.25793(4) 0.24714(4) 0.02752(18) Uani 1 1 d . . .
O1 O 0.4160(2) 0.47202(12) 0.28927(11) 0.0328(4) Uani 1 1 d . . .
O2 O 0.6123(2) 0.27746(14) 0.25680(13) 0.0408(5) Uani 1 1 d . . .
O3 O 0.3394(3) 0.28026(15) 0.17097(11) 0.0439(5) Uani 1 1 d . . .
O4 O 0.1275(3) 0.70399(14) 0.49604(12) 0.0458(5) Uani 1 1 d . . .
N1 N 0.3993(3) 0.13997(15) 0.27171(13) 0.0309(5) Uani 1 1 d . . .
H1N H 0.475(4) 0.101(2) 0.2535(18) 0.037 Uiso 1 1 d . U .
C1 C 0.3075(3) 0.31395(16) 0.32280(14) 0.0258(5) Uani 1 1 d . . .
C2 C 0.1640(3) 0.26498(18) 0.34837(16) 0.0318(5) Uani 1 1 d . . .
H2 H 0.0911 0.3000 0.3838 0.038 Uiso 1 1 calc R U .
C3 C 0.1132(3) 0.16435(18) 0.32616(16) 0.0323(5) Uani 1 1 d . . .
C4 C 0.2335(3) 0.10149(17) 0.28914(14) 0.0270(5) Uani 1 1 d . . .
C5 C 0.1925(4) 0.00018(18) 0.27527(15) 0.0321(5) Uani 1 1 d . . .
H5 H 0.2752 -0.0429 0.2516 0.038 Uiso 1 1 calc R U .
C6 C 0.0321(4) -0.03618(19) 0.29615(17) 0.0388(6) Uani 1 1 d . . .
H6 H 0.0042 -0.1049 0.2865 0.047 Uiso 1 1 calc R U .
C7 C -0.0912(4) 0.0255(2) 0.3312(2) 0.0496(8) Uani 1 1 d . . .
H7 H -0.2026 -0.0008 0.3445 0.060 Uiso 1 1 calc R U .
C8 C -0.0507(4) 0.1249(2) 0.3465(2) 0.0478(8) Uani 1 1 d . . .
H8 H -0.1340 0.1670 0.3708 0.057 Uiso 1 1 calc R U .
C9 C 0.3452(3) 0.42136(16) 0.33994(14) 0.0258(5) Uani 1 1 d . . .
C10 C 0.2908(3) 0.46468(17) 0.41697(14) 0.0260(5) Uani 1 1 d . . .
C11 C 0.3046(3) 0.40982(18) 0.48839(15) 0.0325(5) Uani 1 1 d . . .
H11 H 0.3415 0.3416 0.4881 0.039 Uiso 1 1 calc R U .
C12 C 0.2638(4) 0.4560(2) 0.55991(16) 0.0355(6) Uani 1 1 d . . .
H12 H 0.2750 0.4194 0.6090 0.043 Uiso 1 1 calc R U .
C13 C 0.2072(3) 0.55447(19) 0.56043(15) 0.0315(5) Uani 1 1 d . . .
H13 H 0.1799 0.5854 0.6097 0.038 Uiso 1 1 calc R U .
C14 C 0.1901(3) 0.60856(18) 0.48862(15) 0.0292(5) Uani 1 1 d . . .
C15 C 0.2341(3) 0.56478(17) 0.41655(14) 0.0259(5) Uani 1 1 d . . .
H15 H 0.2260 0.6021 0.3678 0.031 Uiso 1 1 calc R U .
C16 C 0.0938(7) 0.7599(3) 0.4231(2) 0.0766(14) Uani 1 1 d . . .
H16A H 0.0365 0.8237 0.4355 0.115 Uiso 1 1 calc R U .
H16B H 0.0162 0.7210 0.3858 0.115 Uiso 1 1 calc R U .
H16C H 0.2058 0.7734 0.3982 0.115 Uiso 1 1 calc R U .
Cl1 Cl 0.5656(3) 0.1454(2) 0.48257(16) 0.0906(7) Uani 0.5 1 d D U P
Cl2 Cl 0.2325(3) 0.0514(2) 0.49363(11) 0.0816(7) Uani 0.5 1 d D U P
C100 C 0.4422(7) 0.0419(4) 0.4629(7) 0.125(4) Uani 0.5 1 d D U P
D100 D 0.4299 0.0372 0.4028 0.150 Uiso 0.5 1 calc R U P
Cl3 Cl 0.4538(5) 0.0665(4) 0.5059(3) 0.1460(18) Uani 0.5 1 d . U P
loop_
_atom_site_aniso_label
_atom_site_aniso_U_11
_atom_site_aniso_U_22
_atom_site_aniso_U_33
_atom_site_aniso_U_23
_atom_site_aniso_U_13
_atom_site_aniso_U_12
S1 0.0326(3) 0.0197(3) 0.0314(3) -0.0017(2) 0.0126(2) 0.0003(2)
O1 0.0397(10) 0.0220(8) 0.0380(10) -0.0002(7) 0.0148(8) -0.0037(7)
O2 0.0338(10) 0.0272(9) 0.0635(13) -0.0014(8) 0.0210(9) -0.0004(7)
O3 0.0659(13) 0.0354(10) 0.0307(10) 0.0010(8) 0.0059(9) -0.0009(9)
O4 0.0704(14) 0.0287(9) 0.0395(11) -0.0027(8) 0.0152(10) 0.0180(9)
N1 0.0333(11) 0.0182(9) 0.0426(12) -0.0035(8) 0.0155(9) 0.0027(8)
C1 0.0289(11) 0.0192(10) 0.0300(12) -0.0031(9) 0.0079(9) 0.0017(9)
C2 0.0328(12) 0.0231(11) 0.0406(14) -0.0047(10) 0.0130(11) 0.0005(9)
C3 0.0310(12) 0.0231(11) 0.0438(14) -0.0029(10) 0.0103(10) -0.0030(9)
C4 0.0318(12) 0.0220(11) 0.0274(12) -0.0014(9) 0.0043(9) -0.0033(9)
C5 0.0437(14) 0.0223(11) 0.0304(12) -0.0038(9) 0.0042(10) 0.0001(10)
C6 0.0474(15) 0.0244(12) 0.0441(15) -0.0016(11) -0.0009(12) -0.0110(11)
C7 0.0380(15) 0.0371(15) 0.075(2) -0.0049(14) 0.0104(14) -0.0150(12)
C8 0.0346(14) 0.0331(14) 0.078(2) -0.0082(14) 0.0218(14) -0.0055(11)
C9 0.0264(11) 0.0185(10) 0.0331(12) -0.0008(9) 0.0063(9) 0.0003(8)
C10 0.0276(11) 0.0207(10) 0.0302(12) -0.0034(9) 0.0054(9) -0.0023(9)
C11 0.0394(13) 0.0221(11) 0.0364(13) 0.0027(10) 0.0069(11) 0.0025(10)
C12 0.0436(14) 0.0332(13) 0.0298(13) 0.0045(10) 0.0045(11) 0.0033(11)
C13 0.0323(12) 0.0344(13) 0.0281(12) -0.0044(10) 0.0054(10) 0.0026(10)
C14 0.0296(12) 0.0238(11) 0.0345(13) -0.0037(9) 0.0054(10) 0.0042(9)
C15 0.0277(11) 0.0227(10) 0.0276(11) 0.0003(9) 0.0040(9) 0.0013(9)
C16 0.135(4) 0.0465(19) 0.050(2) 0.0116(15) 0.025(2) 0.051(2)
Cl1 0.0765(14) 0.0926(16) 0.1070(18) 0.0024(13) 0.0443(13) -0.0187(12)
Cl2 0.0645(11) 0.133(2) 0.0469(10) 0.0120(11) 0.0010(8) -0.0181(12)
C100 0.136(7) 0.066(6) 0.169(8) 0.040(4) -0.037(5) 0.034(5)
Cl3 0.100(2) 0.102(2) 0.234(6) -0.016(3) -0.015(3) -0.0016(18)
loop_
_atom_type_symbol
_atom_type_description
_atom_type_scat_dispersion_real
_atom_type_scat_dispersion_imag
_atom_type_scat_source
C C 0.0033 0.0016 'International Tables Vol C Tables 4.2.6.8 and 6.1.1.4'
H H 0.0000 0.0000 'International Tables Vol C Tables 4.2.6.8 and 6.1.1.4'
N N 0.0061 0.0033 'International Tables Vol C Tables 4.2.6.8 and 6.1.1.4'
O O 0.0106 0.0060 'International Tables Vol C Tables 4.2.6.8 and 6.1.1.4'
S S 0.1246 0.1234 'International Tables Vol C Tables 4.2.6.8 and 6.1.1.4'
Cl Cl 0.1484 0.1585 'International Tables Vol C Tables 4.2.6.8 and 6.1.1.4'
D D 0.0000 0.0000 'International Tables Vol C Tables 4.2.6.8 and 6.1.1.4'
loop_
_geom_angle_atom_site_label_1
_geom_angle_atom_site_label_2
_geom_angle_atom_site_label_3
_geom_angle
_geom_angle_site_symmetry_1
_geom_angle_site_symmetry_3
O3 S1 O2 117.91(13) . .
O3 S1 N1 111.18(12) . .
O2 S1 N1 106.48(11) . .
O3 S1 C1 108.33(12) . .
O2 S1 C1 112.53(12) . .
N1 S1 C1 98.72(11) . .
C14 O4 C16 117.0(2) . .
C4 N1 S1 121.96(17) . .
C4 N1 H1N 119(2) . .
S1 N1 H1N 114(2) . .
C2 C1 C9 123.6(2) . .
C2 C1 S1 118.23(18) . .
C9 C1 S1 116.51(17) . .
C1 C2 C3 125.2(2) . .
C1 C2 H2 117.4 . .
C3 C2 H2 117.4 . .
C4 C3 C8 119.0(2) . .
C4 C3 C2 119.8(2) . .
C8 C3 C2 121.0(2) . .
C5 C4 N1 120.8(2) . .
C5 C4 C3 120.2(2) . .
N1 C4 C3 118.9(2) . .
C6 C5 C4 119.4(2) . .
C6 C5 H5 120.3 . .
C4 C5 H5 120.3 . .
C5 C6 C7 121.4(2) . .
C5 C6 H6 119.3 . .
C7 C6 H6 119.3 . .
C8 C7 C6 119.6(3) . .
C8 C7 H7 120.2 . .
C6 C7 H7 120.2 . .
C7 C8 C3 120.3(3) . .
C7 C8 H8 119.8 . .
C3 C8 H8 119.8 . .
O1 C9 C10 122.1(2) . .
O1 C9 C1 119.1(2) . .
C10 C9 C1 118.8(2) . .
C11 C10 C15 120.8(2) . .
C11 C10 C9 121.3(2) . .
C15 C10 C9 117.7(2) . .
C12 C11 C10 119.2(2) . .
C12 C11 H11 120.4 . .
C10 C11 H11 120.4 . .
C13 C12 C11 120.6(2) . .
C13 C12 H12 119.7 . .
C11 C12 H12 119.7 . .
C12 C13 C14 120.0(2) . .
C12 C13 H13 120.0 . .
C14 C13 H13 120.0 . .
O4 C14 C15 124.7(2) . .
O4 C14 C13 114.9(2) . .
C15 C14 C13 120.4(2) . .
C14 C15 C10 118.9(2) . .
C14 C15 H15 120.6 . .
C10 C15 H15 120.6 . .
O4 C16 H16A 109.5 . .
O4 C16 H16B 109.5 . .
H16A C16 H16B 109.5 . .
O4 C16 H16C 109.5 . .
H16A C16 H16C 109.5 . .
H16B C16 H16C 109.5 . .
Cl3 Cl1 C100 27.6(4) . .
Cl3 Cl2 C100 26.8(4) . .
Cl1 C100 Cl2 113.5(4) . .
Cl1 C100 Cl3 112.8(5) . 3_656
Cl2 C100 Cl3 113.2(4) . 3_656
Cl1 C100 D100 105.5 . .
Cl2 C100 D100 105.5 . .
Cl3 C100 D100 105.5 3_656 .
Cl1 Cl3 Cl2 131.2(4) . .
Cl1 Cl3 C100 115.9(3) . 3_656
Cl2 Cl3 C100 112.0(3) . 3_656
Cl1 Cl3 Cl3 115.5(4) . 3_656
Cl2 Cl3 Cl3 104.1(3) . 3_656
C100 Cl3 Cl3 24.2(4) 3_656 3_656
loop_
_geom_bond_atom_site_label_1
_geom_bond_atom_site_label_2
_geom_bond_distance
_geom_bond_site_symmetry_2
S1 O3 1.428(2) .
S1 O2 1.4294(19) .
S1 N1 1.639(2) .
S1 C1 1.754(2) .
O1 C9 1.225(3) .
O4 C14 1.364(3) .
O4 C16 1.434(4) .
N1 C4 1.401(3) .
N1 H1N 0.84(3) .
C1 C2 1.355(3) .
C1 C9 1.483(3) .
C2 C3 1.437(3) .
C2 H2 0.9500 .
C3 C4 1.404(3) .
C3 C8 1.405(4) .
C4 C5 1.400(3) .
C5 C6 1.370(4) .
C5 H5 0.9500 .
C6 C7 1.394(4) .
C6 H6 0.9500 .
C7 C8 1.379(4) .
C7 H7 0.9500 .
C8 H8 0.9500 .
C9 C10 1.482(3) .
C10 C11 1.393(3) .
C10 C15 1.400(3) .
C11 C12 1.387(4) .
C11 H11 0.9500 .
C12 C13 1.380(4) .
C12 H12 0.9500 .
C13 C14 1.394(4) .
C13 H13 0.9500 .
C14 C15 1.388(3) .
C15 H15 0.9500 .
C16 H16A 0.9800 .
C16 H16B 0.9800 .
C16 H16C 0.9800 .
Cl1 Cl3 1.417(5) .
Cl1 C100 1.687(5) .
Cl2 Cl3 1.690(4) .
Cl2 C100 1.699(5) .
C100 Cl3 1.711(4) 3_656
C100 D100 1.0000 .
Cl3 C100 1.711(4) 3_656
Cl3 Cl3 1.917(9) 3_656
