#------------------------------------------------------------------------------
#$Date: 2017-07-25 13:41:43 +0300 (Tue, 25 Jul 2017) $
#$Revision: 199311 $
#$URL: file:///home/coder/svn-repositories/cod/cif/1/54/67/1546715.cif $
#------------------------------------------------------------------------------
#
# This file is available in the Crystallography Open Database (COD),
# http://www.crystallography.net/. The original data for this entry
# were provided by IUCr Journals, http://journals.iucr.org/.
#
# The file may be used within the scientific community so long as
# proper attribution is given to the journal article from which the
# data were obtained.
#
data_1546715
loop_
_publ_author_name
'Sebbar, Nada Kheira'
'Ellouz, Mohamed'
'Ouzidan, Younes'
'Kaur, Manpreet'
'Essassi, El Mokhtar'
'Jasinski, Jerry P.'
_publ_section_title
;
 (<i>Z</i>)-2-(2-Chlorobenzylidene)-4-(prop-2-ynyl)-2<i>H</i>-1,4-benzothiazin-3(4<i>H</i>)-one
;
_journal_coeditor_code           SJ4119
_journal_issue                   6
_journal_name_full               IUCrData
_journal_page_first              x170889
_journal_paper_doi               10.1107/S2414314617008896
_journal_volume                  2
_journal_year                    2017
_chemical_formula_iupac          'C18 H12 Cl N O S'
_chemical_formula_moiety         'C18 H12 Cl N O S'
_chemical_formula_sum            'C18 H12 Cl N O S'
_chemical_formula_weight         325.80
_chemical_name_systematic
(<i>Z</i>)-2-(2-Chlorobenzylidene)-4-(prop-2-ynyl)-2<i>H</i>-1,4-benzothiazin-3(4<i>H</i>)-one
_space_group_crystal_system      monoclinic
_space_group_IT_number           14
_space_group_name_Hall           '-P 2ybc'
_space_group_name_H-M_alt        'P 1 21/c 1'
_symmetry_space_group_name_Hall  '-P 2ybc'
_symmetry_space_group_name_H-M   'P 1 21/c 1'
_atom_sites_solution_hydrogens   geom
_cell_angle_alpha                90
_cell_angle_beta                 99.765(5)
_cell_angle_gamma                90
_cell_formula_units_Z            4
_cell_length_a                   13.3937(8)
_cell_length_b                   8.9106(4)
_cell_length_c                   13.3940(7)
_cell_measurement_reflns_used    3922
_cell_measurement_temperature    293(2)
_cell_measurement_theta_max      71.1700
_cell_measurement_theta_min      3.3530
_cell_volume                     1575.36(15)
_computing_cell_refinement
;
CrysAlis PRO (Rigaku Oxford Diffraction, 2015)
;
_computing_data_collection
;
CrysAlis PRO (Rigaku Oxford Diffraction, 2015)
;
_computing_data_reduction
;
CrysAlis PRO (Rigaku Oxford Diffraction, 2015)
;
_computing_molecular_graphics
;
<i>OLEX2</i> (Dolomanov <i>et al.</i>,  2009)
;
_computing_publication_material
;
<i>OLEX2</i> (Dolomanov <i>et al.</i>,  2009)
;
_computing_structure_refinement
;
SHELXL2014 (Sheldrick, 2015b)
;
_computing_structure_solution
;
SHELXT (Sheldrick, 2015a)
;
_diffrn_ambient_temperature      293(2)
_diffrn_detector_area_resol_mean 16.0416
_diffrn_measured_fraction_theta_full 0.999
_diffrn_measured_fraction_theta_max 0.983
_diffrn_measurement_device       'four-circle diffractometer'
_diffrn_measurement_device_type  'Rigaku Oxford Diffraction'
_diffrn_measurement_method       '\w scans'
_diffrn_radiation_monochromator  graphite
_diffrn_radiation_type           CuK\a
_diffrn_radiation_wavelength     1.54184
_diffrn_reflns_av_R_equivalents  0.0370
_diffrn_reflns_limit_h_max       16
_diffrn_reflns_limit_h_min       -15
_diffrn_reflns_limit_k_max       10
_diffrn_reflns_limit_k_min       -7
_diffrn_reflns_limit_l_max       16
_diffrn_reflns_limit_l_min       -16
_diffrn_reflns_number            10186
_diffrn_reflns_theta_full        67.684
_diffrn_reflns_theta_max         71.733
_diffrn_reflns_theta_min         3.348
_exptl_absorpt_coefficient_mu    3.380
_exptl_absorpt_correction_T_max  1.00000
_exptl_absorpt_correction_T_min  0.48047
_exptl_absorpt_correction_type   multi-scan
_exptl_absorpt_process_details
;
(CrysAlis PRO; Rigaku Oxford Diffraction, 2015)
;
_exptl_crystal_colour            yellow
_exptl_crystal_density_diffrn    1.374
_exptl_crystal_description       prism
_exptl_crystal_F_000             672
_exptl_crystal_size_max          0.24
_exptl_crystal_size_mid          0.18
_exptl_crystal_size_min          0.12
_refine_diff_density_max         0.315
_refine_diff_density_min         -0.287
_refine_ls_extinction_method     none
_refine_ls_goodness_of_fit_ref   1.025
_refine_ls_hydrogen_treatment    constr
_refine_ls_matrix_type           full
_refine_ls_number_parameters     199
_refine_ls_number_reflns         3031
_refine_ls_number_restraints     0
_refine_ls_restrained_S_all      1.025
_refine_ls_R_factor_all          0.0579
_refine_ls_R_factor_gt           0.0488
_refine_ls_shift/su_max          0.000
_refine_ls_shift/su_mean         0.000
_refine_ls_structure_factor_coef Fsqd
_refine_ls_weighting_details
'w=1/[\s^2^(Fo^2^)+(0.0723P)^2^+0.4736P] where P=(Fo^2^+2Fc^2^)/3'
_refine_ls_weighting_scheme      calc
_refine_ls_wR_factor_gt          0.1303
_refine_ls_wR_factor_ref         0.1376
_reflns_number_gt                2559
_reflns_number_total             3031
_reflns_threshold_expression     'I > 2\s(I)'
_cod_data_source_file            sj4119sup1.cif
_cod_data_source_block           I
_cod_database_code               1546715
_shelx_space_group_comment
;
The symmetry employed for this shelxl refinement is uniquely defined
by the following loop, which should always be used as a source of
symmetry information in preference to the above space-group names.
They are only intended as comments.
;
_shelx_hkl_file
;
   0   0   1    5.64    0.72
   0   0  -2 3089.93   16.08
   0   0   2 3130.88   23.72
   0   0  -3    1.21    0.49
   0   0   3    1.50    0.79
   0   0   4  561.42   14.20
   0   0   5    0.74    1.19
   0   0  -5    0.17    0.39
   0   0   6    4.10    1.90
   0   0  -6    2.94    0.99
   0   0   7   -1.17    1.39
   0   0  -7    0.34    0.47
   0   0  -8  193.72   12.45
   0   0   8  184.98   12.05
   0   0  -9    3.33    2.02
   0   0   9    3.25    2.11
   0   0 -10  159.94    5.98
   0   0 -11   -0.04    0.40
   0   0  11    1.24    0.69
   0   0 -12  162.65    6.51
   0   0  12  184.61    6.61
   0   0 -13    0.00    0.63
   0   0  13    1.27    0.71
   0   0 -14   11.77    1.67
   0   0  14   11.53    1.56
   0   0 -15   -0.06    0.44
   0   0 -16    4.87    0.79
   0   1   0    0.17    0.29
   0   1   1  347.18    6.25
   0   1  -1  337.54    4.07
   0  -1   2  666.43    7.42
   0   1  -2  646.03    6.14
   0   1   2  653.11   10.87
   0  -1   3  894.67    9.36
   0   1   3  917.97   15.87
   0   1  -4  177.00    8.16
   0   1  -4  174.56    5.39
   0  -1   4  182.90    4.84
   0  -1   4  174.44    8.20
   0  -1  -4  156.95    5.88
   0   1   4  162.99    7.88
   0  -1   5   53.97    5.17
   0   1  -5   55.53    3.50
   0  -1  -5   53.12    3.87
   0   1  -5   49.65    4.98
   0   1   5   53.98    5.09
   0  -1   5   49.96    2.89
   0   1   6  762.51   21.14
   0  -1   6  758.32   20.79
   0  -1  -6  724.37   15.83
   0   1  -6  734.33   20.47
   0  -1  -7    7.19    1.83
   0  -1   7    5.71    2.01
   0   1   7    5.60    2.15
   0   1  -7    4.79    1.87
   0  -1   8  414.03   17.86
   0   1  -8  417.34   17.74
   0   1   8  375.46   17.33
   0  -1  -8  425.69   14.84
   0  -1   9   91.32    9.00
   0   1   9   86.41    8.96
   0   1  -9   79.60    8.27
   0   1 -10  101.01    4.81
   0  -1 -10  100.22    4.78
   0   1  11    5.82    1.35
   0  -1 -11    7.59    1.36
   0   1  11    5.96    1.17
   0   1 -11    5.81    1.29
   0   1  12    5.39    1.26
   0  -1 -12    2.77    0.95
   0   1 -12    3.41    0.99
   0   1 -13    3.15    0.96
   0  -1 -13    6.13    1.30
   0   1  13    5.39    1.23
   0   1 -13    3.42    1.01
   0   1  14    4.22    1.02
   0   1 -14    3.68    0.98
   0  -1 -15    1.61    0.68
   0   1  15    1.14    0.55
   0   1 -15    1.14    0.58
   0  -1 -16    2.31    0.56
   0   1 -16    2.17    0.57
   0   2   0   47.70    2.09
   0   2   0   52.42    2.98
   0   2  -1   12.39    1.47
   0   2   1   15.10    0.86
   0   2  -1   10.59    1.24
   0  -2   2 3573.06   23.37
   0   2   2 3623.08   29.45
   0   2  -2 3591.23   18.56
   0   2  -2 3582.66   27.17
   0  -2   3  297.03    7.02
   0   2   3  328.62   10.01
   0   2  -3  308.11    6.07
   0   2  -3  278.96    8.01
   0  -2   4  218.46    6.39
   0  -2  -4  202.55    7.67
   0   2   4  214.54    9.23
   0   2  -5  167.51    8.83
   0   2   5  195.50    9.82
   0  -2   5  175.67    9.43
   0  -2  -5  191.64    8.07
   0  -2   5  186.47    6.29
   0  -2   6  510.29   17.60
   0   2   6  467.07   16.70
   0  -2  -6  477.36   14.05
   0   2  -6  452.62   15.91
   0  -2   7    1.49    1.32
   0  -2  -7    3.22    1.44
   0   2   7    3.31    2.07
   0   2  -7    0.48    0.94
   0   2  -8   21.41    4.16
   0  -2   8   26.09    4.81
   0  -2  -8   23.49    3.74
   0   2   8   25.84    4.87
   0  -2   9    1.48    1.42
   0  -2  -9    1.02    1.14
   0   2   9    0.26    1.22
   0   2 -10    1.57    0.54
   0   2  10    3.46    1.03
   0  -2 -10    2.97    0.84
   0   2 -10    2.66    0.74
   0   2 -11   73.90    3.96
   0  -2 -11   70.41    4.27
   0   2  11   73.74    4.57
   0   2  11   73.18    4.21
   0   2 -11   67.45    4.22
   0   2 -12   27.70    2.80
   0   2  12   26.16    2.60
   0  -2 -12   26.27    2.67
   0   2  12   28.38    2.89
   0   2 -12   25.46    2.60
   0   2 -13   26.44    2.61
   0   2  13   24.29    2.42
   0   2 -14    1.00    0.53
   0   2  14    1.52    0.71
   0  -2 -15    0.29    0.38
   0   2  15    0.22    0.46
   0   3   0    0.43    0.73
   0   3   1  180.45    6.26
   0   3  -1  179.43    6.95
   0  -3   2    8.45    1.45
   0   3   2   11.26    1.78
   0   3  -2    9.92    1.90
   0   3  -2    8.39    1.55
   0  -3   3    5.56    1.22
   0   3  -3    6.52    0.94
   0   3   3    4.53    1.29
   0   3  -3    7.52    1.76
   0   3   4  155.67    8.47
   0   3  -4  168.09    8.73
   0  -3  -4  156.50    7.59
   0  -3   4  166.03    6.60
   0   3  -5   39.99    4.65
   0  -3   5   46.84    3.63
   0  -3  -5   43.67    4.34
   0   3   5   42.93    4.96
   0  -3  -6   35.82    4.24
   0  -3   6   33.57    4.78
   0   3   6   36.22    4.95
   0  -3  -7   69.96    6.26
   0   3   7   67.59    7.38
   0  -3   7   84.52    8.18
   0  -3  -8    1.34    0.81
   0   3   8    2.64    1.52
   0  -3   8    1.22    1.07
   0   3  -9   93.19    4.42
   0   3   9   91.36    4.75
   0   3 -10    2.00    0.85
   0   3  10    2.33    0.95
   0  -3 -10    0.27    0.55
   0   3 -10    1.39    0.76
   0   3 -11    6.64    1.35
   0   3 -11    6.37    1.31
   0   3  11    5.73    1.30
   0   3  11    3.93    1.21
   0   3 -11    6.79    1.45
   0  -3 -11    5.69    1.33
   0   3 -12   26.76    2.74
   0   3  12   26.69    2.74
   0   3  12   23.72    2.46
   0   3 -12   25.11    2.46
   0   3 -13    1.47    0.78
   0   3  13    2.38    0.91
   0   3 -13    2.11    0.92
   0   3  13    2.89    0.94
   0   3 -14   16.41    1.84
   0   3  14   14.91    1.80
   0   3 -15    4.84    0.86
   0  -3 -15    5.23    0.80
   0   3  15    3.15    0.77
   0   4   0  896.40   15.39
   0   4   0  863.62   18.04
   0   4   1  199.41    7.78
   0   4  -1  202.90    8.69
   0   4   1  211.95    9.26
   0   4  -1  200.50    6.71
   0   4   2  680.87   15.27
   0   4  -2  707.45   16.55
   0   4   2  727.86   17.75
   0  -4   2  715.56   15.37
   0   4  -2  718.89   11.89
   0  -4  -3  730.39   17.69
   0   4  -3  778.73   18.14
   0   4   3  765.85   17.29
   0   4  -3  729.47   19.25
   0  -4   3  753.09   16.34
   0  -4   4    2.89    0.99
   0   4  -4    1.62    1.47
   0  -4  -4    0.95    0.96
   0  -4   5   20.16    2.79
   0  -4  -5   14.39    2.81
   0   4  -5   20.52    3.70
   0  -4  -6   40.35    4.97
   0   4  -6   44.41    5.69
   0  -4  -7   41.76    5.29
   0   4  -7   42.60    6.03
   0   4   7   38.12    5.79
   0  -4   7   39.56    5.86
   0  -4   8   63.02    7.91
   0   4   8   71.65    4.09
   0   4  -8   73.71    4.12
   0   4  -8   78.51    4.17
   0   4   9    3.61    0.97
   0   4   9    3.87    1.09
   0   4   9    3.85    1.15
   0   4  -9    5.92    1.33
   0   4 -10   51.05    3.66
   0   4 -10   55.55    4.02
   0   4  10   53.35    3.89
   0   4  10   49.74    3.68
   0   4 -11   34.46    3.00
   0   4  11   25.84    2.64
   0   4 -11   32.56    3.07
   0   4  11   22.70    2.66
   0   4  12   53.01    3.78
   0   4  12   49.89    3.60
   0   4 -12   45.23    3.33
   0   4 -12   53.29    3.75
   0   4  13   -0.03    0.61
   0   4  13    0.12    0.52
   0   4 -13    0.15    0.47
   0   4 -14   -0.08    0.57
   0   4 -14    0.34    0.36
   0   4  14    0.27    0.50
   0   4  15    0.52    0.39
   0   4 -15    1.51    0.52
   0  -5   0    0.11    0.55
   0   5   0    0.45    0.67
   0   5   0    0.95    1.01
   0  -5   0    1.20    0.81
   0  -5   1   47.45    4.81
   0   5   1   51.82    5.29
   0  -5  -1   47.14    4.69
   0   5  -1   49.32    5.08
   0  -5  -1   42.53    4.49
   0   5   1   50.80    4.58
   0   5   2   91.26    7.34
   0  -5   2   85.99    6.28
   0  -5  -2   90.33    6.69
   0   5  -2   80.26    6.46
   0  -5  -2   86.77    6.27
   0   5   2   86.13    6.34
   0  -5  -3   33.73    4.05
   0   5   3   38.81    5.00
   0  -5   3   33.22    4.03
   0  -5  -3   36.47    4.48
   0  -5   4   86.12    6.57
   0  -5  -4   78.40    6.90
   0  -5  -4   88.64    6.59
   0  -5   5    7.56    1.95
   0  -5  -5    8.88    2.46
   0   5  -5   12.65    3.21
   0  -5  -6   14.00    3.28
   0   5  -6   15.03    3.69
   0   5   7   14.30    1.97
   0   5   7   13.50    1.78
   0   5  -7   13.59    1.63
   0   5  -7   13.88    1.92
   0   5  -7   12.21    1.82
   0   5   8  269.80    8.36
   0   5  -8  246.07    7.63
   0   5   8  259.16    8.73
   0   5  -8  235.37    6.94
   0   5  -8  250.76    8.01
   0   5   8  252.88    8.09
   0   5  -9   39.80    3.32
   0   5   9   35.72    3.24
   0   5   9   37.31    3.49
   0   5  -9   34.81    2.76
   0   5   9   45.85    3.46
   0   5 -10   39.12    3.26
   0   5  10   35.65    3.07
   0   5 -10   36.34    2.60
   0   5  10   30.88    3.04
   0   5  11   74.46    4.50
   0   5 -11   76.86    4.25
   0   5 -11   72.75    4.44
   0   5  11   67.39    4.34
   0   5  12    7.64    1.48
   0   5  12    8.67    1.58
   0   5 -12    5.54    1.27
   0   5  13   11.46    1.63
   0   5 -13   13.69    1.65
   0   5  13   14.68    1.74
   0   5  14   25.65    2.04
   0   5 -14   23.57    1.66
   0  -6   0   -0.27    0.66
   0   6   0   -1.09    1.29
   0   6  -1    1.86    1.18
   0  -6   1    0.90    0.90
   0  -6  -1    0.95    0.76
   0   6   1    1.84    1.35
   0  -6  -2   39.73    5.05
   0   6   2   48.20    6.01
   0  -6   2   31.93    4.52
   0  -6  -2   35.85    4.78
   0   6  -2   34.98    5.01
   0  -6  -3    7.31    2.24
   0  -6   3    8.23    2.33
   0   6   3   10.48    3.00
   0  -6  -3    6.26    2.28
   0  -6   4  283.88   13.35
   0  -6  -4  289.44   13.80
   0  -6  -4  270.93   14.34
   0   6   4  304.66   16.25
   0   6   5   96.39    4.74
   0   6  -5   97.89    4.36
   0   6   5  102.82    4.84
   0   6  -5   95.23    4.50
   0   6   5   95.52    4.70
   0   6  -5   99.93    5.11
   0   6  -5   94.27    4.83
   0   6   6  151.15    6.10
   0   6   6  132.78    5.76
   0   6  -6  139.98    5.73
   0   6  -6  142.44    5.67
   0   6  -6  137.46    6.07
   0   6  -6  135.77    5.27
   0   6  -6  130.87    6.16
   0   6   6  149.23    6.35
   0   6  -7    1.58    0.83
   0   6   7    2.14    0.84
   0   6  -7    1.69    0.75
   0   6   7    2.23    1.00
   0   6  -7    1.01    0.79
   0   6   7    1.29    0.73
   0   6  -7    0.81    0.74
   0   6   8   77.80    4.73
   0   6  -8   73.52    3.88
   0   6   8   80.50    4.96
   0   6  -8   70.99    4.54
   0   6  -8   72.25    4.23
   0   6  -9   14.35    2.14
   0   6   9   12.18    2.07
   0   6  -9   13.05    1.81
   0   6  -9   14.34    1.73
   0   6   9   12.44    1.97
   0   6  10    0.79    0.60
   0   6 -10    0.60    0.79
   0   6  10    0.63    0.61
   0   6 -10    1.64    0.70
   0   6  10    1.29    0.62
   0   6  10    0.90    0.76
   0   6  11   -0.51    0.72
   0   6 -11    0.20    0.68
   0   6  11    0.62    0.59
   0   6  11    0.94    0.66
   0   6 -12    2.22    0.86
   0   6  12    3.00    0.84
   0   6  12    2.32    0.85
   0   6 -13    1.68    0.58
   0   6  13    0.94    0.45
   0   7   0   -0.88    0.62
   0   7   0   -0.44    0.68
   0   7   0   -0.45    0.63
   0   7   1   44.76    3.19
   0   7  -1   36.01    2.23
   0   7   1   45.15    3.15
   0   7  -1   42.31    3.14
   0   7   1   48.62    3.25
   0   7  -1   42.36    3.00
   0   7   2  208.22    6.87
   0   7  -2  196.40    6.50
   0   7  -2  193.11    6.77
   0   7   2  193.95    6.70
   0   7   2  199.22    6.81
   0   7   3   91.90    4.71
   0   7  -3   98.84    5.01
   0   7   3   90.74    4.71
   0   7  -3  104.58    4.73
   0   7   3  101.00    4.94
   0   7   4  158.13    6.27
   0   7  -4  161.12    5.98
   0   7   4  155.98    6.38
   0   7  -4  155.44    6.45
   0   7   5    0.85    0.76
   0   7   5    1.07    0.75
   0   7  -5    1.53    1.01
   0   7  -5    1.30    0.76
   0   7  -5    0.24    0.63
   0   7   6   20.30    2.55
   0   7   6   21.11    2.45
   0   7  -6   27.82    2.85
   0   7  -6   24.67    2.44
   0   7  -6   29.02    2.59
   0   7   6   23.40    2.65
   0   7  -7   18.65    2.26
   0   7  -7   20.30    2.15
   0   7   7   18.11    2.27
   0   7   7   20.84    2.46
   0   7   7   17.33    2.53
   0   7   8   -0.46    0.82
   0   7  -8    1.85    1.02
   0   7   8    0.76    0.81
   0   7  -8    1.15    0.75
   0   7   8    1.18    0.81
   0   7   9    2.00    0.93
   0   7  -9    3.89    1.13
   0   7  -9    4.46    1.01
   0   7   9    1.79    0.85
   0   7   9    2.17    1.02
   0   7  10    3.36    0.88
   0   7 -10    2.23    0.70
   0   7 -10    5.16    1.15
   0   7  10    2.56    0.93
   0   7  10    2.86    0.93
   0   7 -11    2.11    0.82
   0   7  11    1.08    0.77
   0   7 -12   -0.83    0.63
   0   7  12    5.39    1.02
   0   8   0   28.64    2.68
   0   8   0   32.26    2.86
   0   8   0   28.40    2.70
   0   8   1    1.20    0.64
   0   8  -1    2.14    0.91
   0   8  -1    1.46    0.87
   0   8   1    2.73    1.03
   0   8   2   24.05    2.70
   0   8  -2   16.97    2.17
   0   8   2   17.69    2.24
   0   8  -2   17.99    2.17
   0   8   2   17.39    2.22
   0   8   3    0.69    0.90
   0   8  -3   -0.71    0.88
   0   8  -3   36.64    2.32
   0   8   3   30.49    3.51
   0   8  -3    0.31    0.74
   0   8   3    0.47    0.90
   0   8  -4   62.00    3.30
   0   8  -4   66.18    3.95
   0   8   4   51.17    4.07
   0   8   4   53.50    3.79
   0   8  -4   64.94    4.32
   0   8   5   12.15    1.87
   0   8  -5   12.51    2.12
   0   8  -5   18.24    2.05
   0   8  -5   13.16    1.78
   0   8   5   11.52    2.03
   0   8   6    2.10    1.10
   0   8   6    3.07    1.03
   0   8  -6    1.47    0.91
   0   8  -6    1.02    0.64
   0   8   7   39.73    3.00
   0   8  -7   38.31    2.93
   0   8   7   47.05    3.51
   0   8   7   40.39    3.66
   0   8   8    3.35    0.88
   0   8   8    3.41    1.23
   0   8  -8    1.08    0.65
   0   8   8    3.37    1.02
   0   8  -9    2.79    0.76
   0   8  -9    0.98    0.61
   0   8   9    2.72    0.92
   0   8   9    2.70    0.90
   0   8 -10   25.18    1.80
   0   8  10   27.45    2.16
   0   8  10   26.51    2.21
   0   8 -11   12.56    1.01
   0   9   0   -0.65    0.74
   0   9   0    1.53    1.10
   0   9   0   -0.23    0.57
   0   9  -1    3.15    1.24
   0   9   1    0.97    0.83
   0   9   1    1.09    0.79
   0   9  -1    0.52    0.74
   0   9   2    1.48    0.87
   0   9  -2    0.66    0.66
   0   9   2    1.72    0.79
   0   9  -2    2.75    1.12
   0   9  -3    3.55    1.14
   0   9   3    2.73    1.17
   0   9  -3    2.88    1.20
   0   9   3    2.76    0.97
   0   9  -4    3.73    1.15
   0   9  -4    4.60    1.37
   0   9   4    5.08    1.27
   0   9   4    5.08    1.14
   0   9   5   13.17    2.06
   0   9  -5   12.52    1.76
   0   9   5   10.23    1.62
   0   9  -6   18.55    2.07
   0   9   6   17.87    1.90
   0   9   6   17.63    2.36
   0   9  -7   -0.32    0.61
   0   9   7    1.83    0.97
   0   9  -8   25.60    2.03
   0   9   8   29.15    2.44
   0   9  -9   35.33    1.37
   0  10   0    2.47    0.87
   0  10   1    0.76    0.59
   0  10  -1    2.84    0.96
   0  10   2    4.92    1.06
   0  10  -2    7.08    1.42
   0  10   2    6.97    1.34
   0  10   3   -1.09    0.61
   0  10   3    0.55    0.66
   0  10  -4    1.87    0.91
   0  10   4   -0.14    0.55
   0  10   5    0.55    0.58
   0  10  -5    4.37    1.09
   0  10  -6    6.86    1.17
   0  10   6    4.84    1.08
   1   0 -16    9.80    1.15
   1   0 -15   -0.04    0.48
  -1   0  14  162.94    5.82
   1   0 -14  152.05    6.04
  -1   0  13    0.80    0.60
   1   0 -13    0.06    0.59
   1   0 -12   48.88    3.54
  -1   0  12   58.20    3.69
   1   0 -11   -0.08    0.49
   1   0 -10    4.84    2.17
  -1   0  10    5.18    2.15
   1   0 -10    4.80    1.06
   1   0  -9    0.12    0.94
  -1   0   9    0.76    1.15
  -1   0   8   15.68    3.46
  -1   0   7   -0.26    0.95
   1   0  -6    1.19    0.53
  -1   0   6    2.88    1.51
  -1   0   5    1.96    1.36
   1   0  -4 2089.78   18.20
  -1   0   4 2128.99   26.25
  -1   0   3    2.19    1.14
   1   0  -3    3.32    0.73
  -1   0   2  175.67    3.46
  -1   0   2  162.59    4.98
   1   0  -2  163.61    3.69
  -1   0   1    3.39    0.43
  -1   0   1    0.22    0.13
   1   0   0   30.77    1.44
   1   0   1   18.38    1.47
   1   0   1   13.87    0.98
   1   0   2  225.25    6.89
  -1   0  -3    3.50    0.91
   1   0   3    3.64    1.25
   1   0   4    3.23    1.40
   1   0   5    1.38    1.09
  -1   0  -5    1.16    0.73
   1   0   6  118.55    8.33
  -1   0  -6  127.33    6.89
   1   0   7    1.99    1.66
  -1   0  -7    0.93    1.10
  -1   0  -7    1.36    0.80
  -1   0  -8 1749.99   36.60
   1   0   8 1541.37   35.59
  -1   0  -9    1.90    1.40
   1   0   9    1.50    1.06
   1   0  10   27.44    2.42
  -1   0 -10   23.03    2.34
   1   0  11    0.66    0.49
  -1   0 -11    0.41    0.46
  -1   0 -12    1.97    0.73
   1   0  12    3.72    1.02
   1   0  13   -0.14    0.50
  -1   0 -13   -0.27    0.70
   1   0  14   30.35    2.46
  -1   0 -14   27.66    2.44
  -1   0 -15    0.25    0.39
   1  -1 -16    4.05    0.74
   1   1 -16    4.41    0.80
   1  -1 -15   -0.10    0.45
   1   1 -15   -0.09    0.49
  -1   1  15    0.28    0.44
  -1   1  14    2.44    0.85
   1   1 -14    2.54    0.80
   1   1 -14    1.58    0.64
   1  -1 -14    1.70    0.67
   1   1 -13   -0.34    0.62
   1  -1 -13    0.97    0.72
  -1   1  13    0.20    0.66
  -1   1  12  105.61    5.06
   1  -1 -12  104.32    5.22
   1   1 -12   96.56    5.02
   1  -1 -11    2.98    0.84
   1   1 -11    2.30    0.84
   1  -1 -10    3.08    0.81
   1   1 -10    2.07    0.72
  -1  -1   9   -0.41    1.00
   1   1  -9    0.41    1.30
  -1   1   9    1.97    1.84
  -1  -1   8  335.66   15.66
   1   1  -8  331.64   16.17
   1  -1  -8  326.07   12.40
  -1   1   8  330.49   15.81
  -1  -1   7   19.11    3.56
   1  -1  -7   19.01    2.74
   1   1  -7   16.91    3.46
  -1   1   7   20.85    3.77
   1  -1  -6  450.50   12.06
  -1   1   6  472.26   15.84
  -1  -1   6  473.25   15.90
   1   1  -6  432.93   16.18
   1   1  -5  125.89    8.08
  -1   1   5  136.58    7.72
   1   1  -5  144.43    4.71
   1   1  -5  131.89    5.99
  -1  -1   5  132.02    7.66
   1  -1  -5  136.27    5.96
  -1   1   4  267.84    9.52
  -1  -1   4  290.36    4.75
   1   1  -4  263.52    7.50
  -1   1   4  274.22    7.82
  -1  -1   4  269.22    9.75
   1   1  -4  287.33    5.35
   1  -1  -4  283.29    4.03
   1  -1  -3  260.11    4.52
  -1   1   3  251.00    7.82
  -1  -1   3  256.96    8.06
   1   1  -3  273.98    5.54
   1   1  -3  240.75    3.41
   1  -1  -3  257.68    4.25
  -1   1   3  248.44    6.42
   1   1  -2  204.86    4.47
   1  -1  -2  211.08    3.99
   1  -1  -2  212.41    2.98
   1   1  -1    7.61    1.02
  -1   1   1    6.01    0.84
   1  -1  -1    7.01    0.78
   1   1   0 1573.89   12.04
  -1  -1   0 1637.75   11.40
   1   1   0 1537.04   12.42
   1  -1   0 1610.58   12.37
   1   1   1 1412.24   12.78
  -1   1  -1 1407.22   10.12
   1  -1   1 1377.97    8.48
   1  -1   1 1427.39   12.49
  -1   1  -1 1377.36   12.44
   1   1   2 2001.31   19.92
  -1   1  -2 1962.71   18.23
  -1   1  -3  742.39   13.66
   1  -1   3  781.25   11.44
   1   1   3  752.77   15.15
   1  -1   4  703.81   12.63
  -1  -1  -4  619.47   12.65
  -1   1  -4  695.40   15.43
   1  -1   4  670.50   16.62
   1   1   4  605.67   15.89
   1   1   5   11.03    2.60
  -1  -1  -5   11.71    1.95
   1  -1   5   15.12    2.77
  -1   1  -5   10.21    2.22
  -1   1  -6  702.14   16.12
   1  -1   6  653.41   19.92
  -1  -1  -6  643.38   15.93
   1   1   6  630.71   19.74
  -1   1  -6  666.85   18.71
  -1   1  -7  199.44   11.24
  -1  -1  -7  218.63   10.24
   1   1   7  211.79   12.39
  -1   1  -8    4.93    1.82
   1   1   8    5.18    2.37
  -1  -1  -8    5.42    1.83
   1  -1   8    6.73    2.56
   1  -1   9   73.99    8.17
  -1   1  -9   67.03    7.38
   1   1   9   61.51    7.63
  -1   1 -10   14.84    1.94
  -1  -1 -10   16.51    1.98
   1   1  10   16.56    2.17
   1   1  10   15.13    1.85
   1   1  11    1.14    0.73
  -1  -1 -11    1.31    0.60
  -1   1 -11    1.88    0.80
   1   1  11    0.38    0.63
   1   1  12    5.74    1.25
  -1   1 -12    3.56    1.05
  -1   1 -12    2.90    0.98
  -1  -1 -12    3.41    1.02
   1   1  13   -0.69    0.68
  -1   1 -13   -1.19    0.92
  -1   1 -14    3.15    0.85
   1   1  14    2.57    0.81
  -1  -1 -14    2.72    0.80
  -1   1 -15    0.66    0.42
   1   1  15    0.40    0.43
  -1  -1 -15    0.19    0.43
   1  -2 -15    1.85    0.75
   1   2 -15    2.39    0.79
  -1   2  15    2.00    0.73
  -1   2  14    3.63    0.96
   1   2 -14    2.13    0.83
   1   2 -13    2.10    0.82
   1  -2 -13    2.74    0.99
  -1   2  13    2.21    0.80
  -1   2  13    1.72    0.77
   1   2 -13    2.42    0.81
  -1   2  12   18.94    2.19
   1   2 -12   19.31    2.28
   1  -2 -12   19.02    2.28
   1   2 -12   21.14    2.16
  -1   2  12   20.11    2.43
   1   2 -11   13.98    1.74
   1  -2 -11   10.95    1.70
  -1   2  11   11.50    1.84
   1   2 -11   12.70    1.83
  -1   2  10  109.89    5.31
   1  -2 -10  101.77    4.76
   1  -2 -10  104.46    4.89
   1   2 -10  103.37    4.54
   1   2 -10   95.61    4.73
  -1   2   9   12.84    3.58
  -1  -2   9   17.18    3.92
   1  -2  -9   10.78    2.66
   1   2  -9   11.80    3.19
   1   2  -8  210.43   12.81
  -1  -2   8  232.93   13.42
  -1   2   8  229.86   13.51
   1  -2  -8  236.61   11.33
  -1  -2   7   36.24    4.88
  -1   2   7   33.90    4.89
   1   2  -7   33.15    4.83
   1  -2  -7   33.48    3.96
   1  -2  -6  253.15   10.01
  -1   2   6  277.38   12.52
  -1  -2   6  272.08   12.66
   1   2  -5   75.23    6.00
   1   2  -5   80.66    5.23
  -1   2   5   88.30    6.44
  -1  -2   5   90.08    3.90
  -1  -2   5   85.59    6.42
  -1   2   4  151.46    7.51
  -1  -2   4  154.10    5.09
  -1   2   4  147.27    6.43
   1   2  -4  146.28    6.34
   1  -2  -4  151.87    4.74
  -1   2   3  777.53   13.33
  -1   2   3  790.77   15.31
   1  -2  -3  772.29   10.52
   1   2  -3  773.46    7.40
  -1   2   2  485.53   10.61
  -1  -2   2  454.88    4.22
   1  -2  -2  465.54    8.27
   1   2  -2  431.95    4.16
   1   2  -2  493.25    6.39
   1   2  -2  481.87   10.65
   1   2  -1 3626.39   16.47
   1   2  -1 3679.01   22.97
   1  -2  -1 3671.79   23.18
  -1  -2   0    8.75    1.18
   1   2   0   11.72    1.58
   1  -2   0   12.15    1.46
  -1   2   0   10.38    1.28
  -1   2   0   12.06    1.38
   1   2   0    9.54    1.11
   1   2   0    9.81    1.06
  -1  -2  -1  136.80    4.80
   1   2   1  131.19    3.42
  -1   2  -1  150.36    4.71
   1  -2   1  156.82    5.12
  -1   2  -1  147.81    4.70
   1  -2   2 2729.69   22.20
  -1   2  -2 2654.13   25.56
  -1  -2  -2 2751.27   24.26
   1   2   2 2748.62   25.81
  -1   2  -2 2798.72   22.46
  -1   2  -2 2697.44   21.32
  -1  -2  -3    4.28    1.20
   1   2   3    3.62    1.32
   1  -2   3    2.21    0.72
   1   2   4  338.40   11.77
  -1  -2  -4  342.64   10.29
   1  -2   4  374.03    9.54
   1  -2   5   12.66    2.51
   1   2   5   11.21    2.71
   1  -2   5   10.30    1.73
  -1  -2  -5    8.32    1.88
  -1  -2  -6  174.48    8.73
   1  -2   6  183.54   10.87
   1   2   6  161.35   10.06
   1   2   7   52.01    6.44
   1  -2   7   61.76    6.83
  -1  -2  -7   56.62    5.46
  -1  -2  -8   24.02    3.86
   1  -2   8   25.05    4.67
   1   2   8   28.30    5.06
   1   2   9   35.91    5.89
   1  -2   9   34.91    5.66
  -1  -2  -9   33.93    4.95
   1   2  10   70.79    4.06
   1   2  10   75.91    4.56
  -1   2 -10   73.53    4.30
  -1  -2 -10   71.89    4.28
  -1   2 -11   33.24    3.04
  -1  -2 -11   26.01    2.63
   1   2  11   27.53    2.88
   1   2  11   26.38    2.55
  -1   2 -11   29.72    2.85
   1   2  12   94.74    4.85
  -1   2 -12   85.31    4.84
   1   2  12   93.85    5.21
  -1   2 -13    3.69    1.14
   1   2  13    2.48    0.85
   1   2  14   22.93    2.18
  -1   2 -14   21.16    2.15
  -1  -2 -14   20.29    1.92
  -1  -2 -15    0.75    0.45
   1   2  15   -0.03    0.42
  -1   2 -15    0.92    0.50
   1  -3 -15    6.58    0.95
   1   3 -15    5.68    0.97
  -1   3  15    6.01    1.06
   1   3 -14    2.47    0.77
  -1   3  14    2.02    0.79
   1   3 -13    4.76    1.11
   1   3 -13    5.06    1.18
  -1   3  13    5.01    1.19
  -1   3  13    4.22    1.10
   1  -3 -12   63.50    4.06
  -1   3  12   54.00    3.73
   1   3 -12   58.67    3.68
   1   3 -12   58.46    3.92
  -1   3  12   59.86    4.10
   1   3 -12   59.75    4.10
   1   3 -11    0.48    0.54
   1  -3 -11    0.10    0.54
   1   3 -11   -0.86    0.81
   1   3 -11    0.06    0.57
  -1   3  11    0.08    1.01
  -1   3  10  314.33    9.16
   1  -3 -10  333.49    8.99
   1  -3 -10  312.60    8.27
   1   3 -10  301.32    8.33
   1  -3  -9   -0.15    0.69
   1   3  -9    0.67    0.64
  -1  -3   9    0.22    1.02
  -1   3   9   -0.41    0.72
  -1  -3   8   12.94    3.34
   1  -3  -8   12.34    2.82
  -1   3   8   13.36    3.36
  -1  -3   7  112.29    9.23
   1  -3  -7  109.79    7.78
  -1   3   7  108.38    9.13
  -1   3   6   38.08    4.94
  -1  -3   6   35.75    4.79
   1  -3  -6   34.06    4.09
  -1   3   5  259.06   10.38
  -1   3   5  268.22   11.96
  -1  -3   5  272.09    8.42
   1  -3  -4    2.30    0.75
   1   3  -4    0.63    0.53
  -1   3   4    1.97    0.92
   1   3  -4    1.60    1.21
  -1   3   4    1.08    0.95
  -1  -3   4    1.05    0.72
  -1   3   3    2.33    0.95
   1   3  -3    0.63    0.63
   1  -3  -3    1.49    0.65
   1   3  -3    1.14    0.89
  -1   3   2   77.69    4.48
   1  -3  -2   74.69    4.11
   1   3  -2   82.25    5.17
   1   3  -2   87.58    2.93
  -1  -3   2   87.59    3.10
   1   3  -2   81.75    4.51
   1   3  -2   78.93    4.98
   1   3  -1   73.21    4.64
   1   3  -1   74.52    3.97
   1  -3  -1   78.81    4.27
  -1  -3   1   77.05    3.57
   1   3  -1   79.25    3.30
   1   3   0  549.43   12.50
   1  -3   0  515.63   11.34
  -1   3   0  555.82   11.94
   1   3   1  244.24    7.34
   1  -3   1  229.08    7.76
  -1  -3  -1  261.22    7.86
   1   3   1  262.16    5.65
  -1   3  -1  245.40    7.74
   1   3   1  259.62    8.84
   1   3   2    4.17    0.60
  -1   3  -2    3.95    1.29
  -1   3  -2    3.63    1.29
  -1  -3  -2    1.92    0.77
   1  -3   2    4.74    1.26
   1   3   3   52.05    4.55
  -1   3  -3   62.32    4.98
   1  -3   3   63.06    4.16
  -1  -3  -3   53.27    4.27
  -1  -3  -4   21.03    2.90
  -1   3  -4   21.12    3.15
   1  -3   4   17.17    2.33
  -1   3  -4   19.62    2.25
   1   3   4   21.18    3.27
   1  -3   5    6.85    1.64
   1   3   5    8.44    2.32
  -1  -3  -5    5.91    1.77
  -1   3  -5    7.11    2.17
   1  -3   6   30.60    4.72
  -1   3  -6   36.39    4.81
  -1  -3  -6   33.56    4.26
   1   3   6   34.07    4.95
   1   3   7    3.85    1.97
  -1   3  -7    4.85    1.87
   1  -3   7    3.30    1.93
  -1  -3  -7    4.48    1.77
  -1   3  -8   63.09    7.25
  -1  -3  -8   61.60    6.55
   1   3   8   56.08    7.22
   1  -3   8   57.89    7.29
  -1  -3  -9    0.49    0.51
   1   3   9    0.70    0.74
  -1   3  -9    0.90    0.56
   1   3   9    1.26    0.66
  -1   3  -9    0.79    0.64
   1   3  10  151.14    6.12
   1   3  10  160.72    6.59
  -1   3 -10  157.91    6.71
  -1  -3 -10  174.75    6.70
  -1   3 -10  164.51    6.13
   1   3  11   19.57    2.40
  -1   3 -11   21.08    2.46
  -1   3 -11   23.75    2.38
   1   3  11   19.02    2.24
   1   3  12   52.84    3.66
   1   3  12   50.92    3.78
  -1   3 -12   52.94    3.81
   1   3  13    6.99    1.35
  -1   3 -13    8.64    1.53
  -1   3 -14    4.55    1.05
   1   3  14    4.71    1.12
  -1  -3 -14    4.16    0.83
  -1   3 -15    4.56    0.81
   1   3  15    3.60    0.75
  -1   3 -15    5.76    0.93
   1   4 -15   11.13    1.18
  -1   4  15   12.14    1.29
  -1   4  14   25.07    2.31
   1   4 -14   21.53    2.00
   1   4 -13    4.71    1.18
  -1   4  13    3.53    1.00
  -1   4  13    3.46    1.02
  -1   4  12   96.02    5.03
  -1   4  12  104.72    5.25
   1   4 -12  107.87    5.05
  -1   4  11   -0.72    0.83
  -1   4  11    0.27    0.62
   1   4 -11    0.46    0.67
   1   4 -10    4.03    1.13
  -1   4  10    2.33    0.90
  -1   4   9   36.19    3.35
  -1   4   9   33.15    2.93
   1   4  -9   33.41    2.86
   1   4  -9   30.43    2.77
   1   4  -8  238.10   15.01
   1  -4  -8  244.49   13.37
  -1  -4   8  239.25   15.03
   1  -4  -7   -0.24    0.94
  -1  -4   7   -1.85    1.30
   1   4  -7   -0.72    1.48
   1  -4  -6    0.86    0.94
   1   4  -6    1.23    1.37
   1  -4  -5   12.63    2.75
  -1  -4   5   12.18    2.11
   1   4  -5   14.85    3.17
  -1   4   4  742.97   18.14
   1   4  -4  702.43   20.07
  -1  -4   4  753.99   16.53
   1  -4  -4  750.07   16.35
   1  -4  -3  576.73   14.15
   1   4  -3  646.11   17.16
   1   4  -3  600.89   17.23
  -1   4   3  584.61   15.36
  -1  -4   3  657.35   14.80
   1   4  -3  641.02   15.70
   1  -4  -2    2.57    1.07
   1   4  -2    1.63    1.06
   1   4  -2    0.90    0.62
  -1   4   2    2.26    0.93
   1   4  -1  370.82    8.81
   1  -4  -1  321.06   10.36
  -1   4   1  358.04   11.74
  -1   4   1  325.71    9.85
   1   4  -1  353.07    9.80
  -1  -4   1  373.25    9.43
   1   4  -1  348.28   11.80
   1   4   0   57.38    3.85
  -1   4   0   53.34    3.87
  -1   4   0   56.49    4.50
   1  -4   0   48.96    4.22
   1   4   0   56.79    4.79
   1   4   0   56.79    3.53
  -1  -4   0   56.10    3.94
  -1   4  -1    8.37    1.81
   1  -4   1    7.62    1.76
  -1  -4  -1    7.20    1.64
   1   4   1    9.52    2.20
   1  -4   2  174.18    8.10
  -1  -4  -2  165.73    7.97
   1   4   2  172.37    8.81
  -1   4  -2  193.28    8.39
   1  -4   3  508.49   13.80
  -1  -4  -3  505.61   14.43
  -1   4  -3  535.18   16.41
  -1   4  -4  289.24   12.83
  -1  -4  -4  264.79   11.31
   1  -4   4  277.64   10.37
  -1   4  -5   35.89    4.83
   1  -4   5   36.70    3.97
  -1  -4  -5   29.95    4.06
  -1  -4  -6   92.11    7.59
  -1   4  -6  105.04    8.84
  -1   4  -7    0.52    1.00
  -1  -4  -7    0.81    1.08
   1   4   7    0.77    1.16
   1  -4   7    1.15    0.71
   1   4   8  169.62    6.42
   1   4   8  186.70    7.22
  -1   4  -8  176.52    6.33
   1   4   8  174.43    6.54
  -1   4  -9  102.81    5.10
   1   4   9   97.94    5.12
  -1   4  -9  112.26    5.61
   1   4   9  104.82    5.08
  -1   4 -10  156.34    6.38
   1   4  10  166.22    6.56
  -1   4 -10  173.34    7.12
   1   4  10  164.57    6.74
   1   4  11   62.07    4.16
   1   4  11   54.81    3.92
  -1   4 -11   57.11    4.04
  -1   4 -11   57.10    3.79
   1   4  12   18.19    2.32
  -1   4 -12   18.47    2.21
   1   4  12   19.03    2.29
   1   4  13    6.18    1.31
  -1   4 -13    6.13    1.19
  -1   4 -14    5.40    0.96
  -1   4 -14    5.21    0.91
   1   4  14    4.49    0.96
   1   5 -14   -0.77    0.52
  -1   5  14   -0.49    0.50
  -1   5  13    2.33    0.89
  -1   5  13    2.01    0.92
   1   5 -13    1.68    0.86
  -1   5  12    3.24    1.02
   1   5 -12    2.78    1.04
  -1   5  12    2.65    1.08
   1   5 -12    0.12    0.78
   1   5 -11    1.54    0.83
   1   5 -11    3.26    1.13
  -1   5  11    3.91    1.20
  -1   5  11    2.71    1.08
  -1   5  10    9.47    1.74
   1   5 -10    5.14    1.24
   1   5 -10    8.70    1.68
  -1   5  10   10.03    1.66
   1   5  -9    1.92    0.84
  -1   5   9    3.80    1.24
  -1   5   9    4.90    1.29
  -1   5   9    3.82    1.13
   1   5  -9    2.80    1.06
  -1   5   8  136.27    6.24
   1   5  -8  118.56    4.72
   1   5  -8  129.39    5.75
  -1   5   8  126.55    5.67
   1   5  -8  115.64    5.34
   1   5  -7   11.91    1.65
   1   5  -7   10.56    1.40
   1   5  -7   11.96    1.51
  -1   5   7   14.98    1.86
  -1   5   7   13.15    1.93
   1   5  -7   13.17    1.85
   1   5  -6  151.73   11.70
   1  -5  -6  158.87   10.85
   1  -5  -5    2.60    1.51
   1   5  -5    4.25    2.20
  -1  -5   5    5.31    1.54
  -1  -5   4   23.97    3.48
   1  -5  -4   26.18    4.19
  -1   5   4   30.90    4.33
   1  -5  -4   30.28    3.86
   1   5  -3    1.30    1.31
  -1   5   3    2.46    1.23
  -1  -5   3    1.80    1.02
   1  -5  -3    2.90    1.17
  -1   5   3    2.51    1.46
  -1   5   2  177.76    9.97
  -1   5   2  158.03    8.71
   1   5  -2  161.37    9.45
   1  -5  -2  150.83    8.26
  -1  -5   2  158.49    8.69
   1   5  -1   29.41    4.05
   1  -5  -1   33.25    4.06
  -1   5   1   35.54    3.89
  -1   5   1   34.09    4.25
  -1  -5   0  897.80   18.38
  -1   5   0  888.20   18.50
  -1   5   0  837.71   20.41
   1   5   0  862.11   21.50
  -1  -5  -1   85.40    6.20
  -1   5  -1   94.49    6.83
  -1   5  -1  100.49    5.95
   1   5   1   89.17    7.05
   1  -5   1   84.43    6.42
   1   5   2   50.45    5.50
  -1   5  -2   43.49    4.69
  -1  -5  -2   40.79    4.53
   1  -5   2   42.62    4.58
   1   5   3   10.39    2.51
  -1  -5  -3    9.74    2.37
   1  -5   3   11.23    2.38
  -1  -5  -4   10.89    2.60
   1   5   4   12.08    2.90
   1  -5   4   12.05    2.48
   1   5   5   24.25    4.33
   1  -5   5   26.63    3.93
  -1  -5  -5   22.68    3.89
  -1  -5  -6   77.82    7.56
  -1   5  -6   91.24    9.04
   1   5   7   10.62    1.74
  -1   5  -7   18.30    2.03
  -1   5  -7   16.32    2.03
   1   5   7   11.50    1.81
   1   5   8    0.91    0.62
  -1   5  -8   -0.67    0.76
   1   5   8    0.32    0.69
  -1   5  -8    1.16    0.88
   1   5   8    0.84    0.83
   1   5   9    1.27    0.82
  -1   5  -9    0.11    0.51
   1   5   9    1.28    0.77
  -1   5  -9    1.65    0.95
   1   5  10   -0.59    0.64
  -1   5 -10   -0.66    0.66
  -1   5 -10    0.40    0.76
   1   5  10    1.01    0.82
   1   5  11   21.88    2.47
   1   5  11   20.65    2.37
  -1   5 -11   25.74    2.08
  -1   5 -11   22.40    2.50
   1   5  12    4.25    1.09
  -1   5 -12    4.41    1.17
   1   5  12    3.09    1.04
  -1   5 -13    0.46    0.58
   1   5  13   -0.58    0.66
   1   5  14   11.37    1.30
  -1   5 -14   10.43    1.10
   1   6 -13    7.96    1.13
  -1   6  13    9.05    1.35
  -1   6  13   10.46    1.32
  -1   6  12    7.89    1.40
   1   6 -12    5.68    1.11
  -1   6  12    7.63    1.34
  -1   6  11   16.84    2.00
   1   6 -11   11.10    1.75
   1   6 -11   14.41    2.11
  -1   6  11   14.73    2.02
   1   6 -10   55.92    3.51
  -1   6  10   53.67    3.93
  -1   6  10   59.51    3.92
   1   6 -10   54.74    3.99
  -1   6   9  114.63    5.75
  -1   6   9  121.09    6.18
   1   6  -9  107.76    5.26
   1   6  -9  117.78    4.75
   1   6  -9  113.91    5.84
   1   6  -8   42.39    3.31
   1   6  -8   40.17    3.18
  -1   6   8   41.28    3.56
   1   6  -8   43.51    3.60
  -1   6   8   37.45    3.32
   1   6  -8   41.14    2.90
   1   6  -7    0.20    0.54
  -1   6   7    0.63    0.70
   1   6  -7   -0.18    0.62
   1   6  -7   -0.02    0.67
   1   6  -7    0.97    0.55
  -1   6   7   -1.06    0.72
   1   6  -6   34.61    2.82
   1   6  -6   34.19    2.81
   1   6  -6   30.39    2.47
  -1   6   6   39.19    3.16
   1   6  -6   31.25    2.95
  -1   6   6   36.26    3.02
   1   6  -6   31.79    2.98
  -1   6   5   15.57    1.88
  -1   6   5   13.03    1.75
   1   6  -5   13.46    1.88
   1   6  -5   14.33    1.72
   1   6  -5   12.97    1.59
   1   6  -5   12.72    1.86
   1  -6  -4  131.74    9.85
   1  -6  -4  127.70    8.97
  -1  -6   4  129.46    9.12
  -1   6   4  139.26   10.99
   1  -6  -3   19.84    3.67
  -1   6   3   22.58    4.25
  -1  -6   3   19.73    3.55
   1  -6  -3   20.27    3.85
  -1   6   3   21.14    3.93
   1  -6  -2   59.14    6.27
  -1   6   2   56.48    5.99
   1  -6  -2   52.90    5.70
   1   6  -2   49.93    6.06
  -1  -6   2   45.95    5.56
  -1   6   2   50.26    6.11
   1  -6  -1   21.94    3.72
  -1   6   1   20.74    3.44
   1   6  -1   19.34    3.59
  -1  -6   1   19.19    3.54
  -1   6   1   19.69    3.82
   1  -6  -1   18.25    3.34
   1  -6   0    1.68    0.90
   1   6   0    3.18    1.56
  -1   6   0    4.11    1.71
  -1  -6   0    2.20    1.36
   1  -6   1   54.19    5.78
   1   6   1   59.82    6.67
  -1  -6  -1   59.88    6.19
  -1   6  -1   52.42    5.83
   1   6   2  100.35    8.81
  -1  -6  -2   93.33    7.71
  -1  -6  -2   93.64    7.66
   1  -6   2   92.38    7.54
  -1   6  -2  101.92    8.14
  -1  -6  -3   85.02    7.78
   1   6   3   95.56    8.77
   1  -6   3  101.42    8.00
  -1  -6  -3   88.96    7.72
  -1  -6  -4   68.81    7.13
  -1  -6  -4   77.69    7.23
   1  -6   4   62.26    6.67
   1   6   4   87.62    8.90
   1   6   5    0.06    0.55
  -1   6  -5    0.13    0.46
  -1   6  -5   -0.39    0.58
  -1   6  -5    1.59    0.74
  -1   6  -5   -0.39    0.60
   1   6   5    0.35    0.54
   1   6   5    0.90    0.69
  -1   6  -6   16.05    1.93
   1   6   6   15.65    2.14
  -1   6  -6   14.75    2.20
  -1   6  -6   18.51    2.07
   1   6   6   17.77    2.28
   1   6   6   18.21    2.20
   1   6   7    5.34    1.32
  -1   6  -7    5.79    1.30
  -1   6  -7    4.96    1.17
  -1   6  -7    5.79    1.53
   1   6   7    6.03    1.40
  -1   6  -8   26.11    2.41
   1   6   8   29.07    2.90
   1   6   8   29.04    3.09
  -1   6  -8   28.78    2.69
  -1   6  -9    0.26    0.50
  -1   6  -9   -0.21    0.76
   1   6   9    0.13    0.60
   1   6  10    6.11    1.30
   1   6  10    5.47    1.29
  -1   6 -10    4.70    1.12
  -1   6 -10    6.08    1.12
   1   6  10    4.48    1.26
  -1   6 -11    0.47    0.48
   1   6  11    0.69    0.53
   1   6  11   -0.39    0.66
  -1   6 -11   -1.41    0.96
   1   6  11   -0.71    0.71
   1   6  12    4.75    0.94
  -1   6 -12    3.94    0.95
   1   6  12    5.34    1.05
   1   6  12    5.65    1.19
  -1   6 -13    5.80    0.86
  -1   7  12   24.00    2.05
   1   7 -12   14.31    1.37
   1   7 -11    4.65    0.99
  -1   7  11    4.12    1.07
   1   7 -10   31.16    2.59
   1   7 -10   35.00    2.36
  -1   7  10   37.89    3.00
  -1   7  10   34.54    2.95
  -1   7   9    1.06    0.81
   1   7  -9    2.08    1.02
   1   7  -9    1.11    0.64
  -1   7   9   -0.23    0.69
  -1   7   8    4.11    1.27
  -1   7   8    5.19    1.30
   1   7  -8    3.40    0.98
   1   7  -8    3.51    1.18
   1   7  -7    3.23    1.29
  -1   7   7    2.18    1.02
  -1   7   7    2.35    1.00
   1   7  -7    0.59    0.59
   1   7  -7    2.06    0.91
   1   7  -7    3.98    1.23
   1   7  -6   28.50    2.50
  -1   7   6   38.19    3.21
  -1   7   6   36.11    3.24
   1   7  -6   31.62    3.05
   1   7  -6   30.94    2.68
   1   7  -6   29.48    3.07
   1   7  -6   30.40    2.87
  -1   7   5    4.29    1.13
   1   7  -5    5.05    0.96
   1   7  -5    1.93    0.71
   1   7  -5    4.24    1.25
  -1   7   5    4.52    1.22
   1   7  -5    5.92    1.43
   1   7  -4    5.43    0.93
  -1   7   4    9.56    1.57
  -1   7   4    8.58    1.57
   1   7  -4    7.36    1.56
   1   7  -3  123.27    5.56
  -1   7   3  125.63    5.41
   1   7  -3  114.23    4.92
  -1   7   3  128.87    5.38
  -1   7   2   34.18    2.74
  -1   7   2   33.86    2.69
   1   7  -2   29.13    2.18
  -1   7   2   27.82    2.63
   1   7  -2   27.14    2.42
   1   7  -2   25.59    2.55
   1   7  -1   43.38    3.11
   1   7  -1   44.27    2.29
   1   7  -1   43.21    3.27
  -1   7   1   47.07    3.22
  -1   7   1   50.96    3.33
  -1   7   1   51.16    3.30
  -1   7   0   33.63    2.68
  -1   7   0   35.58    2.74
   1   7   0   31.95    2.78
  -1   7   0   37.91    2.81
   1   7   0   35.55    2.80
   1   7   1   22.25    2.20
  -1   7  -1   18.18    1.62
  -1   7  -1   24.06    2.27
   1   7   1   22.62    2.33
   1   7   1   19.90    2.14
  -1   7  -1   23.75    2.27
  -1   7  -1   20.96    2.27
   1   7   2   -0.26    0.62
   1   7   2    0.28    0.58
   1   7   2    0.86    0.74
  -1   7  -2    0.62    0.57
  -1   7  -2    0.26    0.64
  -1   7  -2    0.65    0.53
  -1   7  -3   -0.15    0.53
   1   7   3    1.58    0.96
  -1   7  -3    1.38    0.83
   1   7   3    0.92    0.65
  -1   7  -4   44.20    3.52
  -1   7  -4   32.45    2.30
  -1   7  -4   46.00    3.27
   1   7   4   44.40    3.63
   1   7   4   43.06    3.45
  -1   7  -5   18.72    2.38
  -1   7  -5   17.08    2.06
   1   7   5   16.27    2.19
   1   7   5   18.05    2.33
  -1   7  -5   21.15    2.19
  -1   7  -6   21.11    2.25
   1   7   6   13.82    2.21
  -1   7  -6   17.78    2.03
   1   7   6   18.75    2.26
   1   7   6   14.43    2.01
   1   7   7    6.32    1.39
   1   7   7    4.56    1.35
   1   7   7    3.25    1.12
  -1   7  -7    4.92    1.18
  -1   7  -7    3.65    1.15
   1   7   8   37.66    3.49
  -1   7  -8   37.38    2.89
   1   7   8   34.03    3.01
   1   7   8   39.37    3.28
  -1   7  -8   35.71    2.71
  -1   7  -9    2.18    1.09
   1   7   9    4.39    1.28
   1   7   9    2.04    0.80
  -1   7  -9    4.76    1.02
   1   7   9    4.16    1.21
   1   7  10   21.30    2.28
   1   7  10   19.10    1.99
  -1   7 -10   20.18    1.82
  -1   7 -10   16.93    1.95
   1   7  10   20.39    2.19
   1   7  11   27.12    2.43
  -1   7 -11   28.50    1.89
  -1   7 -11   30.76    2.07
   1   7  11   26.37    2.00
  -1   7 -12    2.39    0.50
   1   8 -11    5.85    0.80
  -1   8  10    0.10    0.45
  -1   8  10    0.76    0.69
   1   8 -10    1.51    0.70
   1   8 -10    0.31    0.41
   1   8  -9   17.40    1.75
  -1   8   9   21.12    2.16
   1   8  -8    3.89    0.91
   1   8  -8    1.88    0.74
  -1   8   8    4.49    1.35
  -1   8   8    5.58    1.33
  -1   8   7    7.19    1.60
   1   8  -7    5.71    1.21
  -1   8   7    8.37    1.55
   1   8  -7    8.94    1.38
   1   8  -6    3.34    1.03
  -1   8   6    5.43    1.45
  -1   8   6    6.24    1.37
   1   8  -6    6.44    1.46
   1   8  -6    4.91    1.57
   1   8  -5    2.26    0.81
   1   8  -5    3.34    1.18
  -1   8   5    2.87    1.13
   1   8  -4   80.61    4.42
  -1   8   4   80.69    4.73
  -1   8   4   80.83    4.43
   1   8  -4   83.71    4.93
   1   8  -4   78.81    3.55
  -1   8   3   24.09    2.50
   1   8  -3   18.61    2.21
   1   8  -3   16.26    2.35
  -1   8   3   21.10    2.44
   1   8  -2  124.84    5.53
  -1   8   2  125.39    5.69
   1   8  -2  115.36    5.67
   1   8  -2  119.69    3.71
  -1   8   2  129.42    5.79
  -1   8   1   11.32    1.76
  -1   8   1   17.97    2.17
  -1   8   1   14.68    1.99
   1   8  -1   14.64    2.04
   1   8  -1   13.99    2.01
   1   8   0    1.10    0.86
  -1   8   0    1.15    0.70
  -1   8   0    1.95    0.88
   1   8   0    2.04    1.11
  -1   8   0    0.79    0.60
  -1   8  -1    3.43    1.05
   1   8   1    4.86    1.12
  -1   8  -1    4.73    1.10
   1   8   1    7.56    1.56
   1   8   1    3.55    1.07
  -1   8  -1    4.26    1.06
   1   8   2    1.12    0.79
   1   8   2   23.81    2.90
  -1   8  -2   -0.13    0.63
   1   8   2    1.17    0.86
  -1   8  -2    0.47    0.59
  -1   8  -2   30.52    1.90
   1   8   3    0.00    0.70
  -1   8  -3    0.92    0.78
   1   8   3    0.98    0.80
  -1   8  -3    0.13    0.69
  -1   8  -4   49.77    3.47
  -1   8  -4   41.95    3.71
  -1   8  -4   51.82    3.05
   1   8   4   57.54    4.09
   1   8   4   54.71    3.88
   1   8   5    2.14    0.92
  -1   8  -5    4.81    1.42
  -1   8  -5    6.69    1.53
   1   8   5    0.79    0.87
  -1   8  -5    0.55    0.69
   1   8   6    2.09    1.01
  -1   8  -6    1.10    0.82
   1   8   6    1.09    0.77
  -1   8  -6   -0.24    0.81
   1   8   7   79.55    4.31
   1   8   7   84.63    5.00
  -1   8  -7   83.09    4.24
  -1   8  -8    4.73    0.91
   1   8   8    9.25    1.52
  -1   8  -8    6.60    1.21
   1   8   8   11.09    1.63
  -1   8  -9   27.72    2.11
   1   8   9   23.10    1.99
   1   8   9   23.90    2.39
   1   8   9   25.72    2.29
   1   8  10    0.81    0.50
   1   8  10    0.53    0.54
  -1   8 -10    1.16    0.52
   1   9  -9   39.39    1.49
   1   9  -8    3.74    0.90
   1   9  -8   43.59    1.89
  -1   9   7    0.29    0.64
   1   9  -7    0.45    0.60
   1   9  -6   17.53    2.00
  -1   9   6   16.40    2.15
   1   9  -5   32.92    3.12
  -1   9   5   34.00    3.20
   1   9  -5   38.90    2.99
   1   9  -4   61.88    4.23
   1   9  -4   69.50    4.13
  -1   9   4   64.48    4.22
  -1   9   3   15.97    2.27
   1   9  -3   17.38    2.26
   1   9  -3   21.01    2.35
  -1   9   2   11.26    1.83
   1   9  -2   12.16    1.96
   1   9  -2    6.59    1.44
  -1   9   2    9.25    1.57
  -1   9   1   41.62    3.31
  -1   9   1   31.52    2.93
   1   9  -1   30.20    2.97
  -1   9   1   33.11    2.81
   1   9  -1   38.65    3.24
  -1   9   0    0.56    0.51
  -1   9   0    0.22    0.59
   1   9   0    0.87    0.91
  -1   9  -1   34.62    2.89
   1   9   1   29.58    2.87
  -1   9  -1   36.71    3.07
  -1   9  -1   32.06    2.84
   1   9   1   34.30    2.96
  -1   9  -2    0.06    0.79
   1   9   2    0.75    0.66
   1   9   2   -0.12    0.64
  -1   9  -2    0.31    0.77
  -1   9  -3    0.66    0.73
  -1   9  -3    1.99    1.11
   1   9   3    1.22    0.87
   1   9   3    0.76    0.77
  -1   9  -4   47.49    3.37
   1   9   4   47.07    3.84
   1   9   4   47.56    3.44
   1   9   5    2.74    0.94
   1   9   5    2.86    1.07
  -1   9  -5    2.73    0.99
   1   9   6   20.13    2.32
   1   9   6   18.86    2.02
  -1   9  -6   19.05    1.98
   1   9   7    6.62    1.38
   1   9   7    4.90    1.04
  -1   9  -7    8.41    1.23
  -1   9  -8    0.07    0.47
   1   9   8    0.38    0.51
  -1  10   6   -0.37    0.53
   1  10  -6    8.69    1.32
  -1  10   5    6.31    1.30
   1  10  -5   16.68    1.87
  -1  10   4    0.78    0.79
   1  10  -4    8.10    1.57
   1  10  -3   30.51    2.83
  -1  10   3   36.57    3.02
  -1  10   2   12.99    1.77
   1  10  -2   12.60    1.78
   1  10  -1    0.43    0.64
  -1  10   1    0.15    0.52
  -1  10   0   32.47    2.92
   1  10   0    1.72    0.83
   1  10   1    6.91    1.29
  -1  10  -1    8.70    1.43
   1  10   2   12.63    1.66
  -1  10  -2   20.61    2.12
   1  10   3    4.12    0.98
  -1  10  -3    7.16    1.36
   1  10   3    5.16    1.16
   1  10   4    1.19    0.65
   1  10   4    1.84    0.68
  -1  10  -5   17.03    1.75
   1  10   5   14.84    1.80
  -1  10  -6    3.12    0.81
   1  10   6    1.84    0.76
   2   0 -16    9.88    1.19
   2   0 -15   -0.46    0.55
   2   0 -14    5.12    1.17
  -2   0  14    5.14    1.06
   2   0 -13   -0.60    0.68
  -2   0  13    0.92    0.53
   2   0 -12   26.13    2.54
   2   0 -11    0.33    0.45
   2   0 -10   84.72    9.38
  -2   0  10   86.17    8.96
   2   0  -9    1.87    1.54
  -2   0   9    0.83    1.05
  -2   0   8  408.58   17.31
  -2   0   7   -0.02    1.04
  -2   0   6  909.60   21.27
   2   0  -6  892.58   14.71
  -2   0   5    0.26    0.73
   2   0  -5    0.15    0.36
  -2   0   4  173.73    7.13
   2   0  -4  179.13    5.76
  -2   0   4  185.94    5.33
  -2   0   3    1.96    0.51
   2   0  -3    0.96    0.50
  -2   0   3    1.47    0.72
  -2   0   2   34.62    2.12
   2   0  -2   29.47    1.87
  -2   0   1    3.32    0.58
  -2   0   1    2.45    0.35
   2   0  -1    2.94    0.69
   2   0   0   39.17    2.34
  -2   0  -1    0.55    0.24
   2   0   1    0.21    0.39
   2   0   2 8370.15   44.84
   2   0   2 8716.95   34.70
   2   0   3    1.02    0.88
   2   0   4  300.90   11.34
  -2   0  -4  305.45    9.69
  -2   0  -5    0.51    0.64
   2   0   5    1.84    1.37
  -2   0  -6   90.75    6.95
   2   0   6   77.41    6.90
  -2   0  -6   83.09    6.06
  -2   0  -7    2.81    1.50
   2   0   7    3.62    2.03
  -2   0  -7    2.42    1.25
   2   0   8   11.12    3.29
  -2   0  -8   12.54    2.95
   2   0   9    4.62    2.29
  -2   0  -9    0.49    0.83
  -2   0 -10    0.57    0.64
   2   0  10    0.28    0.44
   2   0  11    0.11    0.45
   2   0  12    0.48    0.63
  -2   0 -12   -0.41    0.70
  -2   0 -13    0.15    0.48
   2   0  13    0.29    0.48
  -2   0 -14    8.07    1.32
  -2   0 -15   -0.03    0.46
   2   1 -16    0.66    0.46
   2  -1 -16    1.04    0.48
   2   1 -15    1.52    0.64
  -2   1  15    1.17    0.56
   2   1 -14    9.07    1.49
  -2   1  14   11.63    1.63
   2  -1 -14    9.08    1.51
   2   1 -13    0.66    0.55
   2  -1 -13    0.64    0.55
  -2   1  13    1.73    0.90
   2  -1 -12   16.85    2.12
   2   1 -12   17.84    2.15
   2   1 -11   39.99    3.16
   2  -1 -11   43.58    3.26
   2   1 -10  104.56    4.75
  -2  -1  10   96.42    9.58
   2  -1 -10  106.70    4.97
  -2   1  10   95.83    9.38
   2  -1 -10  103.69    4.74
  -2  -1   9   11.75    3.10
  -2   1   9   10.26    3.05
   2   1  -9    5.47    2.17
  -2  -1   8  185.65   11.40
  -2   1   8  160.83   10.78
   2   1  -8  167.10   11.75
  -2  -1   7    5.13    1.97
   2  -1  -7    6.57    1.67
   2   1  -7    5.43    2.12
  -2   1   7    4.61    1.96
   2   1  -6   89.65    5.15
   2   1  -6   73.09    4.92
   2   1  -6   73.17    6.87
  -2   1   6   73.02    6.05
  -2  -1   6   83.95    6.45
  -2   1   5   16.79    2.67
  -2  -1   5   15.33    2.56
   2  -1  -5   15.06    1.67
  -2   1   5   13.23    1.93
   2   1  -5   14.37    2.03
   2   1  -5   12.27    2.63
   2   1  -5   17.56    2.12
  -2   1   4  542.74   12.85
  -2   1   4  542.23   10.67
  -2  -1   4  534.15   13.08
   2  -1  -4  565.89    8.79
   2   1  -4  544.00    6.45
   2  -1  -4  553.00    7.91
   2   1  -4  562.36   10.83
   2   1  -4  532.92   11.27
   2  -1  -3  672.75    9.14
  -2   1   3  619.61    9.98
  -2  -1   3  646.49   12.38
   2   1  -3  649.06   11.00
  -2   1   3  637.67   11.90
   2  -1  -3  665.24    8.26
   2   1  -2  162.58    5.25
   2  -1  -2  161.27    4.64
  -2   1   2  159.51    5.02
   2  -1  -1  543.95    8.83
  -2  -1   1  538.97    7.69
   2   1  -1  518.23    9.10
   2   1   0  382.08    7.72
   2  -1   0  426.60    8.31
  -2  -1   0  400.92    7.56
   2   1   0  382.93    6.85
   2  -1   0  411.68    7.09
   2   1   1  364.92    6.62
   2  -1   1  391.98    8.51
   2  -1   1  377.85    6.65
  -2   1  -1  386.97    6.76
   2   1   1  370.78    7.86
   2  -1   2 1722.75   19.68
   2  -1   2 1662.12   12.87
  -2   1  -3 2304.61   23.06
  -2  -1  -3 2308.65   24.76
   2  -1   3 2313.25   25.01
   2   1   4   78.03    5.90
   2  -1   4   79.88    5.25
  -2  -1  -4   86.80    5.24
   2  -1   4   86.30    6.18
  -2   1  -4   86.42    5.18
  -2   1  -4   83.19    5.24
   2   1   5 1226.61   25.93
  -2  -1  -5 1283.86   22.03
  -2   1  -5 1299.86   22.44
  -2   1  -5 1273.08   22.56
   2  -1   5 1249.27   26.37
   2  -1   6    5.45    1.99
   2   1   6    2.50    1.67
  -2   1  -6    4.47    1.67
  -2   1  -6    3.70    1.43
  -2  -1  -6    2.07    1.14
   2   1   7  141.36   10.43
  -2  -1  -7  139.08    8.58
  -2   1  -7  155.75    9.47
   2  -1   7  146.63   10.51
  -2  -1  -8  278.82   13.20
  -2   1  -8  267.02   13.33
   2  -1   8  248.20   14.40
   2   1   8  297.39   15.97
  -2   1  -9   23.38    4.24
   2   1   9   24.57    4.95
  -2  -1  -9   28.38    4.93
   2  -1   9   29.09    5.28
   2   1  10   93.62    5.18
  -2  -1 -10   85.74    4.66
   2   1  10   89.33    4.54
  -2   1 -10   77.92    4.46
   2   1  11   51.76    3.57
  -2   1 -11   45.64    3.45
  -2   1 -12   24.89    2.52
   2   1  12   23.61    2.45
  -2   1 -13    3.35    1.02
   2   1  13    3.00    0.91
  -2  -1 -13    3.28    0.98
  -2   1 -14    1.81    0.67
  -2  -1 -14    1.97    0.75
   2   1  14    1.61    0.70
  -2   1 -15    8.57    1.17
  -2  -1 -15    8.57    1.09
   2   1  15    9.40    1.14
   2  -2 -16   22.38    1.59
  -2   2  15    0.15    0.60
   2   2 -15    1.72    0.68
   2   2 -14    1.29    0.56
   2   2 -14    0.79    0.49
  -2   2  14    2.67    0.90
   2  -2 -14    1.21    0.61
   2   2 -13    0.12    0.57
   2  -2 -13    0.06    0.58
   2   2 -13    0.94    0.57
  -2   2  13   -0.75    0.78
   2  -2 -12   88.26    4.77
   2   2 -12   81.82    4.63
  -2   2  12   99.27    5.30
   2   2 -12   84.73    4.33
   2   2 -11    3.73    0.86
   2  -2 -11    4.51    1.14
   2  -2 -11    4.32    1.06
  -2   2  11    5.81    1.38
   2   2 -11    2.77    0.85
  -2   2  10  250.66    7.91
   2   2 -10  232.15    7.28
   2  -2 -10  231.72    7.34
   2  -2 -10  236.14    7.29
   2   2  -9  176.47   12.54
  -2  -2   9  197.38   12.73
  -2   2   9  193.58   12.88
  -2   2   8    4.27    2.19
   2   2  -8    1.05    1.21
  -2  -2   8    1.64    1.56
   2  -2  -8    2.08    1.14
   2   2  -7  101.65    8.37
  -2  -2   7  125.93    8.90
   2  -2  -7  112.79    7.21
  -2   2   7  119.40    8.71
   2   2  -6   27.37    4.07
   2   2  -6   33.28    3.72
  -2   2   6   41.11    4.74
  -2  -2   6   35.73    4.49
  -2   2   5  231.99   10.15
  -2   2   5  221.07    8.52
  -2  -2   5  237.49   10.34
  -2  -2   5  234.40    6.09
   2   2  -5  220.02    8.67
   2   2  -4   26.50    3.21
   2  -2  -4   25.28    2.08
  -2   2   4   24.83    2.66
  -2   2   4   26.95    3.18
  -2   2   3  392.43    9.48
   2  -2  -3  400.86    8.26
   2   2  -3  368.74    9.56
   2  -2  -3  356.43    4.42
  -2   2   3  392.76   10.59
   2  -2  -2 3982.68   26.54
   2   2  -2 4022.45   28.70
   2   2  -2 4059.91   26.08
  -2  -2   2 4013.01   17.31
   2   2  -1   96.96    4.69
   2  -2  -1   99.95    4.27
  -2  -2   1  106.57    3.79
   2   2  -1  102.07    4.32
   2  -2   0  255.86    7.10
   2   2   0  271.88    7.28
   2   2   0  272.72    6.61
  -2  -2   0  296.44    7.05
   2   2   0  281.84    7.57
   2  -2   1  953.97   14.26
  -2   2  -1  956.29   10.97
   2  -2   1  936.37   10.56
  -2  -2  -1  962.79   14.06
   2   2   1  933.41   13.98
  -2  -2  -2    7.74    1.44
  -2   2  -2    9.19    1.52
   2  -2   2    7.13    1.41
   2   2   2    7.91    1.51
  -2  -2  -3    0.73    0.74
   2  -2   3    1.52    0.88
  -2   2  -3    0.56    0.64
  -2   2  -3    0.61    0.65
   2   2   3    1.12    0.89
  -2  -2  -4  270.74    9.81
   2  -2   4  295.99    9.63
   2   2   4  259.97   10.62
   2   2   5    0.50    0.94
  -2  -2  -5    0.46    0.80
   2  -2   5   -0.15    0.70
   2  -2   5   -0.87    1.25
  -2   2  -5   -0.17    0.44
   2   2   6    3.32    1.52
  -2  -2  -6    4.08    1.50
   2  -2   6    3.16    1.68
   2  -2   7  196.73   12.46
  -2  -2  -7  195.81   10.65
   2   2   7  187.68   12.11
   2  -2   8  102.97    9.54
   2   2   8  113.47   10.07
  -2  -2  -8  106.11    8.40
   2   2   9    1.43    0.84
   2   2   9    2.94    2.21
  -2   2  -9    2.31    0.83
  -2  -2  -9   -0.22    1.03
   2   2   9    1.02    0.59
  -2   2 -10  161.26    6.53
  -2  -2 -10  168.72    6.60
   2   2  10  163.96    6.34
   2   2  10  178.29    7.05
   2   2  11   29.47    2.96
   2   2  11   28.71    2.71
  -2   2 -11   35.25    3.12
   2   2  12   28.75    2.68
  -2   2 -12   29.26    2.79
   2   2  13   -0.02    0.58
  -2  -2 -13    0.39    0.55
  -2   2 -13    1.36    0.79
   2   2  14    1.28    0.71
  -2  -2 -14    0.64    0.41
  -2   2 -14    1.53    0.69
  -2  -2 -15    2.30    0.49
   2   2  15    2.31    0.67
  -2   2 -15    2.96    0.65
   2   3 -15    3.11    0.69
  -2   3  15    2.55    0.73
  -2   3  14   13.92    1.76
   2   3 -14   13.73    1.61
  -2   3  14   12.24    1.66
   2   3 -14   14.09    1.74
   2   3 -13   11.15    1.68
   2  -3 -13   10.76    1.66
   2   3 -13   10.09    1.54
  -2   3  13   10.65    1.75
   2   3 -13   10.29    1.65
  -2   3  13   12.20    1.77
   2   3 -12    1.06    0.70
   2  -3 -12    1.50    0.81
   2   3 -12    1.95    0.95
  -2   3  12    0.94    0.69
   2   3 -12    0.95    0.65
   2   3 -11    3.02    0.96
   2  -3 -11    4.45    1.09
   2   3 -11    2.13    0.71
  -2   3  11    4.83    1.20
   2  -3 -11    3.23    1.00
   2  -3 -10    9.42    1.53
  -2   3  10    8.93    1.60
   2   3 -10    8.06    1.36
   2  -3 -10    8.45    1.43
   2  -3  -9  183.83   11.38
  -2  -3   9  187.55   12.89
   2   3  -9  231.95    6.98
  -2   3   9  195.55   13.55
   2   3  -9  232.47    7.39
  -2  -3   8  130.86   10.27
   2  -3  -8  125.91    8.93
  -2   3   8  131.69   10.50
  -2   3   7  122.14    9.45
  -2  -3   7  126.80    9.52
   2  -3  -7  121.21    8.16
  -2   3   6   16.51    2.86
  -2   3   6   15.54    3.11
   2   3  -6   13.10    2.56
  -2  -3   6   13.09    2.87
  -2  -3   5  884.33   15.07
  -2   3   5  862.69   21.27
  -2   3   5  850.06   18.75
   2   3  -4 1005.94   21.21
  -2   3   4 1014.51   19.11
   2   3  -4 1046.59   19.40
   2  -3  -4 1040.64   16.38
   2   3  -3   60.35    4.70
   2   3  -3   59.22    4.34
   2  -3  -3   51.93    3.65
  -2   3   3   47.11    3.80
   2   3  -2  765.99   16.27
  -2  -3   2  845.05   10.12
   2   3  -2  759.34   15.38
   2  -3  -2  791.61   14.27
   2   3  -2  818.66   14.85
  -2  -3   1   25.54    2.20
   2  -3  -1   17.36    2.12
   2   3  -1   23.70    2.80
   2   3  -1   24.35    2.40
   2  -3   0  323.20    9.23
  -2   3   0  332.87    9.03
  -2   3   0  340.54    8.99
  -2  -3   0  375.16    9.08
   2   3   0  357.63   10.50
  -2   3  -1  131.30    5.42
  -2  -3  -1  132.25    5.85
   2   3   1  124.97    6.39
   2  -3   1  121.98    5.87
  -2   3  -1  127.31    5.77
  -2   3  -2  311.96    9.35
   2   3   2  318.27   10.36
  -2  -3  -2  310.66    9.75
   2   3   2  341.13    7.42
  -2   3  -2  315.94   10.41
   2  -3   2  302.11    9.33
  -2   3  -2  313.10    8.60
  -2   3  -3  755.48   15.18
   2  -3   3  739.61   15.44
  -2   3  -3  728.81   17.21
   2   3   3  635.82   15.92
  -2  -3  -3  632.71   15.18
  -2   3  -4  114.35    7.21
   2  -3   4  123.54    6.66
  -2  -3  -4   97.84    6.43
   2   3   4   90.43    6.64
  -2   3  -4  116.01    6.35
   2  -3   5  258.97   10.26
  -2   3  -5  271.79   12.03
  -2  -3  -5  231.18   10.53
   2   3   5  216.93   11.38
  -2  -3  -6  114.01    8.03
   2   3   6  108.72    8.79
   2  -3   6  115.35    9.27
  -2   3  -6  128.20    8.97
  -2   3  -7    2.54    1.51
  -2  -3  -7    1.58    1.42
   2   3   7   -0.38    1.32
   2  -3   7   -0.94    1.25
   2  -3   8  107.33   10.10
  -2   3  -8  107.55    9.30
  -2  -3  -8   95.50    8.38
   2   3   8  100.27    9.73
  -2   3  -9    2.26    0.80
   2   3   9    1.81    0.84
  -2   3  -9    0.65    0.49
   2   3   9    1.57    0.85
  -2   3 -10    3.72    1.17
   2   3  10    3.40    1.13
  -2   3 -10    3.31    1.14
   2   3  10    4.51    1.21
   2   3  11    5.07    1.28
  -2   3 -11    2.59    0.99
   2   3  11    4.06    1.11
  -2   3 -12   67.21    4.21
   2   3  12   66.23    4.15
  -2   3 -13   11.49    1.73
   2   3  13    9.69    1.59
  -2   3 -14   21.45    2.00
   2   3  14   23.89    2.07
   2   3  15   -0.22    0.37
  -2   3 -15    0.77    0.38
  -2   3 -15    0.49    0.37
   2   4 -15    1.44    0.52
  -2   4  15    3.21    0.77
   2   4 -14    3.91    1.01
  -2   4  14    4.34    1.05
  -2   4  14    4.94    1.04
   2   4 -14    4.75    1.07
  -2   4  13    0.79    0.66
   2   4 -13    0.52    0.55
  -2   4  13    1.03    0.58
  -2   4  12   42.82    3.27
  -2   4  12   45.26    3.48
   2   4 -12   38.09    3.14
  -2   4  11    4.61    1.24
   2  -4 -11    6.19    1.24
   2   4 -11    5.98    1.31
  -2   4  10    2.49    0.97
   2   4 -10    2.12    0.91
   2  -4 -10    2.64    0.89
  -2   4   9   53.70    3.71
   2   4  -9   51.93    3.57
  -2   4   9   57.25    4.11
   2   4  -9   47.20    3.46
   2   4  -8   28.33    2.53
   2   4  -8   24.62    4.92
  -2   4   8   25.68    2.47
  -2  -4   8   18.08    4.01
   2  -4  -8   21.82    4.11
   2   4  -7  117.50    9.93
  -2  -4   7  133.98   10.38
   2  -4  -7  129.12    9.44
   2   4  -6   94.10    8.36
  -2  -4   6   95.21    8.16
   2  -4  -6   99.46    7.72
   2   4  -5    6.03    1.75
  -2  -4   5    7.49    1.70
  -2   4   5    4.31    1.59
   2   4  -5    5.57    2.01
  -2   4   4 1042.74   21.74
   2   4  -4 1027.94   24.07
   2  -4  -4 1021.90   19.11
   2   4  -4 1029.99   21.57
   2   4  -3    2.71    1.53
   2   4  -3    1.59    1.10
  -2   4   3    0.88    0.84
   2  -4  -3    1.45    0.77
   2   4  -3    1.18    0.83
   2   4  -2   62.12    5.33
  -2   4   2   46.20    4.13
   2   4  -2   67.46    4.87
   2  -4  -2   46.00    4.02
  -2   4   1  401.44   12.19
   2   4  -1  375.16   10.71
   2   4  -1  361.63   12.47
   2  -4  -1  352.34   11.02
  -2  -4   1  385.36    9.75
   2   4   0   99.96    6.48
  -2   4   0  108.15    6.07
   2   4   0  114.68    5.46
   2  -4   0   90.34    5.86
  -2  -4   0  104.24    5.59
  -2   4  -1   87.33    5.29
  -2  -4  -1   68.05    4.78
   2   4   1   77.25    5.90
   2  -4   1   82.22    5.64
  -2   4  -2    7.30    1.60
   2  -4   2    7.23    1.74
  -2  -4  -2   10.69    2.05
   2   4   2   12.07    2.52
  -2   4  -2    7.01    1.59
  -2   4  -3    4.02    1.29
   2   4   3    1.99    1.32
  -2  -4  -3    1.28    1.08
   2  -4   3    3.81    1.38
  -2  -4  -4  100.81    7.12
   2  -4   4   98.50    6.71
  -2   4  -4  105.96    7.85
   2  -4   5   93.29    6.70
  -2   4  -5   85.48    7.54
  -2   4  -6  162.98   11.04
  -2  -4  -6  149.77    9.86
  -2   4  -7    0.94    1.64
   2  -4   7   -0.97    1.43
   2   4   7   -0.02    1.37
  -2  -4  -7    0.72    0.98
  -2   4  -8   -0.86    0.79
   2   4   8   -1.43    0.72
  -2   4  -8   -0.24    0.52
   2   4   8   -0.21    0.61
  -2   4  -9   10.77    1.78
   2   4   9   11.71    1.76
  -2   4  -9   11.79    1.86
   2   4   9   13.20    2.10
   2   4   9   10.30    1.73
   2   4  10   70.22    4.50
   2   4  10   70.02    4.37
  -2   4 -10   83.88    4.92
  -2   4 -11   31.93    3.07
   2   4  11   26.43    2.66
   2   4  11   26.04    2.74
  -2   4 -12   -0.54    0.58
   2   4  12    0.15    0.65
   2   4  12   -0.05    0.67
  -2   4 -13    1.65    0.76
   2   4  13    1.18    0.65
   2   4  14    8.38    1.22
  -2   4 -14    8.97    1.20
  -2   4 -14    7.92    1.04
   2   5 -14   18.55    1.53
  -2   5  14   17.93    1.73
  -2   5  14   16.94    1.72
   2   5 -13    0.13    0.57
  -2   5  13    1.15    0.69
   2   5 -13    2.49    1.00
  -2   5  13    1.30    0.74
   2   5 -12    5.81    1.21
  -2   5  12    7.82    1.40
  -2   5  12    7.29    1.41
   2   5 -12    7.99    1.55
   2   5 -11   22.95    2.27
  -2   5  11   17.45    2.29
  -2   5  11   15.45    2.06
   2   5 -11   22.44    2.54
   2   5 -10   11.36    1.72
   2   5 -10   12.74    1.91
  -2   5  10   16.86    2.43
  -2   5  10   14.73    2.12
   2   5  -9  193.69    7.23
   2   5  -9  176.57    6.67
  -2   5   9  171.80    6.72
   2   5  -9  189.93    6.99
  -2   5   9  187.73    7.48
   2   5  -8   98.27    5.12
  -2   5   8   97.01    5.16
  -2   5   8   86.33    4.71
   2   5  -8   96.05    4.75
   2   5  -8  103.57    5.02
   2   5  -7   45.31    3.37
  -2   5   7   43.02    3.18
   2   5  -7   46.12    3.23
  -2   5   7   48.66    3.44
   2   5  -7   43.37    3.44
   2   5  -7   44.28    3.10
   2   5  -6   28.43    5.10
   2  -5  -6   31.55    4.81
   2   5  -5   51.08    6.47
  -2   5   5   52.67    6.00
  -2  -5   5   62.33    5.62
  -2   5   4    0.86    1.10
  -2  -5   4    0.27    0.48
   2  -5  -4    1.30    0.97
   2   5  -3  156.15    9.11
   2   5  -3  146.00    9.57
  -2   5   3  162.51    9.35
   2  -5  -3  152.61    8.47
  -2   5   3  171.08   10.20
   2  -5  -2   65.60    5.71
   2   5  -2   81.59    7.02
  -2   5   2   79.83    6.32
   2   5  -2   81.42    6.06
  -2   5   2   82.38    6.80
   2   5  -1    2.85    1.57
   2  -5  -1    3.34    1.50
  -2   5   1    4.58    1.48
  -2   5   1    2.12    1.21
  -2   5   0  460.50   13.89
  -2   5   0  472.43   14.85
   2   5   0  440.20   15.73
  -2   5  -1   83.02    6.17
   2   5   1   86.45    7.10
  -2  -5  -1   86.23    6.21
   2  -5   1   68.15    5.91
  -2  -5  -2  366.03   13.66
   2  -5   2  379.41   13.70
  -2   5  -2  408.58   13.94
   2   5   2  382.69   15.23
   2  -5   3   10.40    2.44
   2   5   3    9.16    2.59
  -2  -5  -3    8.04    2.27
   2   5   4  227.93   12.59
   2  -5   4  225.04   11.30
  -2  -5  -4  221.09   11.57
  -2  -5  -5    1.89    1.46
   2  -5   5    0.30    0.86
   2   5   5    0.64    1.02
   2   5   6    9.15    1.64
   2   5   6   12.88    3.20
  -2   5  -6   14.05    1.86
   2   5   7   51.53    3.65
  -2   5  -7   54.46    3.83
   2   5   7   51.89    3.62
   2   5   7   52.11    3.86
   2   5   8   17.55    2.40
   2   5   8   19.95    2.39
  -2   5  -8   19.19    2.39
   2   5   8   18.47    2.35
  -2   5  -9    0.12    0.64
   2   5   9    0.41    0.68
   2   5   9    0.02    0.54
   2   5   9    0.78    0.81
   2   5  10   10.89    1.88
  -2   5 -10    9.14    1.64
  -2   5 -10    9.38    1.45
  -2   5 -10    8.98    1.36
   2   5  10    9.72    1.67
   2   5  10   10.22    1.77
  -2   5 -11   11.01    1.42
  -2   5 -11   11.20    1.73
  -2   5 -11   12.87    1.73
   2   5  11   14.79    1.98
   2   5  11   12.94    1.92
  -2   5 -12    1.89    0.78
  -2   5 -12    0.93    0.46
  -2   5 -12    0.61    0.68
   2   5  12    0.75    0.61
  -2   5 -13    5.52    0.90
  -2   5 -13    5.40    0.91
   2   5  13    7.62    1.25
   2   6 -13   17.65    1.64
  -2   6  13   18.73    1.87
  -2   6  13   20.35    1.80
  -2   6  12    7.81    1.33
  -2   6  12    8.34    1.46
   2   6 -12    8.29    1.25
  -2   6  11    8.05    1.60
   2   6 -11   10.38    1.76
   2   6 -11    9.69    1.49
  -2   6  11   10.13    1.61
   2   6 -10    0.53    0.77
  -2   6  10    0.18    0.69
  -2   6  10    1.62    1.03
   2   6 -10    1.83    1.04
  -2   6  10    0.89    0.60
   2   6  -9   14.39    2.06
  -2   6   9   15.44    2.16
   2   6  -9   12.66    1.81
  -2   6   9   15.68    2.33
   2   6  -9   12.99    2.11
   2   6  -8   76.88    4.73
  -2   6   8   77.92    4.83
  -2   6   8   75.04    4.56
   2   6  -8   69.22    4.12
   2   6  -8   73.60    3.80
   2   6  -8   71.19    4.36
   2   6  -7    0.78    0.76
   2   6  -7    1.95    1.01
  -2   6   7    1.52    1.06
  -2   6   7    2.06    1.00
   2   6  -7    1.80    1.26
   2   6  -7    1.68    0.91
   2   6  -7    0.71    0.72
   2   6  -6  151.12    5.39
   2   6  -6  167.95    6.77
  -2   6   6  189.23    6.76
   2   6  -6  160.92    5.94
   2   6  -6  166.18    6.73
   2   6  -6  174.92    6.45
  -2   6   6  193.82    6.81
   2   6  -5  133.95    5.70
   2   6  -5  120.00    4.97
  -2   6   5  130.62    5.38
   2   6  -5  117.43    4.63
  -2   6   5  136.94    5.61
   2   6  -5  130.81    5.75
   2   6  -5  134.49    5.42
   2  -6  -4   14.05    2.99
  -2   6   4   14.17    3.36
   2  -6  -4   14.35    3.44
  -2   6   4   12.21    3.02
  -2  -6   4   13.95    3.04
   2  -6  -3    8.60    2.48
  -2   6   3   16.92    3.88
  -2  -6   3   15.93    3.54
  -2   6   3   12.20    3.07
  -2   6   2   19.12    3.76
  -2   6   2   17.96    3.46
   2   6  -2   19.86    4.09
   2  -6  -2   17.44    3.36
  -2  -6   2   14.78    3.10
  -2   6   1  186.04   11.19
   2  -6  -1  173.50   10.21
   2   6  -1  184.88   11.75
  -2   6   1  196.60   10.90
   2   6   0    3.14    1.65
   2  -6   0    3.64    1.56
  -2   6   0    4.94    1.76
   2   6   1    2.11    1.50
   2  -6   1    0.32    0.81
   2  -6   2    4.08    1.57
   2   6   2    4.94    2.03
  -2  -6  -2    5.40    1.97
   2   6   3   12.99    3.34
   2  -6   3    5.15    2.01
  -2  -6  -3   10.80    2.90
   2   6   4  149.95    5.98
  -2   6  -4  152.40    5.59
   2  -6   4  122.46    9.29
  -2   6  -4  143.50    5.37
  -2   6  -4  130.53    5.56
   2   6   4  142.41    5.91
  -2   6  -5    1.06    0.70
  -2   6  -5    0.45    0.51
   2   6   5   -0.41    0.70
  -2   6  -5    1.19    0.75
   2   6   5    0.44    0.74
  -2   6  -6   22.32    2.28
  -2   6  -6   27.57    2.46
   2   6   6   21.44    2.61
   2   6   6   24.83    2.64
   2   6   7    0.05    0.65
   2   6   7    0.27    0.63
  -2   6  -7   -0.16    0.69
  -2   6  -7    0.00    0.51
  -2   6  -8    0.96    0.79
   2   6   8    1.15    0.82
  -2   6  -8    0.92    0.68
   2   6   8    0.92    0.74
  -2   6  -9   28.59    2.46
   2   6   9   35.73    3.08
  -2   6  -9   32.21    2.71
   2   6   9   31.20    2.95
   2   6   9   34.86    3.16
  -2   6 -10    9.40    1.47
   2   6  10   11.98    1.78
   2   6  10   10.37    1.71
   2   6  10   10.68    1.72
  -2   6 -10   10.29    1.39
  -2   6 -11   12.12    1.54
  -2   6 -11   12.93    1.44
   2   6  11   11.43    1.68
   2   6  11   12.08    1.68
   2   6  11    9.01    1.55
  -2   6 -12    3.07    0.77
   2   6  12    4.07    0.92
  -2   6 -12    2.87    0.63
   2   6  12    3.18    0.82
  -2   7  12    0.50    0.49
  -2   7  11    0.13    0.55
   2   7 -11    1.64    0.79
   2   7 -10   12.43    1.80
  -2   7  10   16.96    2.12
   2   7  -9   11.73    1.74
   2   7  -9   13.01    2.10
  -2   7   9   10.74    1.84
   2   7  -9   11.84    1.50
  -2   7   9   11.75    1.92
   2   7  -8   32.47    3.10
  -2   7   8   35.29    3.39
  -2   7   8   33.47    3.13
   2   7  -8   31.79    2.55
   2   7  -8   33.62    2.71
   2   7  -8   31.66    3.12
   2   7  -7    1.08    0.76
  -2   7   7   -0.14    0.66
   2   7  -7   -0.53    0.79
  -2   7   7   -0.73    0.78
   2   7  -7   -0.29    0.66
   2   7  -7    2.20    1.00
   2   7  -6   55.27    3.90
  -2   7   6   49.85    3.90
   2   7  -6   51.85    3.33
   2   7  -6   49.88    3.39
  -2   7   6   51.49    3.75
   2   7  -6   62.05    4.26
   2   7  -6   52.81    4.05
  -2   7   5   36.67    3.17
   2   7  -5   26.46    2.25
   2   7  -5   34.81    3.22
  -2   7   5   36.64    3.08
   2   7  -5   34.07    2.76
   2   7  -5   38.48    3.09
  -2   7   4   82.84    4.47
  -2   7   4   68.24    4.14
   2   7  -4   71.00    4.45
   2   7  -4   69.09    3.89
   2   7  -4   56.12    3.25
   2   7  -3   19.28    1.87
  -2   7   3   23.32    2.38
   2   7  -3   18.26    2.01
   2   7  -3   22.77    2.52
   2   7  -2  172.97    6.13
  -2   7   2  168.03    6.20
   2   7  -2  172.63    6.51
  -2   7   1   22.66    2.27
  -2   7   1   26.70    2.35
   2   7  -1   19.49    2.25
   2   7  -1   20.55    2.16
   2   7   0   16.06    1.93
   2   7   0   16.70    2.09
  -2   7   0   23.06    2.16
  -2   7   0   16.11    1.43
  -2   7   0   19.01    2.12
   2   7   1    1.36    0.73
  -2   7  -1    0.50    0.77
   2   7   1    1.05    0.70
  -2   7  -1    1.37    0.69
  -2   7  -1    0.39    0.54
   2   7   1    1.88    0.94
  -2   7  -2    1.10    0.47
  -2   7  -2    2.59    0.92
   2   7   2    4.02    1.17
  -2   7  -2    4.29    1.10
   2   7   2    3.38    1.04
  -2   7  -2    0.61    0.54
  -2   7  -3  139.49    5.79
   2   7   3  136.88    5.95
  -2   7  -3  144.05    5.72
  -2   7  -3  138.73    5.52
   2   7   3  130.50    5.89
  -2   7  -4    9.21    1.67
  -2   7  -4   11.11    1.63
   2   7   4    9.82    1.74
  -2   7  -4    5.17    1.06
   2   7   4    9.65    1.69
  -2   7  -5   33.90    2.51
   2   7   5   28.36    2.95
  -2   7  -5   34.80    2.82
   2   7   5   26.01    2.77
  -2   7  -6    0.21    0.60
   2   7   6    1.09    0.97
   2   7   6    0.20    0.70
   2   7   7   -0.23    0.91
   2   7   7   -0.64    0.76
   2   7   7    0.42    0.72
  -2   7  -7    0.75    0.60
  -2   7  -8    1.62    0.73
   2   7   8    0.33    0.66
   2   7   8    0.36    0.66
   2   7   8    0.62    0.62
   2   7   9    0.58    0.56
   2   7   9   -0.19    0.61
  -2   7  -9    0.69    0.62
   2   7   9    0.15    0.62
  -2   7  -9    1.11    0.79
   2   7  10    3.07    0.81
   2   7  10    4.87    1.09
   2   7  10    4.34    1.06
  -2   7 -10    3.84    0.88
  -2   7 -10    5.23    1.07
   2   7  11    0.48    0.47
  -2   7 -11   -0.51    0.46
   2   8 -11   12.71    1.10
  -2   8  11    3.96    0.82
  -2   8  10   14.50    1.73
   2   8 -10    8.29    1.22
  -2   8   9   -0.94    0.72
  -2   8   9   -0.14    0.73
   2   8  -9   -0.47    0.56
  -2   8   8    3.04    1.06
  -2   8   8    3.75    1.11
   2   8  -8    4.17    1.05
   2   8  -8    4.08    1.04
  -2   8   7   55.01    4.06
   2   8  -7   59.01    3.72
   2   8  -7   56.58    3.48
  -2   8   7   59.54    4.03
  -2   8   6    5.31    1.26
  -2   8   6    6.01    1.47
   2   8  -6    4.06    1.34
   2   8  -6    5.98    1.23
   2   8  -5   60.31    3.83
   2   8  -5   64.08    3.35
   2   8  -5   61.87    4.35
  -2   8   5   61.11    4.20
  -2   8   4   33.30    3.20
   2   8  -4   34.69    2.93
   2   8  -4   30.35    3.03
   2   8  -3   62.02    4.32
  -2   8   3   65.13    4.16
   2   8  -3   65.40    4.02
   2   8  -2    1.63    1.00
   2   8  -2    1.62    1.03
  -2   8   1    0.42    0.66
   2   8  -1   -0.39    0.73
  -2   8   1    1.96    0.89
   2   8  -1    0.31    0.63
   2   8   0    1.66    1.04
  -2   8   0   -0.15    0.74
  -2   8   0   -0.03    0.76
   2   8   0   -0.78    0.91
  -2   8  -1    0.96    0.63
  -2   8  -1    2.09    0.82
   2   8   1    1.32    0.86
  -2   8  -1    0.85    0.55
  -2   8  -2    1.16    0.72
   2   8   2    1.61    0.82
  -2   8  -2   -0.16    0.72
  -2   8  -2    0.85    0.75
   2   8   2    3.02    0.93
  -2   8  -3   14.90    2.21
   2   8   3   16.93    2.29
  -2   8  -3   18.46    2.11
  -2   8  -3   22.95    1.85
   2   8   3   20.56    2.45
   2   8   4  157.02    6.98
  -2   8  -4  162.78    6.46
  -2   8  -4  165.56    6.29
   2   8   4  156.27    6.53
  -2   8  -5   13.79    1.85
   2   8   5    9.54    1.89
  -2   8  -5   11.08    1.53
   2   8   5    8.29    1.62
   2   8   6   56.49    3.85
  -2   8  -6   68.24    3.84
   2   8   6   57.67    4.25
  -2   8  -7   -0.56    0.63
  -2   8  -7   -0.28    0.72
   2   8   7    0.26    0.74
   2   8   8    4.13    1.08
   2   8   8    4.90    1.28
  -2   8  -8    0.07    0.62
  -2   8  -8    0.95    0.54
   2   8   9    0.83    0.61
  -2   8  -9   -0.40    0.51
   2   8   9    0.28    0.50
  -2   8 -10    3.16    0.68
   2   8  10    5.00    0.97
  -2   8 -10    4.48    0.66
   2   8  10    5.68    0.88
   2   9  -9   45.92    1.53
   2   9  -8   16.30    1.60
  -2   9   8   11.29    1.77
   2   9  -7    1.52    0.82
  -2   9   7   -0.60    0.72
  -2   9   6    2.99    1.09
   2   9  -6    5.11    1.27
  -2   9   5   23.98    2.57
   2   9  -5   21.43    2.27
   2   9  -5   21.17    2.55
   2   9  -4    8.02    1.58
   2   9  -4    6.48    1.60
   2   9  -3   40.88    3.43
  -2   9   3   39.99    3.45
   2   9  -3   45.07    3.39
  -2   9   2   13.43    2.00
   2   9  -2   16.03    2.19
   2   9  -2    8.98    1.73
  -2   9   1   -0.23    0.56
   2   9  -1   -0.40    0.96
  -2   9   0    2.52    1.20
   2   9   0    1.35    0.88
  -2   9  -1   28.13    2.66
  -2   9  -1   24.67    2.51
   2   9   1   22.16    2.48
  -2   9  -2    8.05    1.46
  -2   9  -2    8.60    1.50
  -2   9  -2    6.41    1.41
   2   9   2    7.50    1.57
   2   9   2    8.20    1.63
  -2   9  -3   54.29    3.55
   2   9   3   42.91    3.35
   2   9   3   48.58    3.59
   2   9   4    2.22    0.96
  -2   9  -4    1.17    0.74
   2   9   4    2.99    1.03
  -2   9  -5   -0.58    0.75
   2   9   5   -0.30    0.76
   2   9   5   -0.16    0.71
   2   9   6   13.11    1.70
  -2   9  -6   10.54    1.53
   2   9   6   15.74    2.03
   2   9   7   -0.14    0.57
  -2   9  -7   -0.97    0.73
   2   9   7    1.21    0.66
   2   9   8    8.22    1.09
  -2   9  -8    6.22    1.00
   2   9   8    7.27    1.24
  -2  10   6    5.58    1.16
   2  10  -6   33.97    2.33
  -2  10   5    3.64    1.10
   2  10  -5   25.34    2.24
   2  10  -4   32.15    2.73
  -2  10   4    2.85    0.90
   2  10  -3    6.93    1.49
  -2  10   3    6.45    1.32
  -2  10   2   15.79    1.97
   2  10  -2   14.58    1.98
  -2  10   1   29.22    2.61
   2  10  -1   22.39    2.34
  -2  10   0   21.03    2.12
   2  10   0   17.12    2.05
   2  10   1   16.50    1.95
  -2  10  -1   31.18    2.52
  -2  10  -2    3.12    1.00
   2  10   2    1.22    0.76
  -2  10  -3    7.72    1.33
   2  10   3    5.55    1.13
   2  10   4   -1.40    0.81
   2  10   4   -0.47    0.70
  -2  10  -4    0.93    0.74
  -2  10  -5   16.72    1.66
   2  10   5   15.11    1.73
   3   0 -16    6.62    0.99
   3   0 -15   -0.49    0.62
   3   0 -14   19.87    2.25
  -3   0  14   21.32    2.08
   3   0 -13    0.50    0.73
   3   0 -12   40.33    3.18
   3   0 -11   -0.02    0.46
   3   0 -10  179.86    6.22
   3   0 -10  187.15    6.90
  -3   0  10  169.61   12.02
   3   0  -9   -0.05    0.92
  -3   0   9    1.81    1.68
  -3   0   8  146.88    9.88
  -3   0   7    1.69    1.35
   3   0  -7    0.22    0.53
   3   0  -6   12.15    1.94
  -3   0   6   13.86    2.60
   3   0  -5    0.08    0.41
  -3   0   5    0.33    0.73
  -3   0   5    0.14    0.47
  -3   0   4   79.36    3.57
   3   0  -4   85.14    4.25
  -3   0   4   87.72    4.86
   3   0  -3    3.02    1.04
   3   0  -3    1.57    0.66
  -3   0   3    3.79    0.94
   3   0  -2 1965.12   20.53
  -3   0   2 1934.97   13.31
   3   0  -1    7.08    1.38
  -3   0   1    3.45    0.80
   3   0   0 8597.01   42.33
   3   0   1    2.60    0.76
   3   0   1    2.89    0.45
  -3   0  -1    2.10    0.33
   3   0   2 9940.79   52.10
   3   0   2 9999.00   45.44
  -3   0  -3    6.89    1.20
  -3   0  -3    6.50    1.64
   3   0   3    6.54    1.72
   3   0   3    6.32    1.38
   3   0   4 1557.99   26.46
  -3   0  -4 1531.92   24.75
  -3   0  -5    2.41    1.09
   3   0   5    4.37    1.97
  -3   0  -5    3.00    1.35
  -3   0  -6  267.52   11.98
   3   0   6  255.83   12.82
  -3   0  -6  269.58   11.43
  -3   0  -7    0.68    0.74
  -3   0  -7    0.50    0.86
   3   0   7   -0.34    1.64
   3   0   8   -0.04    1.55
  -3   0  -8   -0.39    0.87
   3   0   9    0.04    1.30
   3   0  10    0.91    0.67
  -3   0 -10    0.39    0.60
   3   0  11   -0.25    0.63
  -3   0 -11   -0.65    0.75
  -3   0 -12   13.96    1.84
   3   0  12   16.88    2.08
   3   0  13   -0.05    0.53
  -3   0 -13    0.08    0.45
  -3   0 -14    8.44    1.24
  -3   0 -15   -0.58    0.44
   3   1 -16    5.62    0.90
   3  -1 -16    5.13    0.86
   3   1 -15   20.50    2.01
   3  -1 -15   16.54    1.82
   3   1 -15   20.27    1.96
  -3   1  15   18.02    1.83
   3   1 -14   12.43    1.72
   3  -1 -14   10.93    1.64
  -3   1  14   14.38    1.81
   3  -1 -13   21.73    2.37
   3   1 -13   17.06    2.11
   3  -1 -12  114.69    5.43
   3   1 -12  118.83    5.48
   3   1 -11  128.70    5.58
   3  -1 -11  134.58    5.68
   3  -1 -11  137.93    6.03
   3  -1 -10    7.46    1.24
  -3   1  10    6.93    2.76
   3  -1 -10    7.20    1.38
   3   1 -10    7.43    1.30
  -3  -1  10    6.97    2.63
  -3   1   9  300.28   15.26
  -3  -1   9  317.07   15.90
  -3  -1   8  117.50    8.80
   3   1  -8  103.57    9.37
  -3   1   8  113.84    8.71
   3   1  -7  500.59   19.15
  -3  -1   7  565.82   17.67
  -3   1   7  586.55   18.17
   3   1  -7  520.45   14.76
  -3  -1   6 1913.96   29.03
   3   1  -6 1768.46   25.32
   3  -1  -6 1946.54   21.94
  -3   1   6 1787.27   24.66
   3   1  -6 1884.65   26.15
  -3   1   6 1829.37   28.91
   3   1  -5  261.42    9.11
   3   1  -5  230.28   11.06
  -3  -1   5  249.59    9.49
  -3   1   5  299.50    8.90
  -3   1   5  278.20   10.05
   3  -1  -5  309.51    8.03
   3   1  -5  242.97    8.73
   3   1  -4  333.02   11.72
  -3   1   4  329.52    8.33
   3   1  -4  360.29    9.64
  -3   1   4  341.59    9.74
  -3  -1   4  358.16    9.93
   3  -1  -4  347.54    7.64
   3   1  -4  367.99   10.30
   3  -1  -3 1674.69   15.98
   3   1  -3 1635.33   21.07
   3  -1  -3 1647.51   19.31
  -3  -1   3 1643.13   17.86
  -3   1   3 1635.38   18.48
   3   1  -3 1643.47   19.37
   3   1  -2  176.33    5.50
  -3   1   2  184.57    5.79
  -3  -1   2  197.83    4.03
   3   1  -2  197.31    7.04
  -3  -1   2  200.08    4.70
   3  -1  -2  207.36    6.89
   3   1  -1  253.48    4.76
   3  -1  -1  243.34    6.95
   3   1  -1  275.80    7.43
  -3  -1   1  276.65    6.99
   3  -1  -1  245.77    7.76
   3  -1   0   42.74    2.84
  -3  -1   0   40.42    2.95
   3   1   0   38.94    2.45
   3  -1   0   43.90    3.43
   3   1   1 1312.66   17.62
   3   1   1 1288.47   12.75
   3  -1   1 1277.60   15.52
   3  -1   1 1276.56   19.53
   3   1   1 1352.52   13.82
  -3  -1  -1 1370.78   18.29
   3   1   2  206.00    7.04
  -3   1  -2  261.06    6.49
   3   1   2  207.37    7.12
   3  -1   2  258.13    9.42
  -3   1  -2  255.86    8.72
   3   1   3  302.03   10.35
   3  -1   3  366.18   11.94
  -3  -1  -3  305.00   10.03
  -3   1  -3  331.95   10.73
   3  -1   3  359.83    7.73
   3  -1   4   44.41    4.69
  -3   1  -4   55.79    4.83
  -3  -1  -4   67.51    5.12
   3   1   4   76.67    5.91
  -3   1  -5  825.51   17.44
  -3  -1  -5  777.77   18.60
  -3   1  -5  830.60   19.79
   3   1   5  819.75   21.71
   3  -1   5  825.82   22.13
   3   1   6    1.61    1.56
  -3   1  -6    1.29    0.87
  -3   1  -6    1.21    0.82
  -3  -1  -6    1.24    0.90
   3  -1   6    0.77    1.10
  -3   1  -7  199.07   10.37
   3  -1   7  193.52   12.16
  -3  -1  -7  228.05   11.66
   3   1   7  212.39   13.01
  -3  -1  -7  192.57   10.77
   3   1   8   37.14    5.73
   3  -1   8   34.55    5.49
  -3  -1  -8   29.47    4.52
  -3   1  -9    2.47    0.79
   3   1   9    3.92    0.97
   3   1   9    1.83    0.88
  -3   1 -10  186.89    6.83
   3   1  10  177.40    6.56
  -3  -1 -11    1.45    0.67
  -3   1 -11    1.60    0.83
   3   1  11    2.37    0.96
  -3  -1 -12    1.22    0.69
   3   1  12    0.97    0.62
  -3   1 -12    0.61    0.60
  -3  -1 -13    0.80    0.55
  -3   1 -13    0.60    0.54
   3   1  13    1.13    0.76
  -3  -1 -14    0.11    0.41
  -3   1 -14    0.05    0.48
   3   1  14    0.75    0.52
  -3   1 -15    7.22    0.98
  -3  -1 -15    6.62    0.84
  -3   2  16   19.66    1.52
   3  -2 -16   21.17    1.60
   3  -2 -15    1.80    0.67
   3   2 -15    2.85    0.82
  -3   2  15    2.12    0.71
   3   2 -14   30.05    2.62
   3  -2 -14   27.51    2.51
   3   2 -14   34.70    2.82
  -3   2  14   31.95    2.61
   3   2 -13   40.73    2.94
   3  -2 -13   34.80    3.02
   3   2 -13   38.05    3.10
   3   2 -12   26.20    2.42
   3  -2 -12   28.46    2.70
   3   2 -12   22.13    2.42
   3  -2 -11    0.54    0.48
   3   2 -11    0.20    0.47
   3  -2 -11    0.74    0.59
  -3   2  11    1.09    0.87
   3  -2 -10  223.62    7.38
   3   2 -10  217.51    6.98
   3  -2 -10  221.17    7.08
  -3   2  10  239.23    7.60
  -3   2   9   10.25    2.98
   3   2  -9    7.08    2.82
  -3  -2   9   12.99    3.33
  -3  -2   8   37.70    5.07
  -3   2   8   35.45    5.09
   3   2  -8   28.39    4.82
   3  -2  -8   33.28    4.27
   3   2  -7    5.75    2.07
   3   2  -7    8.11    2.05
  -3   2   7    6.83    2.24
  -3  -2   7    7.99    2.30
  -3   2   6  142.71    7.60
   3   2  -6  118.73    8.35
  -3  -2   6  152.62    8.72
  -3   2   6  147.15    8.73
   3   2  -6  138.95    7.70
   3   2  -5  140.15    8.20
  -3   2   5  154.01    7.29
  -3  -2   5  161.77    8.19
   3   2  -5  158.48    7.67
  -3   2   5  165.96    8.41
   3   2  -5  165.70    7.26
  -3  -2   4   67.04    4.70
   3  -2  -4   74.32    4.13
  -3   2   4   72.13    4.51
   3   2  -4   64.21    4.62
  -3   2   4   69.20    4.91
   3  -2  -4   82.11    3.09
   3   2  -4   68.14    4.54
   3  -2  -3  339.18    6.29
   3  -2  -3  324.41    8.63
   3   2  -3  319.83    9.42
   3   2  -2  976.95   17.18
   3   2  -2  981.78   15.61
  -3  -2   2 1006.35   11.74
   3   2  -1   80.23    4.62
   3  -2  -1   82.98    4.58
   3   2  -1   76.86    4.24
  -3  -2   1   88.99    4.18
   3   2  -1   81.14    4.59
   3   2   0   87.49    4.57
   3   2   0   85.73    4.45
  -3   2   0   81.73    4.56
   3  -2   0   77.23    4.50
  -3  -2   0   89.73    4.49
   3   2   0   86.51    4.78
  -3   2   0   81.45    3.10
   3  -2   0   74.20    3.87
   3   2   1  549.70   12.26
   3  -2   1  604.36   10.57
   3   2   1  553.04   11.41
  -3   2  -1  592.29   12.91
   3  -2   1  597.64   12.95
  -3  -2  -1  579.17   12.48
  -3   2  -1  612.34    7.64
  -3   2  -2  133.19    6.55
   3  -2   2  129.95    6.40
  -3  -2  -2  143.94    6.72
  -3   2  -2  145.52    6.05
   3   2   2  137.18    5.79
   3   2   2  136.88    5.83
   3   2   3   22.54    2.77
   3  -2   3   28.03    3.20
  -3   2  -3   28.51    2.93
  -3  -2  -3   22.23    2.91
  -3   2  -3   27.47    3.22
   3  -2   3   31.94    1.96
  -3  -2  -4  143.14    7.79
   3   2   4  141.88    7.97
  -3   2  -5   85.30    6.14
  -3   2  -5   79.82    5.93
   3  -2   5   87.33    6.55
   3  -2   5   79.19    6.97
   3   2   5   80.05    6.66
  -3  -2  -5   87.32    6.49
   3  -2   6  372.49   16.39
   3   2   6  374.28   15.87
  -3  -2  -6  381.38   14.49
   3   2   7   24.84    4.54
  -3  -2  -7   21.77    3.77
   3  -2   7   15.70    3.68
   3  -2   8   79.02    8.56
   3   2   8   81.34    8.64
  -3  -2  -8   71.88    7.19
  -3   2  -9    1.05    0.60
   3   2   9    0.92    0.64
   3   2   9    2.20    0.84
  -3   2 -10    0.07    0.57
   3   2  10    0.59    0.60
  -3   2 -11   27.27    2.72
  -3  -2 -11   29.19    2.53
   3   2  11   25.66    2.60
  -3   2 -12   30.04    2.76
  -3  -2 -12   34.93    2.75
   3   2  12   32.25    2.84
  -3   2 -13   16.33    1.94
   3   2  13   13.18    1.78
  -3  -2 -13   14.34    1.64
  -3  -2 -14   16.04    1.49
  -3   2 -14   18.13    1.79
   3   2  14   18.01    1.82
  -3   2 -15    3.47    0.69
   3   3 -15   11.14    1.24
  -3   3  15   13.92    1.55
   3  -3 -14    3.15    0.91
   3   3 -14    2.57    0.84
  -3   3  14    3.50    0.95
   3   3 -13   16.82    2.08
   3  -3 -13   15.99    1.97
   3   3 -13   16.29    2.00
   3   3 -13   16.43    1.94
  -3   3  13   14.98    2.05
   3  -3 -12   15.97    2.00
   3   3 -12   16.52    2.13
   3  -3 -12   15.68    1.97
  -3   3  12   15.85    2.12
   3   3 -12   14.63    1.88
  -3   3  11    5.19    1.24
   3   3 -11    5.00    1.14
   3  -3 -11    5.27    1.18
   3  -3 -11    4.91    1.15
   3   3 -11    3.93    1.02
  -3   3  10    1.32    0.74
   3  -3 -10    1.53    0.78
   3  -3 -10    2.14    0.84
   3   3  -9   32.70    2.74
  -3   3   9   36.29    2.89
  -3  -3   9   31.51    5.07
   3  -3  -9   23.48    4.08
   3  -3  -9   31.66    2.76
  -3   3   8   -0.38    1.26
  -3  -3   8    1.98    1.29
   3  -3  -8    0.79    1.06
  -3   3   7    2.66    1.28
   3   3  -7    4.32    1.68
  -3  -3   7    2.48    1.26
   3   3  -6   12.37    2.54
  -3  -3   6    8.97    2.09
  -3   3   6    9.37    2.15
  -3   3   6    9.16    2.32
   3   3  -5   92.34    6.44
  -3  -3   5  105.84    7.08
  -3   3   5  101.14    6.57
   3   3  -4   65.18    5.34
   3  -3  -4   67.49    4.49
  -3   3   4   61.24    4.73
   3   3  -4   58.76    4.82
   3  -3  -3   81.24    4.91
   3   3  -3   91.73    5.71
   3   3  -3   89.94    5.69
   3   3  -3   95.33    5.03
   3   3  -2   17.13    2.40
   3  -3  -2   21.51    2.56
   3   3  -2   15.85    2.23
   3   3  -2   17.38    2.66
  -3  -3   2   17.17    1.75
   3   3  -2   15.14    2.11
   3   3  -1 1068.53   19.32
   3  -3  -1 1083.12   17.91
   3   3  -1 1141.25   17.92
  -3  -3   1 1144.88   16.08
   3   3  -1 1127.66   17.82
   3   3   0    7.99    1.68
  -3   3   0    6.33    1.47
  -3  -3   0    8.32    1.67
   3  -3   0    5.06    1.42
  -3   3   0    6.24    1.32
   3   3   0    9.50    1.61
   3   3   1    1.42    0.71
   3  -3   1    0.98    0.89
  -3   3  -1    2.52    0.98
   3  -3   1    0.89    0.49
  -3   3  -1    1.05    0.63
  -3  -3  -1    0.96    0.68
   3   3   1    0.53    0.76
   3   3   2   68.01    4.27
  -3   3  -2   75.39    5.23
   3  -3   2   71.08    5.12
   3   3   2   61.01    4.74
  -3  -3  -2   63.37    4.80
  -3  -3  -3  250.19   10.18
   3   3   3  272.45   10.08
  -3   3  -3  238.40    9.78
   3  -3   3  242.52    9.75
  -3   3  -3  245.39    9.90
   3   3   3  254.87   10.08
  -3   3  -4  631.46   16.83
   3  -3   4  673.88   17.17
  -3   3  -4  696.47   17.75
  -3  -3  -4  590.06   16.62
   3   3   4  599.98   17.17
   3   3   5   22.95    3.87
  -3   3  -5   17.27    3.06
   3  -3   5   12.82    2.71
  -3  -3  -5   19.69    3.45
  -3   3  -5   12.12    2.52
   3  -3   6   36.24    5.35
  -3   3  -6   44.36    5.17
  -3  -3  -6   36.48    4.79
   3   3   6   40.99    5.40
  -3  -3  -7   56.20    6.23
  -3   3  -7   56.43    6.22
   3  -3   7   49.88    6.70
   3   3   7   54.87    6.84
   3   3   8   -0.19    1.24
  -3   3  -8    2.38    0.83
   3   3   8    1.82    0.82
  -3   3  -8    0.47    1.09
  -3   3  -9   72.73    4.42
   3   3   9   65.77    4.27
   3   3   9   65.89    4.03
  -3   3 -10    2.74    0.98
   3   3  10    2.11    0.93
   3   3  10    3.71    1.05
  -3   3 -11   37.05    3.19
   3   3  11   31.99    2.91
   3   3  12    1.93    1.00
  -3   3 -12    0.92    0.77
   3   3  13   46.46    3.14
  -3   3 -13   46.88    3.14
   3   3  14   13.10    1.50
  -3   3 -14   13.66    1.51
   3   4 -15   -0.26    0.38
  -3   4  15   -0.13    0.42
  -3   4  14   22.11    2.07
  -3   4  14   22.50    2.11
   3   4 -14   20.44    2.01
   3   4 -14   18.50    1.79
   3   4 -13    0.98    0.68
   3   4 -13   -1.29    0.94
  -3   4  13    0.69    0.66
  -3   4  13    1.05    0.63
   3   4 -12   10.34    1.60
  -3   4  12   12.07    1.94
  -3   4  11    8.05    1.55
   3   4 -11    7.99    1.47
   3  -4 -11    9.18    1.53
   3  -4 -10    3.14    0.94
  -3   4  10    4.21    1.16
   3   4 -10    5.09    1.24
   3   4 -10    6.51    1.45
   3  -4  -9    4.44    1.14
   3   4  -9    8.63    1.52
  -3   4   9    5.89    1.31
   3   4  -9    7.54    1.38
   3   4  -9    9.48    1.57
  -3   4   8   16.50    1.94
   3   4  -8   16.38    1.98
   3   4  -8   18.00    2.08
  -3  -4   7   55.19    6.46
   3   4  -7   50.05    6.45
   3  -4  -7   50.23    6.00
  -3   4   6   73.97    6.70
  -3  -4   6   71.04    6.84
   3   4  -6   64.93    6.89
   3   4  -6   69.28    6.52
  -3   4   5   70.28    6.16
   3   4  -5   67.05    6.55
   3   4  -5   66.50    5.98
   3   4  -4    5.34    1.66
   3   4  -4    4.94    1.72
  -3   4   4    6.60    1.93
   3  -4  -4    8.25    1.86
  -3   4   3   91.11    6.26
   3   4  -3  102.21    6.89
   3  -4  -3   90.87    5.87
   3   4  -3  111.14    6.95
   3   4  -2    9.09    2.22
   3   4  -2   11.46    2.20
   3  -4  -2    9.81    2.05
  -3   4   1   57.44    4.54
   3   4  -1   55.53    4.48
  -3  -4   1   61.76    4.22
   3   4  -1   48.42    4.82
   3  -4  -1   44.71    4.16
  -3   4   0   98.01    5.56
   3   4   0  102.77    6.84
  -3  -4   0  104.48    6.05
   3   4   0  113.64    5.97
  -3  -4  -1    5.61    1.70
   3   4   1    5.60    1.72
  -3   4  -1    3.67    1.13
  -3   4  -1    3.74    1.30
   3  -4   1    2.46    1.52
  -3  -4  -2  648.65   16.91
   3  -4   2  646.19   16.62
  -3   4  -2  673.16   16.67
   3   4   2  673.35   18.05
   3   4   3   26.05    3.71
  -3   4  -3   30.87    3.71
   3  -4   3   23.04    3.39
  -3  -4  -3   23.04    3.48
  -3  -4  -4   68.97    6.25
   3  -4   4   69.61    5.96
   3   4   4   79.24    6.59
  -3  -4  -5  203.33   11.36
   3   4   5  238.50   11.81
   3  -4   5  223.14   11.26
  -3   4  -5  245.99   12.68
  -3   4  -6   37.40    5.20
  -3  -4  -6   33.86    4.84
  -3   4  -7   22.90    4.47
   3   4   7   31.36    2.75
   3   4   7   31.23    2.76
   3   4   8   -0.44    0.73
  -3   4  -8   -0.62    0.54
   3   4   8   -0.36    0.62
   3   4   8   -0.53    0.68
   3   4   9    2.82    0.96
   3   4   9    4.83    1.26
  -3   4  -9    2.18    0.99
   3   4   9    2.25    0.99
  -3   4 -10    1.02    0.85
   3   4  10    2.02    0.91
   3   4  10    0.67    0.67
  -3   4 -11    1.39    0.86
   3   4  11    0.50    0.82
   3   4  11    1.12    0.82
   3   4  12    2.75    0.99
  -3   4 -12    2.25    0.62
  -3   4 -12    2.69    0.90
  -3   4 -13    1.69    0.71
  -3   4 -13    2.16    0.75
   3   4  13    3.79    1.04
   3   4  14   14.90    1.47
  -3   4 -14   13.82    1.35
   3   5 -14   13.79    1.31
  -3   5  14   13.14    1.48
  -3   5  14   12.35    1.40
  -3   5  13    1.44    0.77
   3   5 -13    1.68    0.82
   3   5 -13    0.18    0.55
  -3   5  13    1.36    0.68
  -3   5  12   51.51    3.64
   3   5 -12   48.99    3.51
  -3   5  12   58.34    3.69
   3   5 -12   49.40    3.20
   3   5 -11   32.19    2.95
   3   5 -11   28.08    2.57
  -3   5  11   32.69    2.99
  -3   5  10   45.04    3.55
   3   5 -10   34.13    3.08
   3   5 -10   37.62    2.93
   3   5 -10   33.73    3.14
   3   5  -9   66.44    4.22
  -3   5   9   77.98    4.77
   3   5  -9   68.53    4.36
  -3   5   9   69.25    4.29
   3   5  -9   60.91    3.83
   3   5  -8   20.24    2.30
   3   5  -8   18.47    2.28
  -3   5   8   14.75    2.02
  -3   5   8   18.84    2.30
   3   5  -8   20.46    2.02
   3   5  -7  534.31   11.21
   3   5  -7  556.99   11.78
  -3   5   7  541.61   11.22
   3   5  -7  532.11   11.57
  -3   5   7  563.00   11.46
   3   5  -7  542.78   11.94
   3   5  -7  517.98   10.55
  -3   5   6   91.56    8.14
   3   5  -6   82.31    8.53
   3   5  -5    9.20    2.51
  -3   5   5   12.08    3.02
   3   5  -5    7.25    2.66
  -3   5   4    8.50    2.37
   3  -5  -4    6.41    1.95
   3   5  -4    4.67    1.91
  -3   5   3    1.40    1.24
   3   5  -3    0.97    1.10
   3  -5  -3    0.82    0.85
  -3   5   3    2.06    1.16
   3   5  -2   52.34    5.08
  -3   5   2   51.50    5.31
  -3   5   2   48.36    5.02
   3   5  -2   44.53    5.29
   3  -5  -2   43.16    4.66
   3   5  -1   13.81    2.96
  -3   5   1   20.65    3.28
   3  -5  -1   18.13    3.04
  -3   5   1   22.09    3.34
   3  -5   0  271.30   11.84
   3   5   0  308.69   13.52
   3   5   1   53.08    5.70
   3  -5   1   41.07    4.86
  -3  -5  -1   56.54    5.23
   3   5   2  213.58   11.53
   3  -5   2  211.64   10.75
  -3  -5  -2  202.90   10.52
   3  -5   3   23.98    3.80
  -3  -5  -3   27.37    4.11
   3   5   3   27.56    4.25
   3  -5   4    2.23    1.25
  -3  -5  -4    1.17    0.90
   3   5   4    4.26    1.83
   3   5   5  114.88    9.34
   3  -5   5   97.86    8.25
  -3  -5  -5   97.07    8.44
  -3   5  -6    4.40    1.10
  -3   5  -6    5.00    1.03
   3   5   6    6.31    1.38
   3   5   6    5.49    1.27
   3   5   7   40.07    3.24
   3   5   7   34.51    3.29
  -3   5  -7   37.21    3.24
  -3   5  -7   36.67    2.91
   3   5   7   35.39    3.14
   3   5   8   34.33    3.13
   3   5   8   37.70    3.43
   3   5   8   38.12    3.26
  -3   5  -8   37.79    3.35
  -3   5  -8   41.62    3.10
  -3   5  -9    0.44    0.57
   3   5   9    0.40    0.72
   3   5   9   -0.23    0.69
   3   5   9   -0.30    0.68
  -3   5 -10   34.64    2.78
   3   5  10   31.29    2.96
   3   5  10   34.35    3.10
  -3   5 -10   30.03    2.96
   3   5  10   29.70    2.87
  -3   5 -11    9.56    1.27
  -3   5 -11   11.73    1.49
  -3   5 -11   10.42    1.66
   3   5  11   10.05    1.66
  -3   5 -12   28.11    1.96
   3   5  12   28.82    2.47
  -3   5 -12   29.34    2.39
  -3   5 -12   25.93    2.12
   3   5  13    1.61    0.66
  -3   5 -13    1.72    0.63
  -3   5 -13    0.35    0.40
   3   5  13    0.22    0.46
   3   6 -13    1.81    0.70
  -3   6  13    2.15    0.68
  -3   6  13    2.54    0.68
   3   6 -12    2.99    1.00
  -3   6  12    0.74    0.55
   3   6 -12    2.87    0.87
  -3   6  12    1.28    0.63
   3   6 -11    1.10    0.86
   3   6 -11    0.22    0.65
  -3   6  11   -0.12    0.55
  -3   6  11    0.25    0.67
  -3   6  10   81.63    4.95
   3   6 -10   72.32    4.50
   3   6 -10   67.79    4.04
   3   6 -10   76.27    4.46
  -3   6  10   73.44    4.55
  -3   6   9   47.68    3.62
   3   6  -9   45.26    3.70
  -3   6   9   49.21    3.96
   3   6  -9   47.92    3.34
   3   6  -9   46.96    3.58
   3   6  -8   49.84    3.73
   3   6  -8   48.09    3.85
  -3   6   8   48.62    3.72
   3   6  -8   47.52    3.46
  -3   6   8   43.91    3.54
   3   6  -7  129.33    5.89
   3   6  -7  134.70    6.30
   3   6  -7  130.40    6.12
  -3   6   7  144.14    6.17
   3   6  -7  125.69    4.91
  -3   6   7  135.55    6.04
   3   6  -7  126.69    5.38
   3   6  -6   12.22    1.64
   3   6  -6   13.93    2.03
   3   6  -6   13.57    2.06
   3   6  -6   15.39    2.18
  -3   6   6   17.47    2.16
  -3   6   6   16.19    2.17
   3   6  -6   12.85    1.77
   3   6  -5   89.93    4.63
  -3   6   5   80.15    4.33
   3   6  -5   78.01    3.82
   3   6  -5   88.14    4.75
   3   6  -5   76.78    3.87
  -3   6   5   82.26    4.50
   3   6  -4  152.89    5.99
  -3   6   4  129.53   10.53
   3   6  -4  135.03    4.99
  -3   6   4  146.75    5.58
   3   6  -4  142.49    5.10
  -3  -6   4  135.88    9.58
  -3   6   3    8.62    2.40
   3  -6  -3    4.00    1.84
  -3   6   3    4.68    2.02
   3   6  -2  226.32   13.46
  -3   6   2  232.51   12.65
  -3   6   2  235.77   12.78
   3  -6  -2  204.91   11.47
   3   6  -1   84.66    8.14
   3  -6  -1   80.60    7.27
  -3   6   1   94.69    7.99
   3  -6   0   17.00    3.40
  -3   6   0   19.17    3.40
   3   6   0   17.83    3.87
   3  -6   1    3.71    1.67
   3   6   1    1.47    1.24
   3   6   2    6.65    2.16
   3  -6   2    6.95    2.45
   3   6   3   16.20    2.05
  -3   6  -3   21.33    2.10
  -3  -6  -3   13.27    3.03
   3  -6   3   15.71    3.46
  -3   6  -4   21.69    2.24
  -3   6  -4   20.91    2.15
   3   6   4   19.96    2.27
  -3   6  -4   25.57    2.20
   3   6   4   19.32    2.35
  -3   6  -5    9.04    1.40
  -3   6  -5   10.85    1.55
   3   6   5    8.19    1.72
   3   6   5    9.64    1.81
   3   6   6   42.79    3.37
   3   6   6   36.63    3.37
  -3   6  -6   43.53    3.10
  -3   6  -6   35.08    2.91
   3   6   7   31.40    3.31
  -3   6  -7   38.42    3.03
   3   6   7   34.25    3.14
  -3   6  -8   98.66    4.80
   3   6   8  113.81    5.75
  -3   6  -8  114.73    5.04
   3   6   8  103.63    5.32
   3   6   9    3.75    1.18
  -3   6  -9    4.05    1.07
  -3   6  -9    1.25    0.56
   3   6   9    3.67    1.11
   3   6   9    2.25    0.95
   3   6  10   15.05    2.01
   3   6  10   16.04    2.06
  -3   6 -10   14.92    1.69
  -3   6 -10   10.92    1.60
   3   6  10   16.20    2.02
   3   6  10   12.16    1.84
  -3   6 -11    6.87    1.04
   3   6  11    5.58    1.24
  -3   6 -11    6.18    1.00
   3   6  11    4.47    1.14
   3   6  12    0.24    0.37
  -3   6 -12    0.67    0.36
  -3   6 -12    0.95    0.49
   3   7 -12    9.21    0.99
  -3   7  12   16.74    1.70
   3   7 -11   -0.03    0.70
  -3   7  11    5.93    1.24
  -3   7  10   26.79    2.64
   3   7 -10   28.61    2.41
   3   7 -10   28.71    2.87
  -3   7  10   28.64    2.82
  -3   7   9   22.45    2.52
  -3   7   9   23.32    2.66
   3   7  -9   20.75    2.13
   3   7  -9   22.89    2.55
   3   7  -9   20.06    2.47
  -3   7   8    9.41    1.81
   3   7  -8    8.04    1.29
   3   7  -8    9.04    1.51
  -3   7   8    9.55    1.76
   3   7  -8    7.95    1.67
   3   7  -8    8.23    1.56
   3   7  -7    9.27    1.91
   3   7  -7   11.47    1.94
  -3   7   7   10.71    1.84
   3   7  -7   12.31    1.84
   3   7  -7   10.97    1.49
  -3   7   7   11.63    1.92
   3   7  -7   10.51    1.47
   3   7  -6   25.60    2.34
  -3   7   6   28.58    2.87
   3   7  -6   25.12    2.87
  -3   7   6   31.25    3.04
   3   7  -6   24.88    2.68
   3   7  -5    1.32    0.94
  -3   7   5    0.54    0.64
   3   7  -5    0.25    0.95
   3   7  -5   -0.11    0.53
  -3   7   5    0.38    0.48
   3   7  -4   59.73    3.97
  -3   7   4   50.26    3.67
   3   7  -4   52.86    3.40
  -3   7   4   60.43    3.92
   3   7  -4   56.92    4.00
   3   7  -4   44.48    2.82
   3   7  -3   32.61    2.88
   3   7  -3   29.37    2.80
  -3   7   3   27.19    2.66
   3   7  -3   28.53    2.55
   3   7  -3   29.47    2.41
  -3   7   2  317.22    8.57
   3   7  -2  304.20    8.37
   3   7  -2  326.24    9.01
  -3   7   1  161.23    6.15
   3   7  -1  153.00    5.85
   3   7  -1  155.92    6.26
   3   7   0   71.00    4.19
  -3   7   0   85.14    4.19
   3   7   0   79.79    4.32
  -3   7   0   84.21    4.45
  -3   7  -1   66.09    3.96
  -3   7  -1   70.24    3.89
   3   7   1   71.82    4.19
  -3   7  -2   32.95    2.71
   3   7   2   29.46    2.83
  -3   7  -2   29.15    2.78
   3   7   2   27.55    2.72
  -3   7  -3    9.04    1.61
   3   7   3    6.38    1.43
   3   7   3    5.83    1.40
  -3   7  -3   10.23    1.60
   3   7   4   89.14    5.03
  -3   7  -4   91.63    4.71
  -3   7  -4   97.42    4.69
   3   7   4   81.00    4.82
   3   7   5    4.73    1.27
  -3   7  -5    8.06    1.46
   3   7   5    4.52    1.27
   3   7   6  142.95    6.52
   3   7   6  135.87    6.17
  -3   7  -6  136.63    5.70
  -3   7  -6  141.75    5.27
   3   7   7    2.91    1.21
  -3   7  -7    3.97    1.19
  -3   7  -7    1.93    0.89
   3   7   7    4.15    1.30
  -3   7  -8    0.74    0.73
   3   7   8    0.44    0.64
   3   7   8    0.28    0.76
  -3   7  -8    1.03    0.77
   3   7   8    0.05    0.55
   3   7   9   13.18    1.79
  -3   7  -9   16.00    1.72
   3   7   9   14.19    1.95
   3   7   9   13.57    1.84
  -3   7  -9   13.26    1.61
   3   7  10    1.11    0.80
   3   7  10    1.77    0.79
  -3   7 -10    0.54    0.45
  -3   7 -11    8.49    0.98
   3   7  11    8.78    1.12
   3   8 -11   15.10    1.08
  -3   8  11   -0.33    0.39
   3   8 -10   12.26    1.28
  -3   8  10    7.79    1.26
  -3   8   9   12.17    1.84
  -3   8   9   15.60    1.91
  -3   8   8   13.93    2.12
   3   8  -8   15.59    1.75
   3   8  -8   19.28    1.85
   3   8  -8   12.99    1.92
  -3   8   8   16.61    2.14
  -3   8   7   -0.42    0.77
   3   8  -7    1.13    0.76
   3   8  -7    0.71    0.68
  -3   8   7    0.27    0.79
  -3   8   6    0.59    0.70
   3   8  -6    0.18    0.59
   3   8  -6    1.15    1.05
  -3   8   6    1.18    0.86
   3   8  -6    1.06    0.75
   3   8  -5    2.17    0.81
   3   8  -5    2.20    0.88
  -3   8   5    2.02    0.97
   3   8  -5    2.62    1.26
  -3   8   5    3.65    1.14
   3   8  -4    8.10    1.54
  -3   8   4    4.93    1.27
   3   8  -3    7.08    1.47
  -3   8   3    8.06    1.56
  -3   8   2   47.14    3.54
   3   8  -2   53.96    3.66
   3   8  -2   53.95    3.94
   3   8  -1    1.53    0.96
  -3   8   1    1.24    0.60
   3   8   0    6.78    1.53
  -3   8   0    7.07    1.30
  -3   8   0    5.93    1.37
  -3   8  -1    0.20    0.56
   3   8   1    0.76    0.68
   3   8   2   -0.60    0.79
   3   8   2    1.59    0.87
  -3   8  -2   -0.01    0.61
  -3   8  -2   -0.04    0.60
   3   8   3    0.89    0.85
  -3   8  -3   -1.68    0.83
  -3   8  -3    0.51    0.56
   3   8   3    0.78    0.84
   3   8   4   24.61    2.68
   3   8   4   28.84    2.94
  -3   8  -4   33.15    2.79
  -3   8  -4   25.64    1.81
   3   8   5    2.75    1.13
  -3   8  -5    4.86    1.07
  -3   8  -5    3.00    1.08
   3   8   5    2.16    0.96
   3   8   6    1.99    1.02
  -3   8  -6    2.36    0.93
  -3   8  -6    2.97    0.85
   3   8   7   20.61    2.53
  -3   8  -7   16.24    1.43
   3   8   7   22.66    2.38
  -3   8  -8    0.32    0.54
   3   8   8   -0.11    0.59
   3   8   8   -0.04    0.61
  -3   8  -8    0.22    0.41
   3   8   9   11.85    1.43
  -3   8  -9   12.81    1.37
  -3   8  -9    8.28    0.82
   3   8   9   11.86    1.59
  -3   8 -10    6.96    0.90
   3   9  -9   47.56    1.49
  -3   9   8    2.66    0.93
  -3   9   8    2.47    0.73
   3   9  -7    3.55    1.00
  -3   9   7   -0.34    0.61
  -3   9   6   25.76    2.75
   3   9  -6   27.53    2.37
   3   9  -5    3.54    1.11
  -3   9   5    1.00    0.79
   3   9  -4    1.89    1.09
   3   9  -4    2.76    1.13
  -3   9   4    0.69    0.66
   3   9  -3   -0.68    0.94
  -3   9   3    1.47    0.99
   3   9  -2   -0.87    1.07
  -3   9   2    1.01    0.80
  -3   9   1   11.37    1.83
   3   9  -1   10.97    1.84
   3   9   0    1.30    0.75
  -3   9   0    1.81    0.85
   3   9   1    4.38    1.24
  -3   9  -1    5.85    1.31
  -3   9  -1    4.68    1.20
   3   9   2    3.79    1.20
  -3   9  -2    3.44    1.02
  -3   9  -2    2.59    0.81
   3   9   3    2.84    1.05
  -3   9  -3    2.79    0.89
   3   9   3    2.33    1.09
  -3   9  -4    0.66    0.72
   3   9   4    3.01    0.99
   3   9   5    1.09    0.74
  -3   9  -5    1.05    0.58
   3   9   5    1.39    0.87
  -3   9  -6    0.11    0.60
   3   9   6    2.28    1.01
   3   9   6    1.06    0.70
  -3   9  -7    3.12    0.81
   3   9   7    4.87    1.09
   3   9   7    2.79    0.84
  -3   9  -8    5.30    0.90
   3   9   8    5.82    1.07
  -3  10   6    1.12    0.69
  -3  10   5    7.46    1.37
  -3  10   4    1.13    0.70
   3  10  -4    2.10    0.98
   3  10  -3   13.76    1.84
  -3  10   3   15.74    1.96
   3  10  -2    1.04    0.73
  -3  10   2    0.59    0.73
  -3  10   1    0.80    0.60
   3  10  -1    0.99    0.79
  -3  10   0    1.70    0.79
   3  10   0   -0.64    0.94
  -3  10  -1   16.07    1.81
  -3  10  -1   20.94    1.96
  -3  10  -2    2.34    0.83
   3  10   2    4.46    1.03
   3  10   2    3.71    1.02
   3  10   3    1.90    0.89
   3  10   3    0.81    0.59
  -3  10  -4    3.95    0.91
   3  10   4    3.71    1.02
   3  10   4    3.16    0.87
  -3  10  -5    0.57    0.53
   3  10   5    0.99    0.67
   3  10   5   -0.35    0.49
   4   0 -16    0.60    0.40
   4   0 -15   -0.21    0.61
   4   0 -14   34.56    2.88
  -4   0  14   38.91    2.84
   4   0 -13    0.14    0.59
   4   0 -12   55.91    3.76
   4   0 -11    0.26    0.59
   4   0 -11    0.56    0.54
   4   0 -10   69.69    4.31
   4   0 -10   66.83    3.82
  -4   0  10   59.09    6.82
  -4   0   9    0.01    0.94
   4   0  -9    2.46    1.85
  -4   0   8    0.93    1.16
   4   0  -8    1.05    0.67
   4   0  -8    1.56    1.00
   4   0  -7    1.36    0.84
   4   0  -7    0.57    0.74
  -4   0   7    0.89    0.85
   4   0  -6  607.44   16.10
  -4   0   6  646.65   16.03
   4   0  -6  618.49   14.61
  -4   0   5    0.41    0.70
   4   0  -5   -0.19    0.43
   4   0  -5    0.56    0.74
  -4   0   5    0.25    0.50
   4   0  -4   94.67    5.63
  -4   0   4   96.69    4.63
   4   0  -4   93.99    4.95
  -4   0   3    2.03    0.65
   4   0  -3    3.20    0.98
  -4   0   3    1.84    0.63
   4   0  -3    1.78    0.87
  -4   0   2 1179.51   14.69
   4   0  -2 1185.01   19.01
   4   0  -1    1.43    0.77
  -4   0   1    1.26    0.66
   4   0   0 1643.54   12.81
  -4   0   0 1659.93   21.70
  -4   0  -1    4.21    1.31
   4   0   1    6.01    1.09
  -4   0  -2    1.58    0.40
   4   0   2    1.62    0.90
   4   0   2    1.57    0.37
  -4   0  -2    1.41    0.85
   4   0   2    0.91    0.74
  -4   0  -3    1.24    1.01
   4   0   3    1.13    0.77
   4   0   3    2.69    1.20
  -4   0  -4    6.24    1.27
  -4   0  -4    7.98    2.11
   4   0   4    6.59    1.99
  -4   0  -5    3.99    1.18
  -4   0  -5    2.54    1.41
   4   0   5    5.91    1.97
   4   0   6    7.33    2.29
  -4   0  -6    5.51    1.95
  -4   0  -7    3.50    1.83
   4   0   7    0.01    0.93
   4   0   8   35.59    5.71
   4   0   9    0.29    0.57
  -4   0  -9   -0.88    0.69
  -4   0 -10   73.11    4.16
   4   0  10   74.68    4.32
  -4   0 -11   -0.24    0.60
   4   0  11   -0.29    0.70
   4   0  12   -0.43    0.61
  -4   0 -12    0.19    0.48
  -4   0 -13    0.14    0.49
   4   0  13   -0.23    0.51
  -4   0 -14   24.09    1.91
   4   1 -16   14.86    1.33
   4   1 -15    0.85    0.49
   4  -1 -15    1.08    0.64
  -4   1  15    1.79    0.74
   4   1 -14    5.51    1.16
   4  -1 -14    4.80    1.16
   4   1 -13    2.06    0.86
   4  -1 -13    3.08    1.02
   4   1 -12    1.27    0.60
   4  -1 -12    3.18    0.93
   4   1 -11   61.91    3.84
   4  -1 -11   67.73    4.01
   4  -1 -11   65.66    4.27
   4  -1 -10  221.98    7.53
   4   1 -10  205.62    6.74
   4  -1 -10  212.25    6.85
  -4   1   9   55.74    6.43
   4   1  -9   48.09    6.68
  -4  -1   9   57.12    6.39
   4   1  -8   20.15    4.14
  -4  -1   8   20.33    3.56
  -4   1   8   23.49    3.95
   4   1  -8   21.46    3.35
   4   1  -7   89.91    8.15
  -4  -1   7  109.76    7.53
  -4   1   7   91.51    6.92
   4   1  -7   94.16    6.54
   4   1  -6  155.43    9.84
  -4   1   6  156.61    7.31
   4   1  -6  169.64    8.73
  -4  -1   6  173.83    8.49
  -4   1   6  163.85    8.34
   4  -1  -6  165.32    6.89
   4   1  -6  157.22    7.96
   4   1  -5  247.30   11.19
   4   1  -5  238.66    9.07
  -4   1   5  212.00    7.65
   4   1  -5  261.43   10.31
  -4  -1   5  255.01    8.94
  -4   1   5  220.30    8.59
   4  -1  -5  230.23    7.50
  -4  -1   4 1607.78   19.05
   4   1  -4 1581.29   24.64
   4   1  -4 1614.63   24.73
  -4   1   4 1546.34   20.13
   4  -1  -4 1605.24   18.82
   4   1  -4 1550.52   21.88
   4   1  -3  613.48   14.64
  -4  -1   3  600.89    8.08
  -4  -1   3  607.46    9.10
   4   1  -3  595.84   12.88
   4   1  -2   27.35    2.74
   4   1  -2   22.98    1.88
  -4  -1   2   28.22    2.00
  -4   1   2   29.67    2.67
   4  -1  -2   29.40    2.93
   4  -1  -2   32.43    3.43
   4   1  -2   27.91    3.11
  -4   1   1  746.24   13.86
   4  -1  -1  761.57   16.62
   4  -1  -1  757.82   14.20
   4  -1   0   58.67    3.96
  -4   1   0   58.09    4.06
   4  -1   0   61.20    4.88
  -4  -1   0   50.64    3.84
   4   1   1  849.56   11.86
   4   1   1  848.49   10.10
   4   1   1  798.39   15.67
   4  -1   1  861.14   19.02
  -4   1  -1  860.27   16.88
   4  -1   1  890.69   15.23
  -4  -1  -1  908.80   17.28
  -4   1  -2 1139.91   20.75
   4   1   2 1138.17   18.92
   4   1   2 1179.88   14.08
   4  -1   2 1112.51   22.72
   4   1   2 1177.20   16.75
  -4  -1  -2 1166.89   20.79
   4   1   3  173.61    7.51
   4   1   3  170.16    5.70
  -4   1  -3  196.73    6.44
   4   1   3  174.84    8.02
   4  -1   3  180.30    8.64
  -4   1  -3  175.52    8.66
  -4  -1  -3  167.49    8.37
   4  -1   3  180.67    6.58
   4   1   4  156.70    8.58
  -4   1  -4  150.29    8.54
  -4  -1  -4  131.44    7.91
   4  -1   4  124.14    8.10
  -4   1  -5  135.60    8.60
   4  -1   5  136.15    9.10
  -4  -1  -5  122.61    8.14
   4   1   5  145.86    9.30
   4   1   6  179.69   11.38
   4  -1   6  197.77   11.92
  -4   1  -6  203.18   11.24
  -4  -1  -6  182.25   10.57
   4  -1   7   52.55    6.44
   4   1   7   44.12    5.90
  -4  -1  -7   44.31    5.58
  -4  -1  -8   89.15    8.43
   4  -1   8  112.19    9.93
   4   1   8  100.12    9.54
  -4   1  -9   54.93    3.66
  -4  -1  -9   60.17    3.64
   4   1   9   65.86    3.97
  -4  -1 -10    1.49    0.62
  -4   1 -10    2.46    0.83
   4   1  10    1.57    0.82
  -4   1 -11   18.38    2.18
  -4  -1 -11   15.57    1.96
   4   1  11   15.22    1.99
  -4  -1 -12    0.88    0.66
  -4   1 -12    0.96    0.68
   4   1  12    1.43    0.74
  -4   1 -13   11.83    1.57
  -4  -1 -13   12.72    1.54
   4   1  13   11.10    1.54
   4   1  14    2.72    0.70
  -4   1 -14    2.25    0.68
  -4  -1 -14    1.84    0.54
   4   2 -15    6.48    1.13
   4  -2 -15    5.82    1.07
   4   2 -15    5.41    0.98
  -4   2  15    6.69    1.11
   4  -2 -14    3.45    0.99
   4   2 -14    2.23    0.68
   4   2 -14    2.50    0.82
   4   2 -14    5.06    1.16
   4   2 -13   70.36    4.18
   4  -2 -13   69.16    4.16
   4   2 -13   78.68    4.09
   4   2 -12    2.92    0.89
   4  -2 -12    2.68    0.93
   4   2 -12    4.46    0.99
   4  -2 -12    2.15    0.73
   4  -2 -11    5.01    1.25
   4   2 -11    4.47    1.14
   4  -2 -11    4.37    1.08
   4  -2 -10   16.15    1.98
   4   2 -10   17.21    1.98
   4   2 -10   17.34    2.31
   4   2 -10   14.57    1.84
   4  -2 -10   16.69    2.09
   4   2  -9   22.87    4.54
  -4   2   9   26.37    4.57
  -4   2   8   11.74    2.78
   4   2  -8    9.27    2.82
   4   2  -8    9.98    2.58
   4   2  -7   13.43    3.13
  -4   2   7   13.71    2.76
  -4   2   7   14.47    2.88
  -4  -2   7   18.32    3.20
   4   2  -7   14.62    2.78
  -4   2   6  197.52    9.82
   4   2  -6  172.12    9.98
  -4  -2   6  200.17    9.37
  -4   2   6  191.54    8.99
   4   2  -6  184.82    9.28
   4   2  -5   20.61    3.10
  -4  -2   5   20.81    2.70
  -4   2   5   18.26    2.56
   4   2  -5   24.51    3.24
  -4   2   5   21.20    2.98
   4   2  -5   20.04    2.90
   4  -2  -4   30.64    3.17
  -4  -2   4   45.07    3.60
   4   2  -4   42.69    3.93
   4  -2  -4   32.78    2.43
   4  -2  -3  567.01   13.51
  -4  -2   3  573.77   10.87
   4   2  -3  549.40   13.56
   4   2  -2  828.00   16.01
  -4   2   2  815.16   15.31
   4  -2  -2  810.09   16.18
   4   2  -1   65.54    4.54
  -4   2   1   98.67    5.51
   4  -2  -1   88.71    4.95
   4  -2  -1   88.39    5.48
  -4  -2   1   81.77    4.61
   4   2  -1   69.40    4.63
   4   2  -1   65.87    4.76
  -4   2   0  434.23    6.39
  -4   2   0  416.14   11.57
   4  -2   0  431.46   12.31
   4   2   0  439.11   10.86
   4   2   0  448.07   12.31
   4  -2   0  413.42   10.34
   4   2   1   10.60    2.05
   4  -2   1   15.49    1.99
  -4   2  -1   12.80    2.18
   4  -2   1   16.06    2.53
  -4  -2  -1   13.43    2.18
   4   2   1   11.33    1.80
   4   2   2   15.76    2.04
  -4   2  -2   18.91    2.80
   4  -2   2   21.67    3.08
  -4  -2  -2   15.49    2.47
   4   2   2   16.06    1.99
   4   2   2   17.35    2.59
   4   2   3   17.84    2.35
   4  -2   3   23.59    3.36
  -4   2  -3   22.05    3.24
  -4   2  -3   23.56    2.73
  -4  -2  -3   16.89    2.72
   4   2   3   17.79    2.62
   4  -2   4  384.95   14.43
  -4   2  -4  403.36   11.89
  -4  -2  -4  362.61   13.12
   4   2   4  394.36   13.41
  -4  -2  -5    4.68    1.69
  -4   2  -5    2.65    1.31
  -4   2  -5    2.87    1.48
   4  -2   5    0.95    0.78
   4  -2   6   45.53    5.92
  -4  -2  -6   43.62    5.21
   4   2   6   40.55    5.49
  -4   2  -6   50.80    5.04
   4   2   7   13.42    3.38
  -4  -2  -7    8.78    2.47
   4  -2   7    9.56    2.73
   4   2   8   16.75    3.98
  -4   2  -8   18.13    2.11
   4   2   8   17.75    2.21
  -4  -2  -8   11.07    2.97
   4   2   8   17.06    1.99
   4  -2   8   14.04    3.76
  -4   2  -9   57.08    3.82
   4   2   9   47.63    3.46
   4   2  10   77.64    4.55
  -4   2 -10   81.03    4.61
  -4  -2 -11    3.17    0.94
  -4   2 -11    2.25    0.92
   4   2  11    3.62    1.12
  -4  -2 -12    0.31    0.42
   4   2  12    0.21    0.56
  -4   2 -12    1.23    0.79
   4   2  13    4.10    1.02
  -4   2 -13    4.55    1.03
   4   2  14    7.48    1.10
  -4   2 -14    7.56    1.09
   4   3 -15    3.05    0.73
  -4   3  15    2.37    0.71
   4   3 -14   23.41    2.15
   4  -3 -14   23.91    2.19
   4   3 -14   20.93    2.05
  -4   3  14   25.44    2.28
   4   3 -13    5.90    1.24
   4  -3 -13    6.72    1.30
   4   3 -13    3.80    0.93
  -4   3  13    5.61    1.27
   4   3 -12    4.05    1.02
   4   3 -12    3.42    0.95
   4  -3 -12    3.71    1.05
  -4   3  12    4.10    1.15
   4  -3 -12    3.78    0.97
   4   3 -11   -0.09    0.48
   4  -3 -11    0.81    0.54
   4  -3 -11    1.27    0.78
   4   3 -11    0.86    0.72
  -4   3  11    0.20    0.52
   4   3 -10  428.06   10.09
   4   3 -10  419.47   10.51
   4  -3 -10  441.56   10.24
  -4   3  10  425.11   10.40
   4  -3 -10  404.98   10.45
   4   3  -9   54.97    3.64
   4  -3  -9   51.14    3.59
   4  -3  -9   51.72    3.36
   4  -3  -9   40.67    5.44
  -4   3   9   51.52    3.46
   4   3  -9   57.65    3.64
   4   3  -8  101.97    8.37
  -4   3   8  104.16    8.95
  -4   3   7   69.02    6.37
   4   3  -7   66.93    6.36
  -4   3   6   31.36    4.04
   4   3  -6   30.76    4.12
  -4   3   5  137.53    7.76
   4   3  -5  153.93    9.00
   4   3  -5  149.01    8.55
   4   3  -4   70.44    5.66
   4  -3  -4   62.81    4.77
  -4   3   4   64.77    5.07
  -4  -3   4   68.98    5.01
   4   3  -4   65.47    5.29
   4   3  -3    4.40    1.38
   4  -3  -3    3.08    1.18
   4   3  -3    3.15    1.31
   4   3  -3    3.11    1.05
   4   3  -2    8.18    1.82
   4   3  -2    5.61    1.86
   4  -3  -2   10.22    2.04
  -4  -3   2    7.63    1.32
   4   3  -2    9.06    1.99
  -4   3   1   70.25    5.12
   4  -3  -1   65.05    4.94
   4   3  -1   82.71    5.39
  -4  -3   1   87.08    5.09
   4   3  -1   79.11    5.62
   4   3  -1   80.03    5.44
   4   3   0  189.95    8.03
  -4   3   0  194.61    8.62
  -4   3   0  197.90    6.09
   4  -3   0  179.12    8.21
   4  -3   0  180.99    7.00
   4   3   0  184.98    8.26
  -4  -3   0  197.48    8.05
   4   3   0  184.10    8.42
   4   3   1  318.15   10.55
  -4   3  -1  285.63   10.84
   4  -3   1  276.09    8.53
   4   3   1  306.63   10.46
   4  -3   1  268.72   10.41
  -4  -3  -1  298.13   10.46
  -4   3  -2  378.52   12.94
   4  -3   2  369.07   12.64
   4   3   2  368.34   11.70
  -4  -3  -2  357.85   12.22
  -4   3  -3  267.36   11.50
   4  -3   3  274.57   11.56
  -4  -3  -3  290.22   11.63
  -4  -3  -4   54.88    5.46
   4   3   4   64.99    5.31
  -4   3  -4   61.33    5.76
   4  -3   4   67.04    6.06
  -4   3  -4   69.78    5.65
   4   3   4   59.72    5.58
  -4  -3  -5   10.11    2.52
   4   3   5   12.43    2.78
   4   3   5   14.55    2.69
  -4   3  -5   14.79    3.01
   4  -3   5   13.90    3.02
  -4   3  -5   15.97    3.03
   4  -3   6   47.78    6.27
  -4   3  -6   59.00    5.97
  -4  -3  -6   54.53    6.15
   4   3   6   65.55    6.89
  -4  -3  -7    0.70    1.06
   4  -3   7    0.40    0.95
   4   3   8   19.82    2.40
  -4   3  -8   17.17    2.16
   4   3   8   16.31    2.16
   4   3   8   20.41    2.28
  -4   3  -9    0.24    0.61
   4   3   9    0.15    0.63
   4   3   9   -0.56    0.78
   4   3   9   -0.25    0.61
  -4   3 -10   41.72    3.40
   4   3  10   41.54    3.34
  -4   3 -11   13.11    1.96
   4   3  11   17.25    2.21
  -4   3 -12   40.41    3.09
   4   3  12   36.49    2.99
  -4   3 -13    1.37    0.74
   4   3  13    0.39    0.63
  -4   3 -14   20.83    1.74
   4   3  14   19.20    1.67
  -4   4  15    2.29    0.65
  -4   4  14    1.11    0.58
   4   4 -14    2.06    0.76
   4   4 -14   -0.25    0.51
  -4   4  14    1.21    0.65
  -4   4  13    9.66    1.55
   4   4 -13   11.22    1.61
   4   4 -13    9.51    1.34
  -4   4  13   10.80    1.61
   4  -4 -12   46.21    3.29
   4   4 -12   50.41    3.52
   4   4 -12   51.08    3.24
  -4   4  12   48.49    3.57
   4   4 -11    0.24    0.52
   4  -4 -11   -0.32    0.56
  -4   4  11    0.19    0.59
   4   4 -10    7.64    1.59
   4   4 -10    7.24    1.46
  -4   4  10    7.44    1.50
   4  -4 -10    6.92    1.39
   4   4  -9    4.10    1.16
   4   4  -9    4.26    1.13
   4  -4  -9    4.24    1.19
  -4   4   9    5.11    1.24
   4   4  -8  137.71    5.67
   4   4  -8  136.61    5.90
  -4   4   8  135.34    5.51
   4   4  -7   11.59    2.93
  -4   4   7   17.92    3.54
   4   4  -7    8.29    2.82
   4   4  -6  226.97   12.13
  -4   4   6  231.36   12.08
   4   4  -6  222.67   12.74
  -4   4   5   48.06    5.23
   4   4  -5   44.28    5.33
   4   4  -5   47.47    5.42
   4   4  -4   64.81    5.90
   4  -4  -4   58.65    5.12
  -4   4   4   55.78    5.27
   4   4  -4   61.66    5.78
   4  -4  -3   27.59    3.54
   4   4  -3   19.31    3.16
   4  -4  -2  104.16    6.81
   4   4  -2  106.20    7.52
   4   4  -2  127.86    7.62
   4  -4  -1   24.61    3.36
  -4   4   1   32.29    3.38
   4   4  -1   27.85    3.79
   4   4  -1   32.10    3.66
   4   4   0    0.44    0.60
   4   4   0    1.01    1.04
   4  -4   0    0.30    0.76
  -4   4   0    1.13    1.02
  -4  -4   0    0.34    0.59
   4  -4   0    0.52    0.84
  -4   4  -1  156.89    8.64
   4   4   1  159.62    8.74
   4  -4   1  145.93    8.40
  -4  -4  -1  153.82    8.28
  -4   4  -2   57.12    5.39
   4   4   2   50.98    5.11
   4  -4   2   50.19    5.08
  -4  -4  -2   49.86    4.99
  -4   4  -3   64.08    5.92
   4  -4   3   61.17    5.79
   4   4   3   56.01    5.48
  -4  -4  -3   50.74    5.42
   4   4   4   40.28    4.76
  -4   4  -4   35.48    4.56
   4  -4   4   36.56    4.74
  -4  -4  -4   36.36    4.74
   4  -4   5   17.80    3.55
   4   4   5   10.97    2.68
  -4  -4  -5   10.73    2.78
  -4  -4  -6   14.15    3.34
   4  -4   6   12.94    3.44
   4   4   6   15.99    3.23
  -4   4  -7  131.22    5.94
   4   4   7  125.00    5.61
   4   4   7  132.95    6.17
   4   4   7  129.18    5.69
  -4   4  -8    3.62    1.20
   4   4   8    4.20    1.24
   4   4   8    2.90    0.96
   4   4   8    1.97    0.73
   4   4   9    7.03    1.60
  -4   4  -9    4.45    1.19
   4   4   9    5.06    1.37
   4   4   9    5.62    1.31
   4   4  10   66.45    4.25
  -4   4 -10   57.11    4.00
   4   4  10   54.44    3.85
  -4   4 -11    0.45    0.52
   4   4  11    0.68    0.75
  -4   4 -12    1.48    0.76
  -4   4 -12    0.87    0.59
   4   4  12    1.44    0.72
  -4   4 -13   12.32    1.17
  -4   4 -13   14.30    1.60
   4   4  13   13.29    1.56
   4   5 -14   15.26    1.29
  -4   5  14   16.10    1.56
   4   5 -14   16.23    1.66
  -4   5  14   15.94    1.61
  -4   5  13   -0.05    0.52
   4   5 -13    0.91    0.71
   4   5 -13   -0.94    0.67
  -4   5  13    0.47    0.49
   4   5 -12   10.15    1.70
   4  -5 -12   10.66    1.48
   4   5 -12   12.21    1.54
  -4   5  12   11.66    1.79
  -4   5  12   12.89    1.82
   4  -5 -11    3.58    0.97
   4   5 -11    1.61    0.86
   4   5 -11    1.97    0.86
  -4   5  11    3.63    1.11
   4  -5 -10   37.12    3.08
   4   5 -10   30.32    2.95
   4   5 -10   29.80    2.89
   4   5 -10   31.37    2.62
  -4   5  10   34.30    3.11
   4   5  -9    7.39    1.53
   4  -5  -9    5.63    1.22
   4   5  -9    8.02    1.27
   4   5  -9    6.64    1.33
  -4   5   9    5.34    1.26
   4   5  -8   63.01    4.05
   4   5  -8   67.21    4.29
   4   5  -8   62.10    4.15
  -4   5   8   70.06    4.28
   4   5  -8   60.16    3.67
  -4   5   8   65.40    4.11
   4   5  -7  225.28    7.73
  -4   5   7  207.30    6.96
   4   5  -7  224.22    7.61
   4   5  -7  220.12    6.65
  -4   5   7  197.20    6.87
   4   5  -7  226.88    7.79
   4   5  -7  222.89    7.43
   4   5  -6  226.89    7.14
   4   5  -6  235.71    7.73
   4   5  -6  182.17   12.34
  -4   5   6  228.38    7.18
   4   5  -6  195.10   12.31
   4   5  -5    4.76    1.82
  -4   5   5    4.35    1.88
  -4   5   4  151.01   10.05
   4  -5  -4  130.84    8.69
   4   5  -4  146.66    9.75
   4   5  -3   27.53    4.18
  -4   5   3   26.43    4.10
   4  -5  -3   22.87    3.64
  -4   5   3   26.29    3.95
   4  -5  -2  108.09    7.75
  -4   5   2  121.54    8.37
   4   5  -2  118.52    8.89
   4   5  -2  128.19    8.40
   4   5  -1    4.21    1.70
   4  -5  -1    3.25    1.45
   4   5   0   91.43    7.59
   4  -5   0   78.16    6.72
   4  -5   1  256.14   12.09
   4   5   1  247.79   12.55
  -4  -5  -1  255.03   11.55
   4  -5   2   87.15    7.26
   4   5   2   97.02    7.90
  -4  -5  -2   93.38    7.41
  -4  -5  -3    2.73    1.47
   4   5   3    2.95    1.62
   4  -5   3    4.80    1.83
  -4  -5  -4   12.05    2.92
   4   5   4   18.00    3.57
   4  -5   4   13.41    3.17
   4   5   5   21.33    2.39
  -4   5  -5   21.22    2.35
  -4   5  -6   33.66    3.07
   4   5   6   29.81    2.78
   4   5   6   33.98    2.99
   4   5   7    1.19    0.81
  -4   5  -7    0.42    0.72
   4   5   7    0.73    0.57
   4   5   7   -0.13    0.59
  -4   5  -8    7.41    1.53
   4   5   8    4.68    1.32
   4   5   8    6.36    1.42
  -4   5  -8    7.10    1.25
   4   5   8    4.09    1.19
  -4   5  -9    6.06    1.40
   4   5   9    3.49    1.12
  -4   5  -9    6.08    1.17
   4   5   9    3.13    1.03
   4   5   9    3.30    1.08
  -4   5 -10    1.46    0.79
   4   5  10    0.41    0.68
  -4   5 -10   -0.37    0.58
   4   5  10    0.63    0.71
  -4   5 -11    7.13    1.13
  -4   5 -11    6.28    1.14
   4   5  11    7.72    1.45
  -4   5 -11    7.74    1.44
  -4   5 -12    2.27    0.64
  -4   5 -12    2.11    0.71
  -4   5 -12    0.79    0.47
   4   5  12    2.04    0.77
   4   5  13    4.69    0.84
   4   5  13    6.22    0.89
   4   6 -13    1.07    0.66
   4   6 -13   -0.26    0.45
  -4   6  13    0.35    0.46
  -4   6  13   -0.43    0.43
   4   6 -12   18.95    2.10
   4   6 -12   20.35    1.73
  -4   6  12   20.14    2.10
  -4   6  12   22.49    2.08
  -4   6  11    8.17    1.47
   4   6 -11   10.06    1.74
   4   6 -11    7.55    1.41
  -4   6  11    9.85    1.57
   4   6 -10    4.11    1.25
   4   6 -10    3.74    1.21
   4   6 -10    1.24    0.84
  -4   6  10    3.21    1.02
   4   6  -9   12.29    1.90
  -4   6   9   18.52    2.42
   4   6  -9   12.90    2.02
   4   6  -9   12.36    1.68
  -4   6   9   15.23    2.16
   4   6  -8   24.12    2.67
  -4   6   8   23.75    2.60
   4   6  -8   22.63    2.63
   4   6  -8   24.01    2.36
  -4   6   8   19.75    2.36
   4   6  -7   93.51    4.99
  -4   6   7  113.19    5.46
   4   6  -7   90.97    5.20
   4   6  -7   94.63    5.27
   4   6  -7   87.43    4.25
  -4   6   7  110.17    5.48
   4   6  -6  428.36   10.74
   4   6  -6  429.33   10.39
  -4   6   6  421.69    9.99
   4   6  -6  406.13    8.83
   4   6  -6  419.22   10.74
  -4   6   6  410.02   10.29
   4   6  -6  417.22   10.80
   4   6  -5   11.81    1.74
   4   6  -5   11.42    1.82
   4   6  -5    7.55    1.41
  -4   6   5   14.03    1.83
   4   6  -5    9.55    1.38
  -4   6   5   14.80    1.93
   4   6  -5    8.38    1.30
   4   6  -4    3.03    0.98
   4   6  -4    1.56    0.50
   4   6  -4    1.04    0.52
  -4   6   4    3.24    0.78
   4   6  -4    1.70    0.84
  -4   6   4    3.41    0.88
   4   6  -3    0.81    0.51
   4  -6  -3    3.37    1.70
  -4   6   3    2.42    0.90
  -4   6   3    2.46    1.45
   4   6  -3    1.32    0.73
   4   6  -3   -0.11    0.62
   4  -6  -2   66.53    6.88
  -4   6   2   79.00    7.58
   4   6  -2   69.07    7.69
   4  -6  -1  132.32    9.83
  -4   6   1  159.23   10.55
   4   6  -1  147.86   10.99
   4  -6   0   69.59    7.08
  -4   6   0   82.71    7.59
   4   6   0   74.78    7.73
   4   6   1   61.28    7.02
   4  -6   1   71.94    7.14
   4   6   2   21.24    2.26
  -4   6  -2   17.74    2.04
   4   6   3   20.04    2.32
   4   6   3   23.11    2.44
  -4   6  -3   24.30    2.29
   4   6   4   73.24    4.42
   4   6   4   66.62    4.33
  -4   6  -4   65.56    3.85
   4   6   5   -0.17    0.67
  -4   6  -5   -1.98    0.85
   4   6   5    0.13    0.64
  -4   6  -6   21.02    2.20
   4   6   6   24.76    2.74
  -4   6  -7    0.46    0.58
  -4   6  -7   -1.52    0.98
   4   6   7   -0.47    0.76
   4   6   7    0.75    0.71
  -4   6  -8    0.93    0.67
   4   6   8    1.97    1.06
  -4   6  -8    2.52    1.05
  -4   6  -8    2.16    0.78
   4   6   8    1.28    0.68
  -4   6  -9   12.15    1.58
   4   6   9   12.92    1.94
  -4   6  -9   12.98    1.83
   4   6   9   13.46    1.97
  -4   6  -9   13.13    1.62
   4   6   9   14.15    1.96
   4   6  10   11.47    1.77
  -4   6 -10    8.38    1.25
   4   6  10   10.31    1.67
  -4   6 -10    9.20    1.47
  -4   6 -10    8.62    1.23
   4   6  10   10.74    1.60
  -4   6 -11   15.36    1.49
   4   6  11   16.26    1.77
   4   6  11   15.44    1.71
   4   6  12   -0.60    0.48
   4   7 -12   -1.09    0.50
  -4   7  12   -0.14    0.42
   4   7 -11    2.57    0.98
  -4   7  11    0.89    0.65
  -4   7  10   49.85    3.53
  -4   7  10   50.91    3.62
   4   7 -10   48.56    3.48
  -4   7   9    5.62    1.37
  -4   7   9    4.48    1.34
   4   7  -9    6.16    1.52
   4   7  -9    9.19    1.61
   4   7  -8   99.72    5.11
  -4   7   8  114.31    5.61
   4   7  -8   98.99    5.36
  -4   7   8  100.82    5.30
   4   7  -7    0.42    0.66
   4   7  -7    2.62    0.92
  -4   7   7    2.90    0.99
   4   7  -7    1.59    0.94
   4   7  -7    1.53    1.22
  -4   7   7    3.62    1.13
   4   7  -6   29.07    2.85
  -4   7   6   28.90    2.86
   4   7  -6   26.34    2.95
  -4   7   6   31.86    2.95
   4   7  -6   28.14    2.44
   4   7  -5   18.14    2.28
  -4   7   5   22.22    2.44
   4   7  -5   15.97    1.93
  -4   7   5   20.61    2.40
   4   7  -5   15.20    1.70
   4   7  -5   18.22    2.32
   4   7  -4    4.75    1.06
  -4   7   4    5.63    1.29
   4   7  -4    7.22    1.35
   4   7  -4    6.30    1.39
  -4   7   4    6.88    1.41
   4   7  -3   10.15    1.70
   4   7  -3   11.22    1.77
   4   7  -3    9.45    1.51
  -4   7   3    8.11    1.42
  -4   7   3    9.69    1.59
   4   7  -2    0.68    0.78
   4   7  -2    1.10    0.82
  -4   7   2    1.68    0.90
   4   7  -2    0.07    0.66
   4   7  -1   43.15    3.38
   4   7  -1   34.76    2.96
  -4   7   1   39.11    3.17
   4   7  -1   40.32    3.21
   4   7   0   40.78    3.31
   4   7   0   37.61    3.12
   4   7   0   45.20    3.63
  -4   7   0   43.31    3.32
   4   7   1  125.24    5.80
  -4   7  -1  119.84    5.57
  -4   7  -1  127.88    5.26
  -4   7  -2   25.13    2.62
  -4   7  -2   27.72    2.51
   4   7   2   29.48    2.90
   4   7   3    0.57    0.80
   4   7   3    1.25    0.88
  -4   7  -3   -0.17    0.62
  -4   7  -3    0.30    0.66
   4   7   4    0.96    0.87
   4   7   4    0.95    0.75
  -4   7  -4   -0.17    0.62
  -4   7  -4    1.68    0.88
   4   7   5   -0.22    0.79
  -4   7  -5   -0.01    0.69
  -4   7  -5    0.13    0.53
   4   7   5   -0.17    0.84
  -4   7  -6   17.84    2.05
   4   7   6   18.12    2.38
   4   7   6   18.51    2.36
  -4   7  -7    0.87    0.68
   4   7   7    0.66    0.91
   4   7   7    1.53    0.81
  -4   7  -8    0.86    0.70
   4   7   8    0.25    0.67
   4   7   8   -0.05    0.87
  -4   7  -9    6.07    1.07
   4   7   9    3.98    1.11
   4   7   9    4.38    1.04
  -4   7 -10    9.16    1.18
   4   7  10    9.51    1.33
   4   7  10   11.15    1.48
  -4   7 -11    6.64    0.81
   4   7  11    6.50    0.92
  -4   8  10    0.59    0.48
   4   8 -10   18.58    1.34
  -4   8   9   33.01    2.76
  -4   8   9   34.97    2.79
   4   8  -9   40.46    2.06
  -4   8   8    3.84    1.19
   4   8  -8    5.76    1.29
  -4   8   8    3.13    1.03
   4   8  -7    5.76    1.38
   4   8  -7    8.78    1.37
  -4   8   7    5.26    1.30
  -4   8   7    7.04    1.47
   4   8  -6   27.81    3.07
  -4   8   6   27.67    2.88
   4   8  -6   31.77    2.62
  -4   8   6   26.58    2.73
   4   8  -6   30.30    2.74
   4   8  -5   10.38    1.69
  -4   8   5   13.95    2.01
   4   8  -5   12.74    1.92
   4   8  -5   12.31    2.04
  -4   8   5   14.70    2.02
   4   8  -4    2.07    0.94
   4   8  -4    2.66    1.18
  -4   8   4    1.45    0.82
   4   8  -4    0.84    0.96
  -4   8   4    0.43    0.54
  -4   8   3   14.01    2.00
   4   8  -3   18.35    2.23
   4   8  -3   16.80    2.22
   4   8  -3   18.44    2.21
  -4   8   2   89.92    4.93
   4   8  -2   93.31    4.92
   4   8  -2   87.81    4.98
   4   8  -1    5.16    1.35
  -4   8   1    2.36    0.84
   4   8   0   13.77    2.05
  -4   8   0   15.35    2.14
  -4   8  -1   10.96    1.83
  -4   8  -1   13.03    1.74
   4   8   1   13.41    1.99
  -4   8  -2    0.30    0.65
  -4   8  -2    1.31    0.84
   4   8   2    0.05    0.70
   4   8   3   16.91    2.25
   4   8   3   13.63    2.03
  -4   8  -3   16.23    2.09
  -4   8  -3   18.87    2.09
  -4   8  -4    2.44    0.95
  -4   8  -4    2.65    1.01
   4   8   4    3.59    1.12
   4   8   5   29.08    2.83
  -4   8  -5   31.49    2.67
   4   8   5   28.70    3.05
  -4   8  -6   33.20    2.64
   4   8   6   37.63    3.29
   4   8   6   41.66    3.23
  -4   8  -7    2.62    0.88
   4   8   7    1.48    0.87
   4   8   7    2.40    0.92
   4   8   8    1.14    0.75
  -4   8  -8   -0.23    0.54
   4   8   8    0.26    0.60
  -4   8  -9    8.37    1.09
   4   8   9    6.96    1.15
   4   8   9    7.18    1.11
  -4   9   8    0.32    0.54
  -4   9   8    1.82    0.65
  -4   9   7    9.08    1.56
  -4   9   7   12.10    1.56
  -4   9   6    3.26    1.13
   4   9  -6   21.59    2.29
  -4   9   5   11.84    1.88
   4   9  -5   10.38    1.84
   4   9  -4   10.24    1.73
  -4   9   4   12.46    1.84
   4   9  -3    6.12    1.45
  -4   9   3    6.45    1.42
  -4   9   2   16.33    2.14
   4   9  -2   14.41    2.11
  -4   9   1    0.14    0.61
   4   9  -1    0.33    0.77
  -4   9   0    9.70    1.70
   4   9   0    8.84    1.67
   4   9   1   13.67    2.05
  -4   9  -1   14.79    1.94
  -4   9  -1   17.08    1.90
  -4   9  -2   -0.19    0.56
  -4   9  -2    0.19    0.50
   4   9   2    0.97    0.94
   4   9   2   -0.98    0.98
  -4   9  -3   25.62    2.34
  -4   9  -3   28.63    2.48
   4   9   3   30.32    2.88
   4   9   3   28.59    2.71
  -4   9  -4   10.44    1.53
   4   9   4   11.04    1.77
   4   9   4   11.26    1.74
  -4   9  -5   -0.13    0.63
   4   9   5    0.55    0.58
   4   9   5    1.27    0.73
  -4   9  -6   20.59    1.81
   4   9   6   23.45    2.23
   4   9   6   21.30    2.06
  -4   9  -7   -0.88    0.55
   4   9   7    0.02    0.47
   4   9   7    0.09    0.46
  -4  10   5    3.28    0.93
  -4  10   4    1.18    0.60
   4  10  -4    0.50    0.61
  -4  10   3    7.49    1.38
   4  10  -3    4.85    1.17
  -4  10   2    3.80    1.11
   4  10  -2    4.13    1.08
  -4  10   1   21.30    2.13
   4  10  -1   14.36    1.82
  -4  10   0   12.97    1.68
   4  10   0   13.51    1.68
  -4  10  -1    6.27    1.08
   4  10   1    6.60    1.23
  -4  10  -2    1.22    0.59
  -4  10  -2    2.25    0.71
   4  10   2    0.50    0.55
  -4  10  -3    0.87    0.44
   4  10   3    0.84    0.57
   4  10   3    0.44    0.58
   4  10   4    5.22    0.94
   5   0 -16   50.57    2.64
   5   0 -16   51.95    2.53
  -5   0  15    0.58    0.56
   5   0 -15   -0.30    0.50
   5   0 -14   25.59    2.46
   5   0 -13    0.63    0.73
   5   0 -12   44.12    3.36
   5   0 -11    0.50    0.62
   5   0 -11    0.05    0.51
   5   0 -10  199.39    7.35
   5   0 -10  183.93    6.51
   5   0  -9    1.30    1.48
   5   0  -8   51.93    6.81
   5   0  -8   51.18    5.05
   5   0  -8   54.12    5.80
  -5   0   7    0.16    0.62
   5   0  -7    0.91    0.51
   5   0  -7    0.34    0.55
   5   0  -6   11.45    2.40
  -5   0   6   11.72    2.10
   5   0  -6   11.23    2.09
  -5   0   5    0.19    0.47
   5   0  -5    0.18    0.49
   5   0  -5    1.04    1.02
  -5   0   5    0.32    0.47
   5   0  -4    0.86    0.68
  -5   0   4    1.02    0.49
   5   0  -4    1.46    1.14
   5   0  -3   -0.40    0.51
   5   0  -3    0.44    0.68
   5   0  -2  218.11    9.11
  -5   0   2  221.09    7.37
   5   0  -1    4.73    1.46
  -5   0   1    3.58    1.15
  -5   0   0 1039.84   19.23
  -5   0  -1   12.62    2.49
   5   0   1   20.93    2.07
   5   0   2 1345.52   20.27
  -5   0  -2 1305.00   24.32
   5   0   2 1265.93   20.89
   5   0   3    1.64    1.04
  -5   0  -3    1.10    1.10
   5   0   3    1.85    1.26
   5   0   4 2583.11   35.40
  -5   0  -4 2379.39   36.72
   5   0   5    2.35    1.44
  -5   0  -5    0.16    0.86
  -5   0  -6  285.97   14.25
   5   0   6  323.76   15.02
   5   0   7    0.04    1.14
  -5   0  -7    0.15    0.75
   5   0   8  431.11   20.03
  -5   0  -8  451.47    9.91
   5   0   8  483.83   10.56
  -5   0  -9    0.06    0.47
   5   0   9    0.26    0.53
  -5   0 -10   11.73    1.69
   5   0  10   13.74    1.93
  -5   0 -11    1.14    0.66
   5   0  11    0.08    0.50
  -5   0 -12   34.02    2.65
   5   0  12   33.23    2.80
  -5   0 -13    0.33    0.42
  -5   0 -14    0.34    0.31
   5  -1 -16   11.82    1.30
   5   1 -15    7.47    1.20
   5  -1 -15    6.58    1.17
  -5   1  15    6.96    1.11
   5   1 -14   33.48    2.78
   5  -1 -14   40.77    3.08
   5   1 -13    4.26    1.06
   5  -1 -13    6.50    1.31
   5   1 -13    5.95    1.16
   5   1 -12   15.06    2.06
   5  -1 -12   12.10    1.82
   5  -1 -12   12.82    1.97
   5  -1 -11   43.88    3.56
   5   1 -11   46.85    3.40
   5  -1 -11   42.55    3.24
   5   1 -10   13.74    2.00
   5  -1 -10   10.10    1.71
   5   1 -10   11.92    1.69
   5  -1 -10    9.82    1.53
   5   1  -9    1.22    0.97
   5   1  -9    0.57    1.15
   5  -1  -9    0.63    1.07
   5   1  -8  175.39    9.93
   5   1  -8  178.34   12.08
   5  -1  -8  155.95    9.92
  -5   1   8  170.53    9.94
   5   1  -7   26.38    4.41
   5   1  -7   29.43    4.18
  -5   1   7   31.41    3.95
   5   1  -7   25.78    3.58
   5   1  -6  231.21   11.83
  -5   1   6  226.83    9.49
  -5   1   6  224.93    9.06
   5   1  -6  230.34   10.20
   5  -1  -6  218.61    8.64
   5   1  -6  240.47   11.48
  -5   1   5    0.90    0.66
   5   1  -5    1.48    0.86
   5  -1  -5    1.34    0.82
   5  -1  -5    1.37    1.10
   5   1  -5    3.68    1.36
   5   1  -5    2.26    1.25
  -5   1   5    1.68    0.74
   5  -1  -4  460.36   11.47
   5   1  -4  466.06   12.78
   5   1  -4  453.42   14.29
   5  -1  -4  428.40   12.96
   5   1  -4  435.96   12.59
   5   1  -3   41.76    3.85
  -5   1   3   42.88    3.47
  -5  -1   3   47.99    2.84
   5   1  -3   45.25    4.52
   5  -1  -3   46.42    4.14
   5   1  -2    5.50    1.65
   5   1  -2    4.71    1.33
  -5  -1   2    8.74    1.39
  -5   1   2    6.39    1.42
   5  -1  -2    6.63    1.58
  -5  -1   1  147.60    6.76
  -5   1   1  142.42    6.71
   5  -1  -1  141.29    7.03
  -5   1   0    1.43    0.95
  -5  -1   0    2.50    1.03
   5  -1   0    0.63    0.84
  -5   1  -1  225.81    9.66
  -5   1  -1  223.71    9.52
  -5  -1  -1  224.29    9.59
   5   1   1  242.12    6.87
   5   1   1  227.85    9.31
  -5   1  -2  895.27   20.29
  -5  -1  -2  861.90   19.75
   5   1   2  849.94   18.13
   5  -1   3  215.84    9.95
  -5   1  -3  223.51   10.75
  -5  -1  -3  229.02   10.69
   5   1   3  224.08    9.42
   5   1   3  250.63    9.38
   5  -1   3  210.07    8.12
   5   1   4   66.73    5.63
  -5   1  -4   64.13    6.09
  -5  -1  -4   59.44    5.82
   5  -1   4   62.84    4.37
  -5   1  -5  218.92   11.75
   5  -1   5  200.03   11.39
  -5  -1  -5  215.22   11.62
  -5   1  -6   22.44    3.93
  -5  -1  -6   17.01    3.46
   5   1   6   19.57    3.67
   5  -1   6   13.45    3.08
  -5  -1  -7  107.52    9.17
   5  -1   7  109.30    9.36
  -5   1  -8    3.36    0.90
  -5  -1  -8    1.27    0.60
   5   1   8    1.97    0.78
  -5   1  -9   76.12    4.27
  -5  -1  -9   74.14    4.01
   5   1   9   64.65    4.07
   5   1  10   84.35    4.70
  -5   1 -10   72.35    4.23
  -5  -1 -10   80.64    4.28
  -5   1 -11   42.51    3.21
  -5  -1 -11   44.22    3.08
   5   1  11   42.25    3.30
  -5   1 -12    4.41    1.05
  -5  -1 -12    4.32    0.97
   5   1  12    6.06    1.29
  -5   1 -13    3.66    0.87
  -5  -1 -13    3.69    0.76
   5   1  13    4.76    0.98
  -5   1 -14    1.66    0.49
   5   1  14    0.82    0.36
   5   2 -15    1.49    0.60
   5  -2 -15    1.33    0.61
  -5   2  15    1.00    0.53
   5   2 -14   96.18    4.54
   5  -2 -14   95.60    4.55
   5   2 -14   88.86    4.03
   5   2 -13   10.59    1.65
   5  -2 -13   13.98    1.88
   5   2 -13   12.56    1.68
   5  -2 -12   60.35    4.04
   5   2 -12   56.65    3.82
   5  -2 -12   60.44    3.90
   5   2 -11   35.47    2.98
   5  -2 -11   37.82    3.11
   5  -2 -11   35.34    3.15
   5   2 -10  125.99    5.40
   5   2 -10  109.21    5.09
   5  -2 -10  116.10    5.27
   5  -2 -10  116.50    5.73
   5   2 -10  129.28    5.82
   5   2  -9    0.66    0.87
  -5   2   9   -0.96    1.39
   5  -2  -9    0.67    0.57
   5   2  -8   47.06    6.13
   5   2  -8   49.26    5.60
  -5   2   8   51.61    5.76
   5   2  -7    3.62    1.52
   5   2  -7    2.57    1.25
  -5   2   7    3.16    1.49
  -5   2   7    2.94    1.28
  -5   2   6   41.49    4.40
   5   2  -6   40.21    4.63
  -5   2   5   49.62    4.42
   5   2  -5   41.07    4.40
   5   2  -5   42.10    4.81
   5  -2  -4 1062.46   21.85
   5   2  -4  987.32   20.48
   5   2  -3 1130.76   17.02
   5   2  -3 1108.32   20.93
   5   2  -2  133.96    7.19
  -5   2   2  152.97    7.31
  -5  -2   2  155.93    5.39
   5  -2  -2  158.73    7.47
   5  -2  -2  158.19    8.32
  -5  -2   2  155.42    6.56
   5   2  -1    6.31    1.71
   5   2  -1    5.47    1.68
  -5   2   1    4.92    1.36
   5  -2  -1    5.34    1.46
   5  -2  -1    5.25    1.65
  -5  -2   1    6.34    1.42
   5  -2   0  146.18    7.05
  -5   2   0  149.51    7.71
   5  -2   0  140.04    8.12
  -5  -2   0  158.06    7.73
   5   2   0  173.78    7.27
   5   2   0  157.05    8.21
   5   2   1  134.78    7.68
  -5   2  -1  163.59    8.43
   5  -2   1  164.40    9.01
   5   2   1  145.96    6.50
   5  -2   1  172.18    7.44
  -5  -2  -1  155.34    8.05
   5   2   2   12.83    2.42
  -5   2  -2   20.87    3.22
   5   2   2   15.48    2.27
   5  -2   2   17.41    3.14
  -5  -2  -2   18.30    2.88
   5   2   3   91.57    5.26
  -5   2  -3  106.41    7.64
   5  -2   3  100.79    7.87
  -5  -2  -3   93.18    6.88
  -5  -2  -4    0.79    0.66
  -5   2  -4    0.76    0.74
   5  -2   4   -0.94    1.24
   5  -2   5   51.10    5.99
  -5  -2  -5   33.36    4.68
  -5  -2  -6  415.17   17.29
   5  -2   6  424.38   18.39
  -5  -2  -7    5.90    2.19
   5  -2   7   13.64    3.46
  -5   2  -8  128.51    5.61
   5   2   8  134.53    5.74
  -5   2  -9    0.62    0.67
   5   2   9    0.95    0.75
   5   2  10   13.04    1.90
  -5   2 -10   14.76    1.99
  -5   2 -11   16.82    2.09
   5   2  11   15.77    2.04
  -5   2 -12   18.15    2.04
   5   2  12   18.18    2.08
  -5   2 -13    0.10    0.45
   5   2  13    0.40    0.49
  -5   2 -14    2.05    0.59
   5  -2  14    1.95    0.53
   5   2  14    2.73    0.64
   5  -3 -15    0.18    0.39
   5   3 -15    0.96    0.47
  -5   3  15    0.28    0.40
   5   3 -14   13.43    1.60
   5  -3 -14   14.01    1.64
   5   3 -14   11.74    1.48
   5   3 -14   11.31    1.31
   5   3 -13    2.52    0.73
   5  -3 -13    2.84    0.83
   5   3 -13    2.73    0.91
   5   3 -12   24.66    2.50
   5  -3 -12   24.05    2.46
   5  -3 -12   21.54    2.36
   5   3 -12   22.11    2.33
  -5   3  12   22.90    2.46
   5   3 -11    7.58    1.39
   5   3 -11    6.52    1.51
   5   3 -11    6.21    1.31
   5  -3 -11    5.69    1.26
  -5   3  11    5.16    1.28
   5  -3 -11    5.92    1.31
   5   3 -10   29.84    2.80
   5  -3 -10   25.51    2.77
   5  -3 -10   26.57    2.57
  -5   3  10   27.84    2.66
   5   3 -10   28.69    2.76
  -5   3   9  175.09    6.39
   5   3  -9  184.39    6.77
   5   3  -9  179.13    6.59
   5  -3  -9  187.33    6.52
  -5   3   8   56.70    6.27
   5   3  -8   53.61    6.20
  -5   3   7   97.23    7.72
   5   3  -7   90.23    7.79
   5   3  -6   66.03    6.35
  -5   3   6   54.14    5.44
   5   3  -6   60.47    6.12
   5   3  -5  152.37    8.73
  -5   3   5  140.60    8.15
   5   3  -5  147.64    9.10
   5  -3  -4   17.74    2.94
   5   3  -4   25.35    3.25
   5   3  -4   24.71    3.37
   5   3  -4   24.11    3.51
   5   3  -3  304.80   10.07
   5   3  -3  302.47   11.81
   5   3  -3  304.51   11.98
  -5   3   2 1359.08   24.01
   5  -3  -2 1388.18   23.05
   5   3  -2 1347.50   24.96
   5   3  -2 1366.20   24.64
   5   3  -1  284.57   11.14
  -5   3   1  251.49   10.49
   5  -3  -1  226.75   10.21
   5  -3  -1  243.80    9.38
  -5  -3   1  292.89   10.25
   5   3  -1  288.29   11.11
   5   3  -1  280.06   11.47
   5   3   0  114.63    7.04
  -5   3   0  133.36    7.88
   5  -3   0  126.14    7.79
   5   3   0  113.85    6.79
  -5  -3   0  132.54    7.39
   5  -3   0  140.92    7.09
   5   3   0  111.69    7.19
   5   3   1   33.38    3.95
   5  -3   1   23.43    2.79
   5  -3   1   25.11    3.70
   5   3   1   29.49    3.43
  -5   3  -1   27.31    3.73
  -5  -3  -1   29.66    3.67
  -5   3  -2   15.60    2.93
   5   3   2   17.51    2.62
  -5  -3  -2   14.70    2.85
   5  -3   2   10.67    2.61
  -5   3  -3  195.83   10.79
   5   3   3  211.93    9.25
   5  -3   3  198.67   10.92
  -5  -3  -3  178.41    9.90
  -5   3  -4  172.20   10.54
   5  -3   4  160.81   10.43
  -5  -3  -4  161.12    9.84
  -5   3  -5  231.85   12.82
   5  -3   5  244.31   13.46
   5  -3   5  250.24   13.81
  -5  -3  -5  219.22   12.13
  -5   3  -6   11.49    2.97
  -5  -3  -6   16.88    3.56
   5  -3   6    9.40    2.88
   5   3   7   44.63    3.57
  -5   3  -7   39.84    3.14
   5   3   7   37.10    3.07
   5   3   7   38.73    3.10
   5   3   8   71.24    4.62
  -5   3  -8   67.28    4.21
   5   3   8   57.88    3.96
   5   3   9    7.58    1.61
  -5   3  -9    4.32    1.21
   5   3   9    6.61    1.44
  -5   3 -10   55.52    3.86
   5   3  10   53.41    3.80
   5   3  11    3.19    1.14
  -5   3 -11    1.38    0.81
  -5   3 -12    1.47    0.74
   5   3  12    1.03    0.78
   5  -3  13    3.94    0.82
   5   3  13    2.34    0.72
  -5   3 -13    2.66    0.80
  -5   4  15    1.88    0.58
   5   4 -14    9.95    1.39
   5   4 -14    8.12    1.01
  -5   4  14   10.94    1.43
   5   4 -13    0.36    0.48
  -5   4  13    1.21    0.70
   5  -4 -12    9.17    1.54
   5   4 -12   10.26    1.49
   5   4 -12    8.79    1.48
  -5   4  12    8.57    1.56
   5  -4 -11   28.14    2.72
   5   4 -11   23.50    2.49
   5   4 -11   23.79    2.19
  -5   4  11   28.72    2.78
   5   4 -11   24.64    2.67
   5  -4 -10  172.98    6.93
   5   4 -10  169.60    5.88
   5   4 -10  167.79    6.73
  -5   4  10  175.81    6.76
   5   4 -10  173.04    6.78
   5   4  -9    1.42    0.85
   5   4  -9    1.32    0.82
  -5   4   9    2.50    0.94
   5   4  -8    6.46    1.31
   5   4  -8    5.85    1.41
   5   4  -8    3.99    0.69
  -5   4   8    7.44    1.38
   5   4  -7    4.91    1.83
  -5   4   7    2.89    1.56
   5   4  -7    2.92    1.74
   5   4  -6    4.06    1.82
  -5   4   6    4.39    1.97
   5   4  -6    4.23    2.14
  -5   4   5   25.13    3.94
   5   4  -5   26.83    4.15
   5   4  -5   24.39    4.01
   5  -4  -4   76.61    6.32
  -5   4   4   77.06    6.51
   5   4  -3    7.41    2.05
   5  -4  -3    6.00    1.93
   5   4  -2    6.05    1.84
   5   4  -2    6.60    2.09
   5  -4  -2    3.18    1.54
   5   4  -1    7.53    1.98
   5   4  -1    4.37    1.58
   5  -4  -1   10.09    2.08
   5  -4  -1    7.66    2.10
  -5   4   0  202.27   10.46
   5   4   0  198.61   10.16
  -5  -4   0  209.82    9.90
   5   4   0  221.19   10.36
  -5   4  -1  259.30   12.08
   5  -4   1  232.82   11.40
   5   4   1  219.39   10.67
  -5  -4  -1  237.06   10.97
  -5  -4  -2  159.93    9.42
  -5   4  -2  144.86    9.35
   5  -4   2  135.62    9.03
   5   4   2  166.05    9.34
  -5   4  -3   50.15    5.75
   5   4   3   42.02    4.87
   5  -4   3   46.50    5.54
  -5  -4  -3   38.61    4.89
  -5   4  -4   66.24    6.78
   5   4   4   83.20    6.83
   5  -4   4   60.33    6.73
  -5  -4  -4   64.47    6.66
  -5  -4  -5    9.82    2.69
   5  -4   5    8.69    2.74
   5   4   6   26.29    2.81
  -5   4  -6   29.75    2.77
   5   4   6   26.62    2.62
   5   4   6   28.27    2.65
   5   4   7   25.81    2.88
  -5   4  -7   25.34    2.64
   5   4   7   23.31    2.55
   5   4   7   25.41    2.69
   5   4   8    8.00    1.77
  -5   4  -8    9.14    1.65
   5   4   8    7.59    1.58
   5   4   9   30.90    3.05
  -5   4  -9   26.01    2.73
   5   4   9   28.25    2.80
  -5   4 -10   61.01    3.98
   5   4  10   62.59    4.05
  -5   4 -11   37.43    3.04
   5   4  11   36.69    2.98
  -5   4 -12   19.11    1.93
   5   4  12   17.94    1.92
  -5   4 -13    6.14    0.97
   5   4  13    4.01    0.95
   5   5 -14   11.91    1.39
  -5   5  14   14.07    1.43
  -5   5  13    6.19    1.16
   5   5 -13    4.53    1.08
   5   5 -13    4.80    0.94
  -5   5  13    6.00    1.18
   5  -5 -12   18.59    1.94
  -5   5  12   19.69    2.23
   5   5 -12   19.58    2.21
   5   5 -12   18.35    1.75
   5   5 -11    6.10    1.45
   5   5 -11    3.92    0.97
   5   5 -11    2.52    0.87
   5  -5 -11    3.80    1.04
  -5   5  11    4.68    1.20
   5  -5 -10   15.06    2.03
   5   5 -10   12.09    1.88
   5   5 -10   14.41    1.67
  -5   5  10   15.41    2.07
   5   5 -10   13.08    1.96
   5   5  -9   65.14    4.17
   5   5  -9   63.51    4.27
   5   5  -9   55.13    3.95
   5   5  -9   60.77    3.47
  -5   5   9   57.62    3.95
   5   5  -8   19.38    2.38
   5   5  -8   18.64    2.35
   5   5  -8   16.77    2.17
   5   5  -8   21.45    1.99
  -5   5   8   14.17    1.97
   5   5  -7   92.39    4.84
   5   5  -7   95.14    5.17
  -5   5   7   96.82    4.71
   5   5  -7   96.44    5.11
   5   5  -7   89.19    4.11
  -5   5   7   91.55    4.77
   5   5  -6   79.51    4.65
   5   5  -6   80.63    4.45
   5   5  -6   85.41    4.52
  -5   5   6   61.97    3.67
   5   5  -6   74.82    3.59
   5   5  -6   87.87    4.68
  -5   5   6   58.80    3.76
   5   5  -5  104.05    8.98
  -5   5   5  106.75    8.97
   5  -5  -4   25.61    4.05
  -5   5   4   26.73    4.32
   5   5  -4   31.37    4.88
   5  -5  -3   49.56    5.64
  -5   5   3   56.59    6.10
   5   5  -3   54.85    6.19
   5  -5  -2   64.69    6.34
   5   5  -2   85.93    7.45
   5  -5  -1   44.47    5.33
   5   5  -1   43.44    5.57
   5   5   0   30.17    4.49
   5  -5   0   34.40    4.73
   5   5   1   96.51    8.08
   5  -5   1   84.35    7.48
  -5   5  -2   46.72    5.68
   5  -5   2   45.06    5.75
   5   5   2   43.23    5.50
  -5  -5  -2   44.13    5.38
   5  -5   3   15.23    3.56
   5   5   3   24.94    4.25
  -5  -5  -3   18.53    3.75
   5   5   4   52.51    6.12
  -5   5  -4   62.30    3.97
   5   5   5    1.53    0.97
  -5   5  -5    4.41    1.21
   5   5   6    6.88    1.59
  -5   5  -6    6.58    1.45
   5   5   6    5.07    1.22
   5   5   6    5.30    1.34
   5   5   7    1.16    0.72
  -5   5  -7    0.83    0.75
   5   5   7   -0.11    0.65
   5   5   7    1.21    0.77
  -5   5  -8    1.66    0.81
   5   5   8    1.21    0.65
   5   5   8    2.49    0.90
   5   5   9    2.91    1.14
   5   5   9    2.36    0.97
  -5   5  -9    3.49    1.12
  -5   5 -10    1.10    0.68
   5   5  10    1.14    0.76
  -5   5 -11    7.97    1.17
  -5   5 -11    7.30    1.29
   5   5  11    7.26    1.31
   5   5  12    0.28    0.48
  -5   5 -12   -0.19    0.37
  -5   5 -12    0.37    0.47
   5   5  12    1.48    0.68
   5   6 -13    1.02    0.57
  -5   6  13    0.66    0.41
  -5   6  12    0.18    0.54
   5   6 -12   -0.03    0.56
   5   6 -12    0.30    0.48
  -5   6  12    0.69    0.59
  -5   6  11    7.59    1.52
   5   6 -11    8.85    1.57
   5   6 -11    5.68    1.13
  -5   6  11    9.42    1.46
   5  -6 -10    9.79    1.56
   5   6 -10   11.98    1.87
   5   6 -10   14.67    1.74
  -5   6  10   12.16    1.82
   5   6 -10   13.04    1.93
   5   6  -9    8.28    1.60
   5  -6  -9    9.78    1.64
   5   6  -9    9.41    1.43
   5   6  -9    8.95    1.68
  -5   6   9    8.43    1.56
   5   6  -8    6.69    1.44
  -5   6   8    9.39    1.69
   5   6  -8    8.85    1.47
   5   6  -8    6.92    1.50
  -5   6   8    7.65    1.49
   5   6  -7    3.41    1.22
   5   6  -7    4.76    1.39
  -5   6   7    6.48    1.40
   5   6  -7    3.99    1.38
   5   6  -7    3.87    1.10
   5   6  -7    2.83    1.02
  -5   6   7    5.68    1.39
   5   6  -6   81.14    4.77
   5   6  -6   83.39    4.98
  -5   6   6   93.52    4.75
   5   6  -6   79.39    4.66
  -5   6   6   92.83    4.95
   5   6  -5   23.20    2.50
   5   6  -5   23.09    2.57
  -5   6   5   16.62    1.99
   5   6  -5   20.57    2.05
   5   6  -5   25.19    2.56
   5   6  -5   12.32    1.45
  -5   6   5   17.83    2.15
   5   6  -4  160.78    6.41
   5   6  -4  164.58    6.68
  -5   6   4  163.01    5.99
   5   6  -4  145.78    5.40
   5   6  -4  173.92    6.83
   5   6  -4  161.55    6.27
  -5   6   4  171.39    6.47
   5   6  -3    6.91    1.45
  -5   6   3   10.73    1.56
   5   6  -3    5.62    1.26
   5   6  -3    8.36    1.46
   5   6  -3    6.57    1.37
   5   6  -3    9.55    1.30
  -5   6   3   10.47    1.64
   5   6  -2   43.82    3.35
   5   6  -2   41.02    3.06
   5   6  -2   44.62    3.38
   5   6  -2   33.91    2.74
  -5   6   2   43.66    3.15
   5   6  -2   39.36    2.05
   5   6  -1   20.19    2.14
   5   6  -1   22.69    2.42
   5   6  -1   20.20    2.15
  -5   6   1   17.25    2.06
   5   6   0   34.77    2.85
   5   6   0   31.86    2.90
  -5   6   0   31.86    2.71
   5   6   1   46.04    3.65
  -5   6  -1   52.68    3.57
  -5   6  -1   54.42    3.21
   5   6   1   47.99    3.41
  -5   6  -2    1.99    0.79
  -5   6  -2    1.75    0.65
   5   6   2    2.99    1.12
  -5   6  -3    2.50    0.89
   5   6   3    3.04    1.05
  -5   6  -3    1.41    0.50
   5   6   3    3.37    1.10
  -5   6  -4   40.59    3.02
  -5   6  -4   38.29    3.28
   5   6   4   41.50    3.32
   5   6   5    1.08    0.95
   5   6   5    0.78    0.75
  -5   6  -5    1.82    0.86
   5   6   6   36.21    3.33
  -5   6  -6   34.29    3.21
   5   6   6   39.43    3.34
  -5   6  -7   10.74    1.54
   5   6   7   11.18    1.92
  -5   6  -7   11.35    1.84
   5   6   7    9.51    1.82
  -5   6  -8   12.31    1.75
   5   6   8   17.18    2.28
  -5   6  -8   17.38    2.24
   5   6   8   18.64    2.28
  -5   6  -9    5.98    1.34
  -5   6  -9    5.94    1.15
   5   6   9    3.91    1.21
   5   6   9    4.01    1.17
   5   6   9    5.04    1.12
   5   6  10    1.61    0.76
  -5   6 -10    0.55    0.51
  -5   6 -10    0.55    0.54
   5   6  10    0.27    0.62
  -5   6 -11    0.85    0.47
  -5   6 -11    0.31    0.36
   5   6  11   -0.19    0.52
   5   6  11   -0.34    0.46
  -5   7  12   22.12    1.87
   5   7 -11    0.05    0.53
  -5   7  11   -0.26    0.54
   5   7 -10    9.58    1.63
  -5   7  10    9.26    1.54
   5   7 -10   12.24    1.77
   5   7  -9    1.79    0.91
  -5   7   9    0.57    0.67
   5   7  -9    2.11    1.03
  -5   7   9    0.76    0.69
   5   7  -8    1.28    0.74
  -5   7   8    2.26    0.94
   5   7  -8    3.70    1.14
  -5   7   8    2.63    0.87
   5   7  -7   -0.18    0.89
  -5   7   7    0.23    0.75
   5   7  -7    0.79    0.90
   5   7  -7    0.25    0.59
  -5   7   7   -0.13    0.66
   5   7  -6    5.74    1.35
  -5   7   6    6.39    1.40
   5   7  -6    4.13    1.31
   5   7  -6    3.52    1.31
  -5   7   6    5.33    1.37
   5   7  -5   -0.85    0.84
  -5   7   5    0.80    0.77
   5   7  -5    1.28    0.84
  -5   7   5   -0.25    0.71
   5   7  -5   -1.10    0.91
   5   7  -4    2.37    0.90
   5   7  -4    4.59    1.19
  -5   7   4    2.03    0.79
   5   7  -4    3.00    1.00
  -5   7   4    1.80    0.81
   5   7  -3   -0.21    0.75
   5   7  -3    1.29    0.91
  -5   7   3   -0.35    0.74
   5   7  -3   -0.68    0.86
  -5   7   3    0.55    0.56
   5   7  -2  167.52    6.74
  -5   7   2  154.45    6.14
   5   7  -2  149.78    5.87
   5   7  -2  162.33    6.46
  -5   7   2  165.44    6.59
   5   7  -1   24.01    2.62
  -5   7   1   19.90    2.28
   5   7  -1   23.22    2.47
   5   7   0  309.27    9.19
   5   7   0  283.70    8.36
  -5   7   0  286.90    8.51
   5   7   0  298.10    8.78
   5   7   1    0.17    0.58
  -5   7  -1    0.75    0.73
  -5   7  -1    0.60    0.69
   5   7   1    2.65    1.17
   5   7   2   15.01    2.14
  -5   7  -2   18.68    2.27
  -5   7  -2   21.58    2.14
   5   7   2   14.69    2.11
   5   7   3    6.67    1.48
  -5   7  -3    7.94    1.44
  -5   7  -3    6.81    1.56
   5   7   3    7.62    1.50
  -5   7  -4    0.69    0.66
   5   7   4    1.24    0.81
  -5   7  -4    0.55    0.58
   5   7   4    1.99    0.94
   5   7   5   32.61    3.04
  -5   7  -5   31.76    2.99
  -5   7  -5   34.76    2.90
   5   7   5   25.71    3.08
  -5   7  -6    0.90    0.67
   5   7   6    0.82    0.82
  -5   7  -6    1.09    0.62
  -5   7  -7    6.34    1.22
   5   7   7    6.23    1.46
   5   7   7    6.07    1.37
  -5   7  -8    8.05    1.34
   5   7   8    7.30    1.49
   5   7   8    9.09    1.47
  -5   7  -9    1.30    0.64
   5   7   9    0.26    0.57
   5   7   9    0.59    0.65
  -5   7 -10   -0.34    0.46
   5   7  10    0.79    0.54
  -5   8  10    2.21    0.76
   5   8 -10   33.30    1.29
  -5   8   9    1.04    0.62
  -5   8   9    2.78    0.89
   5   8  -8    8.28    1.50
  -5   8   8    9.23    1.60
  -5   8   8    9.57    1.56
  -5   8   7   13.11    1.83
  -5   8   7   12.77    1.86
   5   8  -7   13.91    1.84
   5   8  -6    0.54    0.74
  -5   8   6    1.13    0.70
  -5   8   6    0.48    0.62
   5   8  -5   13.72    2.01
   5   8  -5   14.77    2.14
  -5   8   5   16.96    2.15
  -5   8   5   15.99    2.08
   5   8  -5   20.61    2.36
   5   8  -4   -1.06    0.80
  -5   8   4    0.08    0.73
   5   8  -4   -0.28    0.79
  -5   8   4   -0.06    0.54
   5   8  -3   14.80    2.05
  -5   8   3   15.97    2.10
  -5   8   3   15.63    2.11
   5   8  -3   12.41    1.91
   5   8  -2    4.22    1.19
  -5   8   2    4.40    1.23
   5   8  -2    3.06    1.17
   5   8  -1    0.74    0.57
  -5   8   1   -0.20    0.65
   5   8  -1    1.46    0.98
   5   8   0   -0.24    0.76
  -5   8   0    0.18    0.57
   5   8   0   -0.75    0.88
  -5   8  -1   -0.30    0.68
  -5   8  -1    0.23    0.65
   5   8   1    1.02    0.82
   5   8   1    0.12    0.76
   5   8   2   21.40    2.44
  -5   8  -2   17.80    2.24
  -5   8  -2   18.72    1.99
   5   8   2   19.12    2.41
  -5   8  -3    0.61    0.58
   5   8   3    0.74    0.88
  -5   8  -3    0.77    0.66
   5   8   3    1.00    0.89
  -5   8  -4   17.36    2.07
  -5   8  -4   17.75    1.95
   5   8   4   20.17    2.51
   5   8   4   21.75    2.47
  -5   8  -5   14.88    1.81
  -5   8  -5   14.45    1.76
   5   8   5   11.61    1.98
   5   8   5   12.00    1.84
  -5   8  -6   53.37    3.15
   5   8   6   62.00    3.98
   5   8   6   61.97    3.73
  -5   8  -7   -0.01    0.57
   5   8   7   -0.01    0.58
   5   8   7    0.33    0.68
  -5   8  -8   10.97    1.21
   5   8   8   10.05    1.50
   5   8   8   10.42    1.37
  -5   8  -9   -0.18    0.35
   5   8   9   -0.05    0.38
  -5   9   8    4.41    0.92
  -5   9   8    4.31    0.91
  -5   9   7   25.00    2.30
  -5   9   7   28.97    2.30
   5   9  -6    9.18    1.36
  -5   9   6   10.09    1.64
  -5   9   6    8.49    1.32
   5   9  -5    5.63    1.12
  -5   9   5    5.93    1.30
   5   9  -5    6.11    1.36
   5   9  -4   -0.10    0.57
  -5   9   4    0.26    0.64
   5   9  -4    0.53    0.84
   5   9  -3   24.95    2.61
  -5   9   3   28.64    2.74
  -5   9   2    0.74    0.68
   5   9  -2    1.19    0.72
  -5   9   1   16.79    2.18
   5   9  -1   15.15    2.05
  -5   9   0    2.35    0.88
   5   9   0    2.03    0.88
  -5   9  -1    5.51    1.23
   5   9   1    5.54    1.23
   5   9   2   24.23    2.43
  -5   9  -2   17.89    2.04
  -5   9  -2   23.08    2.06
   5   9   2   23.57    2.44
  -5   9  -3    8.39    1.26
  -5   9  -3    6.84    1.20
   5   9   3    8.17    1.46
   5   9   3    7.95    1.47
  -5   9  -4    5.89    1.03
  -5   9  -4    4.37    0.93
   5   9   4    5.06    1.21
   5   9   4    8.12    1.45
  -5   9  -5    5.22    0.99
   5   9   5    5.19    1.30
   5   9   5    5.65    1.14
  -5   9  -6   -0.07    0.44
   5   9   6    0.29    0.57
   5   9   6    1.06    0.64
  -5  10   5    9.91    1.35
  -5  10   4    9.50    1.41
  -5  10   3   13.05    1.65
   5  10  -3   10.65    1.49
  -5  10   2    0.61    0.54
   5  10  -2   -0.14    0.57
  -5  10   1    0.74    0.57
   5  10  -1    0.13    0.63
  -5  10   0    9.32    1.34
   5  10   0    8.25    1.36
   5  10   1    9.75    1.39
  -5  10  -1   10.21    1.31
  -5  10  -2    0.56    0.39
   5  10   2    1.47    0.55
   5  10   3   12.68    1.40
   6   0 -16    0.78    0.39
   6   0 -15    0.33    0.49
  -6   0  15    0.76    0.43
   6   0 -14  118.56    5.14
   6   0 -13    1.10    0.85
   6   0 -12  278.63    8.35
   6   0 -11    0.32    0.52
   6   0 -11    0.23    0.57
   6   0 -10   49.22    3.48
   6   0 -10   55.32    3.98
   6   0  -9    1.21    1.54
   6   0  -9   -0.01    0.56
   6   0  -8   53.32    6.92
   6   0  -8   50.12    6.04
   6   0  -7   -0.06    0.54
   6   0  -7   -0.34    0.83
   6   0  -7    0.53    0.75
   6   0  -6  528.61   17.60
   6   0  -6  532.79   15.43
   6   0  -5    1.42    1.23
   6   0  -5    1.21    0.80
   6   0  -4   21.94    2.99
   6   0  -4   23.40    3.60
   6   0  -3    5.68    1.64
   6   0  -3    4.09    1.48
  -6   0   3    3.32    1.07
  -6   0   2 1284.33   20.15
   6   0  -2 1328.18   24.50
  -6   0   1    6.10    1.63
   6   0  -1    9.87    2.27
  -6   0   0  936.02   20.02
  -6   0  -1    0.02    0.74
  -6   0  -2 1030.98   23.21
   6   0   2 1020.45   20.70
   6   0   3   -0.10    0.78
  -6   0  -3    1.35    1.07
  -6   0  -4  203.97   11.41
  -6   0  -5   -0.22    0.72
  -6   0  -6    9.05    2.68
  -6   0  -7    0.63    1.18
  -6   0  -8   85.96    4.39
   6   0   8   89.73    4.77
   6   0   9    0.47    0.61
  -6   0  -9    0.88    0.70
   6   0  10    0.36    0.59
  -6   0 -10    0.94    0.60
  -6   0 -11    0.22    0.43
   6   0  11   -0.31    0.61
  -6   0 -12    8.28    1.25
   6   0  12    8.54    1.36
  -6   0 -13   -0.01    0.31
   6  -1 -16   11.33    1.17
  -6   1  15    0.37    0.41
   6   1 -15    0.34    0.52
   6  -1 -15    0.46    0.55
   6   1 -14   82.03    4.19
   6  -1 -14   74.31    4.02
   6   1 -14   82.03    3.73
   6   1 -13   41.34    3.17
   6  -1 -13   45.91    3.33
   6   1 -12   46.12    3.42
   6  -1 -12   54.57    3.76
   6  -1 -12   53.45    3.90
   6  -1 -11   78.46    4.78
   6   1 -11   81.06    4.48
   6  -1 -11   82.30    4.54
   6  -1 -10   64.77    4.35
   6   1 -10   59.23    3.79
   6  -1 -10   62.09    3.92
   6   1 -10   60.95    4.27
   6   1  -9   85.18    8.58
   6  -1  -9   96.30    5.10
   6   1  -9   98.52    4.68
   6  -1  -9   93.01    4.57
   6  -1  -9   80.33    7.87
   6   1  -9   86.00    7.60
   6   1  -8   72.35    6.74
   6   1  -8   75.23    7.68
   6  -1  -8   67.04    6.81
   6   1  -7   54.20    6.03
   6   1  -7   48.15    5.68
   6  -1  -7   50.92    5.67
   6   1  -7   49.02    5.33
   6   1  -6  320.62   13.34
   6   1  -6  330.58   14.29
  -6   1   6  308.83   10.95
   6  -1  -6  277.73   12.41
   6   1  -6  296.75   12.26
   6  -1  -6  322.66   11.30
   6   1  -5   40.00    4.18
   6   1  -5   38.68    4.79
   6  -1  -5   46.22    4.92
   6   1  -5   38.79    4.32
   6  -1  -5   50.50    4.36
   6  -1  -4  414.69   12.27
   6  -1  -4  405.56   13.83
   6   1  -4  427.34   13.65
  -6   1   3  311.49   10.47
  -6  -1   3  302.16    8.45
   6   1  -3  285.09   12.18
  -6   1   2  534.73   14.08
   6  -1  -2  554.81   15.62
   6  -1  -1  112.00    6.85
  -6   1   1   99.10    6.20
  -6  -1   1   98.78    6.17
  -6  -1   0   51.36    4.66
  -6   1   0   56.94    4.92
   6  -1   0   62.13    5.18
  -6   1  -1  252.55   10.98
  -6  -1  -1  269.79   11.33
   6   1   2    0.58    0.93
  -6   1  -2    0.61    0.83
  -6  -1  -2    1.02    0.74
   6  -1   3    0.60    0.65
   6   1   3    0.87    0.97
  -6   1  -3    0.91    0.98
  -6  -1  -3    0.91    0.79
  -6   1  -4   20.30    3.66
  -6  -1  -4   19.69    3.65
  -6   1  -5    0.88    1.08
  -6  -1  -5    1.64    1.28
  -6   1  -6   30.64    4.98
  -6  -1  -6   31.20    4.95
  -6   1  -7  249.97    7.38
   6   1   7  242.10    7.57
  -6   1  -8    1.79    0.66
   6   1   8    1.57    0.81
  -6   1  -9  122.01    5.49
   6   1   9  130.13    5.84
  -6   1 -10   13.71    1.81
  -6  -1 -10   14.52    1.78
   6   1  10   11.35    1.83
  -6   1 -11    1.70    0.78
  -6  -1 -11    1.45    0.73
   6   1  11    1.84    0.86
  -6   1 -12    2.02    0.73
  -6  -1 -12    1.65    0.55
   6   1  12    2.57    0.79
  -6   1 -13    1.46    0.61
   6   1  13    0.71    0.52
   6   2 -15    2.91    0.80
   6  -2 -15    2.57    0.76
  -6   2  15    1.66    0.53
   6   2 -15    2.86    0.72
   6   2 -14    2.59    0.83
   6  -2 -14    4.14    1.04
   6   2 -14    2.29    0.68
   6   2 -13    1.40    0.71
   6  -2 -13    0.98    0.63
   6  -2 -13    1.30    0.76
   6   2 -13    2.02    0.69
   6  -2 -12    1.38    0.75
   6   2 -12    1.14    0.62
   6  -2 -12    1.98    0.87
   6   2 -11   25.67    2.54
   6  -2 -11   26.26    2.59
   6  -2 -11   26.04    2.75
   6  -2 -10   97.29    4.91
   6   2 -10   98.50    4.93
   6   2 -10  102.94    5.15
   6  -2 -10   89.02    5.13
   6   2  -9   17.55    2.04
   6   2  -9   17.83    2.12
   6   2  -9   12.69    1.69
   6  -2  -9   13.34    1.76
   6   2  -8  505.57   18.81
   6  -2  -8  490.96   18.76
   6   2  -7    6.35    2.18
   6  -2  -7    7.66    2.39
  -6   2   7    9.06    2.42
   6  -2  -6   92.21    7.41
  -6   2   6  100.61    6.98
   6   2  -6   93.40    7.38
   6  -2  -5   76.89    6.35
   6   2  -5   75.28    6.34
   6  -2  -4  225.13    8.72
   6  -2  -4  208.63    9.94
   6   2  -4  233.16   10.69
   6   2  -3   76.00    6.01
  -6   2   3   78.07    5.69
   6  -2  -3   77.71    5.93
   6  -2  -3   73.84    6.58
   6   2  -2   10.90    2.33
  -6   2   2   13.11    2.41
  -6  -2   2   17.03    2.43
   6  -2  -2   13.72    2.43
   6  -2  -2   10.74    2.67
   6   2  -1   24.97    3.52
  -6   2   1   22.10    3.17
   6  -2  -1   17.04    3.25
  -6  -2   1   25.60    3.15
   6   2  -1   26.46    3.67
   6  -2  -1   20.99    3.06
  -6   2   0   31.75    3.91
   6  -2   0   32.96    3.66
   6  -2   0   27.63    4.13
  -6  -2   0   32.10    3.77
   6   2   0   25.43    3.61
   6   2   0   35.17    3.53
   6  -2   1   33.00    3.67
  -6   2  -1   35.39    4.28
   6  -2   1   26.66    4.26
  -6  -2  -1   22.29    3.32
   6   2   1   16.81    3.00
  -6   2  -2  289.30   12.79
   6   2   2  279.65   11.97
  -6  -2  -2  278.47   12.26
  -6   2  -3   16.71    3.29
  -6  -2  -3   12.26    2.85
  -6   2  -4  261.91   13.43
   6  -2   4  247.48   12.54
  -6  -2  -4  241.94   12.58
   6  -2   5   57.84    6.50
  -6   2  -5   49.94    6.19
  -6  -2  -5   39.33    5.35
  -6   2  -6   65.36    7.48
  -6  -2  -6   64.63    7.19
  -6   2  -7  145.44    5.85
   6   2   7  136.45    5.81
  -6   2  -8   13.06    1.84
   6   2   8   12.24    1.85
  -6   2  -9    2.44    0.79
   6   2   9    2.22    0.93
  -6   2 -10    0.11    0.51
   6   2  10    0.19    0.55
   6   2  11   -0.07    0.64
  -6   2 -11   -0.07    0.57
   6   2  12   -0.02    0.51
  -6   2 -12    0.11    0.44
   6  -2  13    5.15    0.94
  -6   2 -13    5.75    0.94
   6   2  13    4.50    0.87
   6   3 -15    8.64    1.05
  -6   3  15    8.47    1.11
   6  -3 -14   25.62    2.19
   6   3 -14   22.64    2.02
   6   3 -13    9.70    1.48
   6  -3 -13   10.22    1.51
   6  -3 -13   10.01    1.55
   6   3 -13    9.39    1.43
   6   3 -12    8.30    1.51
   6  -3 -12   11.60    1.71
   6  -3 -12    9.05    1.57
   6   3 -11   15.23    1.99
   6   3 -11   14.67    1.92
   6  -3 -11   13.32    1.85
   6  -3 -11   11.82    1.82
  -6   3  11   12.87    1.82
   6   3 -11   14.25    2.05
   6   3 -10    1.23    0.67
   6  -3 -10    0.97    0.69
   6   3 -10    1.02    0.68
  -6   3  10    1.21    0.66
   6  -3 -10    0.77    0.74
   6   3  -9    1.58    0.58
   6   3  -9    1.79    0.75
   6  -3  -9    1.26    0.40
  -6   3   9    2.49    0.87
   6   3  -8   57.43    3.66
   6   3  -8   58.29    3.94
   6  -3  -8   64.98    3.98
  -6   3   8   60.96    3.64
   6   3  -7    1.06    1.13
  -6   3   7    0.69    1.07
  -6   3   6   65.25    6.22
   6   3  -6   73.13    7.03
   6   3  -5   11.42    2.75
  -6   3   5   13.32    2.67
   6   3  -4    2.57    1.36
   6   3  -4    1.69    0.97
   6  -3  -4    1.57    1.12
   6  -3  -4    1.50    1.05
   6  -3  -3   37.36    4.25
   6  -3  -3   33.92    4.51
   6   3  -3   40.16    4.74
   6   3  -3   38.51    4.60
  -6   3   2  107.88    7.35
   6  -3  -2  107.30    6.94
   6  -3  -2   99.30    7.57
   6   3  -2  102.22    7.61
   6   3  -2  106.85    7.51
   6   3  -1  231.89   10.97
  -6   3   1  255.48   11.46
   6  -3  -1  220.49   11.32
  -6  -3   1  241.82   10.18
   6  -3  -1  258.76   10.63
   6   3  -1  231.63   11.45
   6   3   0  119.42    7.96
  -6   3   0  129.57    8.41
   6  -3   0  120.22    8.55
   6  -3   0  124.34    7.24
  -6  -3   0  127.87    7.87
   6   3   0  128.30    7.56
   6   3   0  114.69    7.93
   6   3   1    9.98    2.38
  -6   3  -1   18.86    3.40
   6  -3   1   18.58    3.46
   6   3   1   10.09    2.32
  -6  -3  -1   12.91    2.65
   6   3   1    9.06    2.39
  -6   3  -2   78.54    7.01
   6  -3   2   68.21    6.98
  -6  -3  -2   69.61    6.43
  -6   3  -3    1.47    0.80
   6  -3   3    0.96    0.81
  -6  -3  -3   -0.15    1.29
  -6   3  -4    0.65    0.78
  -6  -3  -4   -0.16    1.13
   6  -3   5    0.87    1.11
  -6   3  -5    2.40    1.58
  -6  -3  -5    1.35    1.43
   6  -3   6   77.31    8.25
  -6   3  -6   78.45    8.17
   6   3   6   88.71    5.00
  -6   3  -6   88.47    4.63
   6   3   6   82.39    4.52
   6   3   7    4.83    1.39
  -6   3  -7    1.47    0.59
   6   3   7    4.66    1.17
   6   3   8    7.76    1.70
  -6   3  -8    6.91    1.36
   6   3   8    7.35    1.49
  -6   3  -9   16.08    2.08
   6   3   9   17.41    2.27
  -6   3 -10   -0.46    0.68
   6   3  10    0.38    0.58
  -6   3 -11   43.39    3.17
   6   3  11   38.24    3.03
   6   3  12   31.70    2.52
  -6   3 -12   31.09    2.39
   6  -3  12   28.05    2.22
   6   3  13   10.22    1.25
  -6   3 -13   12.70    1.33
   6   4 -14   28.86    2.21
  -6   4  14   30.96    2.28
   6  -4 -13   18.91    1.96
   6   4 -13   17.09    1.87
  -6   4  13   21.06    2.09
   6   4 -12    8.99    1.48
   6  -4 -12    9.06    1.57
  -6   4  12    9.54    1.62
   6   4 -11    0.25    0.65
   6   4 -11    1.63    1.08
   6   4 -11    1.35    0.84
   6  -4 -11    0.90    0.64
  -6   4  11    0.69    0.60
   6   4 -10   22.20    2.50
   6  -4 -10   18.89    2.36
   6   4 -10   20.82    2.43
  -6   4  10   22.75    2.46
   6   4  -9    0.38    0.74
   6   4  -9    0.79    0.74
  -6   4   9    2.04    0.98
   6   4  -8    0.58    0.62
   6   4  -8   -0.16    0.63
  -6   4   8    0.16    0.47
   6   4  -7   14.61    1.93
   6   4  -7   13.54    1.96
   6  -4  -7   16.74    1.98
   6   4  -7   14.68    1.92
  -6   4   7   14.71    1.84
   6   4  -6   11.23    2.93
  -6   4   6   12.90    3.03
   6   4  -5    9.12    2.58
  -6   4   5    8.94    2.47
   6  -4  -4   89.69    7.29
   6  -4  -4   94.95    7.88
   6  -4  -3  127.22    8.38
   6  -4  -3  127.30    8.96
   6   4  -3  131.31    9.23
   6  -4  -2  101.20    8.04
   6  -4  -2  117.31    7.61
   6   4  -2  125.22    8.77
   6   4  -2  123.36    8.68
   6   4  -1    1.63    1.25
   6   4  -1    1.44    1.40
   6  -4  -1    2.08    1.40
   6  -4  -1    1.99    1.17
  -6   4   0   26.44    4.12
   6  -4   0   21.46    3.80
  -6  -4   0   30.56    4.10
   6   4   0   28.37    4.09
   6   4   0   31.42    4.35
  -6   4  -1   20.90    3.72
   6  -4   1   16.88    3.40
   6   4   1   19.66    3.39
  -6  -4  -1   22.48    3.63
  -6   4  -2   73.26    7.21
   6  -4   2   66.56    7.02
   6   4   2   80.72    6.71
  -6  -4  -2   73.50    6.96
  -6   4  -3   14.44    3.37
  -6  -4  -3   16.45    3.40
   6  -4   3   12.95    3.33
  -6   4  -4   20.55    4.12
   6  -4   4   24.80    4.75
  -6  -4  -4   21.88    4.21
   6   4   5    5.34    1.30
  -6   4  -5    3.85    1.05
   6   4   5    4.11    1.16
  -6   4  -6    0.24    0.49
   6   4   6    1.02    0.53
   6   4   7    2.40    0.97
  -6   4  -7    0.42    0.51
   6   4   7    1.90    0.84
   6   4   8   49.94    3.89
  -6   4  -8   48.10    3.67
   6   4   8   49.39    3.71
  -6   4  -9    1.42    0.85
   6   4   9    1.54    0.83
   6   4  10   13.71    2.01
  -6   4 -10   14.50    1.94
  -6   4 -11    1.64    0.81
   6   4  11    1.57    0.83
   6   4  12    1.14    0.60
  -6   4 -12    1.94    0.59
  -6   4 -12    1.55    0.65
   6   5 -14    0.10    0.35
   6   5 -13    0.56    0.56
  -6   5  13   -0.66    0.62
  -6   5  13    0.66    0.56
   6  -5 -12    4.58    1.07
  -6   5  12    4.98    1.12
   6   5 -12    4.24    1.11
   6   5 -11    2.24    1.11
   6  -5 -11    1.81    0.79
   6   5 -11    1.44    0.80
  -6   5  11    1.45    0.79
   6   5 -10   79.34    4.54
   6   5 -10   74.28    4.59
   6   5 -10   73.79    4.48
   6  -5 -10   75.91    4.53
  -6   5  10   77.93    4.51
   6   5  -9    6.03    1.38
   6   5  -9    8.51    1.63
   6   5  -9    7.09    1.51
  -6   5   9    7.66    1.52
   6   5  -8   25.35    2.77
  -6   5   8   29.88    2.88
   6   5  -8   26.26    2.87
   6   5  -7   75.27    4.40
   6   5  -7   71.79    4.62
  -6   5   7   74.61    4.41
   6   5  -6   83.52    4.65
  -6   5   6   77.17    4.09
   6   5  -6   87.45    4.80
  -6   5   6   76.78    4.32
   6   5  -6   87.49    5.05
   6   5  -5   48.32    3.50
   6   5  -5   54.28    3.91
  -6   5   5   62.26    3.50
   6   5  -5   53.20    3.79
  -6   5   5   62.02    3.85
   6   5  -4  155.93    6.09
   6  -5  -4  119.14    8.85
   6   5  -4  169.10    6.54
   6   5  -4  131.50   10.25
   6   5  -3    7.62    2.53
   6  -5  -3    6.86    2.16
  -6   5   3   11.58    3.01
   6  -5  -3    9.45    2.69
   6   5  -2    0.15    0.73
   6  -5  -2    0.14    0.97
   6  -5  -1   16.31    3.70
   6   5  -1   26.27    4.47
   6   5   0    4.48    2.07
   6  -5   0    2.96    1.40
   6   5   1    2.05    1.72
   6  -5   1    3.09    1.83
  -6   5  -2   60.15    6.86
   6  -5   2   53.69    6.65
   6   5   2   65.58    6.84
  -6  -5  -2   54.98    6.36
   6   5   3    0.06    0.56
   6   5   3    0.39    0.51
  -6   5  -3    0.96    0.66
   6   5   4   25.10    2.63
  -6   5  -4   27.94    2.77
   6   5   5   39.44    3.45
  -6   5  -5   42.68    3.48
   6   5   5   42.23    3.40
   6   5   6    9.34    1.78
  -6   5  -6    6.92    1.52
   6   5   6    8.90    1.70
   6   5   7   11.94    1.97
  -6   5  -7   13.50    2.09
   6   5   7   12.16    1.91
   6   5   8   -0.09    0.59
  -6   5  -8    0.20    0.54
   6   5   8   -0.17    0.64
   6   5   9    8.53    1.63
  -6   5  -9   10.23    1.67
   6   5   9   10.10    1.67
  -6   5 -10    0.79    0.60
   6   5  10    1.43    0.70
  -6   5 -11   -0.09    0.43
  -6   5 -11   -0.18    0.42
   6   5  11    1.02    0.59
   6   5  11    0.14    0.42
   6   5  12   10.65    1.09
  -6   5 -12   10.47    1.15
   6   6 -13    6.01    0.98
  -6   6  13    5.53    0.89
   6  -6 -12   19.27    1.66
   6   6 -12   22.75    2.10
  -6   6  12   23.04    2.14
   6   6 -11    0.48    0.58
   6  -6 -11    0.49    0.52
  -6   6  11    1.16    0.68
   6  -6 -10    6.41    1.29
   6   6 -10    6.14    1.37
   6   6 -10    5.81    1.27
  -6   6  10    5.23    1.20
   6   6  -9   -0.36    0.70
   6   6  -9   -0.34    0.76
  -6   6   9    0.33    0.61
   6   6  -8   62.41    4.14
   6   6  -8   65.05    4.38
   6   6  -8   64.69    4.31
  -6   6   8   63.74    4.14
   6   6  -7   92.82    5.01
   6   6  -7   91.76    5.25
   6   6  -7  100.24    5.31
  -6   6   7  106.07    5.13
  -6   6   7   97.06    5.13
   6   6  -7   91.09    5.10
   6   6  -6   99.36    5.18
   6   6  -6   92.69    5.29
  -6   6   6   91.55    4.70
  -6   6   6   88.72    4.93
   6   6  -5  149.91    6.36
   6   6  -5  156.27    6.71
   6   6  -5  142.35    6.48
  -6   6   5  169.77    6.28
   6   6  -5  150.42    6.23
  -6   6   5  176.51    6.82
   6   6  -4   72.71    4.37
   6   6  -4   71.71    4.51
  -6   6   4   66.44    3.87
   6   6  -4   64.83    3.74
   6   6  -4   80.88    4.45
   6   6  -4   78.90    4.78
  -6   6   4   65.26    4.10
   6   6  -3    2.90    0.97
  -6   6   3    3.18    0.90
   6   6  -3    3.12    0.98
   6   6  -3    2.86    0.97
   6   6  -2    1.80    0.97
  -6   6   2    1.86    0.80
   6   6  -2    2.02    0.86
   6   6  -2    1.78    0.73
   6   6  -1   30.31    2.93
  -6   6   1   27.50    2.60
   6   6  -1   32.12    2.74
   6   6  -1   32.83    3.00
   6   6   0  105.06    5.45
  -6   6   0  103.78    5.10
  -6   6   0  104.10    5.21
   6   6   0  104.90    4.99
   6   6   1    2.42    1.07
   6   6   1    1.46    0.77
  -6   6  -1    3.04    1.02
  -6   6  -1    4.87    1.21
   6   6   1    2.81    1.04
  -6   6  -2    0.88    0.60
  -6   6  -2    1.69    0.73
   6   6   2    1.16    0.79
   6   6   2    2.88    0.95
  -6   6  -3   17.53    1.92
  -6   6  -3   15.72    2.15
   6   6   3   12.33    1.78
  -6   6  -4    2.99    1.08
  -6   6  -4    3.55    0.92
   6   6   4    4.99    1.26
   6   6   4    5.70    1.41
   6   6   5   30.30    3.06
  -6   6  -5   32.19    3.11
   6   6   5   30.74    2.87
   6   6   6    4.67    1.30
  -6   6  -6    4.82    1.26
   6   6   6    7.19    1.58
  -6   6  -7    1.61    0.78
   6   6   7    1.30    0.85
  -6   6  -7    1.62    0.81
   6   6   7    1.73    0.92
  -6   6  -8    2.70    0.85
   6   6   8    1.75    0.82
   6   6   8    2.26    0.83
   6   6   8    2.92    1.00
  -6   6  -8    2.25    0.79
  -6   6  -9    2.03    0.79
  -6   6  -9    2.10    0.85
   6   6   9    2.44    0.96
   6   6   9    3.56    1.04
   6   6   9    2.70    0.90
  -6   6 -10    3.88    0.88
  -6   6 -10    5.98    0.97
   6   6  10    5.46    1.02
   6   6  10    4.17    0.88
  -6   6 -11    0.34    0.36
   6   6  11    0.04    0.37
   6   7 -11   -0.24    0.40
  -6   7  11   -0.02    0.56
   6   7 -10   27.19    2.47
   6   7 -10   23.92    2.26
   6   7 -10   27.33    1.67
  -6   7  10   28.67    2.53
   6   7  -9    4.38    1.14
   6   7  -9    4.21    1.08
  -6   7   9    5.01    1.19
   6   7  -8    9.15    1.56
  -6   7   8   10.46    1.66
  -6   7   8   10.03    1.63
   6   7  -7   -0.20    0.74
  -6   7   7    0.38    0.59
  -6   7   7    0.06    0.56
   6   7  -6    6.32    1.41
  -6   7   6    7.33    1.39
   6   7  -6    7.29    1.59
  -6   7   6    7.74    1.56
  -6   7   5   14.47    2.04
   6   7  -5   14.38    2.09
  -6   7   5   12.25    1.81
   6   7  -5   14.78    2.14
   6   7  -4   10.81    1.82
  -6   7   4   10.14    1.64
   6   7  -4   10.43    1.72
  -6   7   4   10.66    1.84
   6   7  -3    4.48    1.30
  -6   7   3    4.55    1.18
   6   7  -3    2.20    0.81
   6   7  -3    5.54    1.34
  -6   7   3    2.67    1.08
   6   7  -2   32.16    3.04
  -6   7   2   32.00    2.87
   6   7  -2   35.56    3.02
  -6   7   2   30.05    2.96
   6   7  -1   24.18    2.71
  -6   7   1   26.92    2.67
   6   7  -1   27.00    2.66
   6   7   0  109.42    5.63
   6   7   0  122.81    5.62
  -6   7   0  111.21    5.42
   6   7   1  148.32    6.54
  -6   7  -1  161.41    6.55
   6   7   1  149.23    6.61
   6   7   1  160.79    6.44
   6   7   2   40.31    3.42
   6   7   2   41.53    3.31
  -6   7  -2   41.52    3.40
  -6   7  -2   47.34    3.11
   6   7   2   41.13    3.46
   6   7   3   23.07    2.64
  -6   7  -3   24.02    2.63
  -6   7  -3   27.16    2.47
   6   7   3   22.42    2.62
   6   7   3   25.41    2.63
   6   7   4    0.93    0.78
  -6   7  -4   -0.27    0.59
   6   7   4    0.31    0.82
  -6   7  -4   -0.46    0.71
   6   7   4   -0.53    0.93
  -6   7  -5    0.30    0.63
   6   7   5    0.19    0.63
  -6   7  -5   -0.93    0.74
   6   7   5   -0.06    0.61
  -6   7  -5   -0.34    0.69
   6   7   5   -0.34    0.70
   6   7   6   28.72    2.64
  -6   7  -6   21.66    2.26
  -6   7  -6   21.96    2.16
   6   7   6   27.12    2.86
  -6   7  -6   27.17    2.63
   6   7   6   30.41    2.74
  -6   7  -7   -0.23    0.61
   6   7   7    0.13    0.64
  -6   7  -7   -0.43    0.49
   6   7   7   -0.21    0.69
  -6   7  -7    0.47    0.51
  -6   7  -8    9.36    1.33
   6   7   8    9.84    1.53
   6   7   8    9.27    1.42
  -6   7  -9    2.27    0.66
   6   7   9    1.47    0.60
  -6   8  10    0.36    0.43
  -6   8   9   12.71    1.46
  -6   8   9   13.37    1.64
   6   8  -9   13.29    1.65
   6   8  -8    9.09    1.48
  -6   8   8    9.11    1.44
  -6   8   8    7.91    1.41
   6   8  -7    9.49    1.56
  -6   8   7   10.11    1.56
  -6   8   7    9.98    1.61
   6   8  -6   -1.87    1.01
  -6   8   6    0.18    0.60
   6   8  -6    0.44    0.73
  -6   8   6   -0.05    0.73
   6   8  -5    0.38    0.64
  -6   8   5   -0.26    0.60
   6   8  -5    0.16    0.72
  -6   8   5    0.02    0.56
   6   8  -4    2.97    1.05
  -6   8   4    1.47    0.94
   6   8  -4    1.96    1.00
  -6   8   4    1.31    0.89
   6   8  -3   26.61    2.71
  -6   8   3   33.27    2.94
   6   8  -3   28.05    2.84
  -6   8   3   33.80    3.02
   6   8  -2   58.75    3.98
  -6   8   2   48.69    3.53
   6   8  -2   55.54    3.84
   6   8  -1    4.78    1.23
  -6   8   1    5.11    1.34
   6   8  -1    5.33    1.26
   6   8   0   16.31    2.16
  -6   8   0   16.27    2.11
   6   8   0   17.86    2.16
   6   8   1    4.90    1.26
  -6   8  -1    3.13    0.95
   6   8   1    6.23    1.36
   6   8   2   10.61    1.68
   6   8   2   12.16    1.90
  -6   8  -2   10.06    1.36
   6   8   2   11.28    1.77
  -6   8  -2    7.94    1.47
  -6   8  -3    0.35    0.53
   6   8   3    0.60    0.74
  -6   8  -3   -0.47    0.61
   6   8   3    1.11    0.88
  -6   8  -4   -0.04    0.51
   6   8   4   -0.10    0.70
  -6   8  -4   -0.22    0.56
  -6   8  -5    5.57    1.06
   6   8   5    5.36    1.29
  -6   8  -5    4.07    0.97
   6   8   5    6.37    1.40
  -6   8  -6    7.92    1.17
  -6   8  -6   10.91    1.38
   6   8   6    9.03    1.58
   6   8   6   11.38    1.59
  -6   8  -7    0.03    0.44
   6   8   7    0.50    0.69
   6   8   7    0.51    0.54
  -6   8  -8    0.97    0.45
   6   8   8    1.63    0.62
   6   9  -7    1.72    0.73
  -6   9   7    0.06    0.54
  -6   9   7    0.71    0.55
   6   9  -6   24.81    2.13
  -6   9   6   24.66    2.26
  -6   9   6   25.33    2.14
   6   9  -5   -0.93    0.74
  -6   9   5    0.15    0.60
   6   9  -5    0.59    0.70
  -6   9   5    0.80    0.56
   6   9  -4   19.13    1.96
  -6   9   4   21.30    2.17
   6   9  -4   20.27    2.20
   6   9  -3    2.20    0.91
  -6   9   3    1.66    0.97
   6   9  -3    0.42    0.66
   6   9  -2    3.05    0.86
  -6   9   2    1.62    0.81
   6   9  -2    1.72    0.95
  -6   9   1    0.72    0.75
   6   9  -1   -0.04    0.64
  -6   9   0    1.14    0.71
   6   9   0    0.99    0.75
  -6   9  -1    3.13    0.91
   6   9   1    2.33    0.82
  -6   9  -2    4.27    1.02
   6   9   2    4.06    1.06
  -6   9  -3    0.08    0.47
  -6   9  -3   -0.23    0.45
   6   9   3    0.12    0.48
   6   9   3    0.49    0.62
  -6   9  -4   15.85    1.57
  -6   9  -4   16.08    1.48
   6   9   4   16.77    1.81
   6   9   4   16.26    1.79
  -6   9  -5    0.78    0.50
   6   9   5    1.54    0.72
   6   9   5    1.98    0.75
  -6  10   4    2.67    0.77
  -6  10   3    1.95    0.73
   6  10  -3    0.46    0.50
  -6  10   2    3.21    0.82
   6  10  -2    2.69    0.77
  -6  10   1    7.62    1.15
   6  10  -1    4.96    0.97
  -6  10   0   -0.44    0.56
   6  10   0   -0.44    0.61
  -6  10  -1   -0.91    0.52
   6  10   1   -0.31    0.48
   7   0 -15    0.33    0.39
  -7   0  15    1.39    0.58
   7   0 -14   60.28    3.57
   7   0 -13    0.81    0.75
   7   0 -12   39.53    3.22
   7   0 -11    2.11    0.88
   7   0 -11    2.50    1.00
   7   0 -10   70.18    4.17
   7   0 -10   70.70    4.66
   7   0  -9    2.18    0.75
   7   0  -8   31.76    5.15
   7   0  -7    0.55    0.65
   7   0  -7   10.75    2.83
   7   0  -6  390.82   16.43
   7   0  -6  399.96   14.48
   7   0  -5    1.72    0.85
   7   0  -5    1.47    1.01
   7   0  -4 1097.47   22.75
   7   0  -4 1144.59   25.82
  -7   0   4 1114.08   19.38
   7   0  -3    0.77    0.93
   7   0  -3    0.26    0.61
  -7   0   3    0.43    0.42
   7   0  -2    4.77    1.74
  -7   0   2    4.99    1.46
  -7   0   1    0.08    0.61
  -7   0   0   87.93    6.45
  -7   0  -1    1.86    1.06
   7   0   2    2.80    1.48
  -7   0  -2    1.63    1.13
   7   0   3    0.97    1.02
  -7   0  -3    0.29    0.71
  -7   0  -4   45.63    5.66
  -7   0  -5    6.10    2.30
  -7   0  -6   66.37    7.53
  -7   0  -7    4.25    1.08
   7   0   7    6.52    1.34
  -7   0  -8    3.99    1.06
   7   0   8    4.69    1.28
  -7   0  -9   -0.13    0.53
   7   0   9    0.84    0.68
  -7   0 -10   63.48    3.67
   7   0  10   69.73    4.16
  -7   0 -11   -0.40    0.54
   7   0  11   -0.38    0.63
   7   0  12    7.42    1.16
  -7   0 -12    7.55    1.08
   7   0  13    0.17    0.39
   7   1 -15    0.14    0.39
   7  -1 -15   -0.10    0.44
   7   1 -14   15.92    1.83
   7  -1 -14   14.19    1.75
   7   1 -14   14.83    1.57
   7   1 -13    9.90    1.56
   7  -1 -13    6.91    1.31
   7   1 -12   36.08    3.00
   7  -1 -12   45.97    3.38
   7  -1 -12   42.50    3.48
   7  -1 -11    5.92    1.37
   7   1 -11    4.09    1.09
   7  -1 -11    6.44    1.35
   7   1 -10   18.62    2.16
   7   1 -10   13.72    2.06
   7  -1 -10   12.44    1.99
   7   1 -10   13.29    1.80
   7  -1 -10   12.00    1.73
   7  -1  -9    3.39    1.06
   7   1  -9    7.60    1.38
   7   1  -9    7.72    1.39
   7  -1  -8  270.08   14.55
   7   1  -8  273.96   13.68
   7   1  -7    2.91    1.53
   7   1  -7    2.78    1.46
   7  -1  -7    2.75    1.64
   7   1  -6  182.42   11.43
   7  -1  -6  149.76    9.86
   7   1  -6  157.42    9.51
   7   1  -5   99.41    8.22
   7  -1  -5   80.49    7.03
   7   1  -5   89.83    7.03
   7  -1  -5   94.99    6.56
   7   1  -4  184.51    9.77
   7  -1  -4  198.72    9.47
   7   1  -4  192.16   11.20
   7  -1  -4  189.56   10.43
   7   1  -3    9.33    2.22
   7   1  -3   11.70    2.70
   7  -1  -3    5.44    1.92
  -7   1   3    5.31    1.51
  -7   1   2    3.84    1.40
  -7  -1   2    2.77    1.08
   7  -1  -2    3.65    1.56
  -7   1   1  157.54    8.61
  -7  -1   1  167.77    8.26
  -7  -1   1  170.75    8.84
   7  -1  -1  163.53    9.12
  -7   1   0  133.93    8.28
  -7  -1   0  138.54    8.39
  -7   1  -1   26.30    3.79
  -7  -1  -1   23.00    3.55
   7   1   1   19.91    3.30
  -7   1  -2  130.64    8.90
  -7  -1  -2  122.82    8.63
   7  -1   2  132.61    7.73
   7   1   2  133.79    8.59
  -7   1  -3   23.11    4.08
  -7  -1  -3   16.47    3.32
   7   1   3   13.61    2.87
  -7   1  -4  341.01   15.75
  -7  -1  -4  308.06   14.84
  -7   1  -5   22.48    4.32
  -7  -1  -5   23.34    4.31
  -7   1  -6   62.14    3.68
  -7   1  -6   56.21    6.89
   7   1   6   63.61    3.95
   7  -1   7   45.68    3.48
  -7   1  -7   44.05    3.16
   7   1   7   42.42    3.32
  -7   1  -8  121.27    5.31
   7   1   8  115.64    5.60
  -7   1  -9    6.17    1.24
   7   1   9    3.08    1.10
  -7   1 -10   -0.09    0.42
   7   1  10   -0.04    0.60
  -7   1 -11   17.57    1.86
   7   1  11   18.42    2.01
  -7   1 -12    0.44    0.46
   7   1  12   -0.31    0.50
  -7   1 -13    1.92    0.58
   7  -1  13    0.96    0.54
   7   2 -15    0.71    0.40
   7  -2 -15   -0.07    0.44
   7   2 -15    0.39    0.38
  -7   2  15    0.20    0.39
   7   2 -14    7.67    1.23
   7  -2 -14    6.77    1.20
   7   2 -14    6.74    1.10
   7   2 -13   20.96    2.17
   7  -2 -13   16.92    1.96
   7  -2 -13   19.11    2.17
   7   2 -12    1.95    0.88
   7  -2 -12    1.64    0.75
   7  -2 -12    1.28    0.61
   7   2 -11    5.01    1.19
   7  -2 -11    4.05    1.14
   7  -2 -11    4.24    1.12
   7   2 -11    7.87    1.39
   7   2 -10    1.62    0.69
   7  -2 -10    0.72    0.68
   7   2 -10    1.43    0.56
   7  -2 -10    0.53    0.46
   7   2  -9   22.84    2.47
   7   2  -9   18.50    2.13
   7  -2  -9   21.14    2.26
   7   2  -8  160.54    6.49
   7  -2  -8  146.14    5.94
   7   2  -7    0.64    0.69
   7  -2  -7   -0.01    1.01
   7  -2  -6   12.83    2.93
  -7   2   6   13.93    2.71
   7   2  -6   15.19    3.16
   7   2  -5    1.24    1.17
   7  -2  -5    2.29    1.46
   7  -2  -4    0.75    0.82
   7  -2  -4    0.67    0.58
   7   2  -3   48.52    5.27
   7  -2  -3   51.73    5.37
  -7   2   3   54.64    5.17
   7  -2  -2  200.71   10.30
  -7   2   2  203.94   10.17
   7   2  -1  482.61   16.82
  -7   2   1  529.95   16.71
   7  -2  -1  523.27   16.22
  -7  -2   1  539.65   15.88
   7   2  -1  485.64   16.92
  -7   2   0  303.28   12.95
  -7  -2   0  330.83   13.15
   7  -2   0  310.20   12.34
   7   2   0  324.62   13.93
  -7   2  -1  198.88   10.99
  -7  -2  -1  187.75   10.40
   7   2   1  166.30   10.02
  -7   2  -2  336.56   14.82
  -7  -2  -2  324.92   14.21
   7   2   2  341.60   14.20
  -7   2  -3   39.01    5.34
  -7  -2  -3   32.23    4.67
  -7   2  -4   17.57    3.77
  -7  -2  -4   15.58    3.35
  -7   2  -5   34.60    5.37
  -7  -2  -5   31.77    5.10
  -7   2  -6   15.97    1.93
   7   2   6   16.54    2.06
  -7   2  -7    5.73    1.23
   7   2   7    6.52    1.36
  -7   2  -8   -0.22    0.67
   7   2   8   -0.37    0.65
  -7   2  -9    1.04    0.75
   7   2   9    0.38    0.64
  -7   2 -10   19.65    2.14
   7   2  10   19.70    2.27
  -7   2 -11    2.97    0.86
   7   2  11    1.02    0.65
  -7   2 -12    9.80    1.29
   7   2  12   10.46    1.40
   7  -2  12    9.71    1.31
  -7   2 -13   10.49    1.12
   7   2  13    8.53    1.03
   7  -2  13   11.85    1.16
  -7   3  15    2.88    0.64
   7  -3 -14    0.33    0.43
   7   3 -14    0.53    0.47
   7   3 -13    0.34    0.43
   7  -3 -13    0.00    0.46
   7  -3 -13   -0.37    0.64
   7   3 -13   -0.66    0.73
   7   3 -12   22.69    2.27
   7   3 -12   20.82    2.21
   7  -3 -12   23.74    2.36
   7  -3 -12   23.49    2.51
   7   3 -11    2.32    0.97
   7   3 -11    2.94    0.93
   7   3 -11    2.60    0.87
   7  -3 -11    2.95    0.88
   7  -3 -11    1.81    0.88
   7   3 -10   12.73    1.87
   7   3 -10   11.90    1.80
   7   3 -10   13.05    1.76
   7  -3 -10    9.93    1.65
  -7   3  10   12.11    1.80
   7  -3 -10    8.73    1.73
   7   3  -9   22.20    2.36
   7   3  -9   24.69    2.68
   7  -3  -9   22.43    2.41
  -7   3   9   23.87    2.42
   7   3  -8   84.73    4.52
   7   3  -8   86.46    4.99
   7   3  -8   84.01    4.56
  -7   3   8   79.90    4.29
   7  -3  -8   89.79    4.78
   7  -3  -7    1.21    0.67
   7   3  -7    0.84    0.62
  -7   3   7    0.38    0.97
   7   3  -7    1.04    0.75
   7  -3  -6   16.20    3.27
  -7   3   6   14.78    3.07
   7   3  -6   21.15    4.00
   7   3  -5   13.10    3.07
   7  -3  -5   11.87    2.70
   7   3  -4    0.47    0.87
   7   3  -4    1.26    1.34
   7  -3  -4   -0.17    0.73
   7  -3  -3   76.95    7.52
   7  -3  -3   87.85    7.03
   7   3  -3   74.39    7.12
   7   3  -3   75.72    6.99
  -7   3   2   16.95    3.16
   7  -3  -2   15.00    3.41
   7  -3  -2   16.03    3.17
   7   3  -2   24.41    4.01
   7   3  -2   25.07    3.98
   7   3  -1   62.42    6.23
   7  -3  -1   62.31    5.71
  -7   3   1   59.00    5.95
   7  -3  -1   50.53    6.12
  -7  -3   1   61.79    5.54
   7   3  -1   64.58    6.53
   7   3   0    3.87    1.61
   7   3   0    4.44    1.91
   7  -3   0    7.19    2.03
  -7   3   0    6.95    2.20
   7  -3   0    5.06    2.08
  -7  -3   0    8.25    2.18
   7   3   1   -0.21    1.12
   7   3   1    0.26    0.81
  -7   3  -1    0.12    0.71
   7  -3   1    1.09    0.91
  -7  -3  -1    2.31    1.40
  -7   3  -2   41.33    5.50
   7  -3   2   32.18    5.36
  -7  -3  -2   39.58    5.16
  -7   3  -3    4.66    2.19
  -7  -3  -3    4.30    1.90
  -7  -3  -4    0.46    1.04
  -7   3  -4   -0.96    0.89
   7  -3   5    1.58    0.68
   7   3   5    4.99    1.27
  -7   3  -5    2.92    0.85
   7   3   5    3.34    1.00
   7   3   6   14.27    2.16
  -7   3  -6   10.72    1.69
   7   3   6   10.89    1.75
  -7   3  -7    2.84    0.99
   7   3   7    2.05    0.86
  -7   3  -8   19.32    2.28
   7   3   8   16.68    2.17
  -7   3  -9   12.97    1.87
   7   3   9   15.21    2.07
   7  -3  10    6.77    1.31
  -7   3 -10    5.71    1.23
   7   3  10    7.13    1.41
   7  -3  11   -0.03    0.50
  -7   3 -11    0.15    0.49
   7   3  11    0.46    0.54
   7  -3  12    1.14    0.56
  -7   3 -12    1.64    0.65
   7   3  12    2.03    0.70
   7   4 -14    0.09    0.36
  -7   4  14    0.60    0.55
   7  -4 -13    0.40    0.46
   7   4 -13    1.22    0.61
   7  -4 -12    3.75    1.04
   7   4 -12    3.73    0.98
  -7   4  12    4.79    1.11
   7   4 -11    6.10    1.36
   7  -4 -11    8.08    1.52
  -7   4  11    8.09    1.48
   7   4 -11    7.63    1.46
   7   4 -10   18.75    2.28
   7   4 -10   18.04    2.26
   7  -4 -10   14.22    2.09
  -7   4  10   18.77    2.23
  -7   4   9   -0.11    0.63
   7   4  -9   -0.21    0.77
   7   4  -9   -0.06    0.66
   7   4  -8    2.66    0.86
   7   4  -8    3.52    1.11
  -7   4   8    3.28    0.99
   7  -4  -8    4.68    1.14
   7   4  -7   29.50    2.72
   7   4  -7   31.97    3.15
  -7   4   7   37.60    3.01
   7   4  -7   35.32    3.10
   7   4  -6  326.06    8.79
   7   4  -6  338.53   10.01
   7   4  -6  338.14    9.30
  -7   4   6  323.80    8.60
   7  -4  -6  351.67    9.35
   7   4  -5   11.48    3.08
   7  -4  -5   12.75    3.03
  -7   4   5   12.67    3.08
   7  -4  -4  138.40    9.39
   7   4  -4  155.25   10.97
   7  -4  -3   68.40    7.29
   7  -4  -3   66.92    6.43
   7   4  -3   62.77    6.81
   7  -4  -2    9.67    2.49
   7   4  -2   15.78    3.33
   7   4  -2   15.33    3.31
   7  -4  -2    9.65    2.91
  -7   4   1   42.35    5.45
   7  -4  -1   35.64    5.36
   7   4  -1   44.39    5.57
   7   4   0   -0.14    1.08
   7   4   0    2.89    1.39
  -7   4   0    0.58    1.00
   7  -4   0    0.66    1.00
  -7   4  -1    4.95    1.98
   7  -4   1    4.55    1.98
  -7  -4  -1    4.26    1.82
  -7   4  -2   33.03    5.22
   7  -4   2   27.34    4.81
  -7  -4  -2   26.82    4.44
  -7   4  -3    3.31    1.68
   7   4   3    1.53    0.74
  -7   4  -3    2.90    1.01
   7  -4   3    1.38    1.32
  -7  -4  -3    0.42    0.71
   7  -4   4  118.63    5.50
   7   4   4  102.89    5.39
  -7   4  -4  109.79    5.29
   7   4   4  113.07    5.43
   7   4   5   20.89    2.52
  -7   4  -5   29.16    2.82
   7   4   5   21.64    2.47
   7  -4   6    5.09    1.21
   7   4   6    4.78    1.34
  -7   4  -6    4.39    1.19
   7   4   6    5.48    1.28
   7   4   7   16.25    2.44
  -7   4  -7   20.29    2.39
   7   4   7   15.25    2.09
  -7   4  -8   28.91    2.83
   7   4   8   30.12    2.92
   7  -4   8   30.77    2.89
   7  -4   9    6.45    1.27
  -7   4  -9    4.71    1.14
   7   4   9    4.11    1.11
  -7   4 -10    1.43    0.81
   7   4  10    0.44    0.56
  -7   4 -11    0.02    0.44
   7   4  11   -0.15    0.53
   7   4  12    5.29    0.90
  -7   4 -12    5.71    0.74
  -7   4 -12    6.85    0.95
   7   4  12    5.94    0.80
   7   5 -13    1.42    0.68
  -7   5  13    2.69    0.71
  -7   5  13    2.95    0.80
   7  -5 -12   64.70    3.54
   7   5 -12   66.23    3.72
  -7   5  12   72.33    3.86
   7   5 -11    3.80    1.15
   7  -5 -11    5.74    1.23
   7   5 -11    4.59    1.17
  -7   5  11    5.32    1.18
   7   5 -10   -0.15    0.64
   7   5 -10    1.04    0.75
   7   5 -10    0.99    0.87
   7  -5 -10    1.45    0.86
  -7   5  10    1.51    0.72
   7   5  -9    0.99    0.60
   7   5  -9    1.77    0.92
  -7   5   9    1.66    0.75
   7   5  -8   18.37    2.30
   7   5  -8   17.68    2.35
  -7   5   8   20.01    2.37
   7   5  -7   -0.05    0.71
   7   5  -7    1.56    0.83
  -7   5   7    0.37    0.57
   7  -5  -7    0.71    0.55
   7  -5  -6    6.67    1.26
   7   5  -6    5.57    1.34
   7   5  -6    6.92    1.48
   7   5  -6    6.98    1.46
  -7   5   6    5.37    1.18
   7   5  -5  182.97    6.82
   7   5  -5  179.70    7.36
  -7   5   5  160.52    5.74
   7   5  -5  180.84    7.07
   7  -5  -5  189.06    6.98
   7   5  -4   21.20    2.37
   7   5  -4   22.31    2.59
  -7   5   4   27.54    2.40
   7   5  -4   22.00    2.52
   7   5  -3   53.93    3.72
  -7   5   3   43.28    3.03
   7   5  -3   55.02    3.85
   7   5  -2  143.49    6.07
  -7   5   2  145.59    5.60
   7   5  -2  149.80    6.38
   7   5  -1    6.47    1.28
  -7   5   1    9.37    1.48
  -7   5   1   10.13    1.65
   7   5  -1    8.79    1.54
   7   5   0    0.46    1.35
  -7   5   0    0.26    0.54
   7   5   0   -0.27    0.53
   7   5   1    3.48    1.12
   7   5   1    3.97    0.95
   7   5   1    3.28    0.99
  -7   5  -1    3.21    0.95
   7   5   2   91.14    4.90
  -7   5  -2   92.52    4.95
   7   5   2   88.59    4.42
   7   5   3    7.92    1.66
   7   5   3    7.95    1.47
   7   5   4   72.43    4.61
  -7   5  -4   75.11    4.61
   7   5   4   88.22    4.62
  -7   5  -5    0.26    0.52
   7   5   5   -0.02    0.69
   7   5   5    0.22    0.78
   7   5   5    0.14    0.49
   7   5   6    1.44    0.99
  -7   5  -6    1.04    0.71
   7   5   6    1.66    0.84
   7   5   7    3.05    1.07
  -7   5  -7    3.37    1.09
   7   5   7    3.06    1.02
   7   5   8    0.78    0.70
  -7   5  -8    1.17    0.68
   7   5   8    2.79    1.01
  -7   5  -9    0.16    0.52
   7   5   9   -0.60    0.59
   7   5   9   -0.64    0.70
  -7   5 -10   -0.51    0.57
   7   5  10    0.33    0.51
   7   5  10   -0.40    0.59
  -7   5 -11    1.90    0.54
   7   5  11    0.69    0.40
  -7   5 -11    0.83    0.47
   7   5  11    1.36    0.52
   7  -6 -12   15.21    1.47
   7   6 -12   15.45    1.65
  -7   6  12   17.33    1.75
   7   6 -11   15.23    1.88
   7   6 -11   12.41    1.67
  -7   6  11   15.04    1.82
   7  -6 -11   13.85    1.64
   7  -6 -10   12.97    1.78
   7   6 -10   14.09    1.87
  -7   6  10   15.62    1.96
   7   6 -10   16.99    2.07
   7   6  -9    5.98    1.31
   7   6  -9    6.41    1.28
  -7   6   9    7.75    1.48
   7   6  -8   14.12    1.97
   7   6  -8   15.75    2.18
   7   6  -8   15.15    2.04
  -7   6   8   18.04    2.22
   7   6  -7   23.29    2.55
   7   6  -7   23.61    2.71
  -7   6   7   26.80    2.68
   7   6  -6   41.38    3.38
   7   6  -6   40.54    3.50
  -7   6   6   46.37    3.28
  -7   6   6   39.24    3.29
   7   6  -5    1.87    0.88
   7   6  -5    2.15    0.97
  -7   6   5    3.21    0.96
   7   6  -5    2.70    1.23
  -7   6   5    4.37    1.25
   7   6  -4  127.51    5.99
   7   6  -4  132.35    6.27
  -7   6   4  138.33    5.68
   7   6  -4  142.05    5.86
   7   6  -4  141.14    6.50
  -7   6   4  138.29    6.12
   7   6  -3    0.28    0.62
  -7   6   3    0.81    0.63
   7   6  -3    1.55    0.93
   7   6  -3    0.17    0.66
   7   6  -2    1.92    0.89
  -7   6   2    4.17    1.19
   7   6  -2    2.34    0.90
   7   6  -2    3.07    1.14
   7   6  -1    9.53    1.73
  -7   6   1    7.55    1.48
   7   6  -1   10.18    1.54
   7   6  -1   10.07    1.76
   7   6   0   35.00    3.28
  -7   6   0   33.01    2.96
  -7   6   0   28.97    2.84
   7   6   0   38.78    3.03
   7   6   1  121.85    6.07
  -7   6  -1  136.25    5.92
   7   6   1  130.39    5.94
  -7   6  -1  127.11    5.99
   7   6   1  134.19    5.61
   7   6   2   20.03    2.49
  -7   6  -2   17.06    2.23
   7   6   2   22.79    2.35
  -7   6  -3  105.16    4.76
   7   6   3   84.73    4.98
  -7   6  -3   96.99    5.28
   7   6   3   93.44    4.83
  -7   6  -4    2.75    0.85
   7   6   4    1.71    0.92
  -7   6  -4    2.73    0.97
   7   6   4    3.40    1.02
  -7   6  -5    2.25    0.87
  -7   6  -5    1.91    0.82
   7   6   5    1.86    0.87
   7   6   5    2.78    0.89
  -7   6  -6   15.09    1.80
   7   6   6   10.90    1.86
  -7   6  -6   12.77    1.92
   7   6   6   15.17    1.95
  -7   6  -7   -0.46    0.65
   7   6   7   -0.25    0.72
  -7   6  -7    0.96    0.75
   7   6   7    0.34    0.59
  -7   6  -8    1.24    0.63
  -7   6  -8    1.00    0.63
   7   6   8    2.83    0.86
   7   6   8    1.41    0.54
  -7   6  -9    1.80    0.72
  -7   6  -9    1.26    0.57
   7   6   9    1.63    0.80
   7   6   9    0.69    0.49
  -7   6 -10    3.90    0.72
   7   6  10    3.11    0.67
  -7   6 -10    2.52    0.63
   7   7 -11    0.42    0.45
  -7   7  11    1.03    0.53
   7   7 -10    2.05    0.92
   7   7 -10    0.99    0.54
   7  -7 -10    0.37    0.37
  -7   7  10    1.45    0.76
   7   7  -9    1.97    0.82
   7  -7  -9    2.40    0.79
  -7   7   9    2.38    0.85
   7   7  -8   18.37    2.19
  -7   7   8   16.94    2.11
   7   7  -7   -0.92    0.82
  -7   7   7    0.46    0.61
  -7   7   7    0.00    0.64
   7   7  -6   11.90    1.88
  -7   7   6   14.45    1.91
   7   7  -6   12.95    1.90
  -7   7   6   15.55    2.13
   7   7  -5    2.35    0.90
  -7   7   5    2.65    0.97
   7   7  -5    2.03    0.95
  -7   7   5    1.07    0.73
   7   7  -4   -0.03    0.78
  -7   7   4    0.38    0.57
   7   7  -4   -0.64    0.67
  -7   7   4    0.36    0.58
   7   7  -3    6.57    1.37
  -7   7   3    7.38    1.38
   7   7  -3    6.25    1.36
   7   7  -3    8.85    1.66
  -7   7   3    6.93    1.40
   7   7  -2    1.97    0.95
  -7   7   2    0.30    0.55
   7   7  -2    2.29    0.97
   7   7  -2    2.91    1.12
  -7   7   2    1.67    0.90
   7   7  -1    1.91    0.81
  -7   7   1    2.50    0.98
   7   7  -1    3.16    1.09
   7   7   0    9.62    1.83
  -7   7   0    8.19    1.67
   7   7   0   10.81    1.79
   7   7   1   27.64    2.92
  -7   7  -1   27.63    2.74
   7   7   1   30.14    2.80
   7   7   2   18.09    2.36
  -7   7  -2   20.30    2.37
   7   7   2   17.41    2.33
  -7   7  -2   20.09    2.37
   7   7   2   19.68    2.33
   7   7   3   46.09    3.63
  -7   7  -3   46.60    3.57
  -7   7  -3   57.01    3.33
   7   7   3   41.93    3.55
  -7   7  -3   47.81    3.65
   7   7   3   46.82    3.37
   7   7   4    6.15    1.41
  -7   7  -4    5.62    1.17
   7   7   4    5.73    1.49
  -7   7  -4    3.48    1.12
  -7   7  -4    5.26    1.32
   7   7   4    7.94    1.53
   7   7   5    0.80    0.66
  -7   7  -5    2.33    0.83
   7   7   5    1.04    0.76
  -7   7  -5    1.83    0.80
  -7   7  -5    1.84    0.76
   7   7   5    2.10    0.94
   7   7   6   12.05    1.76
  -7   7  -6   12.83    1.68
  -7   7  -6   13.68    1.56
   7   7   6   11.53    1.82
  -7   7  -6   12.66    1.75
   7   7   6   14.01    1.77
  -7   7  -7    0.94    0.62
   7   7   7    0.92    0.53
  -7   7  -7    0.51    0.49
   7   7   7    1.26    0.82
  -7   7  -7    0.74    0.50
   7   7   7    1.68    0.72
  -7   7  -8    4.35    0.79
  -7   7  -8    3.03    0.74
   7   7   8    4.49    0.98
  -7   7  -9    5.45    0.78
   7   7   9    3.74    0.72
   7   8  -9    6.39    1.14
  -7   8   9    7.36    1.20
   7   8  -8    0.17    0.51
  -7   8   8   -0.40    0.49
  -7   8   8   -0.37    0.47
   7   8  -7   11.40    1.63
  -7   8   7   14.51    1.78
  -7   8   7   14.99    1.82
   7   8  -6    1.42    0.69
  -7   8   6    2.78    0.99
  -7   8   6    1.59    0.85
   7   8  -5   38.04    3.06
  -7   8   5   43.23    3.26
  -7   8   5   44.50    3.20
   7   8  -5   34.66    2.91
   7   8  -4   10.97    1.75
  -7   8   4    7.90    1.46
   7   8  -4   12.43    1.87
  -7   8   4    9.41    1.62
   7   8  -3   25.49    2.61
  -7   8   3   26.00    2.52
   7   8  -3   27.08    2.59
  -7   8   3   26.83    2.67
   7   8  -2    9.52    1.68
  -7   8   2    9.68    1.64
   7   8  -2    8.84    1.49
  -7   8   2   10.90    1.68
   7   8  -1   -0.03    0.72
  -7   8   1    0.05    0.60
   7   8  -1    0.11    0.68
   7   8   0   12.19    1.79
  -7   8   0   10.83    1.61
   7   8   0   12.11    1.75
   7   8   1    3.77    1.03
  -7   8  -1    3.19    1.04
   7   8   1    5.14    1.14
   7   8   2    4.02    1.10
   7   8   2    4.98    1.17
  -7   8  -2    5.71    1.32
   7   8   2    6.06    1.29
   7   8   3    7.95    1.34
  -7   8  -3    8.96    1.23
   7   8   3    7.44    1.45
  -7   8  -3    7.74    1.41
   7   8   3   10.34    1.63
   7   8   4    2.08    0.72
  -7   8  -4    1.74    0.70
   7   8   4    0.88    0.72
  -7   8  -4   -0.22    0.54
   7   8   4    2.10    0.93
  -7   8  -5   46.06    2.85
  -7   8  -5   48.22    2.66
   7   8   5   43.63    3.10
   7   8   5   47.76    2.95
  -7   8  -6   17.72    1.58
  -7   8  -6   19.83    1.62
   7   8   6   22.95    2.11
   7   8   6   25.45    2.03
  -7   8  -7   16.69    1.38
   7   8   7   13.86    1.33
   7   9  -6   -0.75    0.67
  -7   9   6    0.30    0.50
  -7   9   6   -0.11    0.41
   7   9  -5   -0.27    0.61
  -7   9   5    0.46    0.51
  -7   9   5    0.13    0.51
   7   9  -4    2.44    0.67
  -7   9   4    3.01    0.89
   7   9  -4    3.01    0.91
   7   9  -3   11.92    1.59
  -7   9   3   14.89    1.77
   7   9  -3   11.81    1.61
   7   9  -2    7.84    1.30
  -7   9   2    9.12    1.50
   7   9  -2    9.37    1.44
   7   9  -1    8.04    1.26
  -7   9   1    9.92    1.47
   7   9  -1    7.97    1.30
  -7   9   0    4.37    1.08
   7   9   0    4.67    1.08
  -7   9  -1    0.16    0.46
   7   9   1    0.28    0.65
  -7   9  -2   -0.16    0.52
   7   9   2   -0.56    0.70
   7   9   3    5.03    1.00
  -7   9  -3    4.84    0.92
   7   9   3    3.35    0.85
  -7   9  -4    3.34    0.73
   7   9   4    4.03    0.81
   8   0 -15    0.22    0.40
   8   0 -14    6.39    1.20
   8   0 -13    0.09    0.50
   8   0 -12   15.28    1.98
   8   0 -11    0.33    0.65
   8   0 -11   -1.67    1.06
   8   0 -10   37.27    3.09
   8   0 -10   38.75    3.39
   8   0  -9    0.14    0.60
   8   0  -8  256.06    7.88
   8   0  -8  236.13    8.08
   8   0  -8  244.27    7.80
   8   0  -7    2.07    1.45
   8   0  -7    3.52    2.09
   8   0  -6  209.18   12.68
   8   0  -6  214.08   11.52
   8   0  -5   -0.11    0.76
   8   0  -5    0.30    0.73
   8   0  -4    0.83    1.12
   8   0  -4    0.05    0.97
   8   0  -3   -0.21    0.92
  -8   0   3    0.28    0.71
   8   0  -3   -0.80    1.05
  -8   0   2    7.68    1.88
  -8   0   1    0.64    0.87
  -8   0   0  109.37    7.76
   8   0   1    1.71    0.99
  -8   0  -1    2.92    1.46
  -8   0  -2  146.80   10.04
   8   0   2  149.54    9.35
   8   0   3    9.97    2.68
  -8   0  -3    7.39    2.54
  -8   0  -4  801.35   25.14
   8   0   5    2.84    1.12
   8   0   6  339.06    9.48
  -8   0  -7    2.04    0.87
   8   0   7    1.90    0.94
  -8   0  -8   98.47    4.58
   8   0   8  102.06    5.20
  -8   0  -9    0.17    0.53
   8   0   9   -0.07    0.62
   8   0  10   15.77    2.01
  -8   0 -10   18.43    1.86
  -8   0 -11    0.34    0.44
   8   0  11   -0.18    0.55
   8   0  12   44.04    2.52
   8   1 -15    0.95    0.44
   8  -1 -15    0.91    0.45
   8   1 -14    2.48    0.79
   8  -1 -14    2.61    0.79
   8   1 -14    2.40    0.64
   8   1 -13    9.34    1.49
   8  -1 -13    9.37    1.50
   8   1 -12    3.63    1.07
   8  -1 -12    5.40    1.26
   8  -1 -12    4.36    1.07
   8   1 -11   27.36    2.66
   8  -1 -11   26.83    2.66
   8  -1 -11   24.23    2.68
   8  -1 -10    7.14    1.55
   8   1 -10    6.42    1.40
   8   1 -10    2.93    0.87
   8  -1 -10    7.80    1.50
   8   1 -10    4.19    1.19
   8  -1  -9   91.02    5.30
   8  -1  -9  100.36    5.21
   8  -1  -8    1.62    0.67
   8   1  -8    4.28    1.17
   8   1  -7  231.41   14.17
   8  -1  -7  206.25   12.98
   8   1  -7  201.77   12.00
   8   1  -6   98.60    8.97
   8   1  -6   86.32    7.55
   8  -1  -6   80.87    7.84
   8  -1  -5  105.36    8.62
   8   1  -5   78.23    7.86
   8   1  -5   75.47    6.99
   8  -1  -5  108.46    7.65
   8   1  -4   46.91    5.39
   8  -1  -4   43.38    4.87
   8  -1  -4   39.21    5.08
   8   1  -3   97.18    7.77
  -8   1   3  115.46    7.57
   8  -1  -3  120.29    8.72
   8   1  -2  141.45    9.53
  -8   1   2  131.40    8.28
   8  -1  -2  126.22    8.77
  -8   1   1   36.84    4.50
  -8  -1   1   41.37    4.44
   8  -1  -1   38.79    4.85
   8   1   0    4.32    1.61
  -8  -1   0    9.85    2.42
  -8   1   0    8.91    2.29
  -8  -1   0    7.50    2.22
  -8   1  -1   61.46    6.25
  -8  -1  -1   61.16    6.19
   8   1   1   57.53    6.00
   8  -1   2    8.08    2.12
  -8   1  -2   10.61    2.75
  -8  -1  -2   11.81    2.85
   8   1   2   14.33    3.04
  -8   1  -3   68.76    7.17
  -8  -1  -3   67.06    6.98
   8   1   3   73.13    6.76
  -8   1  -4  102.36    9.15
  -8  -1  -4  104.68    9.03
  -8   1  -5    6.15    1.24
   8  -1   5    7.98    1.43
   8   1   5    6.00    1.29
  -8   1  -6    4.13    1.02
   8   1   6    1.91    0.80
   8   1   7   19.94    2.38
  -8   1  -7   18.27    2.07
   8  -1   7   14.68    2.08
  -8   1  -8    7.24    1.35
   8  -1   8    8.19    1.47
   8   1   8    7.73    1.53
  -8   1  -9    4.89    1.07
   8   1   9    6.56    1.39
   8   1  10   32.32    2.70
  -8   1 -10   30.02    2.46
   8  -1  11    0.89    0.54
  -8   1 -11    2.22    0.73
  -8   1 -12   10.44    1.13
   8   1  12    9.51    1.17
   8  -1  12   10.17    1.26
   8   1  12   10.36    1.21
   8  -2 -15   12.04    1.24
   8   2 -14   29.80    2.26
   8  -2 -14   29.69    2.31
   8   2 -14   29.50    2.16
   8  -2 -13    0.11    0.59
   8   2 -13   -0.63    0.75
   8  -2 -13   -0.35    0.69
   8   2 -12  101.38    4.57
   8   2 -12   89.23    4.55
   8  -2 -12   97.05    4.78
   8  -2 -12   93.85    4.90
   8   2 -11   11.01    1.64
   8  -2 -11    8.72    1.64
   8  -2 -11    8.36    1.52
   8   2 -11    8.15    1.43
   8   2 -10    4.13    1.12
   8   2 -10    2.22    0.81
   8  -2 -10    1.62    0.72
   8  -2 -10    2.16    0.95
   8   2  -9   45.07    3.58
   8   2  -9   37.81    3.10
   8  -2  -9   43.52    3.43
   8  -2  -8    7.58    1.42
   8   2  -8    5.02    1.21
   8   2  -8    4.86    1.13
   8   2  -7   26.65    2.70
   8  -2  -7   18.87    2.14
   8   2  -6    4.38    1.81
  -8   2   6    6.23    1.97
   8  -2  -6    9.44    2.69
   8  -2  -5   94.65    8.12
   8   2  -5   89.92    8.01
   8  -2  -4  157.77   10.29
   8   2  -4  153.69   10.18
  -8   2   3   16.88    3.14
   8  -2  -3   11.30    2.82
   8   2  -2  306.02   14.24
  -8   2   2  316.98   13.60
   8  -2  -2  332.53   14.06
   8   2  -2  349.85   15.38
   8   2  -1   12.56    2.95
   8   2  -1   12.54    3.00
  -8   2   1    7.19    2.15
  -8  -2   1    8.87    2.30
   8  -2  -1    4.79    1.86
   8   2   0    7.08    2.31
  -8   2   0   10.22    2.63
  -8  -2   0    7.86    2.16
  -8   2  -1   98.61    8.27
  -8  -2  -1   93.47    7.76
   8   2   1   98.88    8.06
  -8   2  -2   30.06    4.70
  -8  -2  -2   27.46    4.36
   8   2   2   25.05    4.20
  -8   2  -3   65.79    7.25
  -8  -2  -3   56.44    6.47
   8  -2   4    4.56    1.13
   8   2   4    2.67    0.86
   8  -2   5    2.31    0.89
  -8   2  -5    1.93    0.82
   8   2   5    1.32    0.82
  -8   2  -6   38.05    3.05
   8   2   6   38.25    3.27
  -8   2  -7   10.04    1.66
   8   2   7    5.28    1.40
  -8   2  -8   52.89    3.55
   8   2   8   49.88    3.71
  -8   2  -9    2.82    0.94
   8   2   9    3.64    1.15
  -8   2 -10   38.47    2.77
   8   2  10   41.41    3.08
   8  -2  10   40.29    3.00
   8  -2  11   -0.65    0.57
  -8   2 -11    0.53    0.43
   8   2  11    0.42    0.51
   8  -2  12    5.34    0.88
   8   2  12    5.30    0.83
  -8   2 -12    4.92    0.84
   8   2  12    5.21    0.87
   8  -3 -14    3.39    0.73
   8   3 -14    2.43    0.67
   8  -3 -13    0.13    0.52
   8  -3 -13   -0.29    0.62
   8   3 -13   -0.13    0.62
   8   3 -12   14.81    1.78
   8   3 -12   16.39    1.91
   8  -3 -12   12.49    1.66
   8  -3 -12   12.65    1.83
   8   3 -11   37.13    3.03
   8   3 -11   33.47    2.82
   8  -3 -11   41.57    3.15
   8  -3 -11   36.44    3.18
   8   3 -11   39.24    3.11
   8   3 -10    1.24    0.74
   8   3 -10    1.42    0.82
   8   3 -10    1.27    0.66
   8  -3 -10    2.07    0.88
   8  -3 -10    2.11    0.96
   8   3  -9   41.45    3.28
   8   3  -9   39.78    3.45
   8  -3  -9   37.47    3.15
  -8   3   9   37.02    2.99
   8  -3  -8    3.93    1.16
   8   3  -8    1.89    0.70
   8   3  -8    2.06    0.88
   8   3  -8    2.96    1.00
  -8   3   8    3.03    0.99
   8   3  -7    9.18    1.69
   8   3  -7    9.77    1.56
   8   3  -7    9.67    1.61
  -8   3   7   10.34    1.54
   8  -3  -7   11.93    1.78
   8   3  -6   31.99    2.73
   8   3  -6   33.03    3.12
   8   3  -6   33.06    2.86
   8  -3  -6   29.37    2.68
   8   3  -5    1.39    1.39
   8  -3  -5    1.11    1.34
   8  -3  -4  157.45   10.48
   8   3  -4  193.90   12.27
   8   3  -4  182.10   11.72
   8   3  -3   57.83    6.71
   8  -3  -3   53.31    6.03
   8   3  -3   51.16    6.12
   8   3  -2   24.66    4.25
   8  -3  -2   19.77    3.58
  -8   3   2   23.93    3.99
   8   3  -2   29.25    4.77
   8   3  -1    4.03    1.71
   8   3  -1    5.48    2.15
   8  -3  -1   11.11    2.63
  -8   3   1    8.03    2.44
   8   3   0  199.38   12.28
  -8   3   0  195.42   11.92
  -8  -3   0  198.59   11.12
   8   3   0  197.14   11.96
   8   3   1   12.40    3.25
  -8   3  -1   24.69    4.41
  -8  -3  -1   18.91    3.73
   8   3   1   14.87    3.54
   8   3   2   21.52    4.27
  -8   3  -2   21.78    4.25
  -8  -3  -2   17.21    3.64
   8   3   3   23.22    2.48
  -8   3  -3   20.59    2.25
   8   3   3   22.09    2.34
   8  -3   3   20.59    2.30
   8   3   4   83.57    4.85
  -8   3  -4   88.39    4.67
   8   3   4   82.77    4.70
   8  -3   4   86.31    4.78
  -8   3  -5   76.57    4.45
   8   3   5   64.95    4.18
  -8   3  -6   46.15    3.51
   8   3   6   45.92    3.61
   8  -3   6   47.36    3.63
   8  -3   7    5.89    1.32
  -8   3  -7    4.14    1.18
   8   3   7    2.30    1.01
  -8   3  -8    9.68    1.63
   8   3   8    7.05    1.49
   8  -3   8   11.31    1.78
   8  -3   9    3.66    1.06
  -8   3  -9    3.68    1.02
   8   3   9    2.63    0.99
   8  -3  10    0.17    0.57
  -8   3 -10    0.97    0.68
   8   3  10    0.39    0.52
   8  -3  11    4.84    0.91
  -8   3 -11    4.80    0.94
   8   3  11    2.99    0.83
  -8   3 -12    0.09    0.31
   8   3  12   -0.14    0.31
   8   4 -14    8.66    1.07
  -8   4  14    7.78    1.03
   8  -4 -13    2.17    0.66
   8   4 -13    1.75    0.64
   8  -4 -12    4.50    1.12
   8   4 -12    5.49    1.15
   8   4 -11    2.09    0.90
   8   4 -11    1.02    0.62
   8  -4 -11    1.17    0.76
  -8   4  11    1.22    0.61
   8   4 -10   41.60    3.30
   8   4 -10   41.83    3.34
   8  -4 -10   39.20    3.38
  -8   4  10   42.64    3.23
   8   4  -9   17.28    2.17
   8   4  -9   18.94    2.42
  -8   4   9   22.99    2.45
   8   4  -8  113.71    5.41
   8   4  -8  110.05    5.88
  -8   4   8  112.09    5.33
   8  -4  -8  121.51    5.81
   8   4  -7   36.11    3.08
   8   4  -7   34.33    3.31
   8   4  -7   37.57    3.21
  -8   4   7   43.37    3.32
   8   4  -6   63.84    4.04
   8   4  -6   66.86    4.62
   8   4  -6   69.64    4.39
  -8   4   6   64.37    3.95
   8  -4  -6   73.02    4.38
   8   4  -5   11.50    1.74
   8   4  -5   12.86    2.03
   8  -4  -5   13.58    1.92
   8   4  -5   10.48    1.64
   8  -4  -4    0.66    0.54
   8   4  -4    0.43    0.45
   8   4  -4    1.33    0.61
   8   4  -4    1.54    0.71
   8   4  -3    3.24    1.78
   8  -4  -3   -0.08    1.05
   8   4  -3    5.56    1.15
   8  -4  -3    1.45    0.84
   8   4  -3    6.16    1.33
   8  -4  -2   72.27    8.17
   8   4  -2   95.99    8.78
   8   4  -2   98.81    9.04
   8   4  -1   11.13    3.19
  -8   4   1   14.11    3.29
   8  -4  -1   11.61    3.28
   8   4   0   15.54    3.56
  -8   4   0   20.35    2.22
   8  -4   0    9.88    3.26
   8   4   1    5.41    1.29
  -8   4  -1    8.30    1.50
   8   4   1    6.64    1.48
   8   4   2  215.40    7.53
  -8   4  -2  219.67    7.43
   8   4   2  229.48    7.58
   8  -4   2  233.30    7.74
   8   4   3   12.52    1.98
   8   4   3    9.79    1.73
   8   4   4  205.06    7.61
  -8   4  -4  187.31    7.08
   8   4   4  209.77    7.51
   8  -4   4  203.71    7.42
   8   4   5   22.32    2.64
  -8   4  -5   27.24    2.74
   8   4   5   22.57    2.59
   8   4   6   13.22    2.07
  -8   4  -6   10.42    1.79
   8   4   6   11.99    1.95
   8  -4   6   12.56    1.99
   8  -4   7    1.04    0.77
  -8   4  -7    0.57    0.66
   8   4   7    1.53    0.82
   8  -4   8    2.63    0.92
  -8   4  -8    2.09    0.88
   8   4   8    1.68    0.76
   8  -4   9    1.39    0.72
  -8   4  -9    1.40    0.70
   8   4   9    1.67    0.64
  -8   4 -10    3.85    0.91
   8   4  10    3.88    0.98
  -8   4 -11    9.31    1.18
   8   4  11    7.36    1.11
   8   4  11    6.18    0.83
   8   5 -13    5.88    0.97
  -8   5  13    4.60    0.82
   8  -5 -12   33.58    2.46
   8   5 -12   31.31    2.44
  -8   5  12   37.96    2.58
   8  -5 -11    0.49    0.55
   8   5 -11    1.24    0.89
   8   5 -11    0.08    0.58
  -8   5  11   -0.21    0.57
   8   5 -10   46.37    3.32
   8   5 -10   42.80    3.34
   8  -5 -10   42.76    3.31
   8   5 -10   43.04    3.25
  -8   5  10   46.31    3.31
   8   5  -9   -1.57    0.96
   8   5  -9   -0.25    0.66
  -8   5   9   -0.55    0.66
   8   5  -8   23.03    2.52
   8   5  -8   20.71    2.54
  -8   5   8   24.20    2.56
   8   5  -7   71.70    4.37
   8   5  -7   69.49    4.67
   8   5  -7   77.67    4.71
  -8   5   7   69.83    4.27
   8  -5  -7   83.03    4.82
   8  -5  -6    3.05    1.06
   8   5  -6    1.07    0.68
   8   5  -6    1.48    0.95
   8   5  -6    0.91    0.79
  -8   5   6    1.73    0.90
   8   5  -5  129.51    5.83
   8   5  -5  116.90    6.13
   8   5  -5  126.02    6.12
   8   5  -4  115.98    5.50
   8   5  -4  106.20    5.77
  -8   5   4   97.54    4.57
   8   5  -4  105.95    5.59
   8  -5  -4  109.47    5.40
   8   5  -3   51.27    3.68
  -8   5   3   56.32    3.52
   8   5  -3   49.98    3.84
   8   5  -2   15.69    2.10
  -8   5   2   19.23    2.12
   8   5  -2   14.14    2.06
   8   5  -1    3.32    1.10
  -8   5   1    1.56    0.79
  -8   5   1    1.15    0.70
   8   5  -1    2.20    0.93
   8   5   0   55.16    4.01
  -8   5   0   56.13    3.89
   8   5   0   54.48    4.01
   8   5   1   55.82    3.99
  -8   5  -1   50.55    3.76
   8   5   1   57.69    4.17
  -8   5  -2    6.52    1.47
   8   5   2    5.47    1.33
   8   5   2    6.50    1.44
   8   5   3   62.28    4.23
  -8   5  -3   67.94    4.40
   8   5   3   75.34    4.08
  -8   5  -4    4.66    1.19
   8   5   4    4.73    1.32
   8   5   4    6.82    1.43
   8   5   4    7.84    1.36
   8   5   5    0.79    0.80
  -8   5  -5    0.01    0.56
   8   5   5    0.01    0.61
   8   5   5   -0.48    0.69
   8   5   6    0.13    0.79
  -8   5  -6   -0.20    0.63
   8   5   6   -0.57    0.68
   8   5   6   -0.58    0.76
  -8   5  -7    3.77    1.07
   8   5   7    3.83    0.95
   8   5   7    4.77    1.21
  -8   5  -8    7.11    1.36
   8   5   8    5.98    1.06
   8   5   8    4.95    1.13
  -8   5  -9    1.18    0.56
   8   5   9    1.47    0.64
   8   5   9    0.83    0.64
  -8   5 -10    8.29    1.02
  -8   5 -10    6.67    1.06
   8   5  10    6.51    1.05
   8   5  10    5.41    0.83
   8  -6 -12    3.03    0.67
   8   6 -12    2.77    0.66
  -8   6  12    3.13    0.76
   8  -6 -11    2.00    0.71
   8   6 -11    2.23    0.73
  -8   6  11    2.06    0.73
   8  -6 -10    2.97    0.94
   8   6 -10    2.42    0.84
   8   6 -10    1.68    0.66
  -8   6  10    3.29    0.96
   8   6  -9    0.20    0.64
   8   6  -9    0.36    0.59
   8   6  -9    0.13    0.52
  -8   6   9    0.12    0.57
   8   6  -8   40.89    3.26
   8   6  -8   38.24    3.30
   8   6  -8   36.95    3.01
  -8   6   8   45.11    3.39
   8   6  -7   28.17    2.77
   8   6  -7   24.08    2.70
  -8   6   7   26.92    2.69
   8   6  -6    1.92    0.92
   8   6  -6    1.95    0.89
  -8   6   6    0.81    0.64
   8   6  -6    0.97    0.74
  -8   6   6    1.46    0.77
   8   6  -5   -0.02    0.63
   8   6  -5    0.13    0.64
  -8   6   5    0.72    0.56
   8   6  -5    0.55    0.75
  -8   6   5   -0.01    0.62
   8   6  -4   19.64    2.37
   8   6  -4   20.34    2.50
  -8   6   4   23.48    2.32
   8   6  -4   20.99    2.57
  -8   6   4   22.01    2.55
   8   6  -3    4.68    1.23
  -8   6   3    5.39    1.19
   8   6  -3    4.74    1.28
   8   6  -2    5.52    1.35
  -8   6   2    8.20    1.50
   8   6  -2    7.37    1.60
   8   6  -1   24.89    2.75
  -8   6   1   19.88    2.33
   8   6  -1   26.65    2.83
   8   6   0    4.95    1.41
  -8   6   0    7.62    1.49
  -8   6   0    6.31    1.45
   8   6   0    6.23    1.30
   8   6   0    4.70    1.22
   8   6   1    6.37    1.58
  -8   6  -1    4.28    1.17
  -8   6  -1    4.43    1.23
   8   6   1    7.27    1.50
   8   6   2   23.99    2.83
   8   6   2   19.94    2.56
  -8   6  -2   22.15    2.59
   8   6   2   23.97    2.42
  -8   6  -3    2.62    0.87
   8   6   3    0.22    0.63
  -8   6  -3    2.20    0.98
   8   6   3    2.01    0.88
  -8   6  -4   18.12    1.90
   8   6   4   12.34    2.00
  -8   6  -4   14.06    2.03
   8   6   4   13.93    1.78
  -8   6  -5    6.55    1.23
   8   6   5    6.07    1.41
  -8   6  -5    5.38    1.29
   8   6   5    6.34    1.23
  -8   6  -6   25.98    2.23
   8   6   6   21.17    2.48
  -8   6  -6   24.19    2.52
   8   6   6   21.09    2.09
  -8   6  -7    0.58    0.57
  -8   6  -7    0.59    0.58
   8   6   7   -0.13    0.61
  -8   6  -8   16.74    1.68
  -8   6  -8   18.94    1.67
  -8   6  -8   16.25    1.82
   8   6   8   16.09    1.61
   8   6   9    2.52    0.68
  -8   6  -9    2.41    0.64
  -8   6  -9    2.15    0.53
  -8   6  -9    2.64    0.71
   8   6   9    0.83    0.46
   8  -7 -10   17.48    1.59
  -8   7  10   23.79    2.07
   8   7 -10   23.62    2.04
   8   7  -9    0.46    0.57
   8  -7  -9    0.65    0.55
  -8   7   9    1.39    0.81
   8   7  -8   -0.50    0.69
  -8   7   8   -0.81    0.81
   8   7  -7    4.44    1.17
  -8   7   7    4.39    1.15
   8   7  -6    0.83    0.69
  -8   7   6   -0.21    0.66
  -8   7   6    0.47    0.58
   8   7  -5    1.44    0.63
  -8   7   5    1.50    0.72
  -8   7   5    2.16    0.97
   8   7  -4   -0.45    0.67
  -8   7   4    0.48    0.61
  -8   7   4    0.49    0.58
   8   7  -3   -0.15    0.71
  -8   7   3   -0.21    0.56
   8   7  -3   -0.03    0.55
   8   7  -3   -0.07    0.47
  -8   7   3    0.37    0.54
   8   7  -2    2.54    0.99
  -8   7   2   -0.01    0.55
   8   7  -2    1.82    0.84
   8   7  -2    2.53    0.96
  -8   7   2    0.77    0.76
   8   7  -1    7.46    1.59
  -8   7   1   11.36    1.78
   8   7  -1    7.56    1.41
   8   7   0   38.77    3.31
   8   7   0   43.69    3.16
   8   7   1   -0.49    0.83
  -8   7  -1   -0.24    0.59
   8   7   1   -0.03    0.56
   8   7   2   34.84    3.13
  -8   7  -2   33.96    2.99
   8   7   2   33.44    2.95
   8   7   2   37.31    2.90
   8   7   3   14.73    2.09
  -8   7  -3   12.19    1.83
   8   7   3    8.84    1.72
  -8   7  -3   13.19    1.96
   8   7   3   12.60    1.82
   8   7   4    5.57    1.39
  -8   7  -4    4.53    0.98
   8   7   4    4.20    1.14
  -8   7  -4    4.00    1.11
  -8   7  -4    4.95    1.29
   8   7   4    4.20    1.12
   8   7   5    2.10    0.83
  -8   7  -5    2.40    0.72
   8   7   5    1.45    0.79
  -8   7  -5    2.42    0.89
  -8   7  -5    3.12    0.99
   8   7   5    3.09    0.91
   8   7   6    0.93    0.60
  -8   7  -6    0.34    0.44
  -8   7  -6    0.08    0.45
  -8   7  -6    0.19    0.45
   8   7   6   -0.09    0.49
   8   7   7    8.64    1.19
  -8   7  -7    9.13    1.14
  -8   7  -7    9.32    1.12
  -8   7  -7    8.86    1.25
   8   7   7    5.69    0.98
  -8   7  -8    6.39    0.83
  -8   8   9   15.18    1.50
   8   8  -9   13.63    1.41
   8   8  -8   13.66    1.58
  -8   8   8   14.70    1.64
   8   8  -7    4.48    1.00
  -8   8   7    8.17    1.19
  -8   8   7    5.97    1.13
   8   8  -6    0.47    0.62
  -8   8   6    1.53    0.68
  -8   8   6    1.19    0.55
   8   8  -5    0.53    0.55
  -8   8   5   -0.05    0.51
  -8   8   5   -0.05    0.49
   8   8  -4    0.99    0.71
  -8   8   4    0.78    0.71
   8   8  -4    1.33    0.76
  -8   8   4    0.55    0.58
   8   8  -3   13.04    1.82
  -8   8   3   14.59    1.84
   8   8  -3   11.55    1.62
  -8   8   3   16.43    2.02
   8   8  -2    0.63    0.65
  -8   8   2    0.01    0.58
   8   8  -2    0.57    0.63
  -8   8   2    0.19    0.56
   8   8  -1    8.80    1.57
  -8   8   1   11.08    1.61
   8   8  -1    7.05    1.27
  -8   8   1   10.05    1.53
   8   8   0    0.81    0.69
  -8   8   0    0.21    0.57
   8   8   0   -0.33    0.69
   8   8   1    0.18    0.60
  -8   8  -1    0.54    0.59
   8   8   1    0.25    0.57
   8   8   2    0.43    0.61
  -8   8  -2    1.01    0.67
   8   8   2    0.89    0.64
   8   8   3    8.13    1.38
  -8   8  -3   10.17    1.48
   8   8   3    9.00    1.47
   8   8   3    9.34    1.35
   8   8   4    9.89    1.35
  -8   8  -4    8.27    1.25
   8   8   4   11.18    1.42
  -8   8  -5    0.25    0.35
  -8   8  -5   -0.43    0.43
   8   8   5   -0.03    0.42
   8   9  -5   -0.55    0.48
  -8   9   5    0.68    0.55
   8   9  -4    7.57    1.14
  -8   9   4    7.24    1.17
  -8   9   4    5.80    0.94
   8   9  -3    0.04    0.48
  -8   9   3   -0.41    0.63
   8   9  -3    1.22    0.59
   8   9  -2    0.22    0.46
  -8   9   2    0.85    0.56
   8   9  -2   -0.10    0.50
   8   9  -1    5.57    1.02
  -8   9   1    8.01    1.25
   8   9  -1    4.75    0.92
   8   9   0   14.80    1.51
  -8   9   0   13.22    1.57
   8   9   0   13.50    1.45
  -8   9  -1   11.62    1.40
   8   9   1    8.65    1.16
  -8   9  -2    1.56    0.64
   8   9   2    1.96    0.57
  -8   9  -3    0.70    0.46
   9   0 -15    0.03    0.35
   9   0 -14    6.79    1.17
   9   0 -13   -0.13    0.48
   9   0 -12   56.28    3.69
   9   0 -11    0.73    0.61
   9   0 -11    2.35    1.04
   9   0 -10  316.34    9.42
   9   0 -10  274.78    8.43
   9   0  -9    1.26    0.62
   9   0  -9    1.33    0.73
   9   0  -8   68.72    4.25
   9   0  -8   66.06    4.17
   9   0  -7    0.89    0.66
   9   0  -7    2.03    0.76
   9   0  -6   18.42    4.08
   9   0  -6   20.38    3.80
   9   0  -5   -0.12    0.87
   9   0  -5    0.70    1.16
   9   0  -4    7.81    2.24
   9   0  -4    8.93    2.71
   9   0  -3    1.18    1.19
  -9   0   2   55.34    5.50
  -9   0   1    4.47    1.74
  -9   0   0  247.02   12.49
   9   0   1    1.95    1.34
  -9   0  -1    0.78    0.75
  -9   0  -2   36.68    5.24
   9   0   2   37.21    5.03
   9   0   3    2.60    0.97
   9   0   3    0.46    0.83
   9   0   3    2.76    0.94
   9   0   4   15.53    2.07
   9   0   4   13.64    1.88
   9   0   5    1.04    0.81
   9   0   5    0.80    0.70
   9   0   6   -0.48    0.60
   9   0   7    0.26    0.51
   9   0   8    0.54    0.62
   9   0   9   -1.26    0.86
   9   0   9   -0.13    0.46
   9   0  10   11.60    1.53
   9   0  10   12.18    1.59
   9   0  11    0.24    0.49
   9   0  12    8.20    0.94
   9  -1 -15    7.28    0.94
   9   1 -14   27.23    2.15
   9  -1 -14   27.69    2.18
   9   1 -14   26.06    1.91
   9   1 -13    2.32    0.77
   9  -1 -13    1.90    0.81
   9   1 -12   36.64    2.91
   9  -1 -12   36.41    2.90
   9  -1 -12   37.37    3.03
   9   1 -11   26.10    2.48
   9   1 -11   17.35    2.12
   9  -1 -11   19.56    2.23
   9  -1 -11   19.64    2.37
   9   1 -10    8.37    1.55
   9  -1 -10    6.00    1.44
   9   1 -10    4.55    1.11
   9  -1 -10    5.67    1.26
   9   1  -9    1.53    0.79
   9  -1  -9    0.68    0.71
   9  -1  -9    1.12    0.65
   9   1  -8   82.11    4.84
   9  -1  -8   79.33    4.61
   9  -1  -7   25.56    2.54
   9  -1  -7   22.84    2.43
   9   1  -6   56.27    3.88
   9  -1  -6   56.88    3.70
   9  -1  -5   18.50    3.85
   9   1  -5   17.74    3.65
   9  -1  -5   18.37    3.42
   9   1  -4   67.25    6.89
   9  -1  -4   78.09    7.04
   9  -1  -4   86.20    7.98
   9   1  -3   50.13    5.98
   9  -1  -3   41.27    5.36
  -9   1   3   42.01    4.96
   9  -1  -3   38.23    5.43
   9  -1  -2  194.29   11.68
   9   1  -2  167.48   11.11
  -9   1   2  176.93   10.37
  -9   1   1   36.00    4.84
  -9  -1   1   44.90    4.99
   9   1   0    5.04    1.80
  -9   1   0    8.01    2.40
  -9  -1   0    8.68    2.35
  -9   1  -1   64.31    6.85
  -9  -1  -1   63.12    6.48
  -9  -1  -1   67.12    6.92
   9  -1   1   63.84    6.24
   9   1   1   74.51    7.19
   9  -1   2   14.03    2.94
   9   1   2    6.78    2.36
  -9   1  -2    8.94    2.71
  -9  -1  -2    7.70    2.39
   9   1   3   53.48    3.65
   9   1   3   44.19    5.56
   9   1   3   48.25    3.36
   9  -1   4    0.85    0.66
   9   1   4    2.39    0.98
  -9   1  -4    1.11    0.67
   9  -1   4    1.03    0.77
   9   1   4    1.62    0.81
  -9   1  -5   84.56    4.36
   9  -1   5   87.49    4.84
   9   1   5   83.01    4.73
   9  -1   5   75.78    4.43
   9   1   5   74.59    4.36
   9  -1   6    1.74    0.93
  -9   1  -6    2.62    0.89
   9  -1   6    2.19    0.89
   9   1   6    1.23    0.70
   9  -1   7    0.48    0.64
  -9   1  -7    0.47    0.52
   9  -1   7    0.39    0.59
   9   1   7    0.03    0.64
   9  -1   8    1.84    0.78
  -9   1  -8    1.11    0.54
   9  -1   8    2.37    0.88
   9   1   8    0.21    0.60
   9  -1   9    2.76    0.99
   9   1   9    3.20    0.97
  -9   1  -9    3.03    0.79
   9   1   9    3.17    0.99
   9  -1  10   -0.39    0.64
   9   1  10   -0.35    0.62
  -9   1 -10    0.58    0.47
   9   1  10    0.46    0.50
   9  -1  11    0.45    0.50
   9   1  11    0.48    0.41
  -9   1 -11    0.29    0.37
   9   1  11    0.37    0.46
   9   2 -14    3.40    0.72
   9  -2 -14    2.93    0.70
   9   2 -14    3.66    0.77
   9   2 -13   -0.16    0.49
   9  -2 -13   -0.06    0.50
   9  -2 -13    0.54    0.46
   9   2 -12    8.46    1.34
   9   2 -12    6.88    1.28
   9  -2 -12    6.84    1.31
   9  -2 -12    6.70    1.33
   9   2 -11    0.30    0.41
   9   2 -11    0.29    0.54
   9  -2 -11   -0.26    0.67
   9  -2 -11   -0.16    0.73
   9   2 -10    8.30    1.60
   9  -2 -10    8.20    1.51
   9   2 -10    6.81    1.32
   9  -2 -10    6.50    1.40
   9   2  -9    5.44    1.22
   9  -2  -9    3.06    0.89
   9   2  -8  247.90    8.64
   9   2  -8  252.59    7.88
   9  -2  -8  233.44    8.02
   9  -2  -7    2.84    0.93
   9   2  -7    1.80    0.88
   9   2  -7    3.22    1.06
   9   2  -6  249.26    8.47
   9  -2  -6  252.25    7.81
   9   2  -6  253.94    7.82
   9  -2  -6  259.50    8.08
   9  -2  -5    3.53    0.94
   9   2  -5    9.61    1.61
   9  -2  -4   20.68    3.90
   9   2  -4   21.86    3.99
   9   2  -3   95.53    8.52
  -9   2   3   94.67    7.87
   9  -2  -3   95.65    8.23
   9   2  -3   92.73    8.63
   9   2  -2   32.10    4.92
  -9   2   2   31.18    4.59
   9  -2  -2   28.73    4.52
   9   2  -2   33.95    5.10
   9   2  -1    5.19    2.16
   9   2  -1    4.37    2.09
  -9   2   1    2.20    1.29
   9   2   0    4.24    1.80
  -9   2   0    3.14    1.57
  -9  -2   0    4.52    1.80
   9   2   1   12.81    3.13
  -9   2  -1   15.57    3.50
  -9  -2  -1   14.53    3.10
   9  -2   2    3.33    0.98
   9   2   2    2.04    0.74
   9  -2   3    6.79    1.38
  -9   2  -3    7.12    1.37
  -9   2  -4  143.47    5.76
   9   2   4  132.80    5.95
   9  -2   4  139.15    6.08
   9  -2   5    1.60    1.04
   9   2   5    2.52    0.95
  -9   2  -5    1.60    0.80
   9   2   5    3.09    1.17
  -9   2  -6   66.97    4.05
   9   2   6   77.27    4.60
   9  -2   6   65.26    4.26
   9   2   6   75.24    4.23
  -9   2  -7    9.82    1.56
   9   2   7    6.80    1.44
   9  -2   8   -0.13    0.56
   9   2   8    0.56    0.48
  -9   2  -8    0.56    0.47
   9   2   8    0.12    0.71
   9  -2   9   -0.13    0.60
   9   2   9   -0.18    0.60
  -9   2  -9   -0.14    0.42
   9   2   9   -0.56    0.67
   9  -2  10    2.86    0.80
   9   2  10    2.63    0.71
  -9   2 -10    2.18    0.66
   9   2  10    2.42    0.78
   9  -2  11   -0.35    0.46
   9   2  11    0.92    0.50
  -9   2 -11    0.17    0.31
   9   2  11   -0.01    0.36
   9   3 -14    9.80    1.13
   9  -3 -13    6.30    1.03
   9  -3 -13    5.25    1.01
   9   3 -13    5.25    0.98
   9   3 -12    5.12    1.07
   9  -3 -12    5.91    1.13
   9  -3 -12    5.62    1.30
   9   3 -11   -0.15    0.49
   9   3 -11    0.17    0.46
   9  -3 -11    0.01    0.44
   9  -3 -11   -0.11    0.61
   9   3 -10    7.42    1.49
   9   3 -10    7.11    1.27
   9  -3 -10    5.30    1.22
   9  -3 -10    5.20    1.35
   9   3  -9    2.68    1.03
   9   3  -9    2.17    0.85
   9  -3  -9    1.22    0.73
  -9   3   9    0.44    0.57
   9  -3  -9    1.13    0.63
   9   3  -8   66.30    4.05
   9   3  -8   59.57    4.31
   9   3  -8   62.75    4.06
  -9   3   8   58.88    3.73
   9  -3  -8   57.61    3.98
   9  -3  -7    0.59    0.65
   9   3  -7    0.67    0.71
   9   3  -7    0.89    0.70
   9   3  -7    0.65    0.49
  -9   3   7    0.56    0.52
   9   3  -6   10.99    1.68
   9   3  -6    8.83    1.73
   9   3  -6   10.50    1.75
   9  -3  -6   13.17    1.87
   9  -3  -5    1.00    0.69
   9   3  -5   -0.02    0.69
   9   3  -5    0.41    0.46
   9  -3  -5    0.82    0.46
   9   3  -5    0.10    0.50
   9   3  -4   15.35    1.88
   9   3  -4   15.51    2.16
   9   3  -4   13.97    1.93
   9  -3  -4   15.33    1.98
   9   3  -3   69.19    4.46
   9  -3  -3   57.83    6.54
   9   3  -3   75.45    4.42
   9   3  -3   62.86    7.37
   9  -3  -3   84.23    4.51
   9   3  -2    4.86    2.22
   9   3  -2    7.24    2.55
  -9   3   2   13.73    1.80
   9  -3  -2   14.53    3.28
   9   3  -2   10.41    1.72
   9   3  -1   87.73    8.58
  -9   3   1  117.71    5.26
   9   3  -1  115.64    5.60
   9   3  -1   80.85    8.23
   9  -3  -1   97.50    8.26
  -9   3   0   20.37    2.21
   9  -3   0   24.83    2.49
   9  -3   1    1.36    0.86
  -9   3  -1    0.99    0.63
   9   3   1    1.57    0.78
  -9   3  -2  198.67    6.94
   9  -3   2  201.21    7.26
   9  -3   3    4.11    1.18
  -9   3  -3    8.37    1.65
  -9   3  -4  141.17    5.99
   9   3   4  131.91    6.04
   9  -3   4  141.75    6.23
   9  -3   5    1.73    0.89
  -9   3  -5    0.48    0.65
   9   3   5    0.38    0.67
   9  -3   6    2.00    0.87
  -9   3  -6    2.05    0.93
   9   3   6    1.97    0.89
  -9   3  -7   19.21    2.21
   9   3   7   13.27    1.98
   9  -3   7   19.96    2.36
   9  -3   8    0.02    0.54
  -9   3  -8    0.67    0.59
   9   3   8   -0.50    0.83
   9  -3   9    2.57    0.82
  -9   3  -9    2.43    0.76
   9   3   9    0.11    0.62
   9  -3  10   -0.40    0.51
  -9   3 -10    0.32    0.40
   9   3  10    0.02    0.46
  -9   3 -11    0.56    0.39
   9   3  11    0.17    0.37
   9  -4 -13    6.50    1.02
   9   4 -13    4.80    0.87
   9  -4 -12   19.22    1.95
   9   4 -12   22.30    2.08
   9   4 -11    2.13    0.96
   9   4 -11   -0.01    0.49
   9  -4 -11    1.26    0.80
  -9   4  11    0.42    0.50
   9   4 -10   28.58    2.57
   9   4 -10   29.47    2.80
   9  -4 -10   21.83    2.53
  -9   4  10   26.66    2.47
   9   4  -9   43.99    3.32
   9   4  -9   42.23    3.53
  -9   4   9   45.09    3.29
   9   4  -8   15.24    2.01
   9   4  -8   13.96    2.14
   9   4  -8   15.69    2.12
  -9   4   8   12.56    1.83
   9  -4  -8   11.68    1.88
   9  -4  -7    0.80    0.60
   9   4  -7    0.65    0.71
   9   4  -7   -0.08    0.78
   9   4  -7    0.03    0.52
  -9   4   7   -0.07    0.70
   9  -4  -6    9.22    1.65
   9   4  -6   10.45    1.66
   9   4  -6    9.61    1.81
   9   4  -6   10.30    1.69
   9   4  -5    6.70    1.45
   9   4  -5    7.52    1.44
   9   4  -5    8.01    1.61
   9  -4  -5   10.64    1.73
   9  -4  -4   -0.02    0.59
   9   4  -4    0.58    0.50
   9   4  -4    0.49    0.59
   9   4  -4   -0.36    0.83
   9  -4  -3    1.53    0.71
   9   4  -3    0.18    0.58
   9   4  -3    0.26    0.64
   9   4  -3    0.16    0.62
   9  -4  -2    1.09    0.59
   9   4  -2    0.85    0.62
  -9   4   2    0.41    0.46
   9   4  -2    1.08    0.74
   9   4  -1   27.83    2.76
  -9   4   1   27.59    2.71
   9   4  -1   24.20    2.66
   9  -4  -1   33.48    2.99
  -9   4   0  170.17    6.65
   9   4   0  181.26    7.31
   9  -4   0  174.27    6.82
   9  -4   1    1.67    0.84
  -9   4  -1    0.30    0.66
   9   4   1    2.49    1.02
   9   4   1    2.15    0.87
  -9   4  -2   38.92    3.24
   9   4   2   41.45    3.35
   9  -4   2   44.68    3.49
   9  -4   3    3.54    1.14
  -9   4  -3    3.03    1.08
   9   4   3    1.92    0.86
  -9   4  -4   13.53    1.96
   9   4   4   10.84    1.85
   9  -4   4   14.47    2.08
   9  -4   5    0.50    0.72
  -9   4  -5    0.43    0.76
   9   4   5    1.68    0.94
  -9   4  -6   22.22    2.41
   9   4   6   21.35    2.44
   9  -4   6   24.61    2.56
   9  -4   7    5.99    1.28
  -9   4  -7    3.67    0.99
   9   4   7    2.65    0.85
   9   4   7    3.07    1.01
   9  -4   8    4.99    1.14
  -9   4  -8    4.93    1.14
   9   4   8    5.13    0.98
   9   4   8    3.78    1.04
   9  -4   9    0.04    0.45
  -9   4  -9    0.40    0.57
   9   4   9    1.72    0.56
   9   4   9    0.87    0.62
  -9   4 -10    5.38    0.96
   9   4  10    6.76    1.08
   9   5 -12   11.62    1.39
   9  -5 -12   10.76    1.36
  -9   5  12   12.17    1.34
   9   5 -11    2.56    0.90
   9  -5 -11    0.90    0.59
   9   5 -11    1.69    0.73
  -9   5  11    1.09    0.46
   9   5 -10    2.32    0.82
   9   5 -10    1.75    0.77
   9  -5 -10    1.94    0.94
   9   5 -10    1.49    0.67
  -9   5  10    1.52    0.72
   9   5  -9    1.20    0.63
   9   5  -9    1.67    0.88
  -9   5   9    3.02    0.94
   9   5  -8   13.96    1.92
   9   5  -8   12.35    1.97
  -9   5   8   12.55    1.83
   9   5  -7    3.71    1.26
   9   5  -7    2.36    0.93
   9   5  -7    3.33    1.16
  -9   5   7    5.15    1.27
   9  -5  -6    0.75    0.68
   9   5  -6    1.00    0.70
   9   5  -6    0.66    0.71
   9   5  -6    0.73    0.75
  -9   5   6    1.82    0.82
   9   5  -5   34.55    3.09
   9   5  -5   27.75    3.01
   9   5  -5   31.63    3.10
   9   5  -4   85.78    4.80
   9   5  -4   76.36    4.96
   9   5  -4   79.86    4.91
   9  -5  -4   88.77    5.01
   9  -5  -3    8.44    1.63
   9   5  -3   15.35    2.08
  -9   5   3   10.02    1.50
   9   5  -3   13.75    2.09
   9   5  -2   65.95    4.27
  -9   5   2   63.48    3.81
   9   5  -2   56.55    4.17
   9  -5  -2   68.27    4.31
   9  -5  -1    5.30    1.30
   9   5  -1   13.12    2.00
  -9   5   1    7.28    1.44
   9   5  -1   12.35    2.04
   9   5   0   74.31    4.61
  -9   5   0   75.36    4.57
   9   5   0   69.72    4.63
   9   5   1   32.66    3.00
  -9   5  -1   31.17    2.98
   9   5   1   33.73    3.24
   9  -5   1   32.97    3.04
   9   5   2    2.22    0.98
  -9   5  -2    2.98    1.04
   9   5   2    2.72    0.97
   9   5   3    0.25    0.64
  -9   5  -3    0.17    0.70
   9   5   3    0.12    0.47
  -9   5  -4   11.96    1.93
   9   5   4   13.47    1.91
  -9   5  -5    0.88    0.72
   9   5   5    0.17    0.60
  -9   5  -6    3.47    0.97
   9   5   6    2.88    0.85
   9   5   6    2.60    0.96
  -9   5  -7    1.28    0.71
   9   5   7   -0.59    0.47
   9   5   7    1.03    0.68
   9   5   8    4.42    0.87
  -9   5  -8    3.87    0.93
   9   5   8    4.24    0.96
  -9   5  -9   -0.15    0.37
   9   5   9   -0.41    0.42
   9   5   9   -0.11    0.36
   9  -6 -11    0.24    0.36
   9   6 -11    0.09    0.35
  -9   6  11    0.08    0.46
   9  -6 -10    9.77    1.45
   9   6 -10   10.42    1.37
  -9   6  10   11.06    1.53
   9   6 -10    9.42    1.37
   9   6  -9    1.44    0.75
   9   6  -9    0.58    0.50
   9   6  -9    1.39    0.65
  -9   6   9    1.31    0.75
   9   6  -8    1.07    0.76
   9   6  -8    1.11    0.71
  -9   6   8    0.99    0.66
   9   6  -7    5.24    1.23
   9   6  -7    5.60    1.20
  -9   6   7    3.91    1.15
   9   6  -6   24.69    2.58
   9   6  -6   20.17    2.47
   9   6  -6   22.67    2.58
  -9   6   6   17.72    2.17
   9   6  -5   83.34    4.74
   9   6  -5   69.40    4.51
  -9   6   5   98.78    4.58
   9   6  -5   77.13    4.73
  -9   6   5   89.57    4.87
   9   6  -4   34.69    3.15
  -9   6   4   34.52    2.78
   9   6  -4   34.17    3.21
  -9   6   4   31.06    2.98
   9   6  -3   12.19    1.87
  -9   6   3   18.99    2.14
   9   6  -3   14.81    2.13
   9   6  -2   82.73    4.83
  -9   6   2   83.32    4.48
   9   6  -2   82.06    4.98
   9   6  -1    0.77    0.79
  -9   6   1   -0.29    0.58
   9   6  -1    0.34    0.54
   9   6   0    1.51    0.93
  -9   6   0    0.87    0.79
   9   6   0    1.83    1.01
   9   6   1   13.76    2.11
  -9   6  -1   16.83    2.16
  -9   6  -1   14.86    2.16
   9   6   1   16.19    2.16
   9   6   2    5.70    1.46
   9   6   2    3.01    1.08
  -9   6  -2    3.15    0.97
  -9   6  -2    4.05    1.26
   9   6   3    0.91    0.76
   9   6   3   -0.23    0.58
  -9   6  -3    1.78    0.95
  -9   6  -4    0.11    0.50
  -9   6  -4    0.67    0.70
   9   6   4   -0.07    0.51
  -9   6  -5    1.89    0.60
  -9   6  -5    2.24    0.96
   9   6   5    2.85    0.91
  -9   6  -6    3.41    0.98
  -9   6  -6    3.03    0.78
   9   6   6    4.73    0.92
  -9   6  -7    0.86    0.48
  -9   6  -7    0.48    0.42
  -9   6  -7    1.34    0.69
   9   6   7    1.03    0.56
   9   6   8    0.27    0.50
  -9   6  -8    0.44    0.40
  -9   6  -8    0.25    0.40
  -9   6  -8    0.58    0.50
   9   7 -10    2.03    0.75
  -9   7  10    1.75    0.60
   9   7  -9    0.19    0.46
   9  -7  -9    0.53    0.47
  -9   7   9    0.00    0.47
   9   7  -8    6.71    1.23
  -9   7   8    7.80    1.33
   9   7  -7    1.50    0.58
  -9   7   7    2.73    0.88
   9   7  -6   16.14    2.01
  -9   7   6   18.88    2.17
   9   7  -5   20.20    2.28
  -9   7   5   21.17    2.06
  -9   7   5   19.77    2.31
   9   7  -4    3.55    1.12
  -9   7   4    1.37    0.72
   9   7  -4    1.32    0.71
  -9   7   4    1.71    0.92
   9   7  -3    4.32    1.24
  -9   7   3    2.41    0.80
   9   7  -3    1.95    0.86
  -9   7   3    2.40    0.91
   9   7  -2    0.03    0.72
  -9   7   2   -0.38    0.70
   9   7  -2   -0.21    0.65
  -9   7   2    0.13    0.66
   9   7  -1    8.62    1.51
  -9   7   1    5.85    1.23
   9   7  -1    7.91    1.51
   9   7   0   76.91    4.53
  -9   7   0   76.87    4.22
   9   7   1   19.29    2.33
  -9   7  -1   24.21    2.47
   9   7   2   24.05    2.50
  -9   7  -2   22.54    2.33
   9   7   2   19.19    1.91
   9   7   3   14.62    1.96
  -9   7  -3   17.63    2.05
   9   7   3   12.41    1.44
   9   7   4    4.37    1.09
  -9   7  -4    2.18    0.81
  -9   7  -4    1.82    0.78
   9   7   4    2.89    0.73
   9   7   5   17.30    1.83
  -9   7  -5   13.77    1.62
  -9   7  -5   12.75    1.24
  -9   7  -5   14.48    1.68
   9   7   5   12.13    1.35
   9   7   6    0.66    0.50
  -9   7  -6    0.57    0.40
  -9   7  -6    0.18    0.36
  -9   7  -6    0.11    0.37
   9   7   6    0.06    0.45
   9   8  -8   -0.15    0.44
  -9   8   8   -0.19    0.40
   9   8  -7    2.97    0.79
  -9   8   7    3.33    0.82
   9   8  -6   11.66    1.50
  -9   8   6    8.34    1.14
  -9   8   6    7.87    1.24
   9   8  -5   12.47    1.64
  -9   8   5   15.11    1.58
  -9   8   5   15.81    1.80
   9   8  -4    1.98    0.69
  -9   8   4    2.37    0.80
  -9   8   4    1.93    0.73
   9   8  -3    5.82    1.22
  -9   8   3    4.79    0.97
  -9   8   3    5.04    1.14
   9   8  -2   14.60    1.83
  -9   8   2   13.60    1.66
  -9   8   2   11.74    1.61
   9   8  -1    4.14    1.13
  -9   8   1    4.49    1.04
  -9   8   1    5.29    1.13
   9   8   0   48.38    3.21
  -9   8   0   41.77    2.86
   9   8   1    1.03    0.65
  -9   8  -1    2.51    0.89
   9   8   1    0.48    0.55
   9   8   2    0.61    0.54
  -9   8  -2    0.11    0.45
   9   8   2    0.11    0.44
   9   8   3    0.01    0.46
  -9   8  -3    0.55    0.47
   9   8   3   -0.02    0.42
   9   8   4    0.21    0.40
  -9   8  -4   -0.28    0.43
  -9   9   3    0.29    0.40
  -9   9   2   16.12    1.50
  -9   9   1    7.74    1.05
  -9   9   0    0.17    0.46
  -9   9  -1   -0.11    0.33
  10   0 -14   39.76    2.40
  10   0 -13   -0.40    0.56
  10   0 -12   35.73    2.81
  10   0 -11   -0.16    0.71
  10   0 -11    0.51    0.50
  10   0 -10    0.59    0.57
  10   0 -10   -0.03    0.75
  10   0 -10    2.28    0.94
  10   0  -9    1.12    0.52
  10   0  -9    0.52    0.57
  10   0  -8   28.68    2.84
  10   0  -8   23.45    2.52
  10   0  -7    2.86    1.04
  10   0  -7    3.65    1.09
  10   0  -6  312.91    9.28
  10   0  -6  294.92    8.71
  10   0  -5    1.21    0.62
  10   0  -5    1.24    0.62
  10   0  -4  180.32    6.95
  10   0  -4  173.48    6.38
  10   0  -3    2.56    1.68
  10   0  -3    2.57    0.93
 -10   0   1    0.68    0.80
  10   0   0    6.93    2.06
 -10   0   0    5.81    2.07
  10   0   0   11.88    1.72
  10   0   0    9.18    1.49
  10   0   1    0.30    0.42
  10   0   1   -0.45    0.63
  10   0   2    6.00    1.27
  10   0   2    5.12    1.23
  10   0   3    1.71    0.83
  10   0   3    1.37    0.81
  10   0   4    0.88    0.71
  10   0   4    2.56    0.89
  10   0   5    0.17    0.57
  10   0   5   -0.26    0.64
  10   0   6    0.68    0.72
  10   0   6   -0.04    0.60
  10   0   7    0.14    0.53
  10   0   7    0.66    0.64
  10   0   8    3.92    1.02
  10   0   8    3.45    0.98
  10   0   9    0.07    0.68
  10   0   9   -0.23    0.44
  10   0  10    1.63    0.61
  10   0  10    1.74    0.58
  10   0  11    0.01    0.34
  10   1 -14    0.36    0.49
  10  -1 -14    0.31    0.42
  10   1 -14    0.45    0.39
  10   1 -13   16.24    1.73
  10  -1 -13   18.13    1.83
  10   1 -12    0.55    0.48
  10  -1 -12    0.04    0.53
  10  -1 -12    0.10    0.44
  10   1 -11    7.53    1.26
  10   1 -11    5.96    1.25
  10  -1 -11    7.34    1.34
  10  -1 -11    8.24    1.50
  10   1 -10   27.66    2.68
  10   1 -10   19.67    2.23
  10  -1 -10   24.29    2.51
  10  -1 -10   26.09    2.69
  10   1  -9    0.99    0.67
  10  -1  -9   -0.39    0.78
  10  -1  -9    0.04    0.81
  10  -1  -8   15.40    2.01
  10  -1  -8   14.01    1.96
  10  -1  -7   -0.46    0.97
  10   1  -7    1.31    0.74
  10  -1  -7    0.60    0.45
  10  -1  -6  210.05    7.47
  10  -1  -6  199.82    7.17
  10  -1  -5    7.54    1.46
  10  -1  -5    8.03    1.65
  10   1  -5    6.33    1.44
  10   1  -5    5.45    1.27
  10   1  -4  120.24    5.85
  10  -1  -4  136.50    6.02
  10   1  -4  127.26    5.50
  10  -1  -4  126.37    5.56
  10  -1  -3   43.44    5.78
  10  -1  -3   52.27    3.55
  10   1  -2   16.92    2.13
 -10   1   2    8.73    2.52
  10   1  -2   15.71    1.92
  10  -1  -2   10.80    1.61
  10  -1  -1    1.48    0.67
  10   1  -1    2.80    0.95
 -10   1   1    0.47    0.82
  10   1  -1    1.35    0.68
  10  -1   0    1.44    0.58
  10   1   0    2.29    0.84
  10  -1   0    1.54    0.79
  10   1   0    2.17    0.81
  10   1   1   22.91    2.54
  10   1   1   20.65    2.30
  10  -1   1   23.72    2.43
  10   1   1   19.79    2.16
  10  -1   2    1.12    0.77
  10   1   2   -0.07    0.44
 -10   1  -2   -0.03    0.40
  10  -1   2    1.20    0.61
  10   1   2    0.35    0.56
  10  -1   3    3.39    1.02
 -10   1  -3    5.76    1.20
  10   1   3   10.33    1.68
  10  -1   3    3.82    1.14
  10   1   3    8.07    1.47
 -10   1  -4   85.87    4.41
  10  -1   4   92.52    4.96
  10   1   4   76.22    4.59
  10  -1   4   80.05    4.56
  10   1   4   66.96    4.09
  10  -1   5    1.13    0.77
  10   1   5    1.53    0.84
 -10   1  -5    0.37    0.43
  10  -1   5    1.45    0.85
  10   1   5    2.47    1.04
 -10   1  -6   92.00    4.47
  10  -1   6   97.18    5.06
  10   1   6   85.24    4.73
  10  -1   6   86.34    4.69
 -10   1  -7   22.69    2.17
  10  -1   7   21.40    2.28
  10   1   7   26.21    2.59
  10  -1   7   18.30    2.14
  10   1   7   22.89    2.33
  10  -1   8   -0.30    0.74
  10   1   8   -0.65    0.66
 -10   1  -8   -0.29    0.45
  10   1   8   -0.51    0.65
 -10   1  -9   26.77    2.01
  10   1   9   25.84    2.28
  10  -1   9   25.84    2.26
  10   1   9   24.54    2.17
  10  -1  10    0.56    0.49
  10   1  10    1.76    0.62
  10   1  10    2.53    0.70
  10  -1  11   12.79    1.17
  10  -2 -14    7.88    1.00
  10   2 -14    9.17    1.03
  10   2 -13    0.43    0.35
  10  -2 -13    0.87    0.47
  10   2 -12   10.08    1.35
  10   2 -12    8.22    1.29
  10  -2 -12    8.54    1.36
  10  -2 -12    9.86    1.44
  10   2 -11   13.36    1.77
  10   2 -11   10.66    1.57
  10  -2 -11    9.31    1.52
  10  -2 -11   11.53    1.75
  10   2 -10    0.69    0.68
  10   2 -10   -0.39    0.63
  10  -2 -10    0.03    0.53
  10  -2 -10    0.10    0.49
  10   2  -9    1.29    0.78
  10  -2  -9    0.30    0.85
  10  -2  -8    0.54    0.68
  10   2  -8    0.74    0.62
  10   2  -8   -0.06    0.63
  10   2  -7   17.55    2.35
  10  -2  -7   20.99    2.34
  10   2  -7   17.76    2.17
  10  -2  -7   21.05    2.41
  10   2  -6   15.18    2.25
  10  -2  -6   18.50    2.18
  10   2  -6   15.04    1.99
  10  -2  -6   15.89    2.13
  10   2  -5   79.63    4.92
  10  -2  -5   94.02    5.01
  10   2  -5   79.76    4.56
  10  -2  -5   91.92    4.91
  10   2  -4   93.90    5.30
  10   2  -4   96.60    5.00
  10  -2  -3    3.11    1.02
  10   2  -3    1.02    0.77
  10   2  -3    2.09    1.06
  10  -2  -2    1.84    0.81
  10   2  -2    1.00    0.54
  10   2  -2    2.02    0.91
  10   2  -2    0.61    0.59
  10  -2  -1    0.82    0.65
  10   2  -1    0.85    0.59
 -10   2   1    1.21    0.60
  10   2  -1    0.70    0.62
  10   2   0   20.03    2.35
 -10   2   0   17.15    2.04
  10   2   0   19.07    2.18
  10  -2   0   16.33    2.11
 -10   2  -1   36.88    3.03
  10  -2   1   41.53    3.28
  10  -2   1   37.97    3.14
 -10   2  -2   73.09    4.16
  10  -2   2   72.05    4.39
  10   2   2   76.18    4.47
  10  -2   2   69.28    4.21
 -10   2  -3   42.48    3.19
  10  -2   3   44.17    3.43
  10  -2   4    3.96    1.16
 -10   2  -4    4.87    1.18
  10   2   4    6.96    1.47
 -10   2  -5   50.18    3.48
  10   2   5   42.94    3.42
  10  -2   5   51.66    3.71
  10   2   5   40.52    3.11
  10  -2   6    0.10    0.63
  10   2   6   -0.50    0.80
 -10   2  -6    0.20    0.45
  10   2   6    0.24    0.65
  10  -2   7    1.20    0.71
  10   2   7    0.50    0.54
 -10   2  -7    0.76    0.56
  10   2   7    0.35    0.60
  10  -2   8    0.43    0.60
  10   2   8   -0.11    0.48
 -10   2  -8    0.10    0.41
  10   2   8   -0.09    0.57
  10  -2   9    0.62    0.55
  10   2   9    0.73    0.51
 -10   2  -9    0.66    0.40
  10   2   9    0.21    0.52
  10  -2  10   -0.29    0.38
  10   2  10    0.47    0.38
 -10   2 -10    0.16    0.37
  10   2  10   -0.32    0.40
  10  -3 -13    1.30    0.45
  10  -3 -13    1.14    0.53
  10   3 -13    1.56    0.59
  10   3 -12   19.03    1.81
  10  -3 -12   20.57    1.92
  10  -3 -12   20.70    2.04
  10   3 -11    5.56    1.19
  10   3 -11    4.52    0.94
  10  -3 -11    3.06    0.85
  10  -3 -11    3.95    1.07
  10   3 -10   29.28    2.76
  10   3 -10   26.11    2.43
  10  -3 -10   29.32    2.65
  10  -3 -10   30.84    2.92
  10   3  -9   19.45    2.38
  10   3  -9   16.71    2.02
  10  -3  -9   18.11    2.17
  10  -3  -9   20.65    2.38
  10   3  -8   50.12    3.91
  10   3  -8   50.24    3.62
 -10   3   8   52.92    3.48
  10  -3  -8   51.02    3.78
  10  -3  -7    7.92    1.51
  10   3  -7    4.47    1.26
  10   3  -7    5.39    1.25
 -10   3   7    8.80    1.54
  10  -3  -6    5.38    1.31
  10   3  -6    6.44    1.47
  10   3  -6    7.11    1.43
  10   3  -5   62.03    3.89
  10   3  -5   53.62    4.19
  10  -3  -5   63.74    4.14
  10   3  -5   61.86    4.12
  10  -3  -5   66.20    4.27
  10  -3  -4    6.42    1.53
  10   3  -4    3.36    1.16
  10   3  -4    2.79    1.00
  10   3  -4    2.86    0.95
  10  -3  -3    7.80    1.45
  10   3  -3   13.14    1.76
  10   3  -3   12.77    2.03
  10   3  -3   13.07    2.01
  10   3  -2   27.42    2.65
  10   3  -2   28.04    2.98
  10   3  -2   30.06    3.01
  10   3  -1  203.28    7.12
 -10   3   1  181.71    6.76
  10   3  -1  200.76    7.64
  10   3  -1  179.50    6.68
  10  -3  -1  169.51    6.72
 -10   3   0   27.05    2.64
  10   3   0   21.73    2.42
  10  -3   0   25.89    2.67
  10  -3   1    9.44    1.68
 -10   3  -1   13.17    1.88
  10   3   1   16.52    2.12
 -10   3  -2   12.15    1.83
  10   3   2   10.78    1.79
  10  -3   2   13.55    1.95
 -10   3  -3    9.07    1.65
  10   3   3    9.22    1.66
  10  -3   3   10.07    1.77
  10  -3   4    3.77    1.02
 -10   3  -4    2.71    0.99
  10   3   4    1.77    0.85
 -10   3  -5    8.17    1.51
  10   3   5    5.30    1.33
  10  -3   6    3.81    1.16
 -10   3  -6    6.40    1.38
  10   3   6    7.22    1.51
 -10   3  -7   23.37    2.29
  10   3   7   21.82    2.35
  10  -3   7   24.20    2.42
  10  -3   8    0.73    0.67
 -10   3  -8   -0.57    0.57
  10   3   8    0.01    0.51
 -10   3  -9   15.42    1.59
  10   3   9   16.38    1.76
  10  -3   9   12.47    1.48
 -10   3 -10    6.87    0.95
  10   3  10    6.36    0.97
  10  -3  10    6.80    0.91
  10   4 -13    5.40    0.84
  10  -4 -12    0.53    0.41
  10   4 -12    0.02    0.47
  10   4 -11    1.98    0.69
  10  -4 -11    1.42    0.77
  10   4 -10    8.16    1.36
  10   4 -10    7.16    1.38
  10  -4 -10    8.71    1.56
 -10   4  10    8.28    1.31
  10   4  -9   -0.05    0.61
  10   4  -9    1.13    0.89
 -10   4   9    1.68    0.77
  10   4  -8   30.83    2.72
  10   4  -8   28.80    2.99
  10   4  -8   28.98    2.76
 -10   4   8   31.09    2.71
  10  -4  -8   30.91    2.93
  10  -4  -7    0.85    0.76
  10   4  -7    0.26    0.63
  10   4  -7   -0.42    0.76
  10   4  -7    0.55    0.60
 -10   4   7    0.92    0.68
  10  -4  -6   -0.30    0.81
  10   4  -6    0.65    0.61
  10   4  -6   -0.58    0.73
  10   4  -6    0.14    0.66
 -10   4   6    0.18    0.66
  10  -4  -5   -0.22    0.57
  10   4  -5   -1.25    0.92
  10   4  -5   -0.03    0.60
  10   4  -5   -0.23    0.61
  10   4  -4   25.14    2.57
  10   4  -4   23.17    2.77
  10   4  -4   22.77    2.62
  10  -4  -4   24.88    2.67
  10  -4  -3   10.00    1.66
  10   4  -3   11.50    1.79
  10   4  -3   12.01    1.99
  10   4  -3   11.97    1.91
  10  -4  -2    6.27    1.42
  10   4  -2    6.51    1.43
  10   4  -2    5.73    1.39
  10   4  -1   21.74    2.51
  10   4  -1   20.76    2.60
  10  -4  -1   27.97    2.86
  10   4   0   15.94    2.14
 -10   4   0   11.97    1.91
  10   4   0   15.59    2.29
  10   4   0   13.77    1.94
  10  -4   0   10.34    1.83
  10  -4   1    0.58    0.68
 -10   4  -1    0.16    0.54
  10   4   1    1.26    0.91
  10   4   1    0.34    0.51
  10  -4   2    1.73    0.83
 -10   4  -2    1.26    0.64
  10   4   2    1.82    1.04
  10   4   2    0.52    0.78
  10  -4   3   -0.06    0.65
 -10   4  -3   -0.03    0.55
  10   4   3    1.97    0.99
  10   4   3    0.67    0.66
  10  -4   4   -0.42    0.68
 -10   4  -4   -0.47    0.67
  10   4   4    0.40    0.75
  10   4   4   -0.06    0.52
  10  -4   5   -0.02    0.61
 -10   4  -5    0.28    0.57
  10   4   5    0.38    0.74
  10   4   5   -0.03    0.59
  10  -4   6    1.80    0.80
 -10   4  -6    1.65    0.87
  10   4   6    2.55    0.95
  10  -4   7    2.02    0.87
 -10   4  -7    2.39    0.90
  10   4   7    0.68    0.63
 -10   4  -8    7.16    1.19
  10   4   8    7.00    1.23
  10  -4   8    8.06    1.19
  10  -4   9    0.38    0.30
 -10   4  -9    0.22    0.34
  10   4   9    1.11    0.57
  10  -5 -12    5.06    0.86
  10   5 -12    6.79    0.92
  10  -5 -11    5.16    0.98
  10   5 -11    4.61    0.90
 -10   5  11    4.87    0.85
  10   5 -10   22.10    2.19
  10  -5 -10   22.54    2.24
  10   5 -10   23.26    2.12
 -10   5  10   25.23    2.16
  10   5 -10   25.21    2.18
  10   5  -9    0.49    0.62
  10   5  -9    0.79    0.70
  10   5  -9    0.41    0.60
 -10   5   9    0.41    0.45
  10   5  -8    1.77    0.72
  10   5  -8    1.86    0.81
 -10   5   8    2.65    0.92
  10  -5  -7    9.55    1.66
  10   5  -7   10.91    1.65
  10   5  -7    9.57    1.71
  10   5  -7    9.89    1.69
 -10   5   7   10.48    1.65
  10  -5  -6    1.12    0.65
  10   5  -6    2.09    0.89
  10   5  -6    3.08    1.04
  10   5  -6    2.48    0.95
 -10   5   6    2.07    0.83
  10   5  -5   11.06    1.77
  10   5  -5   10.32    1.83
  10   5  -5   11.35    1.88
  10  -5  -5   15.14    2.07
  10  -5  -4    6.25    1.54
  10   5  -4    5.73    1.45
  10   5  -4    5.57    1.30
  10   5  -4    5.59    1.44
  10   5  -3   34.09    3.09
 -10   5   3   39.31    2.85
  10   5  -3   38.46    3.47
  10  -5  -3   37.48    3.28
  10  -5  -2    1.26    0.70
  10   5  -2    2.28    0.95
 -10   5   2    1.65    0.68
  10   5  -2    1.00    0.88
  10  -5  -1    0.06    0.62
  10   5  -1    1.00    0.93
 -10   5   1   -0.56    0.68
  10   5  -1    0.75    0.71
  10  -5   0    2.32    0.96
  10   5   0    1.35    0.84
 -10   5   0    1.34    0.84
  10   5   0    1.46    0.73
  10   5   1    6.89    1.51
 -10   5  -1    7.51    1.62
  10   5   1    5.76    1.46
  10  -5   1   10.74    1.77
  10  -5   2   -0.44    0.59
 -10   5  -2    0.74    0.68
  10   5   2    0.67    0.71
 -10   5  -3   21.21    2.44
  10   5   3   21.09    2.40
  10   5   3   17.75    2.16
  10  -5   3   26.27    2.57
 -10   5  -4   16.67    2.11
  10   5   4   17.53    2.19
  10  -5   4   20.03    2.19
 -10   5  -5    8.83    1.55
  10   5   5   12.25    1.73
 -10   5  -6   20.60    2.19
  10   5   6   19.27    2.07
 -10   5  -7    3.17    0.88
  10   5   7    3.86    0.93
 -10   5  -8    2.65    0.57
 -10   5  -8    2.65    0.74
  10   5   8    1.99    0.67
  10   6 -10    3.55    0.88
  10  -6 -10    1.69    0.63
 -10   6  10    2.73    0.70
  10   6  -9    3.01    0.83
  10  -6  -9    3.90    0.93
 -10   6   9    5.40    1.08
  10   6  -8   15.87    1.83
  10   6  -8   16.78    1.93
 -10   6   8   15.65    1.85
  10   6  -7    0.22    0.61
  10   6  -7   -0.90    0.68
 -10   6   7    0.80    0.73
  10   6  -6   10.33    1.68
  10   6  -6    8.92    1.50
  10   6  -6    8.73    1.58
  10  -6  -6   11.91    1.72
 -10   6   6   10.08    1.64
  10   6  -5   20.02    2.28
  10   6  -5   18.76    2.27
  10   6  -5   21.29    2.45
 -10   6   5   25.08    2.55
  10   6  -4   38.17    3.19
 -10   6   4   29.43    2.41
  10   6  -4   31.47    3.03
 -10   6   4   29.51    2.80
  10   6  -3   19.21    2.35
 -10   6   3   23.62    2.22
  10   6  -3   16.96    2.26
  10   6  -2   37.06    3.17
 -10   6   2   37.96    2.88
  10   6  -2   35.45    3.27
  10   6  -1    3.54    1.19
 -10   6   1    7.58    1.36
  10   6  -1    5.73    1.38
  10   6   0    5.36    1.29
 -10   6   0    2.09    0.84
  10   6   0    4.55    1.25
  10   6   1   41.81    3.39
 -10   6  -1   41.04    3.07
  10   6   1   40.38    3.29
 -10   6  -2   15.57    1.92
 -10   6  -2   15.63    2.12
  10   6   3   32.73    2.87
 -10   6  -3   31.07    2.64
 -10   6  -3   31.88    2.82
  10   6   4   -0.15    0.66
 -10   6  -4   -0.01    0.68
 -10   6  -4    0.30    0.52
  10   6   5    5.01    1.05
 -10   6  -5    5.54    1.17
 -10   6  -5    6.26    1.25
  10   6   6    4.66    0.98
 -10   6  -6    2.88    0.61
 -10   6  -6    4.21    0.91
 -10   6  -6    3.02    0.85
  10   6   7   -0.09    0.39
 -10   6  -7   -0.02    0.29
 -10   6  -7    0.13    0.35
 -10   6  -7   -0.05    0.34
  10   7  -9    0.17    0.42
  10  -7  -9    0.64    0.41
 -10   7   9    0.51    0.41
  10   7  -8    4.81    0.96
 -10   7   8    7.65    1.21
  10   7  -7    0.90    0.58
 -10   7   7    0.78    0.56
  10   7  -6    6.47    1.23
 -10   7   6    5.43    1.14
  10   7  -5    3.54    0.99
 -10   7   5    2.69    0.86
  10   7  -4   -0.60    0.67
 -10   7   4    0.16    0.47
 -10   7   4    0.56    0.65
  10   7  -3    6.06    1.29
 -10   7   3    5.49    1.14
  10   7  -3    5.28    1.17
 -10   7   3    5.87    1.33
  10   7  -2   14.18    1.90
 -10   7   2   11.23    1.50
  10   7  -2   12.00    1.72
 -10   7   2   12.64    1.80
  10   7  -1    0.64    0.73
 -10   7   1    2.24    0.84
  10   7  -1    0.60    0.58
  10   7   0   18.06    2.13
 -10   7   0   12.07    1.66
  10   7   1    6.27    1.33
 -10   7  -1    7.54    1.31
  10   7   2   11.97    1.67
 -10   7  -2    9.42    1.41
  10   7   3   10.65    1.53
 -10   7  -3   10.77    1.45
  10   7   4   -0.62    0.58
 -10   7  -4   -0.10    0.43
  10   7   5    4.17    0.84
 -10   7  -5    3.85    0.78
  10   8  -6    0.34    0.39
 -10   8   6    1.32    0.51
  10   8  -5    1.21    0.61
 -10   8   5    0.20    0.42
  10   8  -4    3.91    0.91
 -10   8   4    3.83    0.77
 -10   8   4    3.98    0.88
  10   8  -3    6.61    1.16
 -10   8   3    8.71    1.16
 -10   8   3    8.10    1.22
  10   8  -2    2.82    0.86
 -10   8   2    3.50    0.85
 -10   8   2    1.63    0.65
  10   8  -1    5.73    1.13
 -10   8   1    6.20    1.06
 -10   8   1    5.12    0.96
  10   8   0    2.30    0.80
 -10   8   0    2.71    0.79
 -10   8   0    2.42    0.67
  10   8   1    7.03    1.15
 -10   8  -1    4.08    0.84
  10   8   2    4.60    0.94
 -10   8  -2    5.23    0.90
 -10   8  -3    0.03    0.33
  11   0 -13   -0.02    0.40
  11   0 -12    9.12    1.38
  11   0 -11   -0.32    0.76
  11   0 -10   25.16    2.41
  11   0 -10   20.57    2.26
  11   0  -9    0.01    0.48
  11   0  -8    0.15    0.61
  11   0  -8    1.78    0.78
  11   0  -7   -1.04    0.87
  11   0  -7    1.22    0.65
  11   0  -6   33.79    3.12
  11   0  -6   32.92    2.96
  11   0  -5    1.18    0.91
  11   0  -5   -0.03    0.61
  11   0  -4   15.37    2.12
  11   0  -4   14.60    1.99
  11   0  -3   -0.08    0.50
  11   0  -3   -0.33    0.70
  11   0  -3   -0.22    0.68
  11   0  -2   23.76    2.58
  11   0  -2   22.71    2.43
  11   0  -1    2.18    0.82
  11   0  -1    1.77    0.80
  11   0   0   20.11    2.35
  11   0   0   17.45    2.07
  11   0   1    0.80    0.65
  11   0   1    1.19    0.79
  11   0   2   14.90    2.05
  11   0   2   13.80    1.95
  11   0   3    0.17    0.61
  11   0   3   -0.12    0.55
  11   0   4   33.93    3.06
  11   0   4   31.93    2.84
  11   0   5    0.93    0.76
  11   0   5    0.46    0.62
  11   0   6   13.36    1.91
  11   0   6   12.80    1.77
  11   0   7   -0.19    0.50
  11   0   7   -0.25    0.46
  11   0   8    4.09    0.96
  11   0   8    4.54    1.02
  11   0   9    0.13    0.47
  11   0   9   -0.44    0.49
  11   0  10    1.65    0.49
  11   1 -13    2.43    0.67
  11  -1 -13    1.79    0.63
  11   1 -12    0.52    0.44
  11  -1 -12    0.07    0.46
  11   1 -11    4.97    1.03
  11   1 -11    3.98    1.03
  11  -1 -11    5.23    1.15
  11  -1 -11    4.92    1.03
  11   1 -10   -0.25    0.63
  11   1 -10   -0.02    0.54
  11  -1 -10    0.01    0.62
  11  -1 -10    0.97    0.62
  11   1  -9    1.24    0.71
  11  -1  -9    0.07    0.38
  11  -1  -9    1.07    0.68
  11  -1  -9   -0.26    0.81
  11  -1  -8    3.25    0.99
  11   1  -8    3.14    1.12
  11  -1  -8    4.79    1.23
  11  -1  -8    5.02    1.25
  11   1  -7  111.28    5.76
  11  -1  -7  108.18    5.37
  11  -1  -7   97.68    5.18
  11  -1  -6    7.33    1.60
  11  -1  -6    4.72    1.24
  11   1  -5  423.51   11.23
  11  -1  -5  427.44   10.95
  11  -1  -5  405.34   10.45
  11   1  -4   15.49    2.31
  11  -1  -4   38.02    3.33
  11   1  -4   18.45    2.24
  11  -1  -4   34.74    3.16
  11   1  -3  212.92    7.92
  11   1  -3  224.57    7.65
  11  -1  -3  239.87    7.88
  11   1  -2  124.51    6.01
  11   1  -2  118.33    5.33
  11   1  -1   56.01    4.02
  11   1  -1   50.36    3.61
  11   1  -1   50.38    3.49
  11  -1  -1   55.07    3.75
  11   1   0    0.53    0.51
  11  -1   0    0.09    0.90
  11   1   0    1.89    0.82
  11   1   0    1.91    0.88
  11   1   1   27.80    2.80
  11  -1   1   25.31    2.61
  11   1   1   21.77    2.47
  11   1   1   23.36    2.47
  11  -1   1   19.78    2.32
  11   1   2    6.68    1.27
  11  -1   2   12.80    1.88
  11   1   2    6.05    1.38
  11  -1   2   10.69    1.73
  11  -1   3   32.78    3.03
  11   1   3   34.65    3.08
  11  -1   3   28.41    2.77
  11   1   3   33.08    2.86
  11  -1   4    6.86    1.45
  11   1   4   13.10    1.94
  11  -1   4    7.89    1.54
  11   1   4   11.86    1.73
  11  -1   5   28.21    2.64
  11   1   5   28.21    2.73
  11  -1   5   23.93    2.45
  11   1   5   24.68    2.45
  11  -1   6   12.41    1.77
  11   1   6   20.16    2.30
  11  -1   6   12.14    1.78
  11   1   6   18.70    2.09
  11  -1   7    3.64    1.06
  11   1   7    0.90    0.65
  11  -1   7    2.65    0.91
  11   1   7    1.38    0.80
  11  -1   8    1.27    0.71
  11   1   8    0.54    0.56
  11   1   8    0.69    0.59
  11   1   9    7.57    1.09
  11  -1   9    9.81    1.25
  11   1   9    7.97    1.05
  11  -1  10    0.29    0.35
  11   2 -13    1.14    0.47
  11  -2 -13    2.46    0.64
  11   2 -12   20.19    1.74
  11   2 -12   19.66    1.80
  11  -2 -12   17.19    1.74
  11  -2 -12   18.65    1.80
  11   2 -11    3.91    0.97
  11   2 -11    3.76    0.92
  11  -2 -11    5.25    1.11
  11  -2 -11    5.25    1.11
  11   2 -10   31.37    2.82
  11   2 -10   25.94    2.44
  11  -2 -10   24.96    2.43
  11  -2 -10   27.61    2.58
  11   2  -9    7.81    1.49
  11  -2  -9    8.93    1.66
  11  -2  -9    6.97    1.33
  11   2  -8   50.70    3.90
  11  -2  -8   46.49    3.54
  11  -2  -7   16.05    2.10
  11   2  -7    8.19    1.68
  11   2  -7    8.82    1.56
  11  -2  -7   15.59    2.12
  11   2  -6   78.75    5.04
  11  -2  -6   81.63    4.67
  11   2  -6   85.88    4.79
  11  -2  -6   74.06    4.60
  11  -2  -5    5.44    1.37
  11   2  -5   11.06    2.02
  11  -2  -5    4.84    1.29
  11   2  -5   10.27    1.71
  11   2  -4   84.64    5.14
  11  -2  -4   96.47    5.17
  11   2  -4   87.90    4.91
  11  -2  -4   98.25    5.17
  11   2  -3   34.12    3.28
  11   2  -3   35.35    3.20
  11  -2  -3   29.58    2.88
  11   2  -2   65.35    4.45
  11   2  -2   70.52    4.44
  11   2  -1    6.82    1.49
  11   2  -1    7.74    1.46
  11  -2   0    5.66    1.25
  11   2   0    6.96    1.39
  11   2   0    6.13    1.35
 -11   2  -1   30.71    2.79
  11   2   1   31.15    2.95
  11  -2   1   25.14    2.58
  11  -2   2   -0.43    0.81
 -11   2  -2   -0.19    0.53
  11   2   2   -0.37    0.75
 -11   2  -3   39.48    3.08
  11   2   3   31.32    2.94
  11  -2   3   41.90    3.36
 -11   2  -4   18.12    2.10
  11   2   4   19.94    2.34
  11  -2   4   17.11    2.15
  11  -2   5    8.43    1.56
 -11   2  -5    6.54    1.33
 -11   2  -6   12.65    1.66
  11   2   6   13.85    1.92
  11  -2   6   10.77    1.69
  11   2   6   15.40    1.77
  11  -2   7    4.29    1.15
  11   2   7    3.43    0.82
 -11   2  -7    3.55    0.91
  11   2   7    2.98    0.99
  11  -2   8    0.47    0.60
  11   2   8    0.88    0.47
 -11   2  -8    0.66    0.48
  11   2   8    0.50    0.57
  11  -2   9    0.22    0.46
 -11   2  -9   -0.23    0.29
  11   2   9   -0.09    0.37
  11   3 -13    0.58    0.38
  11   3 -12    0.97    0.47
  11  -3 -12    1.35    0.51
  11  -3 -12    1.29    0.49
  11   3 -11    0.73    0.40
  11  -3 -11    0.23    0.43
  11  -3 -11    0.38    0.51
  11   3 -10    0.78    0.60
  11  -3 -10    0.17    0.47
  11  -3 -10    1.71    0.85
  11   3  -9   33.30    3.00
  11   3  -9   28.18    2.53
  11  -3  -9   35.57    2.90
  11  -3  -8    0.94    0.80
  11   3  -8    4.03    1.10
  11   3  -8    3.87    1.07
  11   3  -7   34.49    3.25
  11   3  -7   37.12    3.12
 -11   3   7   42.63    3.12
  11  -3  -7   41.33    3.38
  11  -3  -6    3.53    1.17
  11   3  -6    2.83    1.06
  11  -3  -6    4.12    1.09
  11   3  -6    3.07    1.07
  11  -3  -5    5.23    1.37
  11   3  -5   10.53    1.88
  11  -3  -5    5.38    1.28
  11   3  -5   10.90    1.78
  11   3  -4   87.58    5.32
  11  -3  -4   81.51    4.74
  11   3  -4   85.53    4.90
  11  -3  -4   91.66    5.05
  11   3  -3   23.49    2.41
  11   3  -3   21.91    2.75
  11   3  -3   21.68    2.57
  11   3  -2   57.07    3.75
  11   3  -2   56.64    4.27
  11   3  -2   56.77    4.11
  11  -3  -2   68.76    4.33
  11   3  -1   15.22    1.98
  11   3  -1   15.68    2.23
  11   3  -1   14.69    2.03
  11  -3  -1   14.40    2.00
  11  -3   0   10.19    1.71
 -11   3   0   11.09    1.76
  11   3   0   15.41    2.24
  11   3   0   12.95    1.89
  11  -3   1    5.71    1.36
 -11   3  -1    4.88    1.25
  11   3   1    3.14    1.12
 -11   3  -2   12.90    1.88
  11   3   2   14.85    2.08
  11  -3   2   12.54    1.89
 -11   3  -3   29.88    2.73
  11   3   3   23.89    2.56
  11  -3   3   34.35    3.07
  11  -3   4    3.06    1.05
 -11   3  -4    4.71    1.18
  11   3   4    5.46    1.30
  11  -3   5    6.68    1.40
 -11   3  -5    6.03    1.30
  11   3   5    6.16    1.32
  11  -3   6    5.17    1.21
 -11   3  -6    3.65    0.98
  11   3   6    3.21    1.03
  11  -3   7    4.52    1.06
 -11   3  -7    3.99    0.91
  11   3   7    6.55    1.20
  11  -3   8    4.28    0.88
 -11   3  -8    4.89    0.89
  11   3   8    3.42    0.83
  11  -3   9    0.52    0.42
 -11   3  -9    0.94    0.37
  11   3   9   -0.16    0.41
  11  -4 -12    3.00    0.70
  11   4 -12    4.13    0.77
  11   4 -11    0.17    0.38
  11  -4 -11    0.70    0.52
  11   4 -11    0.60    0.48
  11   4 -10   17.70    1.95
  11  -4 -10   17.80    2.00
  11   4  -9    2.96    1.00
 -11   4   9    3.86    0.90
  11   4  -8    5.27    1.09
  11   4  -8    8.14    1.61
 -11   4   8    6.75    1.27
  11  -4  -8    9.61    1.59
  11  -4  -7    2.51    0.99
  11   4  -7    4.30    1.12
  11   4  -7    3.92    1.21
  11   4  -7    4.78    1.21
 -11   4   7    2.13    0.89
  11   4  -6   20.72    2.20
  11   4  -6   15.12    2.19
  11   4  -6   18.75    2.28
 -11   4   6   18.70    2.15
  11  -4  -6   20.59    2.40
  11  -4  -5    0.59    0.68
  11   4  -5    0.06    0.55
  11   4  -5   -0.12    0.67
  11  -4  -5    1.32    0.78
  11   4  -5    0.90    0.86
  11  -4  -4    8.69    1.59
  11   4  -4    8.29    1.63
  11   4  -4    8.49    1.49
  11   4  -4    8.41    1.61
  11  -4  -4   10.90    1.83
  11  -4  -3    1.66    1.01
  11   4  -3    1.85    0.71
  11   4  -3    1.61    0.78
  11   4  -3    1.01    0.72
  11   4  -2   41.34    3.28
  11   4  -2   39.18    3.47
  11  -4  -2   43.26    3.53
  11  -4  -1    2.36    1.11
  11   4  -1    1.84    0.90
  11   4  -1    2.00    1.14
  11  -4   0    2.19    0.97
  11   4   0    2.99    1.04
 -11   4   0    1.74    0.89
  11   4   0    2.23    0.87
  11   4   0    0.67    0.69
  11   4   1   15.58    2.06
 -11   4  -1   13.71    1.99
  11   4   1   13.39    2.03
  11   4   1   12.32    1.89
  11  -4   1   15.31    2.10
  11  -4   2    0.96    0.70
 -11   4  -2    0.28    0.51
  11   4   2    0.64    0.63
  11   4   2    0.57    0.61
  11  -4   3    4.62    1.23
 -11   4  -3    3.95    1.14
  11   4   3    6.57    1.38
  11   4   3    4.99    1.25
  11  -4   4    6.19    1.30
 -11   4  -4    3.67    1.09
  11   4   4    5.60    1.26
  11   4   4    5.05    1.23
  11  -4   5    3.13    0.96
 -11   4  -5    3.38    0.99
  11   4   5    4.44    1.09
  11   4   5    3.99    1.09
 -11   4  -6   16.22    1.80
  11   4   6   15.04    1.81
  11  -4   6   17.68    1.89
  11  -4   7   -0.43    0.44
 -11   4  -7   -0.17    0.38
  11   4   7   -0.19    0.44
  11  -4   8    0.56    0.38
 -11   4  -8    0.35    0.37
  11   4   8    1.10    0.54
  11  -5 -11    0.56    0.39
  11   5 -10   10.89    1.40
  11  -5 -10   10.91    1.44
  11   5 -10   12.30    1.36
 -11   5  10   11.03    1.27
  11   5 -10   11.74    1.33
  11   5  -9    1.16    0.54
  11   5  -9    1.43    0.73
  11  -5  -9    1.63    0.78
  11   5  -9    1.54    0.62
 -11   5   9    1.27    0.67
  11   5  -8   15.07    1.74
  11   5  -8   15.01    1.94
 -11   5   8   16.11    1.82
  11   5  -7    0.94    0.56
  11   5  -7    1.68    0.80
  11   5  -7    0.43    0.56
 -11   5   7    0.76    0.64
  11  -5  -7    0.67    0.66
  11   5  -6   17.33    2.02
  11   5  -6   17.73    2.23
  11   5  -6   18.06    2.21
 -11   5   6   19.98    2.20
  11  -5  -6   21.41    2.36
  11   5  -5   27.46    2.59
  11   5  -5   27.15    2.82
  11   5  -5   28.96    2.87
 -11   5   5   28.68    2.68
  11  -5  -5   30.47    2.85
  11  -5  -4    5.88    1.38
  11   5  -4    9.76    1.65
  11   5  -4   10.69    1.83
  11   5  -4    9.25    1.70
  11   5  -3   97.94    4.91
  11   5  -3   89.17    5.09
  11  -5  -2    0.08    0.68
  11   5  -2    2.67    0.97
 -11   5   2    0.61    0.63
  11   5  -2    1.68    0.80
  11   5  -1   14.76    2.01
 -11   5   1   14.97    1.80
  11   5  -1   13.88    2.06
  11  -5  -1   14.89    2.04
  11   5   0    7.31    1.49
 -11   5   0   10.15    1.53
  11   5   0    6.94    1.51
  11  -5   0   12.04    1.83
  11   5   1   31.88    2.91
  11   5   1   29.81    2.85
  11  -5   1   27.22    2.70
  11  -5   2    6.52    1.37
  11   5   2    5.40    1.26
 -11   5  -2    5.30    1.30
  11   5   2    5.05    1.20
  11  -5   3    1.00    0.76
  11   5   3    0.54    0.59
 -11   5  -3    1.10    0.78
  11   5   3    0.70    0.61
  11   5   3   -0.36    0.54
  11  -5   4    0.61    0.50
 -11   5  -4    0.79    0.66
  11   5   4    1.01    0.44
  11  -5   5    0.11    0.52
 -11   5  -5    0.22    0.47
  11   5   5   -0.27    0.48
 -11   5  -6   -0.48    0.37
 -11   5  -6    0.25    0.45
  11   5   6    0.39    0.40
  11   5   7    6.70    0.97
 -11   5  -7    4.84    0.90
  11   5   7    4.92    0.79
  11  -6 -10    3.65    0.72
  11   6  -9   -0.28    0.42
  11  -6  -9    0.37    0.48
 -11   6   9    0.58    0.42
  11   6  -8    2.73    0.72
  11   6  -8    2.99    0.80
 -11   6   8    3.47    0.89
  11   6  -7    0.92    0.59
  11   6  -7    1.09    0.55
 -11   6   7    0.00    0.53
  11   6  -6   14.09    1.73
  11   6  -6   12.96    1.71
 -11   6   6   12.08    1.68
  11  -6  -5    0.21    0.68
  11   6  -5    0.24    0.42
  11   6  -5    0.40    0.54
  11   6  -5    0.15    0.59
 -11   6   5    0.91    0.69
  11  -6  -4    0.03    0.52
  11   6  -4   -0.33    0.62
  11   6  -4    0.63    0.63
 -11   6   4   -0.02    0.61
  11   6  -3    5.56    1.26
 -11   6   3    5.98    1.07
  11   6  -3    6.40    1.41
  11   6  -2    0.75    0.56
 -11   6   2    1.09    0.64
  11   6  -2    2.79    1.03
  11   6  -1   14.96    1.93
 -11   6   1   13.10    1.65
  11   6  -1   15.47    2.02
  11   6   0    1.15    0.83
 -11   6   0    0.85    0.62
  11   6   0    1.17    0.73
  11   6   1    2.96    0.98
 -11   6  -1    2.98    0.85
  11   6   1    3.72    1.03
  11   6   2    0.98    0.73
 -11   6  -2    0.26    0.46
  11   6   3   17.82    1.93
 -11   6  -3   20.92    1.98
  11   6   4   -0.57    0.59
 -11   6  -4    0.15    0.47
  11   6   5   16.84    1.62
 -11   6  -5   17.64    1.59
  11   6   6    0.58    0.38
 -11   6  -6    2.10    0.54
 -11   7   8    2.61    0.63
  11   7  -7    0.34    0.45
 -11   7   7    0.26    0.46
  11   7  -6   -0.45    0.54
 -11   7   6   -0.88    0.62
  11   7  -5    0.43    0.53
 -11   7   5    1.55    0.71
  11   7  -4   -0.39    0.58
 -11   7   4    0.35    0.55
  11   7  -3    5.72    1.16
 -11   7   3    6.90    1.05
  11   7  -3    5.22    1.09
 -11   7   3    7.99    1.37
  11   7  -2    5.79    1.20
 -11   7   2    4.43    0.85
  11   7  -2    5.31    1.09
 -11   7   2    4.52    1.05
  11   7  -1    2.47    0.91
 -11   7   1    1.42    0.59
  11   7  -1    1.30    0.60
 -11   7   1    1.25    0.68
  11   7   0    0.63    0.67
 -11   7   0   -0.02    0.40
  11   7   1    1.52    0.73
 -11   7  -1    2.94    0.82
  11   7   2   34.52    2.42
 -11   7  -2   28.52    2.05
  11   7   3    7.26    1.10
 -11   7  -3    9.37    1.16
  11   7   4    2.19    0.63
 -11   7  -4    1.13    0.49
  11   8  -3    0.60    0.43
 -11   8   3    0.32    0.39
  11   8  -2    0.42    0.42
  11   8  -1    0.47    0.42
  12   0 -13    1.00    0.49
  12   0 -12    5.59    1.01
  12   0 -11   -0.21    0.49
  12   0 -10    0.64    0.39
  12   0 -10   -0.12    0.52
  12   0  -9   -0.39    0.56
  12   0  -8    0.17    0.84
  12   0  -8    1.84    0.83
  12   0  -7   -0.30    0.63
  12   0  -7    0.74    0.79
  12   0  -6   49.01    3.76
  12   0  -6   50.57    3.62
  12   0  -5    0.73    0.75
  12   0  -5   -0.21    0.67
  12   0  -4   32.64    3.16
  12   0  -4   35.43    3.02
  12   0  -3    1.41    0.87
  12   0  -3   -0.21    0.59
  12   0  -3   -0.20    0.47
  12   0  -2    0.93    0.92
  12   0  -2    0.21    0.53
  12   0  -1   -0.16    0.59
  12   0  -1   -0.04    0.65
  12   0   0    1.97    0.79
  12   0   0    2.12    0.88
  12   0   1    0.01    0.60
  12   0   1    0.13    0.50
  12   0   1   -0.15    0.78
  12   0   2   10.94    1.78
  12   0   2   10.26    1.68
  12   0   2    9.20    1.63
  12   0   3   -0.12    0.54
  12   0   3    0.91    0.77
  12   0   4    4.32    1.11
  12   0   4    5.31    1.26
  12   0   5   -0.10    0.55
  12   0   5   -0.50    0.62
  12   0   6   18.04    1.98
  12   0   6   18.25    1.97
  12   0   7    0.64    0.55
  12   0   7    0.48    0.48
  12   0   8    1.54    0.54
  12   0   8    1.57    0.53
  12  -1 -13    2.56    0.62
  12   1 -12   23.12    1.87
  12  -1 -12   24.13    1.94
  12   1 -11    4.42    0.89
  12   1 -11    4.13    0.97
  12  -1 -11    2.60    0.81
  12   1 -10    7.10    1.28
  12   1 -10    5.78    1.18
  12  -1 -10    5.65    1.17
  12   1  -9    3.70    1.03
  12  -1  -9    3.40    0.89
  12  -1  -8    7.73    1.38
  12  -1  -8    8.82    1.55
  12   1  -8    9.50    1.61
  12  -1  -7    1.34    0.77
  12   1  -7    2.68    1.09
  12  -1  -7    2.67    1.05
  12  -1  -6   15.62    2.15
  12  -1  -6   16.17    2.17
  12   1  -5   44.69    3.69
  12  -1  -5   44.76    3.55
  12   1  -5   49.64    3.52
  12  -1  -5   44.85    3.47
  12  -1  -4    2.66    0.96
  12   1  -4    8.41    1.68
  12  -1  -4    4.50    1.25
  12   1  -4    9.31    1.58
  12   1  -3   19.68    2.47
  12  -1  -3   24.51    2.68
  12   1  -3   21.11    2.37
  12  -1  -3   23.95    2.59
  12   1  -2    1.05    0.73
  12  -1  -2    0.86    0.66
  12   1  -2    1.11    0.84
  12  -1  -2    0.73    0.60
  12   1  -2    0.53    0.67
  12   1  -1    5.18    1.20
  12  -1  -1    2.76    0.99
  12   1  -1    4.52    1.17
  12   1   0    4.21    1.09
  12  -1   0    4.21    1.11
  12   1   0    3.54    1.03
  12   1   0    2.97    0.93
  12   1   1   29.02    2.80
  12   1   1   26.12    2.67
  12   1   1   30.14    2.69
  12  -1   1   21.05    2.40
  12   1   2    0.53    0.62
  12  -1   2    2.64    1.07
  12  -1   2    2.01    0.90
  12   1   2    0.37    0.61
  12  -1   3   33.10    2.91
  12   1   3   28.46    2.78
  12   1   3   29.02    2.59
  12  -1   3   28.89    2.73
  12   1   4    0.76    0.63
  12  -1   4    3.26    1.04
  12  -1   4    3.37    1.02
  12   1   4    0.71    0.76
  12  -1   5   33.61    2.76
  12   1   5   24.98    2.46
  12   1   5   22.07    2.19
  12  -1   5   34.89    2.79
  12  -1   6    9.73    1.46
  12   1   6   12.91    1.61
  12  -1   6    9.21    1.47
  12   1   7   21.44    1.93
  12   1   7   21.17    1.80
  12  -1   7   19.22    1.83
  12   1   8    0.52    0.41
  12  -1   8    0.18    0.44
  12   1   8   -0.17    0.42
  12   2 -12   -0.23    0.33
  12   2 -12    0.47    0.33
  12  -2 -12   -0.60    0.45
  12   2 -11    0.12    0.36
  12   2 -11    0.58    0.47
  12  -2 -11    0.18    0.39
  12  -2 -11    0.41    0.41
  12   2 -10   14.14    1.79
  12   2 -10   12.12    1.58
  12  -2 -10   11.94    1.58
  12  -2 -10   13.16    1.64
  12   2  -9    1.01    0.76
  12   2  -9    1.61    0.78
  12  -2  -9    4.74    1.15
  12  -2  -9    3.34    1.05
  12   2  -8   25.98    2.70
  12  -2  -8   25.27    2.44
  12  -2  -8   23.21    2.44
  12   2  -7   18.65    2.37
  12  -2  -7   21.72    2.36
  12   2  -7   17.20    2.00
  12  -2  -7   17.93    2.18
  12   2  -6   48.07    3.88
  12  -2  -6   59.15    3.96
  12   2  -6   53.99    3.67
  12  -2  -6   59.41    4.03
  12  -2  -5    3.60    1.18
  12   2  -5    9.19    1.78
  12  -2  -5    3.55    1.09
  12   2  -5    9.16    1.65
  12  -2  -4    5.39    1.35
  12   2  -4    9.00    1.78
  12  -2  -4    5.46    1.32
  12   2  -4    8.22    1.51
  12   2  -3   41.65    3.65
  12  -2  -3   59.90    4.10
  12   2  -3   44.46    3.58
  12  -2  -3   61.28    4.07
  12   2  -2   23.42    2.67
  12   2  -2   25.11    2.66
  12  -2  -2   18.19    2.27
  12  -2  -1    0.61    0.67
  12   2  -1    1.23    0.66
  12   2  -1    1.60    0.88
  12   2   0   13.91    2.03
  12   2   0   11.28    1.78
  12  -2   1   10.22    1.69
 -12   2  -1    9.35    1.60
  12   2   1    5.60    1.29
 -12   2  -2   36.88    2.94
  12   2   2   39.33    3.21
  12  -2   2   31.58    2.86
 -12   2  -3   10.68    1.62
  12   2   3    7.43    1.49
  12  -2   3   13.05    1.90
 -12   2  -4   10.16    1.48
  12   2   4   14.88    1.99
  12  -2   4   10.34    1.71
 -12   2  -5   15.29    1.74
  12   2   5   13.12    1.84
  12  -2   5   16.05    1.94
 -12   2  -6    8.07    1.21
  12   2   6    8.12    1.39
  12  -2   6   11.05    1.53
  12  -2   7    6.22    1.07
 -12   2  -7    6.27    0.97
  12   2   7    8.53    1.25
  12  -2   8    3.44    0.73
  12   2   8    2.48    0.62
  12   2   8    2.24    0.60
  12   3 -12    4.84    0.77
  12   3 -11    0.54    0.41
  12  -3 -11   -0.16    0.38
  12  -3 -11    0.20    0.33
  12   3 -10   10.82    1.50
  12  -3 -10   12.70    1.49
  12  -3 -10   14.35    1.68
  12   3  -9    0.16    0.60
  12  -3  -9   -0.01    0.43
  12  -3  -9    0.13    0.52
  12  -3  -8    1.54    0.82
  12   3  -8    3.21    1.10
  12   3  -8    2.31    0.76
  12   3  -7   12.00    1.95
  12   3  -7   12.79    1.82
  12   3  -6  111.50    5.82
  12  -3  -6  112.87    5.32
  12   3  -6  117.18    5.46
 -12   3   6  120.60    5.10
  12  -3  -6  118.86    5.67
  12  -3  -5    2.41    0.98
  12   3  -5    1.59    0.92
  12  -3  -5    1.60    0.77
  12   3  -5    0.98    0.77
  12  -3  -4    3.18    1.07
  12   3  -4    3.38    1.16
  12  -3  -4    2.28    0.79
  12   3  -4    1.97    0.81
  12   3  -3   10.31    1.84
  12  -3  -3    9.50    1.72
  12   3  -3    9.42    1.66
  12  -3  -3   10.58    1.79
  12  -3  -2    9.87    1.71
  12   3  -2   15.40    1.88
  12   3  -2   15.65    2.21
  12   3  -2   14.94    2.12
  12   3  -1   22.18    2.36
  12   3  -1   22.53    2.67
  12   3   0   20.45    2.19
  12   3   0   20.46    2.49
  12   3   0   18.44    2.20
  12  -3   0   19.92    2.37
  12  -3   1    1.99    0.86
  12   3   1    1.75    0.76
 -12   3  -1    2.24    0.89
  12   3   1    2.50    1.05
  12   3   1    1.29    0.80
  12  -3   2    4.34    1.19
 -12   3  -2    3.16    0.88
  12   3   2    4.66    1.29
  12   3   2    2.85    0.98
  12  -3   3    0.80    0.72
 -12   3  -3    0.22    0.53
  12   3   3    2.23    0.93
  12   3   3    1.60    0.84
 -12   3  -4   32.45    2.63
  12   3   4   32.87    2.76
  12  -3   4   37.24    2.99
  12  -3   5    5.10    1.27
 -12   3  -5    5.87    1.14
  12   3   5   11.51    1.68
  12   3   5   11.18    1.61
 -12   3  -6   10.16    1.36
  12   3   6   10.04    1.35
  12   3   6    9.17    1.40
  12  -3   6   12.97    1.57
  12  -3   7    0.47    0.44
 -12   3  -7    0.78    0.44
  12   3   7    1.72    0.58
  12   3   7    1.66    0.63
  12  -3   8    0.48    0.30
  12   3   8   -0.10    0.36
  12   4 -11    1.03    0.42
  12  -4 -11    0.86    0.38
  12   4 -11    0.57    0.33
  12   4 -10    0.09    0.39
  12  -4 -10    0.20    0.43
  12   4  -9    2.73    0.87
  12  -4  -9    3.47    0.96
  12   4  -8   16.10    2.02
 -12   4   8   14.85    1.64
  12  -4  -8   16.66    1.99
  12  -4  -7    0.25    0.62
  12   4  -7    1.13    0.84
  12   4  -7   -0.04    0.47
 -12   4   7    0.17    0.59
  12  -4  -6    3.53    1.07
  12   4  -6    3.20    0.97
  12   4  -6    4.42    1.24
  12   4  -6    4.23    1.19
 -12   4   6    3.98    1.01
  12  -4  -5    4.11    1.19
  12   4  -5    1.47    0.73
  12   4  -5    1.18    0.72
  12  -4  -5    2.37    0.88
  12   4  -5    1.59    0.86
  12  -4  -4    4.31    1.20
  12   4  -4    5.28    1.29
  12   4  -4    6.78    1.28
  12  -4  -4    4.10    1.17
  12   4  -4    6.59    1.49
  12   4  -3   10.86    1.66
  12   4  -3   11.55    1.83
  12   4  -3   11.76    1.91
  12   4  -2   24.38    2.42
  12   4  -2   21.30    2.54
  12  -4  -2   24.94    2.66
  12  -4  -1    1.70    1.03
  12   4  -1    0.09    0.66
  12   4  -1    0.05    0.57
  12  -4   0    4.34    1.20
  12   4   0    3.66    1.10
  12   4   0    3.36    1.11
  12  -4   1    2.19    0.94
  12   4   1    4.12    1.03
  12   4   1    3.31    1.05
  12   4   1    1.90    0.76
  12  -4   2    4.75    1.22
  12   4   2    3.25    0.95
 -12   4  -2    4.85    1.14
  12   4   2    5.51    1.29
  12   4   2    2.42    0.80
  12  -4   3    1.75    0.76
  12   4   3    3.84    1.00
 -12   4  -3    2.46    0.90
  12   4   3    3.55    0.95
  12   4   3    3.50    1.00
  12  -4   4    0.16    0.55
 -12   4  -4    0.59    0.55
  12   4   4    2.16    0.83
  12   4   4    1.13    0.62
  12  -4   5    7.35    1.23
 -12   4  -5    5.59    1.07
  12   4   5    6.89    1.11
  12   4   5    4.64    1.01
  12  -4   6    4.07    0.83
 -12   4  -6    4.29    0.89
  12   4   6    4.13    0.88
  12   4   7    2.97    0.64
 -12   4  -7    3.47    0.71
  12   4   7    2.36    0.59
  12   5 -10    2.33    0.62
  12  -5 -10    2.39    0.64
  12   5  -9    0.38    0.41
  12  -5  -9    0.76    0.53
 -12   5   9    0.43    0.35
  12   5  -8    7.42    1.25
  12   5  -8    5.81    0.95
 -12   5   8    7.66    1.15
  12   5  -7    9.87    1.53
  12   5  -7    8.12    1.19
 -12   5   7    8.65    1.31
  12  -5  -7   10.28    1.49
  12  -5  -6    4.67    1.16
  12   5  -6    5.43    1.13
  12   5  -6    4.92    1.14
  12   5  -6    4.20    1.08
 -12   5   6    4.07    0.93
  12  -5  -5    1.95    0.82
  12   5  -5    2.42    0.86
  12   5  -5    2.44    0.78
  12   5  -5    1.52    0.90
 -12   5   5    1.73    0.77
  12  -5  -4    6.00    1.24
  12   5  -4    5.55    1.17
  12   5  -4    5.78    1.19
  12  -5  -4    5.08    1.08
  12   5  -4    6.56    1.40
  12  -5  -3    1.27    0.77
  12   5  -3    2.81    0.99
  12  -5  -3    1.21    0.76
  12   5  -3    2.62    0.97
  12  -5  -2    8.91    1.59
  12   5  -2    8.25    1.45
  12   5  -2    9.83    1.69
  12   5  -1   19.87    2.11
 -12   5   1   13.33    1.52
  12   5  -1   21.65    2.39
  12  -5  -1   11.72    1.78
  12  -5   0    5.59    1.27
  12   5   0    4.08    1.01
 -12   5   0    5.22    1.04
  12   5   0    3.64    1.06
  12  -5   1    1.13    0.66
  12   5   1    4.65    1.11
 -12   5  -1    2.76    0.76
  12   5   1    4.47    1.13
  12  -5   2    5.09    1.09
  12   5   2    3.03    0.96
 -12   5  -2    3.18    0.86
  12   5   2    3.05    0.95
  12   5   3   19.16    1.96
 -12   5  -3   21.03    1.89
  12   5   3   21.28    1.99
  12  -5   3   22.11    2.03
  12  -5   4   -0.10    0.42
  12   5   4   -0.07    0.46
 -12   5  -4   -0.13    0.43
  12   5   4    0.48    0.43
  12   5   5    8.10    1.15
 -12   5  -5    7.84    1.04
  12   5   5    7.04    0.98
  12   5   6    0.38    0.36
 -12   5  -6    0.27    0.37
  12  -6  -8    2.95    0.77
 -12   6   8    2.38    0.65
  12   6  -7    2.29    0.62
  12   6  -7    1.63    0.57
  12   6  -6    0.22    0.42
  12   6  -6   -0.07    0.33
 -12   6   6   -0.24    0.49
  12   6  -5    4.06    0.94
  12   6  -5    1.84    0.71
 -12   6   5    3.70    0.95
  12  -6  -5    2.83    0.79
  12  -6  -4    0.67    0.55
  12   6  -4   -0.59    0.67
  12   6  -4   -0.45    0.60
 -12   6   4    0.71    0.63
  12   6  -3   10.08    1.42
  12   6  -3    9.12    1.45
 -12   6   3   11.40    1.60
  12  -6  -3   14.71    1.69
  12   6  -2   16.71    1.84
  12  -6  -2   12.40    1.56
 -12   6   2   15.61    1.49
  12   6  -2   17.97    2.00
  12   6  -1    4.07    0.99
 -12   6   1    4.30    0.84
  12   6  -1    3.22    0.93
  12   6   0    5.79    1.15
 -12   6   0    5.47    1.00
  12   6   0    5.45    1.12
  12   6   1   -0.28    0.62
 -12   6  -1    0.79    0.56
  12   6   1    0.57    0.61
  12   6   2   -0.01    0.52
 -12   6  -2    0.68    0.47
  12   6   3    5.17    0.93
 -12   6  -3    3.82    0.78
  12   6   4    0.01    0.39
 -12   6  -4    0.30    0.36
 -12   7   6    1.46    0.47
  12   7  -5    4.11    0.78
 -12   7   5    4.52    0.80
  12   7  -4    1.06    0.51
 -12   7   4    0.88    0.50
  12   7  -3    2.11    0.63
 -12   7   3    2.69    0.77
  12   7  -2    4.02    0.86
 -12   7   2    2.24    0.68
  12   7  -1    1.61    0.63
 -12   7   1    1.70    0.52
  12   7  -1    0.31    0.35
 -12   7   1    1.74    0.65
  12   7   0    0.08    0.45
 -12   7   0    0.63    0.37
 -12   7   0    0.35    0.39
  12   7   1    0.24    0.42
 -12   7  -1    0.88    0.43
 -12   7  -1    0.76    0.48
  13   0 -12   19.99    1.55
  13   0 -11    0.08    0.36
  13   0 -10    0.50    0.39
  13   0 -10    0.07    0.40
  13   0  -9    0.03    0.46
  13   0  -8    0.38    0.47
  13   0  -8   -0.34    0.76
  13   0  -7    1.56    0.80
  13   0  -7    2.26    0.99
  13   0  -6  171.13    6.77
  13   0  -6  172.80    6.39
  13   0  -5    0.88    0.61
  13   0  -5    0.63    0.65
  13   0  -4    0.68    0.58
  13   0  -4    0.01    0.54
  13   0  -3   -0.32    0.71
  13   0  -3    0.13    0.60
  13   0  -3   -0.15    0.46
  13   0  -2    7.81    1.48
  13   0  -2    5.41    1.30
  13   0  -1    0.20    0.52
  13   0  -1    0.10    0.49
  13   0   0    3.18    1.00
  13   0   0    4.43    1.15
  13   0   1    0.23    0.53
  13   0   1    0.90    0.69
  13   0   2   33.81    2.78
  13   0   2   30.20    2.65
  13   0   3    0.94    0.68
  13   0   3    1.21    0.67
  13   0   4    7.86    1.32
  13   0   4    7.63    1.35
  13   0   5    1.69    0.76
  13   0   5    1.01    0.64
  13   0   6   10.71    1.29
  13   0   6   11.31    1.37
  13   0   7   -0.26    0.39
  13  -1 -12    3.46    0.69
  13   1 -11    1.83    0.49
  13   1 -11    1.77    0.55
  13  -1 -11    2.23    0.63
  13   1 -10    3.48    0.86
  13   1 -10    2.74    0.82
  13  -1 -10    1.76    0.68
  13   1  -9    0.04    0.54
  13  -1  -9    0.76    0.54
  13   1  -8   12.66    1.83
  13  -1  -8   11.53    1.62
  13  -1  -8   10.63    1.55
  13   1  -7   16.85    2.16
  13  -1  -7   19.62    2.22
  13  -1  -7   19.94    2.20
  13   1  -6   30.59    2.96
  13  -1  -6   25.60    2.57
  13  -1  -6   25.09    2.49
  13  -1  -5    4.80    1.29
  13   1  -5    3.29    1.25
  13  -1  -5    4.41    1.16
  13   1  -5    3.16    1.09
  13   1  -4   74.03    4.59
  13  -1  -4   63.56    4.13
  13   1  -4   78.81    4.30
  13  -1  -4   61.83    4.01
  13   1  -3   22.51    2.52
  13  -1  -3   26.64    2.73
  13   1  -3   22.03    2.37
  13  -1  -3   23.87    2.47
  13  -1  -2    1.40    0.86
  13   1  -2    1.06    0.64
  13  -1  -2    0.95    0.77
  13   1  -2    1.09    0.72
  13   1  -1   30.26    2.91
  13  -1  -1   31.82    2.91
  13   1  -1   34.01    2.96
  13   1  -1   32.36    2.73
  13  -1  -1   32.26    2.91
  13   1   0    0.94    0.59
  13  -1   0    2.27    0.94
  13   1   0    0.23    0.57
  13  -1   0    0.81    0.67
  13   1   1    3.66    0.99
  13  -1   1    0.86    0.69
  13   1   1    3.21    0.94
  13  -1   1    0.98    0.65
  13   1   2   -0.22    0.56
  13  -1   2    0.11    0.65
  13  -1   2    0.69    0.61
  13   1   2   -0.55    0.80
  13  -1   3    7.13    1.32
  13  -1   3    7.31    1.26
  13   1   3    9.38    1.55
  13   1   3    9.65    1.43
  13   1   4   -0.26    0.59
  13  -1   4   -0.03    0.53
  13   1   4    0.51    0.57
  13   1   5    0.10    0.39
  13  -1   5    0.36    0.53
  13   1   5    0.02    0.48
  13   1   6   14.62    1.55
  13   1   6   16.14    1.47
  13  -1   6   19.89    1.76
  13  -1   7    0.50    0.40
  13   1   7    1.10    0.47
  13   2 -11    0.30    0.30
  13   2 -11    0.98    0.44
  13  -2 -11    1.04    0.47
  13   2 -10   14.52    1.61
  13   2 -10   11.19    1.35
  13  -2 -10   12.48    1.45
  13   2  -9    0.18    0.58
  13   2  -9   -0.03    0.44
  13  -2  -9    0.05    0.49
  13   2  -8   39.37    3.11
  13  -2  -8   36.53    2.71
  13  -2  -8   36.76    2.86
  13  -2  -7    7.49    1.36
  13  -2  -7    8.48    1.46
  13   2  -7    9.51    1.67
  13  -2  -6    5.14    1.19
  13   2  -6    5.33    1.33
  13  -2  -6    4.60    1.10
  13   2  -6    5.97    1.16
  13  -2  -5    5.87    1.32
  13   2  -5    5.70    1.38
  13  -2  -5    6.78    1.41
  13   2  -5    6.97    1.37
  13  -2  -4    9.20    1.60
  13   2  -4   10.85    1.85
  13  -2  -4    9.38    1.60
  13   2  -4    9.38    1.55
  13  -2  -3   10.98    1.74
  13   2  -3    7.83    1.57
  13   2  -3    6.36    1.41
  13  -2  -3   12.68    1.93
  13   2  -2   35.30    3.15
  13  -2  -2   26.35    2.67
  13   2  -2   36.63    3.13
  13  -2  -2   27.20    2.66
  13   2  -1   19.90    2.31
  13  -2  -1   31.51    2.90
  13   2  -1   22.17    2.49
  13  -2  -1   30.62    2.82
  13   2   0   72.01    4.33
  13  -2   0   53.18    3.72
  13   2   1   10.48    1.74
  13  -2   1   14.90    1.99
  13  -2   2    0.32    0.61
  13   2   2    1.13    0.74
  13  -2   3    1.11    0.73
  13   2   3    0.47    0.55
  13  -2   4    2.56    0.88
  13   2   4    1.88    0.71
  13   2   5    9.05    1.39
  13  -2   5   13.72    1.62
  13  -2   6    0.47    0.46
  13   2   6    0.75    0.48
  13   2   6    0.39    0.43
  13  -2   7    1.58    0.48
  13   2   7    0.57    0.35
  13   3 -10   13.87    1.49
  13  -3 -10   12.58    1.28
  13  -3 -10   12.55    1.29
  13   3  -9   13.21    1.61
  13  -3  -9    9.24    1.25
  13  -3  -9   10.36    1.32
  13   3  -8    0.86    0.67
  13  -3  -8    0.28    0.44
  13  -3  -8    0.91    0.71
  13  -3  -7    1.65    0.87
  13   3  -7    1.01    0.65
  13  -3  -7    1.06    0.53
  13   3  -7    1.38    0.66
  13  -3  -6    2.02    0.93
  13   3  -6    1.04    0.73
  13  -3  -6    1.83    0.77
  13   3  -6    1.56    0.71
 -13   3   6    1.66    0.68
  13  -3  -5    2.12    0.94
  13   3  -5    0.96    0.65
  13  -3  -5    2.69    0.91
  13   3  -5    1.43    0.88
  13  -3  -4    6.51    1.40
  13   3  -4    7.95    1.55
  13  -3  -4    5.67    1.25
  13   3  -4    6.83    1.39
  13  -3  -3    0.11    0.64
  13   3  -3    0.72    0.62
  13  -3  -3    0.44    0.59
  13   3  -3    0.61    0.73
  13  -3  -2    7.25    1.43
  13   3  -2    8.94    1.55
  13  -3  -2    5.45    1.28
  13   3  -2    8.12    1.51
  13  -3  -1    7.13    1.45
  13   3  -1    6.96    1.47
  13  -3   0    4.41    1.16
  13   3   0    3.06    0.84
  13   3   0    2.88    1.05
  13  -3   1    8.92    1.56
  13   3   1   14.12    1.66
  13   3   1   13.50    1.94
  13  -3   2    3.12    0.99
  13   3   2    3.85    0.96
  13   3   2    2.35    0.89
  13   3   2    2.52    0.83
  13  -3   3   -1.03    0.76
  13   3   3    1.02    0.56
  13   3   3    1.02    0.64
  13   3   3    0.64    0.51
  13  -3   4    0.50    0.50
  13   3   4    0.20    0.46
  13   3   4    0.51    0.45
  13   3   4    0.08    0.52
  13  -3   5    5.33    0.99
  13   3   5    5.33    0.85
  13   3   5    4.71    0.92
  13   3   5    5.04    0.99
  13  -3   6    0.37    0.42
  13   3   6    0.24    0.33
  13   3   6    0.75    0.42
  13   3   6    0.53    0.47
  13   4 -10    8.28    1.00
  13   4  -9    6.14    1.02
  13  -4  -9   10.20    1.23
  13   4  -8    4.68    1.03
  13  -4  -8    3.15    0.81
  13   4  -7    1.48    0.70
  13   4  -7    0.87    0.66
 -13   4   7    1.92    0.63
  13   4  -6   11.11    1.68
  13   4  -6   10.39    1.58
 -13   4   6   10.79    1.42
  13  -4  -6   12.39    1.77
  13  -4  -5    0.82    0.73
  13   4  -5    2.64    0.90
  13  -4  -5    0.90    0.57
  13   4  -5    1.66    0.79
 -13   4   5    0.53    0.69
  13   4  -4   10.61    1.66
  13  -4  -4   10.26    1.55
  13   4  -4   10.87    1.70
  13  -4  -4   12.10    1.72
  13  -4  -3    0.28    0.63
  13   4  -3   -0.11    0.54
  13   4  -3    0.01    0.48
  13  -4  -3    0.62    0.57
  13   4  -3    0.73    0.67
  13  -4  -2   -0.22    0.57
  13   4  -2    0.45    0.54
  13  -4  -2    0.34    0.45
  13   4  -2   -0.11    0.70
  13  -4  -1    6.97    1.35
  13   4  -1    9.38    1.39
  13   4  -1    8.76    1.51
  13  -4   0    0.31    0.58
  13   4   0   -0.10    0.47
  13   4   0   -0.18    0.60
  13  -4   1    6.46    1.27
  13   4   1    5.74    1.07
 -13   4  -1    5.22    0.88
  13   4   1    5.58    1.23
  13  -4   2    5.47    1.12
  13   4   2    5.29    1.02
  13   4   2    5.76    1.21
  13   4   3    1.82    0.65
  13   4   3    2.28    0.77
  13  -4   4    0.65    0.51
  13   4   4    0.91    0.40
  13   4   4    1.26    0.48
  13  -4   5    1.53    0.57
  13   4   5    0.62    0.42
  13   5  -8   -0.57    0.48
  13  -5  -8    0.31    0.40
  13   5  -7    0.41    0.44
 -13   5   7   -0.45    0.38
  13   5  -6   -0.25    0.38
  13   5  -6    0.41    0.50
 -13   5   6   -0.15    0.50
  13  -5  -6    0.32    0.48
  13  -5  -5   -0.46    0.72
  13   5  -5   -0.12    0.39
  13   5  -5   -0.17    0.35
  13   5  -5    0.24    0.49
 -13   5   5    0.47    0.56
  13  -5  -4    0.07    0.51
  13   5  -4    0.27    0.45
  13  -5  -4    0.10    0.43
  13   5  -4    0.46    0.54
 -13   5   4    0.76    0.71
  13  -5  -3    5.12    1.15
  13   5  -3    5.11    1.00
  13  -5  -3    4.02    0.95
  13   5  -3    4.82    1.15
  13  -5  -2    0.28    0.50
  13   5  -2    0.64    0.59
  13  -5  -2    0.65    0.55
  13   5  -2    0.75    0.62
  13  -5  -1    6.25    1.20
  13   5  -1    7.60    1.21
  13   5  -1    9.99    1.53
  13  -5   0    0.62    0.54
  13   5   0    0.33    0.46
 -13   5   0    0.01    0.34
  13   5   0   -0.22    0.52
  13  -5   1    0.20    0.42
  13   5   1    1.55    0.68
 -13   5  -1    0.99    0.48
  13   5   1    0.94    0.59
  13  -5   2    3.29    0.79
  13   5   2    2.48    0.73
 -13   5  -2    3.01    0.69
  13   5   2    2.77    0.74
  13  -5   3    0.71    0.47
  13   5   3    0.83    0.40
 -13   5  -3    0.65    0.36
  13   5   3    1.01    0.47
  13   5   4   -0.43    0.41
 -13   5  -4    0.13    0.27
 -13   6   6    3.84    0.71
  13   6  -5    2.93    0.63
 -13   6   5    1.69    0.59
  13   6  -4   -0.07    0.39
  13   6  -4    0.15    0.42
 -13   6   4    0.87    0.51
  13   6  -3   14.18    1.41
  13   6  -3   13.01    1.48
 -13   6   3   16.38    1.62
  13   6  -2   14.68    1.48
  13  -6  -2   10.08    1.18
  13   6  -2   16.20    1.63
 -13   6   2   14.57    1.55
  13  -6  -1    5.32    0.88
  13   6  -1    5.18    0.89
  13   6  -1    4.68    0.90
  13   6   0    4.94    0.89
  13   6   0    4.35    0.83
  13   6   1    1.10    0.52
  14   0 -10   21.92    1.61
  14   0 -10   18.52    1.64
  14   0  -9    0.41    0.48
  14   0  -9    0.56    0.38
  14   0  -8   16.73    1.83
  14   0  -7   -0.26    0.49
  14   0  -7    0.16    0.46
  14   0  -6    8.65    1.34
  14   0  -6    8.57    1.47
  14   0  -5   -0.25    0.58
  14   0  -5    0.29    0.60
  14   0  -4   -0.87    0.71
  14   0  -4   -0.21    0.78
  14   0  -3    0.01    0.51
  14   0  -3   -0.04    0.66
  14   0  -2   30.80    2.75
  14   0  -2   31.05    2.54
  14   0  -2   31.43    2.64
  14   0  -1    0.38    0.69
  14   0  -1    1.67    0.84
  14   0  -1    1.61    0.75
  14   0   0   66.41    3.85
  14   0   0   69.68    3.81
  14   0   0   63.35    3.62
  14   0   1    4.22    1.08
  14   0   1    3.07    0.95
  14   0   2   47.42    2.89
  14   0   2   44.48    2.93
  14   0   3    0.59    0.63
  14   0   4    0.93    0.57
  14   0   5    0.69    0.47
  14   1 -10    4.62    0.79
  14   1 -10    3.68    0.71
  14  -1 -10    4.83    0.87
  14   1  -9    6.04    1.06
  14  -1  -9    5.18    0.87
  14   1  -9    3.80    0.89
  14  -1  -9    4.04    0.87
  14   1  -8    0.88    0.63
  14  -1  -8    0.06    0.39
  14  -1  -8   -0.17    0.64
  14  -1  -7    0.86    0.57
  14   1  -7    0.20    0.56
  14  -1  -7    1.10    0.61
  14  -1  -6   -0.26    0.60
  14   1  -6    0.55    0.69
  14  -1  -6    0.19    0.54
  14  -1  -5   14.17    1.88
  14  -1  -5   15.85    1.92
  14  -1  -4    0.38    0.55
  14   1  -4    1.32    0.79
  14  -1  -4    1.54    0.77
  14   1  -4    0.32    0.40
  14   1  -3   13.70    1.91
  14  -1  -3   16.57    2.05
  14   1  -3   12.40    1.64
  14  -1  -3   16.64    1.99
  14  -1  -2    1.53    0.72
  14   1  -2    2.07    0.79
  14  -1  -2    0.53    0.56
  14   1  -2    1.68    0.65
  14   1  -1   14.09    1.83
  14  -1  -1   18.89    2.12
  14   1  -1   14.28    1.80
  14  -1  -1   18.00    2.04
  14   1   0   13.87    1.75
  14  -1   0   11.30    1.64
  14   1   0   13.82    1.77
  14  -1   0   10.78    1.50
  14  -1   0   10.99    1.62
  14   1   1    6.19    1.08
  14  -1   1    6.76    1.27
  14  -1   1    6.41    1.25
  14   1   1    6.84    1.30
  14   1   2    2.47    0.71
  14  -1   2    4.63    1.06
  14  -1   2    3.49    0.84
  14   1   2    3.14    0.96
  14   1   3    0.25    0.39
  14  -1   3    0.31    0.52
  14  -1   3    0.01    0.31
  14   1   4    0.81    0.50
  14  -1   4   -0.34    0.48
  14  -1   5    0.18    0.44
  14   1   5    0.10    0.39
  14   2 -10    2.43    0.57
  14  -2 -10    0.28    0.28
  14   2  -9    3.66    0.81
  14   2  -9    3.47    0.70
  14  -2  -9    4.67    0.84
  14   2  -8    1.31    0.64
  14  -2  -8    0.45    0.41
  14  -2  -8    0.58    0.56
  14  -2  -7    8.07    1.30
  14   2  -7    6.39    1.25
  14  -2  -7    5.55    1.05
  14  -2  -6    8.94    1.44
  14   2  -6   12.37    1.74
  14  -2  -6    8.91    1.44
  14   2  -6   10.46    1.34
  14  -2  -5    1.83    0.85
  14   2  -5    2.05    0.88
  14  -2  -5    1.05    0.69
  14   2  -5    2.80    0.85
  14   2  -4   72.69    4.23
  14  -2  -4   69.22    3.95
  14   2  -4   66.91    3.74
  14  -2  -4   71.30    4.03
  14  -2  -3    2.09    0.92
  14   2  -3    1.37    0.80
  14  -2  -3    2.58    0.96
  14   2  -3    1.27    0.70
  14   2  -2   37.28    2.93
  14  -2  -2   33.12    2.80
  14   2  -2   36.10    2.85
  14  -2  -2   34.55    2.82
  14  -2  -1    3.16    0.98
  14   2  -1    1.55    0.75
  14  -2  -1    2.36    0.82
  14   2  -1    1.10    0.80
  14  -2   0   12.62    1.69
  14   2   0   17.75    2.01
  14  -2   0   16.84    1.96
  14  -2   1    4.18    1.02
  14  -2   1    3.91    1.01
  14   2   1    4.19    1.06
  14  -2   2    0.42    0.51
  14  -2   2    0.91    0.51
  14   2   2    0.45    0.47
  14  -2   3    2.69    0.85
  14  -2   3    2.19    0.62
  14   2   3    2.66    0.81
  14  -2   4    2.68    0.70
  14  -2   4    2.11    0.54
  14   2   4    3.36    0.84
  14   2   5    2.60    0.67
  14  -2   5    5.67    0.91
  14   3  -9    3.00    0.67
  14   3  -8    0.56    0.49
  14  -3  -8   -0.18    0.37
  14  -3  -7    7.41    1.26
  14   3  -7    5.05    1.04
  14   3  -7    5.09    0.90
  14  -3  -6   -0.10    0.56
  14   3  -6   -0.10    0.50
  14  -3  -6    0.49    0.50
  14   3  -6    0.31    0.43
  14  -3  -5    0.45    0.63
  14   3  -5    0.02    0.47
  14  -3  -5   -0.02    0.43
  14   3  -5   -0.11    0.45
  14  -3  -4    2.55    0.90
  14   3  -4    3.50    0.95
  14  -3  -4    2.86    0.86
  14   3  -4    3.29    0.90
  14  -3  -3   -0.43    0.61
  14   3  -3   -0.26    0.42
  14  -3  -3    0.00    0.43
  14   3  -3    0.50    0.60
  14  -3  -2    0.94    0.75
  14   3  -2   -0.44    0.58
  14  -3  -2    0.93    0.67
  14   3  -2    0.20    0.49
  14  -3  -1    0.37    0.62
  14  -3  -1    0.57    0.57
  14   3  -1    0.76    0.63
  14  -3   0    6.59    1.24
  14  -3   0    5.21    1.12
  14   3   0    4.77    1.11
  14  -3   1    1.04    0.66
  14  -3   1    0.02    0.42
  14   3   1    1.33    0.65
  14  -3   2   -0.35    0.56
  14  -3   2    0.15    0.38
  14   3   2   -0.58    0.57
  14  -3   3    3.14    0.82
  14  -3   3    2.65    0.67
  14   3   3    1.26    0.54
  14  -3   4    4.77    0.88
  14  -3   4    3.97    0.67
  14   3   4    4.97    0.84
  14   4  -8    1.26    0.52
  14   4  -7    0.07    0.37
  14  -4  -7   -0.26    0.36
  14  -4  -7   -0.38    0.54
  14  -4  -6   -0.08    0.55
  14   4  -6    0.77    0.53
  14   4  -6   -0.06    0.48
 -14   4   6   -0.23    0.35
  14  -4  -5    2.05    0.71
  14   4  -5    3.28    0.85
  14  -4  -5    2.19    0.63
  14   4  -5    3.08    0.82
 -14   4   5    3.53    0.83
  14  -4  -4    2.09    0.83
  14   4  -4    1.37    0.61
  14  -4  -4    0.80    0.59
  14   4  -4    1.00    0.62
 -14   4   4    1.26    0.57
  14  -4  -3    0.15    0.54
  14  -4  -3   -0.24    0.40
  14   4  -3    0.38    0.53
  14  -4  -2    3.97    1.04
  14  -4  -2    3.01    0.85
  14   4  -2    5.78    1.18
  14  -4  -1    4.69    1.09
  14  -4  -1    4.44    0.99
  14   4  -1    3.02    0.96
  14   4   0   10.51    1.18
  14  -4   0    7.05    1.17
  14   4   0   10.87    1.48
  14  -4   0    8.04    1.27
  14  -4   1    1.05    0.64
  14   4   1    0.40    0.43
  14  -4   1    1.21    0.59
  14   4   1    0.96    0.52
  14   4   2    9.55    1.05
  14  -4   2    8.08    1.14
  14   4   2    9.55    1.23
  14  -4   2    9.51    1.22
  14  -4   3    1.81    0.62
  14  -4   3    0.82    0.41
  14   4   3    0.81    0.45
  14   5  -5    1.80    0.55
 -14   5   5    2.15    0.62
  14  -5  -5    2.01    0.60
  14  -5  -4    0.27    0.44
  14   5  -4    1.00    0.55
 -14   5   4    0.72    0.45
  14  -5  -3   13.29    1.33
  14   5  -3   15.39    1.57
 -14   5   3   16.66    1.55
  14  -5  -3   18.23    1.66
  14  -5  -2    6.72    1.03
  14   5  -2    8.65    1.00
  14  -5  -2    6.51    0.99
  14  -5  -1    5.24    0.92
  14   5  -1    3.18    0.67
  14  -5  -1    3.81    0.76
  14   5  -1    3.54    0.78
  14  -5   0    0.75    0.39
  14  -5   0    0.96    0.46
  14   5   0    2.20    0.62
  14  -5   1    1.06    0.47
  14   5   1    0.65    0.40
  14  -5   2    1.21    0.41
  15   0  -9   -0.04    0.30
  15   0  -8    4.32    0.79
  15   0  -7   -0.08    0.43
  15   0  -6   10.89    1.43
  15   0  -5    0.21    0.41
  15   0  -5    0.45    0.50
  15   0  -4   15.09    1.79
  15   0  -4   15.99    1.63
  15   0  -3    0.37    0.50
  15   0  -3    0.80    0.56
  15   0  -2    2.14    0.68
  15   0  -2    1.74    0.70
  15   0  -1    0.00    0.46
  15   0  -1    0.44    0.46
  15   0  -1   -0.38    0.46
  15   0   0   -0.19    0.44
  15   0   0   -0.15    0.40
  15   0   0    1.08    0.56
  15   0   1   -0.34    0.52
  15   0   1   -0.54    0.38
  15   0   1    0.13    0.34
  15   0   2   -0.08    0.39
  15   0   2    0.90    0.51
  15   0   3   -0.40    0.34
  15   0   3    0.37    0.38
  15  -1  -9    0.68    0.33
  15   1  -8   -0.07    0.35
  15  -1  -8   -0.29    0.35
  15   1  -8    0.42    0.35
  15   1  -7    1.71    0.62
  15  -1  -7    1.45    0.55
  15  -1  -7    0.58    0.39
  15  -1  -6    1.06    0.57
  15   1  -6    0.58    0.46
  15  -1  -6    1.83    0.67
  15  -1  -5    6.51    1.09
  15  -1  -5    6.42    1.16
  15   1  -4   20.60    2.03
  15  -1  -4   19.28    1.96
  15  -1  -4   19.02    1.84
  15  -1  -3    0.09    0.49
  15   1  -3    1.73    0.71
  15  -1  -3    0.44    0.50
  15   1  -3    1.26    0.59
  15  -1  -2    1.03    0.51
  15   1  -2    1.40    0.66
  15  -1  -2    0.94    0.54
  15   1  -2    0.56    0.35
  15  -1  -1    0.27    0.50
  15   1  -1    0.39    0.47
  15  -1  -1    0.62    0.48
  15   1  -1    0.60    0.52
  15  -1   0    0.11    0.42
  15   1   0    0.32    0.33
  15  -1   0   -0.14    0.40
  15   1   0    0.16    0.39
  15  -1   1    2.25    0.66
  15  -1   1    2.22    0.65
  15   1   1    3.10    0.78
  15  -1   1    2.06    0.57
  15  -1   2    0.79    0.46
  15  -1   2    0.20    0.27
  15   1   2    0.34    0.42
  15  -1   2    0.39    0.35
  15  -1   3    0.51    0.35
  15   1   3    0.57    0.35
  15  -1   3    0.27    0.30
  15   2  -8    9.62    1.15
  15  -2  -8    6.67    0.93
  15   2  -7    1.25    0.52
  15  -2  -7    2.02    0.57
  15  -2  -7    2.91    0.78
  15  -2  -6    0.16    0.51
  15   2  -6    0.38    0.41
  15  -2  -6    0.76    0.37
  15  -2  -5    1.16    0.52
  15   2  -5    0.33    0.40
  15  -2  -5    1.55    0.64
  15   2  -5    1.09    0.39
  15  -2  -4    0.81    0.59
  15   2  -4   -0.44    0.53
  15  -2  -4    0.64    0.52
  15   2  -4    0.33    0.45
  15  -2  -3    0.65    0.58
  15   2  -3    0.29    0.42
  15  -2  -3   -0.36    0.49
  15   2  -3    0.35    0.49
  15  -2  -2    0.40    0.59
  15   2  -2    0.30    0.41
  15  -2  -2    0.23    0.45
  15   2  -2    0.31    0.42
  15  -2  -1    6.44    1.13
  15  -2  -1    5.83    1.08
  15   2  -1    3.55    0.84
  15  -2   0    0.94    0.59
  15  -2   0    0.63    0.50
  15   2   0    0.83    0.50
  15  -2   1    1.12    0.53
  15  -2   1    1.23    0.52
  15   2   1    0.49    0.36
  15  -2   2   -0.09    0.40
  15  -2   2    0.02    0.29
  15   2   2   -0.08    0.36
  15  -2   3   -0.07    0.39
  15   2   3    1.21    0.45
  15   3  -7    3.67    0.72
  15  -3  -6    4.38    0.86
  15  -3  -6    3.45    0.67
  15  -3  -5    4.02    0.86
  15   3  -5    2.66    0.71
  15  -3  -5    3.76    0.77
  15   3  -5    2.21    0.60
  15  -3  -4    5.23    1.01
  15   3  -4    7.00    1.05
  15  -3  -4    4.02    0.83
  15   3  -4    5.71    0.94
  15  -3  -3    4.40    0.88
  15   3  -3    3.59    0.78
  15  -3  -3    4.02    0.87
  15   3  -3    3.80    0.84
  15  -3  -2   -0.41    0.52
  15  -3  -2   -0.08    0.37
  15   3  -2   -0.10    0.34
  15  -3  -1    0.08    0.51
  15  -3  -1    0.53    0.46
  15   3  -1   -0.08    0.42
  15  -3   0    1.65    0.63
  15  -3   0    0.87    0.44
  15   3   0    2.27    0.68
  15  -3   1    0.54    0.42
  15  -3   1    0.54    0.34
  15   3   1    0.04    0.33
  15  -3   2    7.80    0.93
  15   3   2    9.44    1.04
  15  -3   2   10.97    1.16
  15  -4  -5   -0.36    0.39
  15  -4  -4    3.47    0.72
  15   4  -4    2.68    0.64
  15  -4  -3    3.04    0.74
  15  -4  -3    2.40    0.58
  15   4  -3    0.86    0.50
 -15   4   3    2.45    0.58
  15  -4  -2    4.51    0.86
  15  -4  -2    2.99    0.68
  15   4  -2    4.95    0.86
  15  -4  -1    8.52    1.03
  15   4  -1    7.73    1.03
  15  -4  -1    9.69    1.12
  15  -4   0    3.10    0.63
  15  -4   0    2.91    0.61
  15   4   0    4.52    0.78
  16   0  -6    0.02    0.35
  16   0  -5    0.92    0.44
  16   0  -4   17.87    1.58
  16   0  -3    0.43    0.43
  16   0  -2    4.25    0.79
  16   0  -1    0.51    0.34
  16   1  -6    0.96    0.43
  16   1  -5    2.09    0.59
  16  -1  -5    1.56    0.51
  16  -1  -4    3.60    0.69
  16  -1  -4    4.28    0.82
  16  -1  -3    6.93    1.01
  16   1  -3    4.97    0.83
  16  -1  -3    6.53    0.92
  16  -1  -2    4.88    0.80
  16   1  -2    7.48    0.97
  16  -1  -2    6.47    0.96
  16  -1  -1   14.14    1.33
  16  -1  -1   13.72    1.26
  16  -2  -4    0.82    0.39
  16  -2  -4    0.32    0.33
  16  -2  -3    3.09    0.65
  16  -2  -3    3.68    0.74
  16  -2  -2    2.11    0.56
  16  -2  -2    1.12    0.47
  16  -2  -1    0.73    0.41
  16  -2  -1    0.41    0.33
   0   0   0    0.00    0.00
TITL Oudizan-1-R in P2(1)/c
REM P2(1)/c (#14 in standard setting)
CELL 1.54184  13.393714   8.910589  13.393947  90.0000  99.7654  90.0000
ZERR    8.00   0.000748   0.000413   0.000660   0.0000   0.0053   0.0000
LATT  1
SYMM -x, y+1/2,-z+1/2
SFAC C H N O S Cl
UNIT 144.00 96.00 8.00 8.00 8.00 8.00
TREF
HKLF 4
END
_computing_structure_solution     'SHELXT 2014/5 (Sheldrick, 2014)'
;
_shelx_hkl_checksum              55615
_shelx_res_file
;
TITL oudizan-1-r_a.res in P2(1)/c
REM Old TITL Oudizan-1-R in P21/c #14
REM SHELXT solution in P2(1)/c
REM R1 0.186, Rweak 0.303, Alpha 0.036, Orientation as input
REM Formula found by SHELXT: C15 N2 O S Cl
CELL 1.54184 13.3937 8.9106 13.394 90 99.765 90
ZERR 4 0.0008 0.0004 0.0007 0 0.005 0
LATT 1
SYMM -X,0.5+Y,0.5-Z
SFAC C H Cl N O S
UNIT 72 48 4 4 4 4
EQIV $1 1-X,0.5+Y,0.5-Z
EQIV $2 +X,0.5-Y,-0.5+Z
L.S. 50
PLAN  20
TEMP 20(2)
HTAB C12 O1_$1
HTAB C18 O1_$2
BOND $H
LIST 6
MORE -1
CONF
fmap 2
acta
OMIT -3 9 9
OMIT -1 9 9
OMIT -2 9 9
OMIT 0 9 9
OMIT 1 7 12
OMIT -10 1 5
REM <olex2.extras>
REM <HklSrc "%.\\Oudizan-1-R.hkl">
REM </olex2.extras>
WGHT    0.072300    0.473600
FVAR       0.51090
CL1   3    0.429652    0.523589    0.250721    11.00000    0.07025    0.14521 =
         0.07699   -0.02667    0.01267   -0.02165
S1    6    0.776496    0.763297    0.341122    11.00000    0.08866    0.04932 =
         0.04985   -0.01090    0.02565   -0.00485
O1    5    0.787618    0.340539    0.268836    11.00000    0.08773    0.03808 =
         0.06313    0.00905    0.02041    0.00140
N1    4    0.862715    0.537170    0.206484    11.00000    0.04833    0.03862 =
         0.04287   -0.00065    0.00871    0.00435
C1    1    0.795615    0.476064    0.262142    11.00000    0.05506    0.04020 =
         0.03796    0.00353    0.00535    0.00200
C2    1    0.733170    0.579513    0.313866    11.00000    0.05681    0.05041 =
         0.03577    0.00358    0.00962    0.00174
C3    1    0.827004    0.802217    0.232212    11.00000    0.04615    0.03940 =
         0.04401   -0.00155    0.00473   -0.00173
C4    1    0.832373    0.951224    0.203891    11.00000    0.06452    0.03919 =
         0.06533   -0.00220    0.00708   -0.00181
AFIX  43
H4    2    0.805053    1.025571    0.239875    11.00000   -1.20000
AFIX   0
C5    1    0.877973    0.989796    0.122706    11.00000    0.09244    0.04461 =
         0.07681    0.01066    0.01225   -0.02058
AFIX  43
H5    2    0.882264    1.089952    0.104366    11.00000   -1.20000
AFIX   0
C6    1    0.916850    0.879896    0.069318    11.00000    0.10296    0.06248 =
         0.07072   -0.00208    0.03579   -0.03470
AFIX  43
H6    2    0.947875    0.905814    0.014671    11.00000   -1.20000
AFIX   0
C7    1    0.910605    0.731767    0.095466    11.00000    0.07007    0.05474 =
         0.06242   -0.00887    0.02961   -0.01760
AFIX  43
H7    2    0.936352    0.658379    0.057482    11.00000   -1.20000
AFIX   0
C8    1    0.866273    0.689639    0.178064    11.00000    0.04193    0.04088 =
         0.04105   -0.00116    0.00487   -0.00408
C9    1    0.649498    0.527381    0.343021    11.00000    0.06399    0.05617 =
         0.04880    0.00120    0.01622   -0.00221
AFIX  43
H9    2    0.632612    0.427626    0.328321    11.00000   -1.20000
AFIX   0
C10   1    0.581720    0.614029    0.396365    11.00000    0.06047    0.06207 =
         0.04968    0.00423    0.01911   -0.00311
C11   1    0.478474    0.621768    0.359938    11.00000    0.06269    0.07440 =
         0.05669    0.00652    0.02136   -0.00890
C12   1    0.413848    0.705445    0.407616    11.00000    0.05816    0.09665 =
         0.08122    0.00609    0.02401    0.00091
AFIX  43
H12   2    0.345072    0.709786    0.381154    11.00000   -1.20000
AFIX   0
C13   1    0.452072    0.782349    0.494613    11.00000    0.08122    0.09205 =
         0.08234   -0.00618    0.03837    0.00753
AFIX  43
H13   2    0.409017    0.839063    0.527275    11.00000   -1.20000
AFIX   0
C14   1    0.553319    0.775763    0.533368    11.00000    0.08636    0.09783 =
         0.06512   -0.01807    0.02644   -0.00045
AFIX  43
H14   2    0.578876    0.827133    0.592646    11.00000   -1.20000
AFIX   0
C15   1    0.617331    0.693035    0.484545    11.00000    0.06376    0.09367 =
         0.05542   -0.00956    0.01252    0.00173
AFIX  43
H15   2    0.686073    0.690022    0.511293    11.00000   -1.20000
AFIX   0
C16   1    0.922098    0.428394    0.158005    11.00000    0.05296    0.04882 =
         0.05949   -0.00428    0.00982    0.01249
AFIX  23
H16A  2    0.987428    0.472235    0.153303    11.00000   -1.20000
H16B  2    0.934052    0.339875    0.200505    11.00000   -1.20000
AFIX   0
C17   1    0.872545    0.383286    0.056964    11.00000    0.06790    0.03954 =
         0.05810   -0.00249    0.02529    0.00451
C18   1    0.833398    0.343879   -0.024181    11.00000    0.09897    0.05799 =
         0.05350   -0.00742    0.02378   -0.00535
AFIX 163
H18   2    0.802475    0.312751   -0.088278    11.00000   -1.20000
AFIX   0
HKLF 4
REM  oudizan-1-r_a.res in P2(1)/c
REM R1 =  0.0488 for    2559 Fo > 4sig(Fo)  and  0.0579 for all    3031 data
REM    199 parameters refined using      0 restraints
END
WGHT      0.0723      0.4736
REM Highest difference peak  0.315,  deepest hole -0.287,  1-sigma level  0.045
Q1    1   0.7092  0.7580  0.3005  11.00000  0.05    0.31
Q2    1   0.4394  0.6301  0.2418  11.00000  0.05    0.26
Q3    1   0.7851  0.6641  0.3594  11.00000  0.05    0.25
Q4    1   0.7667  0.6487  0.3418  11.00000  0.05    0.24
Q5    1   0.8646  0.6095  0.1986  11.00000  0.05    0.21
Q6    1   0.8683  0.7537  0.3652  11.00000  0.05    0.19
Q7    1   0.8495  0.7374  0.1997  11.00000  0.05    0.19
Q8    1   0.7581  0.5498  0.3034  11.00000  0.05    0.18
Q9    1   0.7233  0.8545  0.3626  11.00000  0.05    0.18
Q10   1   0.4593  0.4523  0.3062  11.00000  0.05    0.18
Q11   1   0.4135  0.6189  0.4431  11.00000  0.05    0.16
Q12   1   0.5980  0.6772  0.4107  11.00000  0.05    0.16
Q13   1   0.5073  0.5224  0.2590  11.00000  0.05    0.16
Q14   1   0.8477  0.8860  0.2181  11.00000  0.05    0.15
Q15   1   0.8114  0.7901  0.2692  11.00000  0.05    0.15
Q16   1   0.8365  0.7963  0.3197  11.00000  0.05    0.15
Q17   1   0.8993  0.3518  0.0045  11.00000  0.05    0.15
Q18   1   0.8561  0.3004  0.0440  11.00000  0.05    0.14
Q19   1   0.9104  0.8017  0.0956  11.00000  0.05    0.14
Q20   1   0.9581  0.7161  0.1330  11.00000  0.05    0.14
;
_shelx_res_checksum              18066
_shelxl_version_number           2014/6
loop_
_space_group_symop_operation_xyz
'x, y, z'
'-x, y+1/2, -z+1/2'
'-x, -y, -z'
'x, -y-1/2, z-1/2'
loop_
_atom_site_type_symbol
_atom_site_label
_atom_site_fract_x
_atom_site_fract_y
_atom_site_fract_z
_atom_site_U_iso_or_equiv
_atom_site_adp_type
_atom_site_calc_flag
_atom_site_occupancy
Cl Cl1 0.42965(6) 0.52359(13) 0.25072(7) 0.0975(3) Uani d 1
S S1 0.77650(5) 0.76330(7) 0.34112(4) 0.0610(2) Uani d 1
O O1 0.78762(15) 0.34054(17) 0.26884(13) 0.0621(5) Uani d 1
N N1 0.86271(13) 0.53717(19) 0.20648(13) 0.0432(4) Uani d 1
C C1 0.79562(16) 0.4761(2) 0.26214(15) 0.0447(5) Uani d 1
C C2 0.73317(17) 0.5795(2) 0.31387(15) 0.0475(5) Uani d 1
C C3 0.82700(15) 0.8022(2) 0.23221(15) 0.0435(4) Uani d 1
C C4 0.83237(19) 0.9512(3) 0.2039(2) 0.0568(6) Uani d 1
H H4 0.8051 1.0256 0.2399 0.068 Uiso calc 1
C C5 0.8780(2) 0.9898(3) 0.1227(2) 0.0715(8) Uani d 1
H H5 0.8823 1.0900 0.1044 0.086 Uiso calc 1
C C6 0.9169(3) 0.8799(3) 0.0693(2) 0.0763(9) Uani d 1
H H6 0.9479 0.9058 0.0147 0.092 Uiso calc 1
C C7 0.9106(2) 0.7318(3) 0.0955(2) 0.0603(6) Uani d 1
H H7 0.9364 0.6584 0.0575 0.072 Uiso calc 1
C C8 0.86627(15) 0.6896(2) 0.17806(15) 0.0415(4) Uani d 1
C C9 0.64950(19) 0.5274(3) 0.34302(17) 0.0555(5) Uani d 1
H H9 0.6326 0.4276 0.3283 0.067 Uiso calc 1
C C10 0.58172(19) 0.6140(3) 0.39636(18) 0.0563(6) Uani d 1
C C11 0.4785(2) 0.6218(3) 0.3599(2) 0.0633(6) Uani d 1
C C12 0.4138(2) 0.7054(4) 0.4076(3) 0.0773(8) Uani d 1
H H12 0.3451 0.7098 0.3812 0.093 Uiso calc 1
C C13 0.4521(3) 0.7823(4) 0.4946(3) 0.0824(9) Uani d 1
H H13 0.4090 0.8391 0.5273 0.099 Uiso calc 1
C C14 0.5533(3) 0.7758(4) 0.5334(2) 0.0815(9) Uani d 1
H H14 0.5789 0.8271 0.5926 0.098 Uiso calc 1
C C15 0.6173(2) 0.6930(4) 0.4845(2) 0.0707(7) Uani d 1
H H15 0.6861 0.6900 0.5113 0.085 Uiso calc 1
C C16 0.92210(18) 0.4284(3) 0.15800(18) 0.0537(5) Uani d 1
H H16A 0.9874 0.4722 0.1533 0.064 Uiso calc 1
H H16B 0.9341 0.3399 0.2005 0.064 Uiso calc 1
C C17 0.87254(19) 0.3833(2) 0.05696(18) 0.0535(5) Uani d 1
C C18 0.8334(2) 0.3439(3) -0.0242(2) 0.0689(7) Uani d 1
H H18 0.8025 0.3128 -0.0883 0.083 Uiso calc 1
loop_
_atom_site_aniso_label
_atom_site_aniso_U_11
_atom_site_aniso_U_22
_atom_site_aniso_U_33
_atom_site_aniso_U_12
_atom_site_aniso_U_13
_atom_site_aniso_U_23
Cl1 0.0702(5) 0.1452(9) 0.0770(5) -0.0216(5) 0.0127(4) -0.0267(5)
S1 0.0887(5) 0.0493(4) 0.0499(3) -0.0049(3) 0.0256(3) -0.0109(2)
O1 0.0877(12) 0.0381(9) 0.0631(10) 0.0014(7) 0.0204(9) 0.0090(7)
N1 0.0483(9) 0.0386(9) 0.0429(9) 0.0043(7) 0.0087(7) -0.0007(7)
C1 0.0551(12) 0.0402(11) 0.0380(9) 0.0020(8) 0.0053(8) 0.0035(8)
C2 0.0568(12) 0.0504(12) 0.0358(9) 0.0017(9) 0.0096(8) 0.0036(8)
C3 0.0462(10) 0.0394(10) 0.0440(10) -0.0017(8) 0.0047(8) -0.0015(8)
C4 0.0645(14) 0.0392(11) 0.0653(14) -0.0018(10) 0.0071(11) -0.0022(10)
C5 0.092(2) 0.0446(13) 0.0768(17) -0.0206(13) 0.0122(15) 0.0107(12)
C6 0.103(2) 0.0625(16) 0.0707(17) -0.0347(15) 0.0358(16) -0.0021(13)
C7 0.0701(15) 0.0547(14) 0.0624(14) -0.0176(11) 0.0296(12) -0.0089(11)
C8 0.0419(10) 0.0409(10) 0.0411(9) -0.0041(8) 0.0049(8) -0.0012(8)
C9 0.0640(14) 0.0562(13) 0.0488(12) -0.0022(10) 0.0162(10) 0.0012(10)
C10 0.0605(13) 0.0621(14) 0.0497(12) -0.0031(11) 0.0191(10) 0.0042(10)
C11 0.0627(14) 0.0744(17) 0.0567(13) -0.0089(12) 0.0214(11) 0.0065(12)
C12 0.0582(15) 0.097(2) 0.0812(19) 0.0009(14) 0.0240(14) 0.0061(16)
C13 0.081(2) 0.092(2) 0.082(2) 0.0075(17) 0.0384(17) -0.0062(17)
C14 0.086(2) 0.098(2) 0.0651(17) -0.0004(17) 0.0264(15) -0.0181(15)
C15 0.0638(15) 0.094(2) 0.0554(14) 0.0017(14) 0.0125(12) -0.0096(13)
C16 0.0530(12) 0.0488(12) 0.0595(13) 0.0125(9) 0.0098(10) -0.0043(10)
C17 0.0679(14) 0.0395(11) 0.0581(13) 0.0045(9) 0.0253(11) -0.0025(9)
C18 0.099(2) 0.0580(15) 0.0535(14) -0.0054(14) 0.0238(14) -0.0074(11)
loop_
_atom_type_symbol
_atom_type_description
_atom_type_scat_dispersion_real
_atom_type_scat_dispersion_imag
_atom_type_scat_source
C C 0.0181 0.0091 'International Tables Vol C Tables 4.2.6.8 and 6.1.1.4'
H H 0.0000 0.0000 'International Tables Vol C Tables 4.2.6.8 and 6.1.1.4'
Cl Cl 0.3639 0.7018 'International Tables Vol C Tables 4.2.6.8 and 6.1.1.4'
N N 0.0311 0.0180 'International Tables Vol C Tables 4.2.6.8 and 6.1.1.4'
O O 0.0492 0.0322 'International Tables Vol C Tables 4.2.6.8 and 6.1.1.4'
S S 0.3331 0.5567 'International Tables Vol C Tables 4.2.6.8 and 6.1.1.4'
loop_
_geom_angle_atom_site_label_1
_geom_angle_atom_site_label_2
_geom_angle_atom_site_label_3
_geom_angle
C3 S1 C2 99.97(10)
C1 N1 C8 125.59(17)
C1 N1 C16 115.49(18)
C8 N1 C16 117.93(17)
O1 C1 N1 120.5(2)
O1 C1 C2 121.0(2)
N1 C1 C2 118.49(18)
C1 C2 S1 118.78(16)
C9 C2 S1 121.98(18)
C9 C2 C1 119.1(2)
C4 C3 S1 117.71(17)
C4 C3 C8 120.4(2)
C8 C3 S1 121.80(16)
C3 C4 H4 119.8
C5 C4 C3 120.4(2)
C5 C4 H4 119.8
C4 C5 H5 120.2
C6 C5 C4 119.6(2)
C6 C5 H5 120.2
C5 C6 H6 119.6
C5 C6 C7 120.7(3)
C7 C6 H6 119.6
C6 C7 H7 119.5
C6 C7 C8 121.0(2)
C8 C7 H7 119.5
C3 C8 N1 121.27(18)
C3 C8 C7 118.0(2)
C7 C8 N1 120.7(2)
C2 C9 H9 117.3
C2 C9 C10 125.5(2)
C10 C9 H9 117.3
C11 C10 C9 121.1(2)
C11 C10 C15 116.9(2)
C15 C10 C9 122.0(2)
C10 C11 Cl1 118.8(2)
C12 C11 Cl1 119.1(2)
C12 C11 C10 122.0(3)
C11 C12 H12 120.3
C13 C12 C11 119.3(3)
C13 C12 H12 120.3
C12 C13 H13 119.9
C14 C13 C12 120.2(3)
C14 C13 H13 119.9
C13 C14 H14 120.0
C13 C14 C15 120.0(3)
C15 C14 H14 120.0
C10 C15 H15 119.2
C14 C15 C10 121.6(3)
C14 C15 H15 119.2
N1 C16 H16A 108.9
N1 C16 H16B 108.9
H16A C16 H16B 107.7
C17 C16 N1 113.30(19)
C17 C16 H16A 108.9
C17 C16 H16B 108.9
C18 C17 C16 178.6(3)
C17 C18 H18 180.0
loop_
_geom_bond_atom_site_label_1
_geom_bond_atom_site_label_2
_geom_bond_distance
Cl1 C11 1.734(3)
S1 C2 1.755(2)
S1 C3 1.744(2)
O1 C1 1.217(3)
N1 C1 1.374(3)
N1 C8 1.414(3)
N1 C16 1.473(3)
C1 C2 1.492(3)
C2 C9 1.331(3)
C3 C4 1.386(3)
C3 C8 1.392(3)
C4 H4 0.9300
C4 C5 1.378(4)
C5 H5 0.9300
C5 C6 1.367(4)
C6 H6 0.9300
C6 C7 1.372(4)
C7 H7 0.9300
C7 C8 1.393(3)
C9 H9 0.9300
C9 C10 1.467(3)
C10 C11 1.388(4)
C10 C15 1.388(4)
C11 C12 1.379(4)
C12 H12 0.9300
C12 C13 1.374(5)
C13 H13 0.9300
C13 C14 1.369(5)
C14 H14 0.9300
C14 C15 1.377(4)
C15 H15 0.9300
C16 H16A 0.9700
C16 H16B 0.9700
C16 C17 1.459(3)
C17 C18 1.177(4)
C18 H18 0.9300
loop_
_geom_hbond_atom_site_label_D
_geom_hbond_atom_site_label_H
_geom_hbond_atom_site_label_A
_geom_hbond_site_symmetry_A
_geom_hbond_distance_DH
_geom_hbond_distance_HA
_geom_hbond_distance_DA
_geom_hbond_angle_DHA
C12 H12 O1 2_655 0.93 2.71 3.486(4) 141.6
C18 H18 O1 4_565 0.93 2.33 3.191(3) 153.5
loop_
_geom_torsion_atom_site_label_1
_geom_torsion_atom_site_label_2
_geom_torsion_atom_site_label_3
_geom_torsion_atom_site_label_4
_geom_torsion
Cl1 C11 C12 C13 179.5(3)
S1 C2 C9 C10 2.5(3)
S1 C3 C4 C5 175.4(2)
S1 C3 C8 N1 2.9(3)
S1 C3 C8 C7 -176.23(18)
O1 C1 C2 S1 157.24(18)
O1 C1 C2 C9 -19.0(3)
N1 C1 C2 S1 -22.8(2)
N1 C1 C2 C9 161.0(2)
C1 N1 C8 C3 23.2(3)
C1 N1 C8 C7 -157.7(2)
C1 N1 C16 C17 89.1(2)
C1 C2 C9 C10 178.7(2)
C2 S1 C3 C4 154.52(19)
C2 S1 C3 C8 -29.14(19)
C2 C9 C10 C11 126.8(3)
C2 C9 C10 C15 -52.6(4)
C3 S1 C2 C1 38.40(18)
C3 S1 C2 C9 -145.5(2)
C3 C4 C5 C6 0.8(4)
C4 C3 C8 N1 179.2(2)
C4 C3 C8 C7 0.0(3)
C4 C5 C6 C7 0.2(5)
C5 C6 C7 C8 -1.2(5)
C6 C7 C8 N1 -178.1(3)
C6 C7 C8 C3 1.1(4)
C8 N1 C1 O1 168.0(2)
C8 N1 C1 C2 -12.0(3)
C8 N1 C16 C17 -80.1(3)
C8 C3 C4 C5 -1.0(4)
C9 C10 C11 Cl1 1.3(3)
C9 C10 C11 C12 -178.4(3)
C9 C10 C15 C14 179.1(3)
C10 C11 C12 C13 -0.8(5)
C11 C10 C15 C14 -0.3(4)
C11 C12 C13 C14 0.0(5)
C12 C13 C14 C15 0.6(5)
C13 C14 C15 C10 -0.5(5)
C15 C10 C11 Cl1 -179.3(2)
C15 C10 C11 C12 0.9(4)
C16 N1 C1 O1 -0.3(3)
C16 N1 C1 C2 179.71(18)
C16 N1 C8 C3 -168.79(19)
C16 N1 C8 C7 10.4(3)

_cod_database_fobs_code 1546715
