#------------------------------------------------------------------------------
#$Date: 2017-08-26 04:51:53 +0300 (Sat, 26 Aug 2017) $
#$Revision: 199955 $
#$URL: file:///home/coder/svn-repositories/cod/cif/1/54/68/1546840.cif $
#------------------------------------------------------------------------------
#
# This file is available in the Crystallography Open Database (COD),
# http://www.crystallography.net/
#
# All data on this site have been placed in the public domain by the
# contributors.
#
data_1546840
_journal_paper_doi               10.1039/C7CC06125K
_chemical_formula_sum            'C20.5 H14 N5.5 O9.5 S2 Zn2'
_chemical_formula_weight         684.23
_space_group_crystal_system      tetragonal
_space_group_IT_number           96
_space_group_name_Hall           'P 4nw 2abw'
_space_group_name_H-M_alt        'P 43 21 2'
_symmetry_space_group_name_Hall  'P 4nw 2abw'
_symmetry_space_group_name_H-M   'P 43 21 2'
_atom_sites_solution_hydrogens   geom
_audit_creation_method           SHELXL-2014/7
_audit_update_record
;
2017-08-19 deposited with the CCDC.
2017-08-25 downloaded from the CCDC.
;
_cell_angle_alpha                90
_cell_angle_beta                 90
_cell_angle_gamma                90
_cell_formula_units_Z            8
_cell_length_a                   19.3938(1)
_cell_length_b                   19.3938(1)
_cell_length_c                   14.1496(1)
_cell_measurement_reflns_used    7092
_cell_measurement_temperature    119.99(10)
_cell_measurement_theta_max      72.8760
_cell_measurement_theta_min      3.8470
_cell_volume                     5321.94(5)
_computing_structure_refinement  'SHELXL-2014/7 (Sheldrick, 2014)'
_diffrn_ambient_temperature      119.99(10)
_diffrn_measured_fraction_theta_full 0.997
_diffrn_measured_fraction_theta_max 0.978
_diffrn_measurement_device_type  'XtaLAB AFC12 (RINC): Kappa single'
_diffrn_radiation_type           CuK\a
_diffrn_radiation_wavelength     1.54184
_diffrn_reflns_av_R_equivalents  0.0204
_diffrn_reflns_av_unetI/netI     0.0278
_diffrn_reflns_Laue_measured_fraction_full 0.997
_diffrn_reflns_Laue_measured_fraction_max 0.978
_diffrn_reflns_limit_h_max       24
_diffrn_reflns_limit_h_min       -23
_diffrn_reflns_limit_k_max       22
_diffrn_reflns_limit_k_min       -16
_diffrn_reflns_limit_l_max       16
_diffrn_reflns_limit_l_min       -8
_diffrn_reflns_number            11489
_diffrn_reflns_point_group_measured_fraction_full 0.998
_diffrn_reflns_point_group_measured_fraction_max 0.980
_diffrn_reflns_theta_full        67.684
_diffrn_reflns_theta_max         73.196
_diffrn_reflns_theta_min         3.223
_exptl_absorpt_coefficient_mu    4.241
_exptl_absorpt_correction_type   multi-scan
_exptl_crystal_colour            ORANGE
_exptl_crystal_density_diffrn    1.708
_exptl_crystal_description       BLOCK
_exptl_crystal_F_000             2748
_exptl_crystal_size_max          0.270
_exptl_crystal_size_mid          0.130
_exptl_crystal_size_min          0.100
_exptl_transmission_factor_max   0.654
_exptl_transmission_factor_min   0.542
_refine_diff_density_max         0.465
_refine_diff_density_min         -0.443
_refine_diff_density_rms         0.051
_refine_ls_abs_structure_details
;
 Refined as an inversion twin.
;
_refine_ls_abs_structure_Flack   0.43(3)
_refine_ls_extinction_method     none
_refine_ls_goodness_of_fit_ref   1.071
_refine_ls_hydrogen_treatment    constr
_refine_ls_matrix_type           full
_refine_ls_number_parameters     328
_refine_ls_number_reflns         5144
_refine_ls_number_restraints     30
_refine_ls_restrained_S_all      1.133
_refine_ls_R_factor_all          0.0298
_refine_ls_R_factor_gt           0.0286
_refine_ls_shift/su_max          0.001
_refine_ls_shift/su_mean         0.000
_refine_ls_structure_factor_coef Fsqd
_refine_ls_weighting_details
'w=1/[\s^2^(Fo^2^)+(0.0373P)^2^+2.2416P] where P=(Fo^2^+2Fc^2^)/3'
_refine_ls_weighting_scheme      calc
_refine_ls_wR_factor_gt          0.0738
_refine_ls_wR_factor_ref         0.0745
_reflns_Friedel_coverage         0.752
_reflns_Friedel_fraction_full    1.000
_reflns_Friedel_fraction_max     0.983
_reflns_number_gt                4905
_reflns_number_total             5144
_reflns_threshold_expression     'I > 2\s(I)'
_cod_data_source_file            c7cc06125k5.cif
_cod_data_source_block           1_SQ
_cod_depositor_comments
;
The following automatic conversions were performed:

'_exptl_absorpt_correction_type' value 'Multi-scan' changed to
'multi-scan' according to
/home/data/users/saulius/crontab/automatic-downloads/rss-feeds/RSC/lib/dictionaries/cif_core.dic
dictionary named 'cif_core.dic' version 2.4.2 from 2011-04-26.

Automatic conversion script
Id: cif_fix_values 4973 2017-02-22 13:04:09Z antanas 
;
_cod_original_cell_volume        5321.94(7)
_cod_original_formula_sum        'C20.50 H14 N5.50 O9.50 S2 Zn2'
_cod_database_code               1546840
_shelx_shelxl_version_number     2014/7
_shelx_space_group_comment
;
The symmetry employed for this shelxl refinement is uniquely defined
by the following loop, which should always be used as a source of
symmetry information in preference to the above space-group names.
They are only intended as comments.
;
_shelx_estimated_absorpt_t_min   0.394
_shelx_estimated_absorpt_t_max   0.676
_shelx_res_file
;

    1_SQ.res created by SHELXL-2014/7

TITL 20170614a5_a.res in P4(3)2(1)2
REM Old TITL 20170614A5 in P41212 #92
REM SHELXT solution in P4(3)2(1)2
REM R1 0.163, Rweak 0.027, Alpha 0.007, Orientation as input
REM Flack x = 0.475 ( 0.011 ) from Parsons' quotients
REM Formula found by SHELXT: C21 N2 O6 S Zn2
CELL 1.54184 19.3938 19.3938 14.1496 90 90 90
ZERR 8 0.0001 0.0001 0.0001 0 0 0
LATT -1
SYMM -X,-Y,0.5+Z
SYMM 0.5-Y,0.5+X,0.75+Z
SYMM 0.5+Y,0.5-X,0.25+Z
SYMM 0.5-X,0.5+Y,0.75-Z
SYMM 0.5+X,0.5-Y,0.25-Z
SYMM +Y,+X,-Z
SYMM -Y,-X,0.5-Z
SFAC C H N O S Zn
UNIT 164 112 44 76 16 16
ISOR 0.01 0.02 C3 C4 N1 S1 O3

L.S. 10
PLAN  20
SIZE 0.27 0.13 0.1
BOND $H
list 4
conf
ABIN
fmap 2
acta
TWIN -1 0 0 0 -1 0 0 0 -1 2
OMIT 2 2 0
OMIT 2 2 2
OMIT 2 2 1
OMIT 2 6 0
REM <olex2.extras>
REM <HklSrc "%.\\1_sq.hkl">
REM </olex2.extras>

WGHT    0.037300    2.241600
BASF   0.43006
FVAR       0.14232   0.58111
ZN1   6    1.036258    0.493170    0.642359    11.00000    0.02023    0.02332 =
         0.02179    0.00351    0.00079   -0.00067
ZN2   6    0.464434    0.535566    0.250000    10.50000    0.02028    0.02028 =
         0.02928   -0.00150   -0.00150    0.00054
ZN3   6    0.492265    0.492265    0.500000    10.50000    0.02268    0.02268 =
         0.02399    0.00284   -0.00284    0.00016
O1    4    0.937968    0.493809    0.678168    11.00000    0.01959    0.17744 =
         0.03410    0.03454    0.00106   -0.00851
O2    4    0.903264    0.469377    0.820877    11.00000    0.02392    0.12853 =
         0.02984    0.02106    0.00264    0.00240
O4    4    0.563184    0.477092    0.605010    11.00000    0.01791    0.03115 =
         0.03429    0.00532   -0.00178    0.00122
O6    4    0.487076    0.403564    0.429455    11.00000    0.08625    0.02215 =
         0.03072    0.00028   -0.00183   -0.00509
O7    4    0.457767    0.115794    0.086781    11.00000    0.14485    0.03553 =
         0.02058   -0.00296   -0.01090   -0.00529
O8    4    0.472113    0.062886    0.221077    11.00000    0.02910    0.02160 =
         0.02355   -0.00265   -0.00277   -0.00090
N1    3    0.756921    0.466917    0.844489    11.00000    0.02665    0.18800 =
         0.02893    0.00154   -0.00397   -0.02371
N2    3    0.642920    0.464883    0.769169    11.00000    0.01923    0.14718 =
         0.02427   -0.00552   -0.00084   -0.02155
N3    3    0.505848    0.258558    0.452618    11.00000    0.18146    0.02126 =
         0.03229   -0.00264   -0.03078    0.00465
N4    3    0.498944    0.143981    0.378500    11.00000    0.09772    0.02066 =
         0.02909   -0.00100   -0.01834    0.00213
C1    1    0.893124    0.481322    0.736669    11.00000    0.02178    0.06303 =
         0.03162    0.01105    0.00657    0.00186
C2    1    0.821062    0.479954    0.697674    11.00000    0.02271    0.10231 =
         0.03846    0.02302    0.00337    0.00102
C3    1    0.812674    0.483106    0.602928    11.00000    0.03423    0.18600 =
         0.04811    0.02967   -0.00015   -0.01353
AFIX  43
H3    2    0.851596    0.486464    0.564814    11.00000   -1.20000
AFIX   0
C4    1    0.745899    0.481468    0.558783    11.00000    0.03763    0.18587 =
         0.05139    0.04363    0.00056   -0.00853
AFIX  43
H4    2    0.743556    0.480747    0.493143    11.00000   -1.20000
AFIX   0
C5    1    0.685632    0.480924    0.609151    11.00000    0.02772    0.12807 =
         0.04882    0.04492   -0.00564   -0.00457
C6    1    0.693518    0.473494    0.707679    11.00000    0.02312    0.05340 =
         0.03077    0.00110    0.00051   -0.00256
C7    1    0.760947    0.471867    0.752328    11.00000    0.02071    0.06794 =
         0.02640    0.00295    0.00107   -0.00783
C8    1    0.618346    0.484984    0.558688    11.00000    0.02635    0.09409 =
         0.03987    0.02814   -0.00398   -0.00616
C9    1    0.476149    0.393499    0.345583    11.00000    0.06525    0.02310 =
         0.03718    0.00202   -0.00059    0.00570
C10   1    0.473057    0.321041    0.308377    11.00000    0.08685    0.02371 =
         0.03561   -0.00173   -0.00555    0.00483
C11   1    0.451456    0.311644    0.216131    11.00000    0.11221    0.02826 =
         0.03312    0.00455   -0.01177    0.00571
AFIX  43
H11   2    0.439798    0.350102    0.180268    11.00000   -1.20000
AFIX   0
C12   1    0.446497    0.245664    0.174548    11.00000    0.10506    0.03350 =
         0.03312    0.00006   -0.00941    0.00024
AFIX  43
H12   2    0.429727    0.241879    0.113190    11.00000   -1.20000
AFIX   0
C13   1    0.465763    0.186598    0.222119    11.00000    0.07704    0.02685 =
         0.02707    0.00103   -0.00759   -0.00107
C14   1    0.483996    0.194349    0.318295    11.00000    0.05285    0.02105 =
         0.03172   -0.00023   -0.00584    0.00423
C15   1    0.487892    0.261200    0.361178    11.00000    0.07426    0.02368 =
         0.02856   -0.00078   -0.00945    0.00321
C16   1    0.464801    0.119035    0.172387    11.00000    0.06987    0.02394 =
         0.02625    0.00083   -0.00344   -0.00290
PART 1
S1    5    0.681988    0.428253    0.867266   -21.00000    0.03833    0.15534 =
         0.03651    0.03069   -0.00890   -0.03020
S2    5    0.527194    0.179562    0.474329    21.00000    0.10692    0.02155 =
         0.03407   -0.00190   -0.02801    0.00188
O3    4    0.616073    0.512954    0.481434    21.00000    0.03526    0.12165 =
         0.05545    0.03924   -0.00274   -0.01323
O5    4    0.487876    0.439220    0.278300    21.00000    0.08210    0.02821 =
         0.03473   -0.00083   -0.00571    0.01088
PART 0
PART 2
S1'   5    0.675047    0.476060    0.872437    21.00000    0.01558    0.13094 =
         0.02168   -0.01114    0.00109   -0.01150
S2'   5    0.497011    0.176879    0.486285   -21.00000    0.16334    0.02025 =
         0.02164   -0.00043   -0.01544    0.00404
O3'   4    0.618111    0.481402    0.466297   -21.00000    0.03141    0.04011 =
         0.02057    0.00787   -0.00555   -0.00285
O5'   4    0.441190    0.436726    0.298793   -21.00000    0.02347    0.01438 =
         0.02978    0.00314    0.00117   -0.00595
HKLF 4

REM  20170614a5_a.res in P4(3)2(1)2
REM R1 =  0.0286 for    4905 Fo > 4sig(Fo)  and  0.0298 for all    5144 data
REM    328 parameters refined using     30 restraints

END

WGHT      0.0373      2.2504

REM Highest difference peak  0.465,  deepest hole -0.443,  1-sigma level  0.051
Q1    1   0.8071  0.5389  0.6235  11.00000  0.05    0.47
Q2    1   0.7394  0.5396  0.5910  11.00000  0.05    0.42
Q3    1   0.5031  0.2392  0.1707  11.00000  0.05    0.34
Q4    1   0.5062  0.3085  0.2098  11.00000  0.05    0.25
Q5    1   0.5353  0.2052  0.4029  11.00000  0.05    0.25
Q6    1   0.8404  0.4989  0.8434  11.00000  0.05    0.25
Q7    1   0.9506  0.5155  0.6901  11.00000  0.05    0.24
Q8    1   0.6803  0.5317  0.6272  11.00000  0.05    0.24
Q9    1   1.0841  0.4379  0.6268  11.00000  0.05    0.24
Q10   1   1.0104  0.5506  0.6391  11.00000  0.05    0.23
Q11   1   0.4927  0.0906  0.3661  11.00000  0.05    0.23
Q12   1   0.4082  0.4886  0.2650  11.00000  0.05    0.22
Q13   1   0.4580  0.4501  0.4381  11.00000  0.05    0.22
Q14   1   0.8121  0.4654  0.5974  11.00000  0.05    0.22
Q15   1   0.7425  0.4609  0.5568  11.00000  0.05    0.21
Q16   1   0.5277  0.1130  0.3758  11.00000  0.05    0.20
Q17   1   0.9335  0.5004  0.8682  11.00000  0.05    0.19
Q18   1   0.4377  0.4377  0.5000  10.50000  0.05    0.19
Q19   1   0.4425  0.4637  0.2805  11.00000  0.05    0.19
Q20   1   0.7146  0.4952  0.8724  11.00000  0.05    0.18
;
_shelx_res_checksum              13873
_shelx_fab_file
;
    0    0    4     20.39     -0.08
    0    0   12      0.87      0.24
    0    1    1    -20.39     20.42
    0    1    2      4.18      0.91
    0    1    3     -6.52     -5.63
    0    1    4     -0.11     -3.96
    0    1    5      0.86     -1.45
    0    1    6     -4.07     -1.36
    0    1    7     -1.01     -1.25
    0    1    8      0.22      0.37
    0    1    9     -2.92      3.09
    0    1   10     -0.63      6.59
    0    1   11      2.35      1.58
    0    1   12      0.16      0.19
    0    1   13     -1.72      1.81
    0    1   14     -0.08     -0.17
    0    1   15     -0.66     -0.54
    1    1    0      4.72     -0.38
    1    1    1     -0.94      3.73
    1    1    2      0.92      0.29
    1    1    3      0.56     -3.09
    1    1    4      8.91     -1.01
    1    1    5      0.19     -1.74
    1    1    6      1.54     -0.11
    1    1    7     -0.15     -4.26
    1    1    8     -1.07      0.35
    1    1    9     -0.13     -2.05
    1    1   10     -3.08      0.31
    1    1   11     -0.02     -0.05
    1    1   12      0.46     -0.40
    1    1   13     -0.17      0.49
    1    1   14      1.24     -0.33
    1    1   15      0.18      0.22
    0    2    0   -397.08      4.55
    0    2    1     53.19     51.82
    0    2    2      0.54     10.78
    0    2    3     -5.73      5.31
    0    2    4    -13.43     -0.93
    0    2    5      4.65      5.20
    0    2    6     -0.25      2.17
    0    2    7      0.70      0.23
    0    2    8     -5.37      0.13
    0    2    9     -0.26     -0.48
    0    2   10      3.05     -1.07
    0    2   11      0.14      0.58
    0    2   12     -0.07     -0.25
    0    2   13     -0.35     -0.44
    0    2   14     -0.14      0.73
    0    2   15     -0.21     -0.11
    1    2   16     -0.16     -0.79
    1    2   15     -0.94     -0.86
    1    2   14     -0.28     -0.03
    1    2   13     -1.91     -1.49
    1    2   12     -0.54      0.32
    1    2   11     -0.95     -0.61
    1    2   10      0.05     -2.77
    1    2    9     -1.08     -1.15
    1    2    8     -0.54     -0.33
    1    2    7      0.01      2.53
    1    2    6      2.13     -7.13
    1    2    5     -1.53      0.12
    1    2    4      8.05     -2.02
    1    2    3     -6.38      2.30
    1    2    2     -1.16      3.88
    1    2    1    -16.12     -7.68
    1    2    0     -4.11      0.31
    2    2    3      0.42     -4.98
    2    2    4      9.10      1.60
    2    2    5      0.58     -4.64
    2    2    6     -7.64     -0.05
    2    2    7     -0.63      0.13
    2    2    8      3.07      0.05
    2    2    9      0.02      0.09
    2    2   10      0.08      0.80
    2    2   11     -1.15     -1.39
    2    2   12     -0.65      0.40
    2    2   13     -0.35     -0.47
    2    2   14      3.16     -0.03
    2    2   15      0.13     -1.09
    2    2   16     -1.05      0.31
    0    3    1    -44.74     44.85
    0    3    2     -0.51     -2.46
    0    3    3      5.70      5.07
    0    3    4     -0.34      1.16
    0    3    5     -0.69      0.41
    0    3    6      6.39     -0.06
    0    3    7     -0.46     -0.36
    0    3    8     -0.03      1.10
    0    3    9      0.42     -0.44
    0    3   10      2.07     -1.61
    0    3   11      0.47      0.50
    0    3   12     -0.26     -0.60
    0    3   13     -0.04      0.04
    0    3   14      0.52      0.15
    0    3   15      0.08      0.12
    0    3   16      0.25      1.90
    1    3   16     -0.45     -0.17
    1    3   15     -0.82      0.33
    1    3   14     -0.25      0.47
    1    3   13      0.79     -0.58
    1    3   12     -0.99      0.43
    1    3   11     -0.27     -0.02
    1    3   10      1.82     -0.10
    1    3    9      1.08      0.50
    1    3    8      2.29      2.27
    1    3    7      3.15      3.04
    1    3    6      2.26     -1.30
    1    3    5     -0.48      2.41
    1    3    4    -14.81      1.30
    1    3    3     -0.41     10.01
    1    3    2    -16.29     -0.26
    1    3    1      5.77     -2.72
    1    3    0     -6.28      3.81
    2    3   16      0.55     -0.99
    2    3   15     -0.49      0.39
    2    3   14      0.00      0.11
    2    3   13     -0.72     -0.09
    2    3   12     -0.43      0.50
    2    3   11     -0.75      0.50
    2    3   10      0.13      1.04
    2    3    9      0.43     -0.11
    2    3    8     -0.14     -0.81
    2    3    7      0.98     -1.08
    2    3    6     -1.77     -2.08
    2    3    5     -0.09     -1.85
    2    3    4     -1.79     -0.51
    2    3    3     -5.65      0.92
    2    3    2     -3.21     -7.72
    2    3    1     21.84    -33.65
    2    3    0    -17.56     -2.58
    3    3    0      7.05     -0.89
    3    3    1      0.61     -0.31
    3    3    2      4.71     -0.15
    3    3    3      1.13    -14.88
    3    3    4     25.02     -0.61
    3    3    5      0.59     -5.30
    3    3    6     -2.59     -0.38
    3    3    7     -0.37      1.61
    3    3    8     -2.40     -0.55
    3    3    9     -0.17      0.77
    3    3   10     -3.48      0.27
    3    3   11      0.57      0.22
    3    3   12      1.38     -0.09
    3    3   13      0.25     -0.28
    3    3   14     -0.47     -0.23
    3    3   15      0.05     -0.89
    3    3   16      0.48     -0.25
    0    4    0    -39.25      0.70
    0    4    1     -0.60     -1.90
    0    4    2     -0.96    -39.42
    0    4    3      7.31     -7.64
    0    4    4     -0.63      0.45
    0    4    5     -2.94     -2.64
    0    4    6      0.52     -6.16
    0    4    7     -1.13      0.73
    0    4    8     -1.28      0.19
    0    4    9     -1.16     -0.62
    0    4   10     -2.29      1.92
    0    4   11      1.36     -2.09
    0    4   12      0.11      0.21
    0    4   13      0.78      1.00
    0    4   14     -0.32     -1.12
    0    4   15     -0.25     -0.04
    0    4   16      0.04     -0.01
    1    4   16      0.66     -0.10
    1    4   15      0.55      0.99
    1    4   14      1.01      0.19
    1    4   13      0.56      0.28
    1    4   12      0.60     -0.35
    1    4   11      2.84     -1.69
    1    4   10      0.65      0.28
    1    4    9     -3.43     -3.09
    1    4    8      1.37      0.64
    1    4    7      0.72     -3.74
    1    4    6      1.44      4.80
    1    4    5      2.19      3.22
    1    4    4     -7.74     -1.06
    1    4    3      3.96      3.78
    1    4    2      0.63     -0.39
    1    4    1      1.50      4.91
    1    4    0      4.44     -1.15
    2    4   16     -1.06      0.58
    2    4   15      0.22      1.52
    2    4   14     -1.08      1.14
    2    4   13     -1.21     -0.06
    2    4   12      0.40      0.68
    2    4   11      0.51      3.04
    2    4   10      1.55     -2.27
    2    4    9      0.07     -0.31
    2    4    8      0.15     -0.41
    2    4    7      1.36     -0.13
    2    4    6      4.05      3.23
    2    4    5      4.65     -1.86
    2    4    4      0.22      2.75
    2    4    3     -1.11      6.64
    2    4    2     13.99     24.73
    2    4    1      5.10     -4.86
    2    4    0     27.18     -0.89
    3    4   16     -1.34     -0.49
    3    4   15     -1.26     -0.19
    3    4   14     -1.16      0.42
    3    4   13     -0.53      0.42
    3    4   12      0.15     -0.34
    3    4   11      0.30     -1.62
    3    4   10     -2.35     -1.66
    3    4    9      2.03      2.31
    3    4    8     -1.00     -0.48
    3    4    7      2.08      3.00
    3    4    6     -3.56     -2.29
    3    4    5      1.75      1.06
    3    4    4      0.85      2.27
    3    4    3     -6.81     -8.38
    3    4    2      1.48     -6.44
    3    4    1      6.84     -3.34
    3    4    0      3.56      3.44
    4    4    0    -15.19      0.33
    4    4    1     -1.21      0.74
    4    4    2    -11.74     -0.37
    4    4    3      0.31     -2.75
    4    4    4     -0.95     -0.18
    4    4    5      0.04      3.12
    4    4    6     -2.27     -0.13
    4    4    7     -0.17     -0.82
    4    4    8      2.26     -0.01
    4    4    9      0.58      0.61
    4    4   10     -1.37     -0.27
    4    4   11      0.38     -2.25
    4    4   12     -0.83     -0.12
    4    4   13     -0.36      1.16
    4    4   14      0.92     -0.22
    4    4   15      0.11     -2.25
    4    4   16      1.43     -0.40
    0    5    1     59.48    -58.13
    0    5    2     -7.00      1.47
    0    5    3     -1.66     -2.07
    0    5    4      0.15      5.18
    0    5    5      2.33     -2.04
    0    5    6     -2.78     -0.16
    0    5    7      0.44      0.60
    0    5    8     -0.28     -1.51
    0    5    9      0.15     -0.17
    0    5   10     -3.53     -0.86
    0    5   11     -1.53     -0.53
    0    5   12      0.29      1.06
    0    5   13      0.38     -0.19
    0    5   14     -0.44      0.02
    0    5   15      0.63      0.24
    0    5   16     -0.04      0.16
    1    5   16     -0.03      0.70
    1    5   15      0.94     -0.17
    1    5   14     -0.16     -0.60
    1    5   13     -0.78      0.55
    1    5   12      0.06     -1.18
    1    5   11     -1.08     -1.04
    1    5   10     -0.86     -0.50
    1    5    9     -3.30      3.10
    1    5    8     -1.36     -1.60
    1    5    7     -1.46     -0.73
    1    5    6     -2.70      1.90
    1    5    5      2.77     -0.65
    1    5    4      6.56     -0.25
    1    5    3     -0.58     -9.50
    1    5    2     19.32      0.04
    1    5    1     -5.58      3.22
    1    5    0     -2.25     -7.38
    2    5   16     -0.47      0.18
    2    5   15     -0.21      0.94
    2    5   14      0.14      0.42
    2    5   13      0.63      0.72
    2    5   12      0.90     -0.76
    2    5   11      1.16     -1.35
    2    5   10      0.22      1.94
    2    5    9     -1.19     -0.24
    2    5    8      0.95      1.27
    2    5    7     -1.79     -0.07
    2    5    6      0.59     -2.66
    2    5    5     -2.57      3.18
    2    5    4     -0.89     -3.34
    2    5    3      2.15     -4.13
    2    5    2      6.74     12.37
    2    5    1    -41.41     34.44
    2    5    0     23.54      4.46
    3    5   16      0.60      0.11
    3    5   15     -0.58      0.61
    3    5   14      0.38     -0.23
    3    5   13      0.59     -0.24
    3    5   12     -0.34      0.49
    3    5   11      0.32     -0.92
    3    5   10      2.59     -0.22
    3    5    9      2.21     -2.20
    3    5    8      0.45      1.78
    3    5    7     -0.89     -2.22
    3    5    6      0.51     -2.26
    3    5    5     -3.87      1.62
    3    5    4    -11.62      2.32
    3    5    3     -1.53      6.45
    3    5    2      0.76      0.14
    3    5    1      2.73     -2.59
    3    5    0      2.33      0.93
    4    5   16      1.38     -0.48
    4    5   15     -0.58     -1.23
    4    5   14     -0.03      1.01
    4    5   13     -0.57     -0.61
    4    5   12     -0.68     -1.69
    4    5   11      1.22      0.75
    4    5   10      3.87     -2.33
    4    5    9      0.99     -2.21
    4    5    8     -0.28     -0.37
    4    5    7      2.37     -0.95
    4    5    6      1.83     -0.09
    4    5    5      2.28     -5.37
    4    5    4      3.43      1.63
    4    5    3     -2.14     10.02
    4    5    2     -4.17    -11.61
    4    5    1     13.37      1.26
    4    5    0    -11.77     -3.75
    5    5    0      4.52      1.42
    5    5    1      0.07      6.53
    5    5    2     -6.07     -0.20
    5    5    3     -0.08      4.35
    5    5    4      6.83      0.92
    5    5    5      0.96     -1.22
    5    5    6      0.92      0.04
    5    5    7     -0.04      2.10
    5    5    8      0.96     -0.35
    5    5    9      0.03      0.70
    5    5   10     -0.41     -0.12
    5    5   11      0.48      3.21
    5    5   12      0.86      0.09
    5    5   13      0.24     -0.01
    5    5   14     -0.37      0.72
    5    5   15      0.21     -0.05
    5    5   16     -1.67      0.20
    0    6    0    125.80     -1.97
    0    6    1    -42.13    -40.43
    0    6    2      0.34     42.64
    0    6    3      2.58     -1.77
    0    6    4      4.22     -0.52
    0    6    5     -0.27     -0.68
    0    6    6     -0.48      2.90
    0    6    7      1.07     -1.67
    0    6    8      3.51      0.23
    0    6    9      0.64      0.36
    0    6   10      0.30      0.76
    0    6   11     -1.66      1.73
    0    6   12     -1.05      0.27
    0    6   13     -0.53     -0.82
    0    6   14      0.25      0.45
    0    6   15      1.29     -0.74
    0    6   16     -1.10      0.22
    1    6   16      0.59      0.27
    1    6   15     -0.14     -0.23
    1    6   14     -1.09      0.87
    1    6   13      0.96      0.98
    1    6   12      0.56      0.79
    1    6   11     -3.05      1.45
    1    6   10     -1.13     -1.50
    1    6    9      2.28      1.96
    1    6    8      0.38      0.02
    1    6    7      0.65      2.47
    1    6    6     -3.10      3.76
    1    6    5      1.30     -3.77
    1    6    4      2.63     -1.44
    1    6    3      2.42     -4.54
    1    6    2     -4.03      5.05
    1    6    1      2.26    -12.11
    1    6    0     -3.32      0.45
    2    6   15     -1.51     -1.00
    2    6   14      0.28     -0.73
    2    6   13      0.73      0.93
    2    6   12      0.54     -2.18
    2    6   11     -0.57     -3.25
    2    6   10      0.99      0.78
    2    6    9      0.15     -0.18
    2    6    8     -1.24      0.06
    2    6    7     -0.97      0.20
    2    6    6      3.04     -2.19
    2    6    5     -1.65      4.24
    2    6    4     -3.07      3.57
    2    6    3     -5.73     -3.00
    2    6    2      3.38    -29.38
    2    6    1     15.36     32.43
    2    6   16      0.92     -0.85
    3    6   16     -0.09      0.14
    3    6   15      1.23      0.60
    3    6   14      0.71     -0.65
    3    6   13     -0.67     -0.79
    3    6   12     -1.00      1.46
    3    6   11     -0.29      1.16
    3    6   10      1.95      1.95
    3    6    9     -2.40     -2.98
    3    6    8     -0.06     -0.37
    3    6    7     -1.28     -2.51
    3    6    6      4.70      1.23
    3    6    5     -3.82      2.94
    3    6    4      0.93     -0.08
    3    6    3      3.11      4.97
    3    6    2      6.37      1.78
    3    6    1     -7.46     18.71
    3    6    0      9.33     -0.07
    4    6   16     -0.27      0.99
    4    6   15     -0.28      0.94
    4    6   14     -1.67      1.08
    4    6   13     -0.18     -1.22
    4    6   12      0.34      1.56
    4    6   11     -0.30      1.53
    4    6   10      0.57     -1.70
    4    6    9     -0.07      0.36
    4    6    8     -1.53      0.12
    4    6    7      0.45      2.92
    4    6    6     -2.52      0.69
    4    6    5      1.56     -3.32
    4    6    4      1.66      0.29
    4    6    3      4.02      0.26
    4    6    2      5.14      8.62
    4    6    1      2.66      3.12
    4    6    0     11.50     -0.35
    5    6   16     -1.67     -0.59
    5    6   15     -0.66     -0.64
    5    6   14      1.26      1.35
    5    6   13      0.26     -1.02
    5    6   12      1.26     -6.02
    5    6   11      1.55     -0.01
    5    6   10     -2.16     -0.63
    5    6    9      0.83      4.37
    5    6    8     -1.00      1.50
    5    6    7     -1.12      0.55
    5    6    6     -0.94     -3.76
    5    6    5      0.97      3.22
    5    6    4     -3.74      2.41
    5    6    3     -3.36     -6.69
    5    6    2     -1.50     -5.25
    5    6    1      4.42    -11.50
    5    6    0     -4.41     -0.60
    6    6    0     12.43      0.33
    6    6    1     -1.02    -21.02
    6    6    2     -8.64     -0.14
    6    6    3      1.24      5.25
    6    6    4     -1.50     -0.22
    6    6    5      0.17      0.62
    6    6    6     -0.51     -0.24
    6    6    7     -0.08     -3.58
    6    6    8      1.28      0.35
    6    6    9      0.57     -0.29
    6    6   10     -2.04      0.56
    6    6   11      0.51     -1.08
    6    6   12     -0.37     -0.04
    6    6   13     -0.17     -0.40
    6    6   14      2.94     -0.61
    6    6   15      0.15      0.20
    6    6   16     -0.28      0.13
    0    7    1    -14.87     13.54
    0    7    2     -0.42      0.22
    0    7    3     -0.34     -0.16
    0    7    4      0.25     -0.95
    0    7    5     -0.42      0.71
    0    7    6     -1.03      0.21
    0    7    7     -0.18      0.08
    0    7    8     -0.02     -0.14
    0    7    9      0.95     -1.13
    0    7   10      3.27      0.30
    0    7   11     -0.72     -0.92
    0    7   12      0.04     -1.01
    0    7   13     -0.60     -0.18
    0    7   14      1.10     -0.10
    0    7   15      0.31      0.52
    0    7   16     -0.14     -0.49
    1    7   16      0.29      0.79
    1    7   15     -0.99     -0.61
    1    7   14     -0.25      0.81
    1    7   13     -0.27      0.10
    1    7   12      0.96     -0.53
    1    7   11      1.81      0.96
    1    7   10      1.18      0.91
    1    7    9      2.27     -1.57
    1    7    8     -0.84     -0.17
    1    7    7      0.04      0.20
    1    7    6      2.16      0.53
    1    7    5     -3.24     -0.81
    1    7    4      1.14      0.12
    1    7    3      2.21      2.43
    1    7    2    -12.70      0.68
    1    7    1      1.05     -2.97
    1    7    0      5.84      3.83
    2    7   16      1.27      0.29
    2    7   15     -0.96     -0.05
    2    7   14     -0.39     -1.12
    2    7   13      0.44      0.60
    2    7   12     -0.90      0.52
    2    7   11     -0.86      1.92
    2    7   10     -0.40     -1.48
    2    7    9      0.68      0.60
    2    7    8     -0.15     -1.62
    2    7    7      0.27     -0.79
    2    7    6     -0.16      0.56
    2    7    5      0.40     -2.33
    2    7    4      0.56      0.64
    2    7    3     -1.59      6.66
    2    7    2      0.41     -5.01
    2    7    1     17.58     -5.14
    2    7    0     -6.10     -1.66
    3    7   15      0.55     -0.35
    3    7   14     -0.38     -0.39
    3    7   13     -1.07      1.16
    3    7   12     -0.58      0.28
    3    7   11     -1.25     -0.04
    3    7   10     -0.62     -0.51
    3    7    9     -1.47      0.75
    3    7    8      0.50      0.21
    3    7    7      1.53     -0.50
    3    7    6      1.88      0.89
    3    7    5      3.38      2.51
    3    7    4     -1.94     -0.96
    3    7    3     -4.65      0.52
    3    7    2      4.71     -0.27
    3    7    1     -0.64      6.19
    3    7    0     -3.78     -1.19
    3    7   16     -0.99     -0.88
    4    7   16     -0.78      0.11
    4    7   15     -0.11      0.21
    4    7   14      0.38     -0.15
    4    7   13      0.40     -0.03
    4    7   12      0.61      1.37
    4    7   11      0.28      1.05
    4    7   10     -2.73      0.40
    4    7    9     -0.95      1.81
    4    7    8     -0.60      1.19
    4    7    7      1.69      0.30
    4    7    6      1.00     -0.19
    4    7    5      0.74      3.94
    4    7    4     -0.55      1.08
    4    7    3     -1.05     -7.88
    4    7    2      2.57      6.94
    4    7    1     -8.28     -0.72
    4    7    0      9.67     -0.05
    5    7   16      1.94      0.92
    5    7   15      0.13      0.21
    5    7   14      0.54     -1.00
    5    7   13      1.09     -0.61
    5    7   12     -0.68      0.33
    5    7   11      0.66     -0.84
    5    7   10     -1.50     -1.17
    5    7    9      0.80     -0.52
    5    7    8      0.45      0.54
    5    7    7     -2.91     -0.13
    5    7    6     -1.03     -2.40
    5    7    5     -1.29      0.15
    5    7    4     -0.98      0.45
    5    7    3      3.82     -6.82
    5    7    2     -0.81     -0.41
    5    7    1     -0.46     -5.50
    5    7    0     -6.75      0.47
    6    7   16      1.43     -0.08
    6    7   15      0.46      0.47
    6    7   14     -0.97      1.40
    6    7   13     -0.24      1.68
    6    7   12     -0.04     -3.93
    6    7   11     -0.40     -1.83
    6    7   10      1.06      3.32
    6    7    9      0.71     -3.39
    6    7    8      0.58      1.70
    6    7    7     -1.50      0.14
    6    7    6     -1.23      0.32
    6    7    5     -2.96     -4.39
    6    7    4     -0.06     -0.50
    6    7    3      1.15      4.27
    6    7    2     -3.99     -2.38
    6    7    1      1.75      2.44
    6    7    0     -6.21      1.09
    7    7    0      4.78     -0.16
    7    7    1     -0.47      4.28
    7    7    2     -1.04      0.36
    7    7    3      1.03      6.97
    7    7    4      3.82     -0.10
    7    7    5     -0.28     -2.33
    7    7    6     -2.55      0.14
    7    7    7     -0.25      1.00
    7    7    8     -0.53      0.15
    7    7    9     -0.32     -0.59
    7    7   10      2.47     -0.06
    7    7   11     -0.01     -0.15
    7    7   12      0.09     -0.02
    7    7   13     -0.18      0.04
    7    7   14     -0.38      0.20
    7    7   15     -0.04      0.63
    7    7   16     -2.32     -0.03
    0    8    0    -27.66     -0.37
    0    8    1     21.25     22.30
    0    8    2      1.83     -5.36
    0    8    3     -5.86      5.69
    0    8    4      2.80     -0.17
    0    8    5      1.67      1.66
    0    8    6     -0.38      3.47
    0    8    7      0.84     -0.19
    0    8    8     -0.82      0.05
    0    8    9     -0.10     -0.43
    0    8   10      0.15     -3.05
    0    8   11     -0.29      0.56
    0    8   12      0.29     -0.19
    0    8   13      0.28      0.20
    0    8   14      0.39      0.13
    0    8   15     -1.90      1.94
    0    8   16     -0.63     -0.04
    1    8   16     -1.97     -0.91
    1    8   15     -0.87      1.33
    1    8   14      1.12     -1.15
    1    8   13     -0.35     -0.47
    1    8   12     -0.45     -0.91
    1    8   11      1.75     -1.30
    1    8   10      1.02     -0.03
    1    8    9      1.49      0.98
    1    8    8      1.39     -0.14
    1    8    7     -2.77     -0.07
    1    8    6      1.48     -6.19
    1    8    5     -3.22      0.66
    1    8    4      3.03      6.24
    1    8    3     -5.63      2.60
    1    8    2      1.08     -9.27
    1    8    1      0.34      8.47
    1    8    0     -0.58     -0.01
    2    8   15      2.70      0.89
    2    8   14     -1.48     -0.15
    2    8   13      0.12     -0.29
    2    8   12     -0.12      2.96
    2    8   11      1.10      0.45
    2    8   10     -1.00      1.72
    2    8    9     -1.79      1.88
    2    8    8      0.70     -0.55
    2    8    7     -0.64      0.74
    2    8    6     -4.42     -0.86
    2    8    5     -4.15      0.20
    2    8    4     -1.28     -5.42
    2    8    3      3.83     -3.92
    2    8    2     -8.34      4.66
    2    8    1    -12.42    -12.30
    2    8    0     19.58     -0.14
    2    8   16      0.48     -0.48
    3    8   15     -0.70     -2.62
    3    8   14     -0.34     -0.05
    3    8   13      0.55      0.17
    3    8   12      2.20     -1.28
    3    8   11      0.65     -0.08
    3    8   10      0.00     -0.35
    3    8    9      1.10      2.17
    3    8    8      0.53      0.05
    3    8    7      1.09      0.23
    3    8    6     -1.25      0.60
    3    8    5      1.88     -3.50
    3    8    4     -1.38     -6.71
    3    8    3      0.83      0.72
    3    8    2     -2.70      0.16
    3    8    1      3.51     -7.80
    3    8    0     -5.30     -1.10
    3    8   16      0.90      0.73
    4    8   15      0.28     -0.10
    4    8   14      2.21     -0.17
    4    8   13     -1.14      0.38
    4    8   12      0.48     -1.25
    4    8   11      0.12     -1.31
    4    8   10      0.64      0.84
    4    8    9      0.95     -0.60
    4    8    8     -0.73      0.74
    4    8    7      0.83     -2.30
    4    8    6      4.31     -0.43
    4    8    5     -0.35      1.27
    4    8    4     -0.68      0.67
    4    8    3     -4.77      3.01
    4    8    2      1.27     -3.12
    4    8    1     -1.06     -4.45
    4    8    0     -0.97      0.10
    4    8   16     -0.39     -0.89
    5    8   15      1.84      2.59
    5    8   14     -1.81     -0.86
    5    8   13      0.01      2.26
    5    8   12     -2.37      6.37
    5    8   11     -1.00      1.27
    5    8   10     -2.15     -0.15
    5    8    9     -0.60     -3.73
    5    8    8      0.36     -1.22
    5    8    7      1.44      1.00
    5    8    6     -0.88      1.77
    5    8    5      0.03     -0.18
    5    8    4      0.17     -1.95
    5    8    3      1.51      0.77
    5    8    2      1.50      1.15
    5    8    1     -1.27      1.15
    5    8    0      3.69      1.22
    5    8   16      1.95      0.56
    6    8   14     -1.97      0.20
    6    8   13      0.67      1.78
    6    8   12     -0.44     -0.63
    6    8   11     -1.17      2.49
    6    8   10      0.15     -1.47
    6    8    9      0.30     -0.28
    6    8    8     -0.26     -0.60
    6    8    7     -1.15      0.11
    6    8    6      1.86     -0.47
    6    8    5      2.16     -0.41
    6    8    4      1.00      1.52
    6    8    3      4.67     -4.04
    6    8    2      4.33      1.07
    6    8    1      2.61     13.84
    6    8    0     -7.62      0.04
    6    8   15     -1.38     -1.14
    7    8   15     -0.16     -0.49
    7    8   14      0.14      2.70
    7    8   13     -0.10     -1.78
    7    8   12     -0.14     -4.42
    7    8   11     -1.10     -0.58
    7    8   10      2.09      3.79
    7    8    9     -0.44      2.63
    7    8    8      0.95      0.90
    7    8    7      0.39     -0.88
    7    8    6      1.59      0.32
    7    8    5     -0.92      3.05
    7    8    4      1.32      1.92
    7    8    3      2.36     -2.16
    7    8    2      0.84      0.75
    7    8    1      1.09      1.26
    7    8    0      3.57     -0.13
    8    8    0      0.47     -0.28
    8    8    1     -0.30     -9.78
    8    8    2     -3.65     -0.60
    8    8    3     -0.14      1.49
    8    8    4     -1.11     -0.30
    8    8    5      0.30      0.21
    8    8    6     -3.90     -0.35
    8    8    7     -0.70      4.74
    8    8    8      1.54     -0.30
    8    8    9      0.21     -0.74
    8    8   10     -0.19     -0.14
    8    8   11     -0.37     -2.30
    8    8   12     -0.66     -0.03
    8    8   13      0.24     -3.00
    8    8   14      0.34      0.26
    8    8   15      0.20      0.12
    0    9    1    -17.48     16.54
    0    9    2     10.21      0.35
    0    9    3     -0.68     -2.12
    0    9    4     -0.16     -3.29
    0    9    5     -1.46      1.96
    0    9    6      2.63      0.18
    0    9    7     -0.43     -0.76
    0    9    8     -0.09      0.42
    0    9    9     -2.22      2.32
    0    9   10     -0.99      0.31
    0    9   11      1.65      1.20
    0    9   12     -0.04      0.55
    0    9   13     -0.24      0.33
    0    9   14     -0.56      0.25
    0    9   15     -1.14     -0.99
    0    9   16      0.02      0.56
    1    9   15      0.32      0.28
    1    9   14      0.14     -0.74
    1    9   13      0.60     -0.39
    1    9   12     -0.05      1.70
    1    9   11      0.61      1.78
    1    9   10      0.77     -0.74
    1    9    9     -1.14     -1.29
    1    9    8      1.58     -1.95
    1    9    7      0.05      0.05
    1    9    6     -1.72     -1.37
    1    9    5     -1.30      3.01
    1    9    4     -2.49     -0.75
    1    9    3     -4.76      1.56
    1    9    2      8.48     -0.23
    1    9    1      1.16     -0.47
    1    9    0     -2.60      0.29
    1    9   16      0.03     -2.77
    2    9   15      0.25     -0.73
    2    9   14     -0.15      0.79
    2    9   13     -0.75     -0.35
    2    9   12     -0.83      0.09
    2    9   11      0.47     -0.43
    2    9   10     -0.22     -0.92
    2    9    9      1.79     -0.23
    2    9    8     -1.69      0.28
    2    9    7      2.28      0.67
    2    9    6     -0.08      3.57
    2    9    5      3.08      0.42
    2    9    4     -0.19      2.49
    2    9    3      1.29     -0.99
    2    9    2     -6.74     -5.88
    2    9    1     12.74     -6.77
    2    9    0     -7.79     -1.25
    2    9   16     -1.33     -0.34
    3    9   15      0.51      0.73
    3    9   14      0.62      1.15
    3    9   13      0.47     -1.07
    3    9   12     -0.01     -1.18
    3    9   11      0.72      0.53
    3    9   10     -0.92      1.13
    3    9    9      0.80      1.86
    3    9    8     -1.84     -1.90
    3    9    7     -0.65      1.32
    3    9    6     -1.65      0.57
    3    9    5     -0.27     -3.87
    3    9    4      5.41     -2.14
    3    9    3      7.22     -3.51
    3    9    2     -5.57     -1.02
    3    9    1     -0.98     -2.21
    3    9    0      1.26     -0.55
    3    9   16      0.12      1.56
    4    9   15      1.10      1.23
    4    9   14     -0.18     -1.22
    4    9   13     -0.22     -1.03
    4    9   12     -0.73     -0.88
    4    9   11     -0.64     -1.86
    4    9   10      0.67      1.57
    4    9    9     -0.69     -1.38
    4    9    8      0.96      0.46
    4    9    7     -2.38     -0.71
    4    9    6     -1.16     -0.87
    4    9    5     -1.50      0.06
    4    9    4     -2.50     -0.66
    4    9    3     -0.02      0.74
    4    9    2     -0.48      1.34
    4    9    1     -3.53     -1.38
    4    9    0     -0.33      2.08
    4    9   16      0.77     -0.70
    5    9   15     -1.47     -0.79
    5    9   14      0.09      0.43
    5    9   13     -0.63      0.72
    5    9   12     -0.64      0.81
    5    9   11     -0.93     -2.67
    5    9   10      0.31      1.34
    5    9    9     -0.39      0.66
    5    9    8      0.02      1.43
    5    9    7      3.37     -1.23
    5    9    6      1.37      1.73
    5    9    5      0.77      2.48
    5    9    4     -2.19      0.79
    5    9    3     -4.04      2.89
    5    9    2      0.24      1.48
    5    9    1      1.98      1.95
    5    9    0      1.26      0.28
    6    9   15     -0.25      0.09
    6    9   14      0.84     -1.17
    6    9   13      0.08      0.86
    6    9   12      0.12      0.13
    6    9   11     -0.96      1.14
    6    9   10      1.18     -2.97
    6    9    9     -0.80      0.12
    6    9    8      1.69      0.03
    6    9    7     -0.93      0.68
    6    9    6      0.68     -2.28
    6    9    5      1.56     -0.58
    6    9    4      4.64      0.15
    6    9    3     -1.25      0.77
    6    9    2      4.03      1.68
    6    9    1     -1.00      0.56
    6    9    0      8.07     -0.84
    7    9   15      1.08     -0.37
    7    9   14     -0.49     -1.43
    7    9   13      0.19      0.31
    7    9   12      1.21     -1.16
    7    9   11      0.58      2.15
    7    9   10      0.26     -1.85
    7    9    9      0.18      0.19
    7    9    8      0.59      0.75
    7    9    7     -2.36     -0.50
    7    9    6      1.88     -0.95
    7    9    5     -0.46      0.52
    7    9    4     -1.96      1.13
    7    9    3      0.93     -2.47
    7    9    2      4.79     -0.04
    7    9    1     -0.89     -3.90
    7    9    0     -0.85     -1.26
    8    9   15      1.12     -1.19
    8    9   14      0.01      2.73
    8    9   13      0.77     -1.30
    8    9   12      0.86      0.98
    8    9   11      0.92      1.18
    8    9   10     -3.04      3.09
    8    9    9      0.26      0.25
    8    9    8     -3.71     -2.36
    8    9    7      0.86      0.16
    8    9    6     -0.63      2.65
    8    9    5     -0.73      0.66
    8    9    4     -1.82     -0.39
    8    9    3      2.00      1.70
    8    9    2     -2.06     -1.47
    8    9    1      1.51      0.66
    8    9    0     -7.43     -0.38
    9    9    0      4.08      0.95
    9    9    1      0.05      4.21
    9    9    2     -5.69     -0.09
    9    9    3      0.90      1.76
    9    9    4      0.72     -0.76
    9    9    5     -0.39     -2.86
    9    9    6     -1.59     -0.67
    9    9    7     -0.45      2.75
    9    9    8     -0.49      0.55
    9    9    9      0.39     -0.51
    9    9   10     -0.96     -0.06
    9    9   11      0.18     -1.90
    9    9   12     -0.73      0.13
    9    9   13      0.04     -0.21
    9    9   14     -0.90      0.08
    0   10    0    -21.39     -0.06
    0   10    1      2.30      1.63
    0   10    2     -0.85    -19.26
    0   10    3     -1.11      0.92
    0   10    4     -5.37      0.62
    0   10    5     -0.06     -0.77
    0   10    6      0.48     -2.51
    0   10    7     -1.22      1.45
    0   10    8     -0.83     -0.37
    0   10    9     -0.20      0.24
    0   10   10      0.10      1.37
    0   10   11      0.53     -0.95
    0   10   12     -0.18     -0.29
    0   10   13     -0.26      0.19
    0   10   14     -0.26     -0.29
    0   10   15      0.87     -1.28
    1   10   15      1.41     -1.79
    1   10   14     -1.76     -0.94
    1   10   13     -1.28     -0.12
    1   10   12     -1.64      0.42
    1   10   11     -0.12      0.71
    1   10   10     -0.19      1.13
    1   10    9     -1.36     -0.83
    1   10    8     -2.70     -0.04
    1   10    7      1.02     -0.29
    1   10    6      0.74      2.59
    1   10    5      3.10      2.44
    1   10    4     -6.27     -5.11
    1   10    3      1.75      0.15
    1   10    2      3.88      1.89
    1   10    1     -0.90     -0.99
    1   10    0      5.68      0.74
    2   10   15     -1.33     -0.21
    2   10   14     -0.17     -0.12
    2   10   13     -0.20     -0.37
    2   10   12      0.28     -3.06
    2   10   11     -0.31      1.29
    2   10   10     -0.65     -1.49
    2   10    9      2.31     -2.04
    2   10    8      1.14      0.79
    2   10    7      1.17     -2.02
    2   10    6      2.82      1.29
    2   10    5      3.20     -2.03
    2   10    4      2.10     -0.01
    2   10    3     -0.12      1.69
    2   10    2      4.34     12.71
    2   10    1      3.25     -8.40
    2   10    0     14.31      0.25
    3   10   15      1.06      1.59
    3   10   14      1.60      0.60
    3   10   13      0.45      0.04
    3   10   12     -0.84      0.48
    3   10   11     -1.63      0.27
    3   10   10     -0.51     -1.05
    3   10    9      0.60     -1.48
    3   10    8      0.20      0.21
    3   10    7     -1.01      1.50
    3   10    6     -2.32      0.34
    3   10    5     -0.22     -0.51
    3   10    4      2.69      6.46
    3   10    3     -1.44     -0.18
    3   10    2     -7.19      0.66
    3   10    1      1.74     -2.60
    3   10    0     -1.92     -0.73
    4   10   15     -0.45     -0.40
    4   10   14     -0.73      0.32
    4   10   13      2.25      0.29
    4   10   12     -0.84      0.42
    4   10   11     -0.03      0.45
    4   10   10      0.42      0.78
    4   10    9     -1.55      0.75
    4   10    8     -0.91     -0.61
    4   10    7     -2.44      2.13
    4   10    6     -2.84     -1.16
    4   10    5     -0.72     -0.20
    4   10    4      1.85      0.32
    4   10    3      3.76     -2.67
    4   10    2     -3.51     -2.15
    4   10    1     -0.39      6.88
    4   10    0     -6.59      0.89
    5   10   14      1.26      1.66
    5   10   13      0.62     -1.09
    5   10   12      1.39     -2.26
    5   10   11      1.00     -1.52
    5   10   10      2.14      0.75
    5   10    9     -0.67      2.94
    5   10    8      1.25     -0.34
    5   10    7      0.65     -2.01
    5   10    6      2.22     -1.36
    5   10    5     -1.61      1.04
    5   10    4      0.93     -0.10
    5   10    3      2.27     -1.82
    5   10    2      3.83      1.20
    5   10    1     -3.38      5.15
    5   10    0      2.55      0.14
    5   10   15     -2.58     -1.01
    6   10   14      0.75      0.09
    6   10   13     -1.78     -1.16
    6   10   12      0.49      2.29
    6   10   11      0.68     -1.65
    6   10   10      0.26      0.60
    6   10    9      0.16      0.39
    6   10    8      0.58      0.31
    6   10    7      3.37      1.43
    6   10    6     -1.06      1.57
    6   10    5     -0.95      0.49
    6   10    4     -1.73     -1.35
    6   10    3     -3.75      0.26
    6   10    2     -0.47     -1.36
    6   10    1     -0.88     -2.37
    6   10    0      3.33     -1.64
    6   10   15      1.15      0.85
    7   10   14     -0.99     -2.37
    7   10   13     -0.61     -0.31
    7   10   12     -0.74      0.98
    7   10   11      0.66      1.71
    7   10   10     -2.17     -1.81
    7   10    9      1.22     -2.00
    7   10    8     -3.03      0.90
    7   10    7     -0.78      0.47
    7   10    6      0.27     -0.01
    7   10    5      0.40     -1.57
    7   10    4     -0.82     -1.91
    7   10    3     -3.11      2.60
    7   10    2      1.02     -1.48
    7   10    1      1.58     -2.94
    7   10    0     -3.42      0.34
    7   10   15     -0.38     -0.18
    8   10   14      0.28     -0.34
    8   10   13     -0.24      0.58
    8   10   12      0.10     -1.56
    8   10   11     -0.43      0.46
    8   10   10     -0.34     -0.40
    8   10    9     -0.77      0.66
    8   10    8     -0.45     -0.32
    8   10    7     -1.45     -4.85
    8   10    6      0.61      0.30
    8   10    5      0.15      0.34
    8   10    4      0.56      1.16
    8   10    3      1.08      0.75
    8   10    2      1.54      0.31
    8   10    1     -1.00     -1.00
    8   10    0      1.99      0.86
    9   10   14      0.75      0.34
    9   10   13     -0.56      1.63
    9   10   12      0.71      1.46
    9   10   11      0.04     -1.76
    9   10   10      1.27      1.45
    9   10    9     -0.70     -0.01
    9   10    8      3.35     -1.38
    9   10    7     -0.64     -0.04
    9   10    6     -1.91      2.03
    9   10    5      0.89      0.70
    9   10    4     -2.00     -0.28
    9   10    3      0.81     -1.89
    9   10    2     -1.90     -0.40
    9   10    1      0.90     -0.31
    9   10    0      1.75      0.04
   10   10    0     -3.59      0.00
   10   10    1      0.16      2.07
   10   10    2      0.06      0.13
   10   10    3      0.17      1.28
   10   10    4      0.93      0.35
   10   10    5      0.57      0.61
   10   10    6      2.60     -0.21
   10   10    7     -0.20      2.76
   10   10    8     -0.28     -0.40
   10   10    9      0.15     -0.61
   10   10   10      0.78      0.17
   10   10   11      0.47     -0.37
   10   10   12      1.03     -0.05
   10   10   13      0.16      0.77
   10   10   14      0.13     -0.04
    0   11    1     15.12    -14.92
    0   11    2     -9.98     -0.24
    0   11    3      3.25      4.61
    0   11    4      0.73      2.94
    0   11    5      2.17     -2.75
    0   11    6     -1.23     -0.21
    0   11    7      0.86      0.52
    0   11    8     -0.06     -0.53
    0   11    9      1.14     -1.49
    0   11   10      1.17      0.14
    0   11   11     -0.32      0.32
    0   11   12     -0.15     -1.26
    0   11   13      1.33     -0.64
    0   11   14     -2.71     -0.23
    0   11   15      1.44      1.36
    1   11   15      0.53      0.32
    1   11   14     -0.12      0.30
    1   11   13     -0.02     -0.40
    1   11   12     -0.94     -0.63
    1   11   11     -1.44     -1.27
    1   11   10     -2.95      0.06
    1   11    9      0.42      0.80
    1   11    8     -0.70      2.74
    1   11    7      1.09      0.21
    1   11    6      0.60      0.43
    1   11    5      4.47     -4.67
    1   11    4      0.13      2.12
    1   11    3      2.66     -1.74
    1   11    2     -3.29     -1.43
    1   11    1     -2.15      3.44
    1   11    0      0.64     -0.56
    2   11   15      0.86     -0.25
    2   11   14      1.68      0.32
    2   11   13     -1.38     -0.68
    2   11   12      1.62      0.37
    2   11   11     -0.93     -1.89
    2   11   10     -0.30      0.36
    2   11    9     -1.39      0.85
    2   11    8      1.38      0.52
    2   11    7     -0.52     -0.53
    2   11    6      0.40     -1.43
    2   11    5     -4.17     -0.14
    2   11    4     -1.38     -1.20
    2   11    3      1.04     -6.04
    2   11    2      5.66      8.31
    2   11    1    -16.61      4.36
    2   11    0      4.78      0.82
    3   11   15     -1.92     -1.37
    3   11   14     -0.42     -0.88
    3   11   13      0.48      0.26
    3   11   12      0.50      0.13
    3   11   11      0.10     -0.09
    3   11   10      1.88      0.18
    3   11    9      0.65     -1.61
    3   11    8      1.45      1.92
    3   11    7     -0.84      0.31
    3   11    6      0.15     -1.96
    3   11    5     -1.19      4.03
    3   11    4     -0.97     -0.54
    3   11    3     -1.17      3.84
    3   11    2      0.85      2.86
    3   11    1      0.89     -2.68
    3   11    0     -2.00      1.26
    4   11   14     -0.69      1.04
    4   11   13      0.52      0.81
    4   11   12      0.45      0.82
    4   11   11      0.72      1.59
    4   11   10     -0.52     -1.50
    4   11    9      1.09     -0.50
    4   11    8      0.11      0.26
    4   11    7     -1.13      0.49
    4   11    6      0.10      1.02
    4   11    5      0.61      0.59
    4   11    4      1.20     -2.84
    4   11    3     -1.80      3.62
    4   11    2      0.36     -5.31
    4   11    1      7.19      1.64
    4   11    0     -2.78     -0.03
    5   11   14     -0.68     -0.22
    5   11   13     -0.51     -0.05
    5   11   12      2.10     -1.35
    5   11   11      0.09      0.74
    5   11   10     -0.85     -1.08
    5   11    9     -1.72      0.08
    5   11    8     -0.47     -2.57
    5   11    7     -0.34      0.49
    5   11    6     -1.46      1.73
    5   11    5     -0.02     -4.22
    5   11    4      2.03      0.15
    5   11    3     -0.42     -1.00
    5   11    2      3.31     -2.46
    5   11    1     -0.62      0.53
    5   11    0      1.91     -1.45
    5   11   15      2.17      1.36
    6   11   14     -0.06     -0.53
    6   11   13      0.48     -0.97
    6   11   12     -0.33     -0.40
    6   11   11      2.02      1.03
    6   11   10     -1.20     -0.11
    6   11    9     -1.10      1.00
    6   11    8     -2.06     -2.06
    6   11    7      1.70     -0.39
    6   11    6     -0.08      0.04
    6   11    5      2.41      1.89
    6   11    4     -1.73      3.52
    6   11    3      1.06     -0.24
    6   11    2     -2.16     -0.89
    6   11    1     -0.10     -0.93
    6   11    0     -2.10     -0.75
    7   11   14      0.86      1.67
    7   11   13      0.50     -0.19
    7   11   12     -2.43      1.56
    7   11   11     -0.07     -0.97
    7   11   10     -0.30      0.56
    7   11    9      0.92      0.80
    7   11    8     -0.51     -0.74
    7   11    7      0.92      0.65
    7   11    6      0.77      0.91
    7   11    5      0.64      1.97
    7   11    4     -1.81      1.13
    7   11    3     -0.35     -0.59
    7   11    2     -3.82      1.14
    7   11    1      0.09      0.27
    7   11    0      1.13      0.82
    8   11   13      0.18      1.25
    8   11   12     -0.77     -0.65
    8   11   11     -1.76     -2.66
    8   11   10      4.02      1.45
    8   11    9      1.20     -1.35
    8   11    8      2.39      2.12
    8   11    7      0.22      0.40
    8   11    6     -0.31     -2.78
    8   11    5     -0.85     -3.12
    8   11    4     -0.22      0.16
    8   11    3      0.02     -2.74
    8   11    2      1.67      3.03
    8   11    1     -1.21     -2.78
    8   11    0      2.38      0.27
    8   11   14      1.95     -0.30
    9   11   13      0.11     -0.80
    9   11   12      0.75     -0.13
    9   11   11      1.17      0.72
    9   11   10      0.45      0.46
    9   11    9      0.08     -0.83
    9   11    8     -0.68      1.24
    9   11    7     -0.92     -2.80
    9   11    6     -0.24     -0.91
    9   11    5     -1.89      2.13
    9   11    4      1.54     -0.76
    9   11    3     -0.18     -0.45
    9   11    2      1.24     -0.12
    9   11    1      0.52      0.92
    9   11    0     -3.26      0.58
    9   11   14      1.80     -1.09
   10   11   13     -2.79     -0.21
   10   11   12      0.70      0.60
   10   11   11      0.23      3.45
   10   11   10     -2.13      0.08
   10   11    9     -0.36      0.83
   10   11    8     -2.01     -0.17
   10   11    7     -1.13     -0.80
   10   11    6      1.46      3.45
   10   11    5     -0.19     -0.02
   10   11    4      1.72     -1.15
   10   11    3     -1.18      1.37
   10   11    2     -0.45     -0.79
   10   11    1      2.31      4.05
   10   11    0      1.58     -0.09
   11   11    0      2.46     -0.78
   11   11    1     -0.30     -2.32
   11   11    2      2.11      0.10
   11   11    3      0.51      0.88
   11   11    4     -0.07      0.22
   11   11    5     -0.22     -3.16
   11   11    6      0.09     -0.32
   11   11    7      0.14      0.72
   11   11    8      1.35     -0.16
   11   11    9      0.32     -0.26
   11   11   10      1.19      0.10
   11   11   11      0.04      0.03
   11   11   12      1.02     -0.11
    0   12    0      8.12      0.66
    0   12    1     -7.21     -6.31
    0   12    2     -0.58     15.75
    0   12    3      4.66     -3.94
    0   12    4      2.79     -0.03
    0   12    5     -1.75     -1.82
    0   12    6     -0.35      1.44
    0   12    7     -0.77     -0.41
    0   12    8      1.64      0.17
    0   12    9      0.81      1.38
    0   12   10      0.23     -0.57
    0   12   11      1.47     -1.19
    0   12   12      0.83      0.11
    0   12   13     -0.02     -0.09
    0   12   14      0.02     -1.13
    0   12   15      0.51     -0.43
    1   12   15     -0.53      0.03
    1   12   14      1.53      1.75
    1   12   13      1.12      0.10
    1   12   12      1.23     -0.24
    1   12   11     -0.06      0.27
    1   12   10     -0.18      0.42
    1   12    9      1.36      1.81
    1   12    8      0.34      0.58
    1   12    7      0.67      1.08
    1   12    6     -0.36      1.51
    1   12    5     -0.77     -1.35
    1   12    4      1.91      1.21
    1   12    3      1.31     -1.37
    1   12    2     -4.12      3.52
    1   12    1      0.08     -0.66
    1   12    0     -6.44      1.55
    2   12   15     -0.23     -0.24
    2   12   14      1.47      0.78
    2   12   13      1.06     -0.38
    2   12   12     -1.40      1.82
    2   12   11     -0.75      1.11
    2   12   10      1.25      0.63
    2   12    9     -1.21      0.25
    2   12    8     -2.20      0.03
    2   12    7     -0.56      0.52
    2   12    6      0.23     -0.60
    2   12    5     -2.12      2.81
    2   12    4     -0.54      1.28
    2   12    3     -0.53      1.11
    2   12    2      1.59     -9.94
    2   12    1      3.35      8.10
    2   12    0     -8.02     -1.04
    3   12   14     -1.85     -0.43
    3   12   13     -0.07      0.63
    3   12   12     -1.04      0.17
    3   12   11      1.20     -0.84
    3   12   10     -0.35      0.85
    3   12    9     -1.20     -0.52
    3   12    8     -0.95     -0.23
    3   12    7     -0.67     -1.78
    3   12    6      0.71     -1.80
    3   12    5     -0.76      1.89
    3   12    4     -0.35     -1.27
    3   12    3     -0.14     -0.77
    3   12    2      8.80     -0.99
    3   12    1     -2.82      0.54
    3   12    0      3.58      0.23
    4   12   14     -0.59     -0.26
    4   12   13     -1.99     -0.41
    4   12   12      0.55     -0.77
    4   12   11     -0.59     -0.82
    4   12   10     -1.45     -0.67
    4   12    9      1.04     -0.63
    4   12    8      1.62     -0.22
    4   12    7      1.13     -1.93
    4   12    6     -0.43      0.28
    4   12    5      3.15      0.02
    4   12    4     -2.36     -0.64
    4   12    3     -3.52      0.73
    4   12    2      1.02      0.50
    4   12    1     -0.64     -3.70
    4   12    0      7.23     -0.53
    5   12   14     -0.60     -1.04
    5   12   13     -2.15     -0.55
    5   12   12      0.11     -0.53
    5   12   11     -0.60     -0.64
    5   12   10      0.19     -1.16
    5   12    9      0.32     -2.08
    5   12    8     -2.01     -0.25
    5   12    7     -0.44      1.52
    5   12    6     -0.81      0.59
    5   12    5      2.24     -2.30
    5   12    4      0.28     -0.97
    5   12    3     -2.04      2.83
    5   12    2     -4.47     -2.50
    5   12    1      4.30      0.20
    5   12    0     -2.03     -0.57
    6   12   14     -0.54      0.15
    6   12   13      1.74      0.68
    6   12   12      0.90     -1.03
    6   12   11      1.02     -0.66
    6   12   10     -0.03      0.03
    6   12    9     -1.81     -0.46
    6   12    8      0.16      0.53
    6   12    7     -1.50      0.44
    6   12    6      0.25     -0.89
    6   12    5      0.17     -0.77
    6   12    4      1.80      1.83
    6   12    3      1.42      1.75
    6   12    2     -2.61      3.17
    6   12    1     -0.93     -1.69
    6   12    0     -4.11      1.80
    7   12   13      1.97      0.31
    7   12   12      1.24      1.18
    7   12   11     -0.21      0.34
    7   12   10      0.54      0.09
    7   12    9      0.55      1.85
    7   12    8      4.35     -0.07
    7   12    7      0.41     -0.79
    7   12    6     -1.53      0.96
    7   12    5     -1.79      0.97
    7   12    4     -1.45      1.76
    7   12    3      2.20      0.12
    7   12    2     -1.86      2.29
    7   12    1     -1.64      0.19
    7   12    0     -1.21      0.05
    7   12   14      1.49      0.13
    8   12   13     -0.48      0.07
    8   12   12      0.05      1.14
    8   12   11     -0.68      0.97
    8   12   10      0.96     -0.13
    8   12    9      3.02      0.56
    8   12    8     -0.34      0.20
    8   12    7      1.60      1.13
    8   12    6      1.27     -0.32
    8   12    5     -2.47     -0.69
    8   12    4      0.36     -2.39
    8   12    3      1.26     -1.79
    8   12    2      0.53     -1.47
    8   12    1      0.90      2.90
    8   12    0     -0.08     -0.86
    9   12   13      1.21      0.16
    9   12   12     -0.94     -0.82
    9   12   11     -0.25      1.40
    9   12   10      0.77      0.21
    9   12    9      0.06     -0.18
    9   12    8     -2.59     -0.83
    9   12    7      0.38     -0.15
    9   12    6      4.01      0.03
    9   12    5      0.15     -0.62
    9   12    4      1.72     -1.47
    9   12    3     -0.70     -3.08
    9   12    2      1.11      0.13
    9   12    1     -1.30     -2.19
    9   12    0      2.64     -0.53
   10   12   12     -0.12     -0.42
   10   12   11      0.35      0.55
   10   12   10     -0.34      0.74
   10   12    9     -2.42     -0.59
   10   12    8      0.18     -0.57
   10   12    7     -1.21      0.97
   10   12    6     -1.95      1.00
   10   12    5      1.24     -0.94
   10   12    4     -1.41      0.82
   10   12    3     -0.53     -1.54
   10   12    2      1.70     -0.61
   10   12    1      0.10     -2.03
   10   12    0      2.58     -0.16
   11   12   12     -0.59     -0.32
   11   12   11      0.79     -1.79
   11   12   10     -1.42      0.86
   11   12    9     -0.20      0.28
   11   12    8      0.66      1.45
   11   12    7     -0.80      0.91
   11   12    6     -2.49     -0.48
   11   12    5     -0.36      2.15
   11   12    4      0.12      0.87
   11   12    3      0.15      1.23
   11   12    2      0.53      0.23
   11   12    1      2.16     -0.25
   11   12    0     -0.44      0.16
   12   12    0     -2.15      0.50
   12   12    1     -0.28      2.35
   12   12    2     -0.98     -0.36
   12   12    3     -0.34      2.92
   12   12    4      1.40      0.13
   12   12    5      0.14      2.45
   12   12    6      0.21      0.17
   12   12    7      0.25     -2.12
   12   12    8     -0.16      0.08
   12   12    9      0.13      0.70
   12   12   10     -0.67      0.21
   12   12   11      0.08      1.28
   12   12   12     -1.97     -0.36
    0   13    1      1.31      0.25
    0   13    2      0.04     -0.44
    0   13    3     -3.10     -1.61
    0   13    4     -0.69     -0.28
    0   13    5     -2.51      2.73
    0   13    6     -0.24     -0.21
    0   13    7     -0.27     -0.38
    0   13    8     -0.01     -1.13
    0   13    9      0.30     -0.35
    0   13   10     -3.03     -0.05
    0   13   11     -0.28     -0.56
    0   13   12      0.20      1.57
    0   13   13     -0.57      0.41
    0   13   14      2.02     -0.12
    1   13   14      0.59     -0.14
    1   13   13      0.71     -0.45
    1   13   12      0.41      0.88
    1   13   11      0.20     -1.03
    1   13   10      1.06      0.22
    1   13    9      0.83     -0.10
    1   13    8      0.50     -0.37
    1   13    7     -1.41      0.02
    1   13    6     -0.69      0.40
    1   13    5     -2.36      2.45
    1   13    4      1.01     -2.70
    1   13    3      1.12      0.46
    1   13    2     -1.92      1.11
    1   13    1      1.62     -3.06
    1   13    0     -0.18      0.04
    2   13   14     -1.26     -0.99
    2   13   13      1.56     -0.85
    2   13   12     -0.82     -1.11
    2   13   11      0.49      1.38
    2   13   10      1.85      1.82
    2   13    9     -0.23     -0.75
    2   13    8      1.87      1.08
    2   13    7     -1.73      1.89
    2   13    6      0.02     -3.43
    2   13    5      1.62     -0.24
    2   13    4      1.32     -1.10
    2   13    3     -1.35      3.57
    2   13    2     -0.05      0.62
    2   13    1      0.62     -0.23
    2   13    0      1.74      0.48
    3   13   14      0.37     -0.09
    3   13   13     -0.48      0.34
    3   13   12      0.49      0.47
    3   13   11     -0.02      0.56
    3   13   10     -1.12     -0.50
    3   13    9     -2.53     -0.33
    3   13    8     -0.81     -1.43
    3   13    7      1.85     -2.38
    3   13    6      0.46      1.38
    3   13    5      0.74     -1.77
    3   13    4     -2.19      2.18
    3   13    3     -2.71     -1.22
    3   13    2      1.89     -1.48
    3   13    1      0.98      2.35
    3   13    0      1.98      0.41
    4   13   14      2.40      0.07
    4   13   13     -0.28      1.48
    4   13   12      1.33     -0.10
    4   13   11     -1.12     -0.45
    4   13   10      0.70     -0.78
    4   13    9      0.46      1.38
    4   13    8     -1.03     -1.47
    4   13    7      0.85     -0.19
    4   13    6     -0.08      3.15
    4   13    5      0.02     -1.56
    4   13    4     -0.01      2.16
    4   13    3      3.48     -2.11
    4   13    2      0.80      0.76
    4   13    1     -1.63      0.54
    4   13    0      0.03     -1.19
    5   13   14      0.53      0.66
    5   13   13     -0.05      0.49
    5   13   12     -2.34      0.88
    5   13   11     -0.28      0.83
    5   13   10      2.04      0.22
    5   13    9      2.75      0.02
    5   13    8     -0.15      1.61
    5   13    7     -1.83      2.01
    5   13    6      1.22     -2.03
    5   13    5     -0.82      2.66
    5   13    4     -0.80      0.16
    5   13    3      1.77     -0.20
    5   13    2     -1.49      1.13
    5   13    1     -2.00     -0.18
    5   13    0     -1.51     -0.14
    6   13   13      0.25      0.38
    6   13   12     -1.41      0.68
    6   13   11      0.78     -1.34
    6   13   10     -0.91      0.76
    6   13    9      0.35     -0.59
    6   13    8      0.39      1.48
    6   13    7      0.46     -1.11
    6   13    6     -0.10     -0.87
    6   13    5     -0.94     -1.18
    6   13    4     -1.29     -0.96
    6   13    3     -2.16     -1.67
    6   13    2     -1.26     -0.29
    6   13    1      1.96      0.75
    6   13    0     -2.92      0.56
    7   13   13      0.11     -1.13
    7   13   12      2.20     -1.16
    7   13   11      0.44     -0.59
    7   13   10     -1.05      0.50
    7   13    9     -0.81      0.72
    7   13    8      0.53      0.41
    7   13    7     -0.04     -1.03
    7   13    6     -2.00     -1.27
    7   13    5     -0.23     -2.37
    7   13    4      2.84     -3.06
    7   13    3     -0.82      2.19
    7   13    2     -1.17     -0.79
    7   13    1     -0.13      1.33
    7   13    0      0.49      0.63
    8   13   13     -2.65     -0.29
    8   13   12      1.45     -0.61
    8   13   11     -0.68      2.20
    8   13   10     -1.88     -1.43
    8   13    9     -1.45      1.14
    8   13    8     -0.89     -0.77
    8   13    7     -0.76     -0.27
    8   13    6      0.63      0.68
    8   13    5      0.10      2.68
    8   13    4      1.54     -1.08
    8   13    3     -0.31      3.29
    8   13    2     -0.34     -1.95
    8   13    1     -0.92     -0.62
    8   13    0      4.82      0.27
    9   13   12     -0.13      0.27
    9   13   11     -1.70      0.43
    9   13   10      0.23     -0.73
    9   13    9     -0.38     -1.04
    9   13    8     -0.30     -1.18
    9   13    7      0.90      0.09
    9   13    6      1.54      0.62
    9   13    5      2.12      0.05
    9   13    4     -1.05      1.82
    9   13    3      1.08     -2.73
    9   13    2      2.97     -0.02
    9   13    1      0.72     -2.83
    9   13    0     -0.83     -0.78
   10   13   12     -1.82      1.18
   10   13   11      0.31     -2.34
   10   13   10      1.98      0.33
   10   13    9      0.61     -1.00
   10   13    8      1.73     -0.14
   10   13    7      2.18      1.35
   10   13    6     -0.76     -1.11
   10   13    5      0.93     -0.04
   10   13    4     -0.34      0.72
   10   13    3      1.41     -1.04
   10   13    2      1.50      1.11
   10   13    1     -1.18     -1.22
   10   13    0     -3.35      0.10
   11   13   12     -2.20     -0.53
   11   13   11      1.43      0.26
   11   13   10     -1.54      0.83
   11   13    9      0.82      0.67
   11   13    8      0.81      0.20
   11   13    7      0.13      1.66
   11   13    6      0.35      1.21
   11   13    5     -1.02      1.48
   11   13    4     -1.49      0.60
   11   13    3     -0.81      1.19
   11   13    2     -2.76     -0.31
   11   13    1     -0.34      2.23
   11   13    0     -1.05      0.27
   12   13   11      0.61      1.45
   12   13   10      0.13      0.47
   12   13    9      0.28     -1.22
   12   13    8     -1.77      0.73
   12   13    7     -2.22     -1.12
   12   13    6      0.66      0.58
   12   13    5     -0.68     -1.28
   12   13    4     -0.52      0.41
   12   13    3     -0.70      0.09
   12   13    2      0.10      2.07
   12   13    1      1.31      3.10
   12   13    0     -0.14     -0.03
   13   13    0      0.04     -0.07
   13   13    1     -0.06     -0.97
   13   13    2      1.17      0.44
   13   13    3      0.20     -0.26
   13   13    4      1.77      0.00
   13   13    5      0.37     -1.42
   13   13    6     -2.26      0.31
   13   13    7     -0.49     -0.70
   13   13    8      0.75      0.05
   13   13    9     -0.14      0.55
   13   13   10      1.37     -0.24
   13   13   11     -0.11     -1.75
    0   14    0     11.64      0.53
    0   14    1     -0.39     -1.14
    0   14    2      0.25     -2.88
    0   14    3     -2.63      2.82
    0   14    4     -0.31     -0.36
    0   14    5     -0.17      0.70
    0   14    6     -0.04     -0.74
    0   14    7      0.68     -0.34
    0   14    8     -1.90      0.21
    0   14    9     -0.37     -1.03
    0   14   10     -0.07      1.06
    0   14   11     -2.26      2.33
    0   14   12     -0.23      0.03
    0   14   13      0.45      0.34
    1   14   14      0.07     -0.24
    1   14   13      0.35      0.34
    1   14   12     -0.04     -0.47
    1   14   11      0.25     -0.94
    1   14   10     -0.06     -0.20
    1   14    9     -0.33     -2.12
    1   14    8     -0.01     -0.18
    1   14    7     -1.14     -1.53
    1   14    6     -0.48     -2.44
    1   14    5     -2.97     -1.99
    1   14    4      3.51      0.93
    1   14    3     -0.70     -1.05
    1   14    2      1.26     -1.69
    1   14    1     -0.08      0.42
    1   14    0      0.22     -3.86
    2   14   14     -0.35     -1.67
    2   14   13     -1.54      0.89
    2   14   12      1.06      0.36
    2   14   11      1.24     -2.20
    2   14   10     -1.97     -1.00
    2   14    9     -0.44      1.36
    2   14    8      1.49     -0.09
    2   14    7      0.28      1.46
    2   14    6     -0.74      0.49
    2   14    5      1.23     -1.28
    2   14    4      0.06     -2.67
    2   14    3      0.66     -1.18
    2   14    2      0.52      1.53
    2   14    1     -5.94      3.73
    2   14    0     -4.24      0.33
    3   14   14      0.02      0.59
    3   14   13      0.02     -0.30
    3   14   12      0.78      0.10
    3   14   11      0.27      0.20
    3   14   10      0.35      0.25
    3   14    9     -0.50      1.95
    3   14    8      2.16      0.25
    3   14    7      1.59      1.20
    3   14    6      1.03     -0.21
    3   14    5      2.34     -0.13
    3   14    4     -2.00     -2.19
    3   14    3      1.47      2.40
    3   14    2     -2.17     -1.08
    3   14    1      1.54      1.54
    3   14    0      0.75      0.77
    4   14   13      0.65     -0.96
    4   14   12     -0.30      0.83
    4   14   11      1.55      0.88
    4   14   10      1.96      0.42
    4   14    9     -0.28     -1.15
    4   14    8     -1.00     -0.55
    4   14    7      0.35     -0.57
    4   14    6      1.39      0.12
    4   14    5     -1.42      1.01
    4   14    4      0.65      1.90
    4   14    3      2.85     -0.13
    4   14    2     -1.26      0.80
    4   14    1      5.09     -2.86
    4   14    0     -4.99     -0.31
    5   14   13      1.21      0.05
    5   14   12      0.17      0.42
    5   14   11      0.10      1.68
    5   14   10     -0.69      0.02
    5   14    9      0.40     -0.35
    5   14    8     -0.34     -0.21
    5   14    7      0.39     -0.19
    5   14    6     -1.45      2.09
    5   14    5     -0.79      1.44
    5   14    4     -0.60      2.41
    5   14    3      0.22     -1.13
    5   14    2      0.00      3.27
    5   14    1     -1.10     -3.66
    5   14    0     -2.58      0.90
    6   14   13     -0.44      1.04
    6   14   12     -1.21     -1.74
    6   14   11     -2.55      1.30
    6   14   10      0.73      0.46
    6   14    9      1.74      0.53
    6   14    8     -0.13     -0.27
    6   14    7     -1.48     -0.95
    6   14    6     -0.07      0.08
    6   14    5     -1.03     -0.18
    6   14    4     -1.06     -0.01
    6   14    3     -2.01     -1.25
    6   14    2      2.81     -1.64
    6   14    1     -0.45      2.13
    6   14    0      3.54     -0.06
    7   14   13     -1.41      1.13
    7   14   12     -0.37      0.64
    7   14   11     -0.12     -1.51
    7   14   10      0.73      0.55
    7   14    9     -1.22     -0.16
    7   14    8     -2.49     -0.30
    7   14    7     -0.34     -0.40
    7   14    6      1.95     -1.49
    7   14    5     -0.01     -0.58
    7   14    4      1.44     -0.91
    7   14    3     -1.86     -3.53
    7   14    2      1.23     -1.54
    7   14    1     -0.05      2.31
    7   14    0      5.16     -1.09
    8   14   12      1.08      1.46
    8   14   11      1.50     -0.77
    8   14   10     -1.48     -0.40
    8   14    9     -1.58     -0.15
    8   14    8      0.63      0.36
    8   14    7      0.30      0.99
    8   14    6     -0.79     -0.04
    8   14    5      2.70      0.11
    8   14    4      0.91      0.38
    8   14    3     -1.72      1.61
    8   14    2      0.54      0.50
    8   14    1      0.55     -1.68
    8   14    0      1.81     -0.38
    8   14   13      0.81      0.01
    9   14   12     -0.62     -1.48
    9   14   11      0.01      0.69
    9   14   10     -0.87     -1.18
    9   14    9      1.21     -0.50
    9   14    8      2.30      1.99
    9   14    7     -0.13      1.34
    9   14    6     -1.44     -1.42
    9   14    5     -0.75     -0.08
    9   14    4     -0.21      0.84
    9   14    3      0.56      5.26
    9   14    2      1.63     -1.74
    9   14    1     -0.31      1.33
    9   14    0     -2.23      0.83
   10   14   11     -0.78      1.02
   10   14   10     -0.61     -0.02
   10   14    9      0.61      0.78
   10   14    8      0.74      0.13
   10   14    7      1.62     -1.49
   10   14    6     -0.32     -0.54
   10   14    5     -1.05      0.61
   10   14    4     -0.23     -0.74
   10   14    3      1.39      1.05
   10   14    2     -4.84      1.31
   10   14    1     -1.34      3.16
   10   14    0     -3.05      0.77
   10   14   12     -2.54     -0.32
   11   14   11     -0.34     -0.68
   11   14   10      0.56      1.29
   11   14    9     -0.32     -0.16
   11   14    8      0.07     -2.11
   11   14    7     -0.82     -0.66
   11   14    6      0.21      2.13
   11   14    5      0.88     -0.63
   11   14    4     -0.76     -1.96
   11   14    3      0.17     -0.63
   11   14    2     -1.89      0.71
   11   14    1      0.32      0.24
   11   14    0     -2.22      0.30
   12   14   10      0.72     -0.31
   12   14    9      0.37      0.62
   12   14    8     -0.94      0.63
   12   14    7     -1.65      2.16
   12   14    6      1.03      0.57
   12   14    5     -0.83     -0.55
   12   14    4     -1.23     -0.28
   12   14    3      0.87     -1.57
   12   14    2      0.75     -1.24
   12   14    1      0.13     -2.83
   12   14    0      0.71     -0.84
   12   14   11     -0.15     -4.53
   13   14   10     -0.02     -0.93
   13   14    9     -0.15      2.02
   13   14    8     -0.89     -0.96
   13   14    7      1.13     -0.15
   13   14    6      0.01     -0.06
   13   14    5      0.61     -0.07
   13   14    4      0.38      0.43
   13   14    3      0.04     -1.51
   13   14    2     -2.06      2.56
   13   14    1      0.26     -3.99
   13   14    0     -0.10     -0.65
   14   14    0      0.72      0.40
   14   14    1      0.28     -0.53
   14   14    2      3.23     -2.05
   14   14    3      0.06     -1.13
   14   14    4      1.11      0.18
   14   14    5      0.17     -1.51
   14   14    6     -1.04     -0.33
   14   14    7     -0.03     -1.61
   14   14    8     -0.52     -0.09
   14   14    9     -0.27     -3.72
    0   15    1     -7.82      7.70
    0   15    2      8.81     -0.14
    0   15    3     -1.64     -2.44
    0   15    4     -0.11      0.13
    0   15    5      0.12     -0.27
    0   15    6      0.99      0.50
    0   15    7      0.49      0.37
    0   15    8      0.19      1.52
    0   15    9     -0.79      0.51
    0   15   10      0.89     -0.42
    0   15   11      0.24      0.13
    0   15   12     -0.22      0.90
    0   15   13      1.02     -1.25
    1   15   13     -0.91      1.84
    1   15   12      0.57     -0.08
    1   15   11     -0.50     -0.01
    1   15   10      0.00     -0.69
    1   15    9     -0.96      0.19
    1   15    8     -0.23      0.22
    1   15    7     -0.35      0.64
    1   15    6     -0.13     -0.87
    1   15    5     -0.99      0.44
    1   15    4     -0.90      2.38
    1   15    3     -0.28     -0.21
    1   15    2      1.31     -0.52
    1   15    1      2.03     -0.20
    1   15    0      0.62     -0.76
    2   15   12      0.23     -0.15
    2   15   11      0.71     -0.08
    2   15   10     -0.70     -2.09
    2   15    9      0.67     -0.26
    2   15    8     -2.15     -1.57
    2   15    7      0.06     -1.52
    2   15    6     -1.24      3.59
    2   15    5      2.09      0.26
    2   15    4      0.43     -0.48
    2   15    3      1.10      2.13
    2   15    2     -5.21     -5.92
    2   15    1      6.93     -2.62
    2   15    0     -2.43     -2.34
    2   15   13     -0.58      2.06
    3   15   13     -0.37     -0.65
    3   15   12     -1.70      0.52
    3   15   11     -0.28     -0.66
    3   15   10      0.61      0.56
    3   15    9      1.39      0.26
    3   15    8      0.72      0.49
    3   15    7      0.46      0.59
    3   15    6     -0.49      0.53
    3   15    5      1.70     -1.52
    3   15    4      1.55      0.49
    3   15    3      1.33      1.57
    3   15    2     -1.01      0.28
    3   15    1     -3.76      0.44
    3   15    0     -1.35     -0.55
    4   15   13     -1.01     -1.18
    4   15   12     -1.42     -0.52
    4   15   11      0.16     -0.29
    4   15   10      0.60      2.03
    4   15    9      0.20      0.80
    4   15    8      0.78     -0.07
    4   15    7      1.39      0.07
    4   15    6     -0.25     -6.29
    4   15    5     -2.04     -1.15
    4   15    4      0.43      1.53
    4   15    3     -0.71     -1.12
    4   15    2     -1.11      3.40
    4   15    1     -1.19     -1.04
    4   15    0      1.50      1.26
    5   15   13      0.79     -0.83
    5   15   12      1.61     -1.07
    5   15   11      0.54      0.36
    5   15   10     -0.49      0.28
    5   15    9      0.55      0.02
    5   15    8      0.07     -1.24
    5   15    7      0.86     -1.38
    5   15    6     -0.10      0.34
    5   15    5     -0.53     -0.03
    5   15    4      0.18     -2.35
    5   15    3     -0.72      0.82
    5   15    2     -0.58      1.26
    5   15    1      2.14     -0.67
    5   15    0      0.81      0.76
    6   15   12      0.66      0.80
    6   15   11     -2.29      0.62
    6   15   10      0.39      0.08
    6   15    9      0.60     -0.04
    6   15    8      0.01      1.38
    6   15    7     -0.88      0.73
    6   15    6      1.95      4.32
    6   15    5     -0.62      1.51
    6   15    4      0.54     -1.79
    6   15    3     -0.48      0.78
    6   15    2      2.90      0.05
    6   15    1     -3.22     -1.06
    6   15    0      1.84      1.17
    6   15   13     -0.20     -1.11
    7   15   12     -0.09      1.05
    7   15   11      0.65      0.68
    7   15   10     -0.88     -0.20
    7   15    9     -1.35     -1.01
    7   15    8     -0.81      0.88
    7   15    7     -1.09     -0.24
    7   15    6      2.12      0.04
    7   15    5     -0.13      1.74
    7   15    4     -1.58      1.39
    7   15    3     -0.03     -3.73
    7   15    2      2.17     -1.72
    7   15    1      1.27     -0.25
    7   15    0     -0.75     -0.43
    8   15   12     -0.14     -0.66
    8   15   11      1.71     -0.39
    8   15   10     -1.41      0.00
    8   15    9     -0.58     -1.41
    8   15    8      0.67      0.43
    8   15    7      1.49     -0.21
    8   15    6     -0.79      0.16
    8   15    5      1.49      0.36
    8   15    4     -0.89      0.82
    8   15    3      1.61     -0.61
    8   15    2     -0.28     -0.08
    8   15    1      3.32      3.70
    8   15    0     -3.44     -0.89
    9   15   11     -1.18     -0.73
    9   15   10      0.75      0.77
    9   15    9     -0.11      1.06
    9   15    8      1.31      0.17
    9   15    7      1.42      2.04
    9   15    6     -2.00      0.87
    9   15    5      0.39     -0.26
    9   15    4      0.83     -0.81
    9   15    3     -0.64      2.99
    9   15    2     -1.80      1.25
    9   15    1     -1.61      0.55
    9   15    0      0.50      0.21
    9   15   12     -1.79     -0.89
   10   15   11      0.04     -0.11
   10   15   10      0.53     -1.11
   10   15    9     -0.96      0.52
   10   15    8     -0.66     -0.27
   10   15    7     -4.20      0.12
   10   15    6      0.28     -1.45
   10   15    5     -0.71     -1.64
   10   15    4     -0.42      0.50
   10   15    3     -1.04      0.48
   10   15    2     -1.37      1.10
   10   15    1     -1.24     -2.24
   10   15    0      0.51     -1.11
   11   15   10      0.66     -1.60
   11   15    9     -0.72      0.44
   11   15    8      0.13      0.29
   11   15    7     -1.40     -1.55
   11   15    6     -0.92     -1.48
   11   15    5     -0.73     -0.93
   11   15    4      0.10      0.00
   11   15    3      0.91     -1.04
   11   15    2      0.30     -0.74
   11   15    1      1.09      0.07
   11   15    0      0.28     -0.34
   12   15   10      0.37      0.71
   12   15    9      0.64      1.60
   12   15    8      0.68     -0.26
   12   15    7      2.56      0.05
   12   15    6     -0.85     -0.25
   12   15    5     -0.33      0.98
   12   15    4      0.46     -1.41
   12   15    3      0.34      0.05
   12   15    2     -0.37     -3.44
   12   15    1      0.15     -1.55
   12   15    0      1.51      1.09
   13   15    9      1.59     -0.72
   13   15    8     -3.96     -0.79
   13   15    7      0.08     -0.54
   13   15    6      2.42      1.00
   13   15    5      0.98      0.41
   13   15    4      0.65      0.63
   13   15    3      0.15     -0.40
   13   15    2      0.14      0.31
   13   15    1     -1.60     -1.26
   13   15    0      1.08      0.12
   14   15    8     -0.55     -2.75
   14   15    7      0.01      1.02
   14   15    6      0.33      0.29
   14   15    5      2.01      0.08
   14   15    4      0.34      0.11
   14   15    3     -0.08      0.08
   14   15    2      1.57      2.76
   14   15    1     -0.20      2.87
   14   15    0     -0.08      0.24
   15   15    0      0.13      0.33
   15   15    1      0.36      0.91
   15   15    2      0.15     -0.17
   15   15    3     -0.32      1.60
   15   15    4     -1.35      0.48
   15   15    5      0.06      1.29
   15   15    6     -0.90     -0.83
   15   15    7     -0.30      1.06
    0   16    0     -8.22     -1.96
    0   16    1      5.16      4.96
    0   16    2     -0.63     -4.93
    0   16    3     -0.87      0.77
    0   16    4      1.19      0.42
    0   16    5      0.90      0.55
    0   16    6      1.00     -1.70
    0   16    7     -0.19      0.03
    0   16    8      0.55     -0.66
    0   16    9      0.20      0.31
    0   16   10     -0.52     -0.38
    0   16   11      1.17     -1.19
    0   16   12     -0.20      0.13
    0   16   13     -1.25     -1.22
    1   16   13     -1.63     -1.44
    1   16   12      1.66      0.70
    1   16   11     -0.72      0.90
    1   16   10      0.94     -0.28
    1   16    9     -2.17      0.14
    1   16    8     -0.32     -1.17
    1   16    7      0.94     -0.07
    1   16    6      0.20      1.31
    1   16    5      1.77      1.71
    1   16    4     -2.01     -1.76
    1   16    3     -1.22      2.92
    1   16    2      1.07     -1.64
    1   16    1      1.02      0.57
    1   16    0      4.06      0.91
    2   16   13      1.14     -0.02
    2   16   12     -0.10     -1.88
    2   16   11     -1.06      1.03
    2   16   10     -0.17      0.52
    2   16    9      0.84     -0.60
    2   16    8      0.19     -0.73
    2   16    7      0.77      0.41
    2   16    6     -1.40     -0.01
    2   16    5      1.28     -1.06
    2   16    4     -0.55      2.10
    2   16    3      0.23      0.78
    2   16    2     -4.10      2.69
    2   16    1      2.95     -8.45
    2   16    0      4.05      1.54
    3   16   12     -0.20     -0.31
    3   16   11     -0.93      1.04
    3   16   10     -0.71     -0.76
    3   16    9      1.85     -0.21
    3   16    8     -1.51      0.44
    3   16    7     -1.14      0.02
    3   16    6      0.54      0.44
    3   16    5     -0.06     -0.44
    3   16    4      0.01      3.12
    3   16    3     -1.02     -3.51
    3   16    2     -2.98      1.14
    3   16    1     -0.47     -0.11
    3   16    0     -2.06     -0.09
    4   16   12      0.71      0.04
    4   16   11      0.23      0.14
    4   16   10     -1.67      0.31
    4   16    9     -0.96      0.78
    4   16    8      0.12      1.10
    4   16    7      0.06      0.69
    4   16    6      0.32      0.65
    4   16    5     -1.58      0.02
    4   16    4     -0.84     -2.39
    4   16    3     -0.23     -0.57
    4   16    2      3.18     -0.40
    4   16    1     -4.90      5.91
    4   16    0      1.57      0.19
    5   16   12     -0.85      0.15
    5   16   11     -0.62     -0.86
    5   16   10      0.03      0.39
    5   16    9      0.86     -0.40
    5   16    8      1.89      1.69
    5   16    7     -0.03     -0.52
    5   16    6      0.65     -1.10
    5   16    5     -0.73     -0.05
    5   16    4      0.72     -2.47
    5   16    3      1.78      0.82
    5   16    2      1.85     -1.59
    5   16    1     -0.65      0.69
    5   16    0      3.05     -0.07
    6   16   12     -0.98      2.36
    6   16   11      0.82     -1.02
    6   16   10      1.12     -1.08
    6   16    9     -0.07     -0.45
    6   16    8     -0.08     -0.70
    6   16    7      1.49      0.19
    6   16    6      0.74      0.66
    6   16    5     -0.20     -0.16
    6   16    4      2.15      0.11
    6   16    3      0.85     -0.57
    6   16    2     -1.01     -0.03
    6   16    1      1.77     -3.34
    6   16    0     -2.00     -1.39
    7   16   12     -0.30     -2.04
    7   16   11      1.28     -0.06
    7   16   10     -1.36      0.19
    7   16    9     -0.81     -0.59
    7   16    8     -0.29     -0.97
    7   16    7     -0.22      1.65
    7   16    6     -1.96      0.81
    7   16    5      1.34      0.34
    7   16    4      0.01      1.08
    7   16    3      1.09      2.25
    7   16    2      0.58      0.70
    7   16    1     -0.72     -1.12
    7   16    0     -4.27      0.27
    8   16   11     -1.24     -0.25
    8   16   10      0.80      1.04
    8   16    9     -0.38      0.21
    8   16    8     -0.99      0.50
    8   16    7     -1.68     -0.60
    8   16    6     -1.53     -0.46
    8   16    5      0.84      0.80
    8   16    4     -2.67      0.30
    8   16    3      1.06      0.58
    8   16    2     -1.48      0.67
    8   16    1      0.12      1.81
    8   16    0     -1.20      0.94
    9   16   11      0.37     -0.63
    9   16   10      1.59      0.65
    9   16    9     -0.39      1.52
    9   16    8     -1.12     -1.09
    9   16    7     -0.18     -1.41
    9   16    6     -1.24     -0.01
    9   16    5     -1.00      0.35
    9   16    4     -0.56     -0.69
    9   16    3     -1.55     -2.84
    9   16    2     -0.35      1.40
    9   16    1      1.98      1.40
    9   16    0      0.71     -0.32
   10   16   10     -0.85     -1.61
   10   16    9      1.01      0.22
   10   16    8     -0.63      0.51
   10   16    7     -0.43      0.24
   10   16    6      2.20      0.31
   10   16    5     -0.71     -0.52
   10   16    4      1.24      0.77
   10   16    3     -1.68     -0.95
   10   16    2      2.63     -0.90
   10   16    1     -0.14     -1.89
   10   16    0      3.06     -0.07
   11   16   10     -0.04     -1.64
   11   16    9     -0.14     -0.70
   11   16    8      0.73      0.61
   11   16    7      1.65     -0.86
   11   16    6      2.76     -1.62
   11   16    5      0.45     -1.28
   11   16    4     -0.32      1.50
   11   16    3     -0.60      0.23
   11   16    2     -0.68     -1.92
   11   16    1     -0.84     -2.28
   11   16    0      0.74      0.17
   12   16    9     -0.91     -2.48
   12   16    8      0.70     -1.55
   12   16    7      0.72     -1.28
   12   16    6     -1.79     -1.27
   12   16    5      1.07     -1.38
   12   16    4      0.44     -0.24
   12   16    3     -0.02     -0.05
   12   16    2     -0.20      1.84
   12   16    1     -0.51      1.08
   12   16    0     -1.30     -0.17
   13   16    8      0.58      2.05
   13   16    7     -0.66      2.11
   13   16    6     -0.51      2.05
   13   16    5     -0.79      0.79
   13   16    4      1.89      0.50
   13   16    3      0.92      1.74
   13   16    2      0.73      0.58
   13   16    1      0.35      1.92
   13   16    0      1.85     -0.14
   14   16    7     -0.25      0.69
   14   16    6      1.10      1.55
   14   16    5     -0.42      2.21
   14   16    4      1.04     -0.66
   14   16    3      0.20      1.09
   14   16    2     -0.95     -1.74
   14   16    1      0.35      1.67
   14   16    0      0.09      0.42
   15   16    6     -0.94     -0.95
   15   16    5      1.45      0.07
   15   16    4     -1.41     -2.14
   15   16    3     -0.11     -1.15
   15   16    2      0.87      0.18
   15   16    1     -0.60     -1.48
   15   16    0     -0.38     -0.52
   16   16    0     -1.19     -0.31
   16   16    1     -0.07     -1.79
   16   16    2     -0.30     -0.55
   16   16    3     -0.09      0.44
   16   16    4     -2.58      0.07
   16   16    5     -0.07      0.26
    0   17    1      2.85     -3.11
    0   17    2     -6.68      0.39
    0   17    3      2.21      2.30
    0   17    4     -0.08     -2.24
    0   17    5      0.38     -0.27
    0   17    6      0.01      0.11
    0   17    7     -0.34     -0.18
    0   17    8      0.49      0.23
    0   17    9      1.22     -1.10
    0   17   10      0.54     -0.24
    0   17   11     -0.98     -0.64
    0   17   12      0.00     -2.50
    1   17   12     -1.04     -1.52
    1   17   11      0.41      0.81
    1   17   10      0.93      1.15
    1   17    9      0.52      0.58
    1   17    8     -0.22     -1.27
    1   17    7      0.36     -1.63
    1   17    6      1.63      0.47
    1   17    5      0.93     -0.31
    1   17    4      0.85     -2.73
    1   17    3     -1.16     -0.07
    1   17    2      1.97      0.81
    1   17    1     -1.66      1.14
    1   17    0     -1.12      2.12
    2   17   12      0.77      1.32
    2   17   11      0.22     -0.48
    2   17   10     -0.54      2.00
    2   17    9     -0.22      0.91
    2   17    8     -2.13      0.87
    2   17    7      0.28      0.68
    2   17    6      0.81     -1.69
    2   17    5     -1.06      0.27
    2   17    4     -0.57      3.09
    2   17    3     -1.89     -1.26
    2   17    2      4.40      2.92
    2   17    1     -3.24     -0.82
    2   17    0      0.31      2.98
    3   17   12      2.00     -0.68
    3   17   11      0.33     -0.10
    3   17   10     -1.25     -1.98
    3   17    9     -0.87      0.40
    3   17    8      0.49     -0.24
    3   17    7     -1.74      1.27
    3   17    6      0.11     -0.59
    3   17    5     -2.32      1.93
    3   17    4     -0.23     -0.59
    3   17    3     -0.33     -2.05
    3   17    2      0.64     -0.33
    3   17    1      2.33     -0.83
    3   17    0      0.60     -1.40
    4   17   11      0.96      0.92
    4   17   10     -0.71     -0.89
    4   17    9     -2.37     -1.21
    4   17    8      0.33      1.23
    4   17    7     -1.16     -0.03
    4   17    6      0.36      3.08
    4   17    5      2.47      0.83
    4   17    4      0.29     -3.57
    4   17    3     -0.54      0.77
    4   17    2      0.34     -0.88
    4   17    1      0.78      1.92
    4   17    0     -0.05     -1.32
    4   17   12     -0.61      0.27
    5   17   11      0.13      0.00
    5   17   10      0.42      0.95
    5   17    9     -1.31     -1.07
    5   17    8     -0.39      1.96
    5   17    7      0.67     -0.77
    5   17    6     -1.22     -0.10
    5   17    5      1.45     -0.82
    5   17    4     -0.36      1.78
    5   17    3     -0.42     -0.02
    5   17    2     -1.31     -2.30
    5   17    1     -0.94     -0.40
    5   17    0      0.69      0.40
    6   17   10      0.44     -1.01
    6   17    9      0.98      0.35
    6   17    8      1.72     -4.08
    6   17    7      0.21      0.47
    6   17    6     -1.62     -1.96
    6   17    5     -0.36      0.62
    6   17    4     -0.02      1.42
    6   17    3      2.05      0.51
    6   17    2     -2.18     -1.24
    6   17    1      2.25      2.21
    6   17    0     -0.16     -1.18
    6   17   11      0.10     -0.79
    7   17   11     -2.10     -0.82
    7   17   10      0.42      0.81
    7   17    9      1.21      0.40
    7   17    8     -0.39     -2.43
    7   17    7      1.29      0.78
    7   17    6      0.43      0.34
    7   17    5     -0.18     -0.85
    7   17    4     -0.20      0.06
    7   17    3      2.12      2.88
    7   17    2     -0.16      2.03
    7   17    1     -0.69      0.72
    7   17    0     -1.43     -0.86
    8   17   10      1.94     -0.16
    8   17    9      1.25     -0.57
    8   17    8     -0.82      1.37
    8   17    7     -1.23      0.09
    8   17    6     -0.09     -0.57
    8   17    5     -1.62     -2.17
    8   17    4     -0.44      0.93
    8   17    3     -1.42     -1.13
    8   17    2      0.20      0.35
    8   17    1     -3.90     -4.36
    8   17    0     -0.05      0.24
    9   17   10     -0.12     -2.10
    9   17    9      0.59      0.46
    9   17    8      1.27      0.99
    9   17    7     -1.44     -0.69
    9   17    6     -0.61     -0.16
    9   17    5      0.02     -0.14
    9   17    4     -0.12     -0.58
    9   17    3     -0.19     -1.32
    9   17    2      0.80     -0.60
    9   17    1      0.78      0.10
    9   17    0      0.91      0.36
   10   17    9     -0.33      1.95
   10   17    8     -1.21      0.24
   10   17    7      3.14     -1.04
   10   17    6      0.09      1.18
   10   17    5      0.20      1.66
   10   17    4      0.60     -1.01
   10   17    3      0.72     -0.12
   10   17    2      0.98     -0.81
   10   17    1      2.24      1.76
   10   17    0      0.87      2.08
   11   17    9     -0.03     -0.59
   11   17    8     -2.89     -0.13
   11   17    7      0.37      1.03
   11   17    6      1.44     -0.20
   11   17    5      0.31      0.63
   11   17    4      0.62      0.55
   11   17    3     -1.07     -1.09
   11   17    2      0.23      1.13
   11   17    1     -0.38     -0.99
   11   17    0     -0.07      0.61
   12   17    8      1.25     -0.14
   12   17    7     -1.34      0.54
   12   17    6      0.57     -0.30
   12   17    5      1.85     -1.63
   12   17    4     -0.57      0.91
   12   17    3      0.04      0.64
   12   17    2     -0.85      2.59
   12   17    1      0.65      0.28
   12   17    0     -2.44     -1.57
   13   17    7      0.93     -1.18
   13   17    6     -0.92     -0.10
   13   17    5     -1.74      0.62
   13   17    4     -0.71     -0.47
   13   17    3     -0.31      1.63
   13   17    2     -0.52     -0.55
   13   17    1      1.22      0.59
   13   17    0      1.57     -0.36
   14   17    6      0.09      0.13
   14   17    5     -2.79      1.59
   14   17    4      0.77     -0.15
   14   17    3     -1.10     -1.17
   14   17    2      1.42     -1.39
   14   17    1     -1.20     -1.17
   14   17    0      3.64     -0.44
   15   17    5      1.40     -2.30
   15   17    4      0.55     -0.20
   15   17    3     -0.08     -1.78
   15   17    2      0.78     -0.23
   15   17    1     -1.16      1.43
   15   17    0     -2.94     -0.01
   16   17    3      1.06      2.35
   16   17    2     -1.52     -1.08
   16   17    1      0.10      2.28
   16   17    0     -2.14      0.98
    0   18    0      0.39      1.05
    0   18    1     -2.30     -1.76
    0   18    2      0.25      2.25
    0   18    3      1.72     -2.11
    0   18    4     -2.53     -0.03
    0   18    5      0.57      0.03
    0   18    6     -0.49     -0.66
    0   18    7      0.26     -0.21
    0   18    8      0.65      0.29
    0   18    9     -0.39     -0.10
    0   18   10      0.23      0.36
    0   18   11      0.02     -0.05
    1   18   11      0.68     -0.19
    1   18   10     -0.82      0.00
    1   18    9      1.00      0.14
    1   18    8      1.45      0.91
    1   18    7      0.49      0.69
    1   18    6     -0.89     -0.72
    1   18    5      0.46     -0.49
    1   18    4     -0.30      1.34
    1   18    3      1.99     -1.84
    1   18    2     -0.87      2.16
    1   18    1     -2.34     -3.19
    1   18    0     -0.26      2.66
    2   18   11     -0.17     -1.11
    2   18   10      2.16      0.00
    2   18    9      0.54     -1.58
    2   18    8     -1.22      0.23
    2   18    7     -0.76     -0.81
    2   18    6      0.79      0.46
    2   18    5     -0.65      0.03
    2   18    4      0.88      0.03
    2   18    3     -0.16     -0.08
    2   18    2      2.89     -2.38
    2   18    1      0.33      3.39
    2   18    0     -0.28     -1.04
    3   18   11     -0.04     -1.11
    3   18   10      0.73      0.10
    3   18    9     -0.62     -0.88
    3   18    8     -1.09     -1.08
    3   18    7      0.73     -1.20
    3   18    6      0.34      1.03
    3   18    5     -1.50      0.42
    3   18    4      0.32     -1.81
    3   18    3     -0.54      1.97
    3   18    2      3.02     -0.27
    3   18    1      0.64      1.88
    3   18    0      0.73     -0.70
    4   18   11     -1.81     -0.18
    4   18   10      0.29     -0.43
    4   18    9      0.76      1.33
    4   18    8      1.32      0.17
    4   18    7      0.47      0.37
    4   18    6     -0.63      0.44
    4   18    5      0.39     -1.02
    4   18    4      1.47      1.11
    4   18    3     -1.44      0.86
    4   18    2     -1.82      2.16
    4   18    1      1.23     -2.49
    4   18    0     -0.26     -0.56
    5   18   11      0.88     -0.21
    5   18   10      0.07     -0.05
    5   18    9     -0.86      2.09
    5   18    8     -0.10      0.15
    5   18    7     -0.58     -0.03
    5   18    6      0.05     -0.46
    5   18    5      0.68     -0.62
    5   18    4      0.20      1.31
    5   18    3     -1.51     -0.72
    5   18    2     -2.03      0.16
    5   18    1      1.28      0.56
    5   18    0     -2.60     -0.79
    6   18   10     -2.23     -0.12
    6   18    9     -0.85      0.38
    6   18    8     -0.90      0.82
    6   18    7     -1.30     -0.63
    6   18    6     -1.12     -0.66
    6   18    5      1.11      2.02
    6   18    4     -1.54     -0.93
    6   18    3      0.30      0.69
    6   18    2     -0.77     -0.80
    6   18    1     -1.32      0.60
    6   18    0      0.87      1.12
    7   18    9      0.99     -1.10
    7   18    8      2.22      0.38
    7   18    7     -0.40      0.52
    7   18    6      0.90     -0.52
    7   18    5     -0.35     -0.18
    7   18    4     -0.47     -1.94
    7   18    3     -1.00     -0.16
    7   18    2     -0.28      0.51
    7   18    1     -0.31     -0.56
    7   18    0      2.05      0.79
    7   18   10      1.72     -0.32
    8   18   10      0.46      0.07
    8   18    9      0.29     -0.59
    8   18    8      0.92     -0.66
    8   18    7      0.73      0.66
    8   18    6      2.11      0.01
    8   18    5     -1.75     -1.82
    8   18    4      0.22      0.40
    8   18    3     -0.19     -0.83
    8   18    2      1.75     -0.11
    8   18    1     -0.81      0.53
    8   18    0      0.13      0.60
    9   18    9     -1.06      0.29
    9   18    8     -2.05     -0.61
    9   18    7      0.16     -1.30
    9   18    6      0.96      0.86
    9   18    5      1.00      0.27
    9   18    4      0.29      1.22
    9   18    3      2.94      0.49
    9   18    2     -1.61     -1.97
    9   18    1     -1.54     -1.88
    9   18    0      0.88     -0.40
   10   18    9      0.21     -1.16
   10   18    8     -0.16     -1.83
   10   18    7      0.05      0.61
   10   18    6     -1.10     -0.42
   10   18    5     -0.08      0.10
   10   18    4      0.23     -0.42
   10   18    3      0.15      0.12
   10   18    2     -0.32     -0.35
   10   18    1      1.62     -0.89
   10   18    0     -2.39     -2.32
   11   18    8     -1.22      0.96
   11   18    7      0.92      2.57
   11   18    6     -2.21      0.59
   11   18    5     -0.21     -0.14
   11   18    4      0.37     -0.34
   11   18    3      0.02     -1.29
   11   18    2      2.74      1.96
   11   18    1      0.55      2.19
   11   18    0     -0.49     -0.26
   12   18    7      0.77     -0.51
   12   18    6      0.60      1.06
   12   18    5      1.26      1.54
   12   18    4      1.49     -0.15
   12   18    3      0.42      0.53
   12   18    2     -0.79     -1.22
   12   18    1      0.18      1.40
   12   18    0      2.75      2.01
   13   18    6      0.49     -1.66
   13   18    5     -1.09      1.60
   13   18    4     -1.34     -0.28
   13   18    3     -1.62      0.32
   13   18    2      0.10     -1.46
   13   18    1      0.53     -0.81
   13   18    0     -0.56      0.53
   14   18    4     -3.22      0.86
   14   18    3      0.52      0.38
   14   18    2     -0.05      3.03
   14   18    1     -0.33     -1.44
   14   18    0     -1.32     -0.63
   15   18    3      0.30      1.52
   15   18    2     -1.44      1.78
   15   18    1     -0.60      1.65
   15   18    0     -0.24      0.10
    0   19    1     -0.30     -0.88
    0   19    2      0.44     -0.14
    0   19    3      1.24     -0.43
    0   19    4      0.15      0.20
    0   19    5      0.64     -0.27
    0   19    6     -1.88     -0.21
    0   19    7      0.48      0.95
    0   19    8     -0.24      0.06
    0   19    9      0.15      0.42
    0   19   10      0.97      0.23
    1   19   10      0.25     -0.49
    1   19    9      0.14     -0.96
    1   19    8     -0.62      0.82
    1   19    7      0.97     -0.12
    1   19    6     -1.48     -0.63
    1   19    5      0.32     -0.76
    1   19    4      0.11      1.25
    1   19    3      0.61      1.40
    1   19    2     -2.42     -0.16
    1   19    1     -1.21      0.20
    1   19    0     -0.26     -1.37
    2   19   10     -0.49     -1.22
    2   19    9     -1.69     -0.54
    2   19    8      3.14     -0.27
    2   19    7      0.53     -0.87
    2   19    6      0.88      0.63
    2   19    5     -1.62     -0.66
    2   19    4     -0.34     -0.72
    2   19    3      1.72     -1.98
    2   19    2     -0.44     -0.47
    2   19    1      1.76      3.90
    2   19    0      2.20     -1.08
    3   19   10      0.61      1.59
    3   19    9      1.87     -0.33
    3   19    8     -0.51      1.05
    3   19    7     -0.46      0.53
    3   19    6      1.08      0.40
    3   19    5      0.99     -0.36
    3   19    4     -0.99     -0.29
    3   19    3      0.40      0.21
    3   19    2     -1.56     -0.12
    3   19    1      0.39      1.38
    3   19    0      0.82      0.11
    4   19   10      0.01      0.13
    4   19    9      1.87     -0.91
    4   19    8     -1.20     -1.80
    4   19    7      0.33     -1.24
    4   19    6     -0.40      0.33
    4   19    5      0.96      1.03
    4   19    4     -0.69      2.07
    4   19    3     -0.74      2.04
    4   19    2     -0.10     -1.83
    4   19    1     -1.52     -3.42
    4   19    0     -3.05      1.21
    5   19   10     -1.53     -1.25
    5   19    9     -2.09      1.77
    5   19    8      1.43     -1.14
    5   19    7     -1.11      0.60
    5   19    6      0.80      0.69
    5   19    5     -0.88      0.64
    5   19    4      0.58     -0.35
    5   19    3      1.04     -1.66
    5   19    2      2.29      1.01
    5   19    1      0.66     -0.11
    5   19    0     -0.44      1.45
    6   19    9     -0.28      0.76
    6   19    8     -1.86      3.80
    6   19    7     -0.18      0.88
    6   19    6      0.29     -1.67
    6   19    5     -1.30     -1.24
    6   19    4     -0.18     -1.25
    6   19    3     -0.97     -0.58
    6   19    2      0.83      2.58
    6   19    1     -0.60     -2.65
    6   19    0      1.16     -0.52
    7   19    9      1.20     -1.72
    7   19    8      0.61      0.33
    7   19    7      1.94      0.31
    7   19    6     -2.20     -0.38
    7   19    5      0.81     -0.45
    7   19    4      1.07      0.90
    7   19    3     -2.08     -0.47
    7   19    2      0.00     -0.47
    7   19    1     -0.21     -1.26
    7   19    0      0.85     -0.12
    8   19    9     -0.81      1.72
    8   19    8      1.24     -1.49
    8   19    7     -0.17     -0.32
    8   19    6      0.39      1.22
    8   19    5      1.13     -0.44
    8   19    4      0.65     -0.88
    8   19    3      0.25     -0.83
    8   19    2      0.07      0.92
    8   19    1      3.64      5.05
    8   19    0      0.69      0.73
    9   19    8     -2.47      0.05
    9   19    7     -2.08     -1.51
    9   19    6      2.03      0.13
    9   19    5     -0.61      0.35
    9   19    4     -1.13      0.42
    9   19    3      0.09      1.70
    9   19    2     -1.17     -1.10
    9   19    1     -0.50      1.17
    9   19    0     -0.41     -0.56
   10   19    7     -0.52      0.44
   10   19    6      0.19      0.06
   10   19    5      1.56      0.96
   10   19    4      1.24      0.37
   10   19    3     -0.79      0.29
   10   19    2     -0.94     -1.73
   10   19    1     -2.87     -1.67
   10   19    0      0.19     -1.72
   11   19    6     -0.76      0.35
   11   19    5     -0.58     -0.13
   11   19    4      1.29     -1.71
   11   19    3      0.54      0.42
   11   19    2      0.72      1.17
   11   19    1     -0.39     -0.37
   11   19    0      0.22     -0.10
   12   19    5     -3.28      1.62
   12   19    4     -1.33      1.31
   12   19    3      0.83     -0.66
   12   19    2      1.05     -0.68
   12   19    1     -1.05      0.11
   12   19    0     -0.35      0.96
   13   19    4     -1.59      0.27
   13   19    3      0.35     -1.30
   13   19    2      0.31     -1.07
   13   19    1      0.38      0.41
   13   19    0     -2.31      0.23
   14   19    3      1.56      3.13
   14   19    1      2.08      0.34
   14   19    0     -1.14      0.55
   14   19    2     -0.91     -0.12
    0   20    0     -0.32      0.55
    0   20    1      0.15     -0.24
    0   20    2     -0.34      1.57
    0   20    3      0.11     -0.52
    0   20    4      0.16     -0.17
    0   20    5      0.35      0.86
    0   20    6     -0.07      1.82
    0   20    7     -0.28      1.43
    0   20    8     -0.69      0.01
    0   20    9     -0.48     -0.79
    1   20    8     -1.20      0.26
    1   20    7     -1.21      0.99
    1   20    6      1.90     -0.37
    1   20    5      0.84      1.07
    1   20    4     -1.01     -0.61
    1   20    3     -0.05     -0.23
    1   20    2     -0.41      0.16
    1   20    1      1.25      2.38
    1   20    0     -1.27     -1.78
    1   20    9      0.67      1.07
    2   20    9      0.00      1.32
    2   20    8      0.92      1.21
    2   20    7      0.06     -1.15
    2   20    6     -0.73     -0.35
    2   20    5     -2.28      0.79
    2   20    4     -0.13      0.03
    2   20    3     -1.06      0.28
    2   20    2      0.55      0.24
    2   20    1     -0.80      1.71
    2   20    0      0.40     -0.58
    3   20    9     -0.13     -0.68
    3   20    8      1.33      0.00
    3   20    7      0.16      0.42
    3   20    6     -2.47      0.23
    3   20    5     -0.23     -0.20
    3   20    4      0.61     -0.04
    3   20    3      1.40     -1.08
    3   20    2     -1.15     -0.02
    3   20    1      0.25     -2.02
    3   20    0     -1.16      0.71
    4   20    9     -0.24     -1.15
    4   20    8     -1.29     -0.97
    4   20    7     -0.87     -0.16
    4   20    6      0.68     -0.84
    4   20    5      2.15     -0.36
    4   20    4      0.38      0.09
    4   20    3      1.51     -0.82
    4   20    2     -1.15     -1.59
    4   20    1     -0.38     -1.91
    4   20    0     -0.18      0.62
    5   20    8     -0.21     -0.80
    5   20    7     -0.80     -0.07
    5   20    6      0.19     -0.64
    5   20    5      0.14     -0.06
    5   20    4      0.07      0.80
    5   20    3     -0.85      0.75
    5   20    2      2.02      0.48
    5   20    1     -1.90      0.42
    5   20    0      0.69      0.10
    6   20    8      1.10     -0.58
    6   20    7      0.64      1.33
    6   20    6      0.48     -0.18
    6   20    5     -1.17     -0.85
    6   20    4     -1.39     -0.64
    6   20    3     -0.45      1.11
    6   20    2      1.09      0.44
    6   20    1      0.56      1.45
    6   20    0      0.40      0.01
    7   20    8     -2.43      0.67
    7   20    7      1.12     -1.13
    7   20    6      0.60     -0.05
    7   20    5     -0.09     -0.76
    7   20    4     -0.56      1.26
    7   20    3      0.67     -0.24
    7   20    2     -0.97     -2.23
    7   20    1      0.92     -0.79
    7   20    0      0.15     -0.26
    8   20    7      0.53     -1.34
    8   20    6     -0.42      0.08
    8   20    5      0.53      0.68
    8   20    4      2.29      0.37
    8   20    3      0.36     -0.85
    8   20    2     -0.52     -0.28
    8   20    1      0.03     -1.00
    8   20    0     -0.92     -1.31
    9   20    7      1.13      2.28
    9   20    6     -0.27      0.78
    9   20    5      0.17      0.22
    9   20    4      1.03     -1.10
    9   20    3     -0.83      0.65
    9   20    2      1.05      2.50
    9   20    1      2.71      0.97
    9   20    0      0.68      0.50
   10   20    6     -0.96      0.42
   10   20    5      1.33      1.46
   10   20    4     -0.86     -0.11
   10   20    3     -0.02      0.31
   10   20    2      0.35      0.32
   10   20    1     -0.22      1.28
   10   20    0      1.77      2.41
   11   20    5     -1.02      1.75
   11   20    4     -0.62     -0.27
   11   20    3     -0.37      0.97
   11   20    2     -1.37     -0.16
   11   20    1     -2.10      0.73
   11   20    0     -0.19     -0.28
   12   20    4     -2.36      1.36
   12   20    3     -1.15      0.01
   12   20    2     -0.15      1.25
   12   20    1      0.30     -2.34
   12   20    0     -2.72     -1.93
   13   20    1     -1.25      0.21
   13   20    0     -0.95     -0.03
   13   20    2      0.06     -0.10
    0   21    1      0.74     -1.48
    0   21    2      1.22     -0.44
    0   21    3     -1.40     -0.83
    0   21    4     -0.12      1.53
    0   21    5      0.87     -1.32
    0   21    6      0.86     -0.19
    0   21    7     -1.00     -1.07
    0   21    8     -0.02      0.13
    1   21    8      0.97     -0.07
    1   21    7     -0.76      1.43
    1   21    6      1.01      1.07
    1   21    5     -0.03      0.52
    1   21    4     -0.17      0.55
    1   21    3      0.25     -1.51
    1   21    2      1.80     -0.55
    1   21    1      0.84      0.73
    1   21    0      0.74     -0.13
    2   21    8     -0.48     -0.80
    2   21    7      0.30      0.15
    2   21    6     -0.92      0.56
    2   21    5      0.75      1.02
    2   21    4      0.68     -2.12
    2   21    3     -0.36      2.04
    2   21    2     -1.26     -0.04
    2   21    1     -2.04     -2.03
    2   21    0     -1.70     -1.88
    3   21    7      1.43     -1.28
    3   21    6     -1.68     -0.28
    3   21    5      0.67     -0.12
    3   21    4      0.87      0.71
    3   21    3     -0.29      1.20
    3   21    2     -0.80     -0.07
    3   21    1     -0.97     -3.26
    3   21    0     -0.94      1.81
    4   21    8      0.61      1.54
    4   21    7     -0.25      2.15
    4   21    6      1.27     -0.78
    4   21    5     -2.08      0.30
    4   21    4     -0.25      1.38
    4   21    3      1.13     -2.26
    4   21    2      1.05      2.32
    4   21    1      1.47      3.51
    4   21    0      1.73      0.63
    5   21    6     -0.03     -1.36
    5   21    5     -1.05     -0.49
    5   21    4     -0.96      0.18
    5   21    3      0.49      1.45
    5   21    2      1.23      0.61
    5   21    1      0.18      1.34
    5   21    0      0.46     -4.04
    6   21    7      0.15     -1.91
    6   21    6     -0.98      1.46
    6   21    5      1.44     -1.54
    6   21    4      0.43      0.61
    6   21    3     -0.49     -0.49
    6   21    2      0.18     -2.20
    6   21    1      0.53      0.81
    6   21    0      0.79      0.55
    7   21    6      0.86      1.38
    7   21    5     -0.20      0.93
    7   21    4      0.11     -1.60
    7   21    3     -1.16     -0.43
    7   21    2     -0.83      0.58
    7   21    1     -0.50      1.44
    7   21    0     -0.38      2.97
    8   21    6      0.37     -1.07
    8   21    5      0.28      2.60
    8   21    4      0.47     -0.62
    8   21    3     -0.06      2.23
    8   21    2     -1.72     -1.08
    8   21    1     -2.32     -3.30
    8   21    0     -1.82     -0.73
    9   21    5     -0.85     -1.09
    9   21    4      0.44      0.18
    9   21    3      0.80     -1.49
    9   21    2      0.10      0.47
    9   21    1      1.02     -1.28
    9   21    0     -0.10     -0.38
   10   21    4     -2.84      0.41
   10   21    3      1.02      0.55
   10   21    2      1.83      1.54
   10   21    1      1.43      1.72
   10   21    0     -0.18      0.87
   11   21    1      0.34      0.06
   11   21    0     -0.25     -0.50
   11   21    2     -0.55     -2.03
    0   22    0      1.39     -0.86
    0   22    1     -0.10      0.14
    0   22    2     -0.21     -1.05
    0   22    3     -1.82      2.23
    0   22    4      1.17      0.80
    0   22    5     -0.02      0.56
    0   22    6      0.08      0.33
    1   22    6     -1.35      0.34
    1   22    5     -0.94     -0.99
    1   22    4      2.36      0.54
    1   22    3     -1.64      0.88
    1   22    2      0.58     -1.51
    1   22    1      1.68      1.18
    1   22    0      0.31     -0.14
    2   22    6      0.78     -0.54
    2   22    5      1.69     -1.40
    2   22    4     -0.35     -1.34
    2   22    3      2.10     -1.11
    2   22    2     -0.98      1.24
    2   22    1     -0.46     -0.86
    2   22    0     -0.77      0.55
    3   22    6      1.46     -0.51
    3   22    5      0.15     -1.04
    3   22    4      0.07      0.30
    3   22    3      0.01      1.74
    3   22    2     -0.36      0.86
    3   22    1     -1.14     -0.48
    3   22    0     -0.36     -0.05
    4   22    6     -0.46      0.35
    4   22    5     -1.91      0.84
    4   22    4     -1.45      0.41
    4   22    3     -2.09      0.53
    4   22    2      1.28     -0.50
    4   22    1      0.64      0.97
    4   22    0     -0.63      0.31
    5   22    6      0.73      1.03
    5   22    5      0.15      0.92
    5   22    4     -1.83     -1.05
    5   22    3      0.35     -1.19
    5   22    2     -0.33     -1.04
    5   22    1     -0.39     -0.44
    5   22    0      1.90     -0.12
    6   22    5      0.87     -0.41
    6   22    4      2.23      0.47
    6   22    3      0.46     -1.11
    6   22    2     -0.36     -0.76
    6   22    1      0.36     -0.22
    6   22    0      1.13     -0.51
    7   22    5     -0.68      1.81
    7   22    4      1.89     -0.72
    7   22    3      0.62      0.13
    7   22    2      0.11      1.18
    7   22    1      1.61      0.94
    7   22    0     -0.17     -0.17
    8   22    4     -1.30     -0.42
    8   22    3      0.35      0.73
    8   22    2     -1.12      0.78
    8   22    1     -0.25     -0.08
    8   22    0     -0.11      0.30
    9   22    1     -2.47      0.90
    9   22    0     -2.85      0.26
    9   22    2      0.39     -0.56
    0   23    1      0.27      2.19
    0   23    2     -0.03      0.58
    0   23    3     -0.21      0.40
    0   23    4      0.01      0.01
    1   23    4     -0.50     -0.30
    1   23    3     -0.60      0.58
    1   23    2     -0.68      0.53
    1   23    1     -0.24     -1.39
    1   23    0      0.27      0.17
    2   23    4     -0.12      0.84
    2   23    3     -0.50     -0.78
    2   23    2      0.72     -0.28
    2   23    1      1.16      0.29
    2   23    0     -0.37      3.31
    3   23    4     -0.19     -0.75
    3   23    3     -0.53     -1.63
    3   23    2      2.21      0.12
    3   23    1      1.01      1.72
    3   23    0      0.06     -0.91
    4   23    3     -0.34      1.21
    4   23    2     -1.62     -1.38
    4   23    1     -1.04     -1.72
    4   23    0      1.30     -2.80
    5   23    3     -0.71      0.02
    5   23    2     -2.58     -0.25
    5   23    1     -0.48      0.20
    5   23    0     -1.31      2.85
    6   23    2     -0.02      1.23
    6   23    1     -0.17      0.40
    6   23    0     -2.20      0.80
    7   23    0      1.11     -3.28
    0   24    0     -1.01     -0.49
    0   24    1      0.28     -0.89
    1   24    1     -1.22     -1.13
    1   24    0     -0.89      0.09
    2    2    0    226.81     -4.93
    2    6    0    -80.81      1.95
   17   17    0      2.04     -0.15
   16   18    0      0.81     -0.12
   17   18    0     -0.28     -0.26
   15   19    0      2.02     -0.22
   16   19    0      0.55     -0.52
   14   20    0      1.57      0.49
   15   20    0      0.34      0.10
   12   21    0      1.39     -0.28
   13   21    0      1.42      0.11
   14   21    0     -1.14     -0.30
   10   22    0     -1.15     -0.54
   11   22    0      1.17     -0.08
   12   22    0      1.36      0.50
    8   23    0      1.28      0.42
    9   23    0     -0.03      1.26
   10   23    0     -0.07     -0.47
    2   24    0      0.06      0.46
    3   24    0      1.59     -0.01
    4   24    0      1.35     -0.47
    5   24    0     -0.53      0.40
    6   24    0     -2.09      0.16
    7   24    0     -1.28     -0.18
    8   24    0      1.33      0.16
    2    2    1     -1.15    -55.81
   17   17    1     -0.06     -1.28
   16   18    1     -0.36      0.16
   17   18    1      0.39     -1.92
   15   19    1      0.39     -0.95
   16   19    1     -0.29     -1.21
   14   20    1     -0.28      1.85
   15   20    1      1.46     -2.09
   12   21    1      0.46     -0.59
   13   21    1     -1.03      0.43
   14   21    1     -0.44      0.10
   10   22    1     -0.40     -0.39
   11   22    1      1.36     -2.18
   12   22    1      0.08      0.88
    7   23    1      0.35     -1.35
    8   23    1      0.19      0.66
    9   23    1     -0.70      0.30
   10   23    1      0.51     -0.68
    2   24    1      0.74     -0.79
    3   24    1      0.68      0.73
    4   24    1      0.26      0.63
    5   24    1      1.21     -0.30
    6   24    1     -0.64      0.19
    7   24    1     -1.78      0.70
    8   24    1      0.46     -0.35
    2    2    2    -25.52     -0.12
   17   17    2     -1.45     -0.03
   16   18    2      0.11     -1.30
   17   18    2      0.30     -1.82
   15   19    2     -1.28      0.64
   16   19    2      0.11      1.62
   14   20    2     -0.25     -1.77
   15   20    2      0.05     -1.76
   12   21    2     -0.53      0.16
   13   21    2     -0.09      1.36
   10   22    2      0.43      0.38
   11   22    2     -0.43     -0.41
   12   22    2      0.85     -1.27
    7   23    2      0.35     -1.43
    8   23    2      2.46      0.45
    9   23    2      0.72      1.06
   10   23    2     -2.43     -0.58
    0   24    2      1.35     -1.05
    1   24    2      0.26      0.34
    2   24    2     -0.52      0.09
    3   24    2      0.02     -0.68
    4   24    2      0.14     -0.01
    5   24    2     -0.78      0.90
    6   24    2      0.17      1.18
    7   24    2      1.04     -0.21
   17   17    3      0.13      1.60
   16   18    3     -1.18     -1.50
   17   18    3      0.20     -1.72
   15   19    3      0.30      0.59
   16   19    3     -1.90     -2.97
   13   20    3      0.53     -1.52
   14   20    3      0.56     -0.45
   15   20    3      0.20     -0.34
   11   21    3     -0.21      0.41
   12   21    3     -1.35     -1.27
   13   21    3      0.10      0.22
    9   22    3     -0.81     -0.79
   10   22    3      0.45     -0.25
   11   22    3      0.46      0.56
    6   23    3      1.13      0.50
    7   23    3      2.02      0.23
    8   23    3     -0.27     -1.25
    9   23    3     -0.58      0.34
    0   24    3      1.24     -1.78
    1   24    3      0.94     -0.17
    2   24    3     -0.61      1.25
    3   24    3     -0.81     -1.17
    4   24    3      0.73      0.15
    5   24    3      0.62      0.62
    6   24    3     -0.09     -0.34
    7   24    3     -0.68     -0.10
   16   17    4      0.00     -1.23
   17   17    4     -0.24     -0.13
   15   18    4      1.48      1.16
   16   18    4      1.72     -0.71
   14   19    4     -0.05     -1.27
   15   19    4      0.90      0.54
   13   20    4     -0.50     -0.41
   14   20    4      2.87     -1.35
   11   21    4     -1.23      0.93
   12   21    4      2.70     -1.29
   13   21    4      0.87     -0.09
    9   22    4     -1.72      0.95
   10   22    4     -0.09      0.13
   11   22    4      0.81      0.13
    4   23    4      0.70     -1.52
    5   23    4      1.22     -0.46
    6   23    4     -0.76     -0.21
    7   23    4     -0.81      0.99
    8   23    4     -0.24      0.91
    9   23    4      0.10     -0.05
    0   24    4     -0.08     -0.92
    1   24    4     -1.32     -0.44
    2   24    4      0.32      1.25
    3   24    4     -0.16      0.50
    4   24    4      0.32     -0.65
    5   24    4      0.89      0.05
    6   24    4     -0.94      0.51
   16   17    5      1.90     -0.74
   17   17    5      0.14      2.26
   14   18    5     -0.62     -0.87
   15   18    5      0.80     -1.38
   16   18    5      0.03     -1.22
   13   19    5      1.22     -0.43
   14   19    5      2.17     -2.45
   15   19    5     -0.80      1.20
   12   20    5     -2.10     -1.74
   13   20    5      1.28     -2.44
   10   21    5     -1.81     -1.43
   11   21    5      2.03      0.62
   12   21    5      1.92     -1.03
    8   22    5      0.25      0.48
    9   22    5      0.46     -1.47
   10   22    5     -0.82     -1.00
    0   23    5     -1.45      1.17
    1   23    5     -0.05      0.15
    2   23    5      0.59     -0.56
    3   23    5     -1.65     -0.03
    4   23    5      0.29     -1.00
    5   23    5      1.85     -0.03
    6   23    5      0.23      2.12
    7   23    5     -0.28      0.00
    8   23    5     -0.69     -1.74
    0   24    5     -1.57     -1.87
    1   24    5     -0.14      0.51
    2   24    5      0.94      0.98
    3   24    5      0.49      0.84
    4   24    5     -0.17      0.44
   16   16    6     -0.45     -0.27
   15   17    6     -0.36      1.00
   16   17    6      0.18     -0.33
   14   18    6     -0.61     -1.03
   15   18    6      0.81      0.71
   12   19    6     -0.21     -0.22
   13   19    6     -0.10     -0.66
   14   19    6     -0.53     -0.25
   11   20    6      0.60      0.01
   12   20    6      0.71      0.15
   13   20    6     -0.52     -0.14
    9   21    6      0.09     -1.05
   10   21    6     -0.22     -0.03
   11   21    6     -0.34      0.31
    6   22    6      0.28     -0.04
    7   22    6     -0.85      0.11
    8   22    6     -0.42      0.43
    9   22    6     -0.14     -1.51
    0   23    6      0.54      0.24
    1   23    6     -0.46     -0.32
    2   23    6      0.32     -1.02
    3   23    6      1.39     -0.03
    4   23    6     -1.18      1.00
    5   23    6     -0.41      0.56
    6   23    6      0.54     -0.80
   15   16    7     -1.65     -2.20
   16   16    7      0.05      0.56
   14   17    7      0.36     -1.38
   15   17    7     -0.90      0.30
   16   17    7     -0.99      1.68
   13   18    7     -1.91     -2.73
   14   18    7     -0.28     -0.08
   15   18    7      1.34      1.72
   11   19    7      1.17     -0.09
   12   19    7      0.25      0.12
   13   19    7     -0.45      1.44
   10   20    7      0.11     -0.23
   11   20    7     -2.55     -2.65
   12   20    7     -0.87      0.96
    5   21    7      0.31      0.14
    7   21    7     -1.99     -0.88
    8   21    7      0.41      0.56
    9   21    7      1.82      1.17
   10   21    7     -0.37     -0.06
    0   22    7      0.97     -1.79
    1   22    7      0.57     -1.78
    2   22    7     -0.68      1.24
    3   22    7     -0.26      0.59
    4   22    7      0.39     -0.09
    5   22    7      1.10      0.58
    6   22    7      0.29     -0.73
    7   22    7     -0.68     -0.52
    8   22    7     -0.71      0.95
    0   23    7      0.15      0.16
    1   23    7     -0.09     -0.78
    2   23    7     -0.69      0.47
    3   23    7     -0.38      0.20
    4   23    7      0.30     -0.88
    0    0    8      8.51     -0.12
   15   15    8      4.53     -0.28
   14   16    8      1.63      0.78
   15   16    8     -0.66     -2.80
   16   16    8     -1.14      0.11
   13   17    8      3.46      0.60
   14   17    8     -0.24      1.54
   15   17    8     -1.79     -0.36
   12   18    8      0.52      1.83
   13   18    8      1.90     -0.51
   14   18    8     -1.10     -0.15
   10   19    8      0.75     -0.55
   11   19    8      2.06     -0.46
   12   19    8     -0.80      0.28
    8   20    8     -0.43     -0.03
    9   20    8      2.35      0.01
   10   20    8     -0.10      1.68
   11   20    8      0.64     -0.43
    3   21    8     -0.44     -1.38
    5   21    8     -1.41      0.07
    6   21    8      0.09     -1.10
    7   21    8      0.64      1.40
    8   21    8     -0.57      0.04
    9   21    8      0.89     -0.63
    0   22    8      0.02     -0.18
    1   22    8      0.46     -0.40
    2   22    8     -0.37     -0.57
    3   22    8      0.28      0.69
    4   22    8      0.63      0.13
    5   22    8     -0.55     -0.41
    6   22    8     -0.47      0.51
   14   15    9     -0.31     -1.79
   15   15    9     -0.01     -0.39
   13   16    9      0.86     -0.81
   14   16    9      0.82      3.26
   15   16    9     -0.67      0.77
   12   17    9     -0.31     -1.78
   13   17    9     -0.75     -0.05
   14   17    9      0.25      0.48
   11   18    9      1.49     -0.10
   12   18    9     -0.19      2.13
    9   19    9     -0.48      0.49
   10   19    9      0.86     -2.58
   11   19    9     -0.10      0.12
    5   20    9     -0.56     -0.47
    6   20    9      0.44      0.30
    7   20    9      0.28      1.56
    8   20    9     -0.11      0.12
    9   20    9      0.90     -1.80
    0   21    9     -1.01      1.09
    1   21    9     -0.59      0.25
    2   21    9      1.50     -0.26
    3   21    9     -1.15      0.42
    4   21    9     -0.20      1.41
    5   21    9      2.49     -1.21
    6   21    9     -0.52     -1.46
    7   21    9     -1.45      1.49
    0   22    9      0.98      0.69
    1   22    9     -0.08     -0.86
    2   22    9     -1.01      0.17
   14   14   10      0.37      0.33
   13   15   10     -0.34      0.53
   14   15   10      0.08     -0.11
   15   15   10     -0.79      0.33
   12   16   10      0.66      1.30
   13   16   10     -0.38      0.97
   14   16   10     -0.13     -0.18
   10   17   10     -1.72      1.67
   11   17   10     -0.09      1.40
   12   17   10     -0.08     -1.12
    9   18   10     -2.53      0.19
   10   18   10      1.25      0.98
   11   18   10      0.56      0.38
    6   19   10      0.52      0.78
    7   19   10      1.35     -1.05
    8   19   10     -0.86     -0.10
    9   19   10     -0.53      1.73
    0   20   10      0.10     -0.64
    1   20   10     -0.27     -0.17
    2   20   10     -0.53      0.04
    3   20   10      0.04      0.25
    4   20   10      0.25      0.24
    5   20   10      0.50      0.30
    6   20   10      0.61      0.37
    7   20   10     -1.14     -0.44
    0   21   10     -0.72      0.17
    1   21   10     -1.04     -0.23
    2   21   10      0.68      0.11
    3   21   10      0.35     -0.04
   13   14   11      0.30     -0.15
   14   14   11      0.21      4.86
   11   15   11     -0.01     -0.50
   12   15   11     -0.45     -0.57
   13   15   11      0.61      0.75
   10   16   11      0.54     -0.82
   11   16   11     -0.91      0.75
   12   16   11      0.79      2.83
    8   17   11     -0.73      0.15
    9   17   11      2.82      0.32
   10   17   11      0.12      0.57
   11   17   11     -1.02      0.24
    6   18   11      1.51      0.82
    7   18   11     -1.45      1.49
    8   18   11      0.65      0.39
    9   18   11      0.10     -0.49
    0   19   11      0.76      0.48
    1   19   11      0.40     -0.05
    2   19   11     -0.88      0.86
    3   19   11     -0.46      0.53
    4   19   11     -0.60     -1.08
    5   19   11      0.00     -0.65
    6   19   11      1.05      0.48
    7   19   11      0.74      0.24
    0   20   11     -0.44      0.33
    1   20   11     -0.27      0.31
    2   20   11      1.12      0.80
    3   20   11      0.45     -0.10
   12   13   12      1.14     -1.54
   13   13   12      2.12      0.22
   11   14   12      0.29      1.33
   12   14   12      2.55     -0.35
   13   14   12      0.24     -0.97
   10   15   12      0.74     -0.95
   11   15   12      1.86      0.59
   12   15   12     -0.45      1.54
    8   16   12     -0.47     -2.48
    9   16   12      1.14      2.10
   10   16   12      2.43      0.98
    5   17   12     -0.93      0.71
    6   17   12      0.57     -0.64
    7   17   12     -1.01     -0.02
    8   17   12     -0.39      0.60
    9   17   12      1.83      0.15
    0   18   12     -0.13     -0.09
    1   18   12     -1.82     -0.10
    2   18   12     -0.16      1.59
    3   18   12     -0.28      0.30
    4   18   12     -0.58     -0.05
    5   18   12      0.83     -0.30
    6   18   12      1.78     -1.40
    0   19   12      0.12      1.19
    1   19   12      0.48      0.57
    2   19   12     -0.73     -0.80
    3   19   12     -0.80      0.07
   11   11   13     -0.33      2.55
   10   12   13      0.12      0.13
   11   12   13     -3.11     -0.75
   12   12   13     -0.29     -0.35
    9   13   13     -0.33      1.56
   10   13   13      3.21     -0.95
   11   13   13      0.16     -1.84
   12   13   13     -1.50      0.53
    9   14   13     -0.61     -1.16
   10   14   13     -0.37     -0.97
   11   14   13      1.18      0.24
    7   15   13     -0.83      1.24
    8   15   13      2.66      0.89
    9   15   13      0.11     -0.99
   10   15   13     -1.59     -0.22
    3   16   13     -0.35     -0.24
    4   16   13      0.29      1.51
    5   16   13      0.59      0.56
    6   16   13     -0.27     -1.95
    7   16   13     -0.05     -0.60
    8   16   13     -0.55      0.80
    0   17   13     -2.02      2.17
    1   17   13      0.06     -0.91
    2   17   13      0.78     -1.10
    3   17   13      0.43      0.48
    4   17   13      1.26     -0.16
    5   17   13     -0.33      0.26
    6   17   13     -0.65      0.33
    0   18   13      1.05      0.89
    1   18   13      1.46      1.24
   10   11   14     -2.48     -0.34
   11   11   14     -2.69      0.15
    8   12   14      1.03      0.01
    9   12   14     -1.14      1.32
   10   12   14     -0.65     -0.22
   11   12   14      0.97     -0.45
    6   13   14     -2.57      2.25
    7   13   14     -0.70     -0.68
    8   13   14     -1.22     -2.01
    9   13   14     -0.83      0.37
   10   13   14      2.08      0.00
    0   14   14     -0.15      3.12
    4   14   14      0.57      0.12
    5   14   14     -0.18     -0.68
    6   14   14      0.19     -0.02
    7   14   14      0.03      0.76
    8   14   14     -0.82     -0.07
    0   15   14      0.75      0.25
    1   15   14     -0.70      0.24
    2   15   14     -0.31      0.73
    3   15   14     -0.03      0.39
    4   15   14     -1.82     -0.35
    5   15   14     -0.69     -0.60
    6   15   14      2.48     -1.40
    7   15   14      0.62     -0.07
    0   16   14      0.06     -2.07
    1   16   14     -1.02     -0.32
    2   16   14     -0.36      1.65
    3   16   14      1.14     -0.48
    4   16   14     -0.24     -0.90
    9    9   15      0.34      0.22
    8   10   15     -0.50      0.55
    9   10   15      2.48      0.57
   10   10   15      0.13     -0.83
    4   11   15     -1.36     -1.69
    6   11   15      0.37      0.01
    7   11   15     -0.95     -0.91
    8   11   15     -0.76      1.21
    9   11   15      0.10      0.81
    3   12   15     -0.91      1.07
    4   12   15      0.68      1.05
    5   12   15      1.37     -0.55
    6   12   15     -0.35     -0.33
    7   12   15      0.15     -0.25
    8   12   15     -0.49     -0.39
    0   13   15     -1.37     -1.30
    1   13   15     -0.36     -0.43
    2   13   15     -0.13      0.81
    3   13   15      1.50      1.14
    4   13   15      0.39      1.12
    5   13   15     -0.97     -0.82
    6   13   15     -0.55     -0.23
    7   13   15     -0.14      0.81
    0   14   15     -0.36      0.56
    1   14   15     -0.14      0.95
    2   14   15      0.22     -0.11
    3   14   15      0.13     -1.20
    4   14   15     -0.44     -0.48
    0    0   16     -3.99      0.48
    0    1   16      0.12     -1.93
    1    1   16      0.37      0.06
    0    2   16      2.69     -0.54
    6    8   16      0.29      0.71
    7    8   16     -2.33      0.33
    8    8   16     -0.12      0.11
    5    9   16     -0.91     -1.14
    6    9   16     -0.13      0.45
    7    9   16      1.10      0.64
    8    9   16      0.29      1.03
    0   10   16      1.80      0.03
    1   10   16      1.00      1.20
    2   10   16     -1.53      0.91
    3   10   16     -0.55     -1.31
    4   10   16      0.72     -0.15
    5   10   16     -0.83      0.00
    6   10   16     -0.20     -0.30
    7   10   16      1.37     -0.17
    0   11   16      0.09     -0.17
    1   11   16     -0.36      2.06
    2   11   16     -0.01     -0.12
    3   11   16      0.59     -0.84
    4   11   16     -0.32      0.54
    5   11   16     -0.06      0.24
    6   11   16      0.08     -0.23
    0   12   16     -0.45     -0.15
    1   12   16      0.22     -0.55
    2   12   16      1.08      0.22
    3   12   16      0.58      0.56
    4   12   16     -0.85      0.61
    0    0    0      0.00      0.00
# SQUEEZE RESULTS (Version = 160117)
# Note: Data are Listed for all Voids in the P1 Unit Cell
# i.e. Centre of Gravity, Solvent Accessible Volume,
# Recovered number of Electrons in the Void and
# Details about the Squeezed Material
loop_
  _platon_squeeze_void_nr
  _platon_squeeze_void_average_x
  _platon_squeeze_void_average_y
  _platon_squeeze_void_average_z
  _platon_squeeze_void_volume
  _platon_squeeze_void_count_electrons
  _platon_squeeze_void_content
   1  0.251  0.251 -0.011       546       171 ' '
   2  0.249  0.751 -0.047       543       171 ' '
   3  0.749  0.749 -0.015       540       171 ' '
   4  0.751  0.249  0.024       543       171 ' '
# Missing Reflections Below sin(th)/lambda = 0.25
loop_
  _platon_missing_refln_index_h
  _platon_missing_refln_index_k
  _platon_missing_refln_index_l
  _platon_missing_refln_theta
    2    2    0     6.456
    2    6    0    14.561
    2    2    1     7.177
    2    2    2     9.008
_platon_squeeze_void_probe_radius                  1.20
_platon_squeeze_details
)
TITL 20170614a5_a.res in P4(3)2(1)2
CELL   19.3938   19.3938   14.1496     90.00     90.00     90.00
SPGR P43212
# Solvent Accessible Volume =      2174
# Electrons Found in S.A.V. =       682
# Note: Atoms in Void as Cxxx and Qxxx all others
C101 0.852 0.859 0.493 !       1.98 eA-3
C102 0.329 0.328 0.501 !       1.76 eA-3
C103 0.852 0.797 0.436 !       1.75 eA-3
Q104 0.805 0.797 0.972 !       1.57 eA-3
C105 0.153 0.689 0.973 !       1.55 eA-3
C106 0.665 0.218 0.358 !       1.51 eA-3
C107 0.342 0.250 0.783 !       1.46 eA-3
C108 0.844 0.797 0.362 !       1.40 eA-3
C109 0.248 0.169 0.213 !       1.39 eA-3
C110 0.811 0.655 0.658 !       1.38 eA-3
C111 0.150 0.781-0.001 !       1.33 eA-3
C112 0.319 0.313 0.007 !       1.33 eA-3
C113 0.845 0.343 0.359 !       1.31 eA-3
C114 0.228 0.654 0.735 !       1.28 eA-3
C115 0.213 0.327 0.586 !       1.26 eA-3
Q116 0.226 0.658 0.569 !       1.23 eA-3
C117 0.848 0.222 0.422 !       1.23 eA-3
C118 0.316 0.205 0.358 !       1.19 eA-3
C119 0.737 0.206 0.735 !       1.04 eA-3
C120 0.779 0.659 0.821 !       1.03 eA-3
C121 0.170 0.154 0.783 !       1.02 eA-3
C122 0.732 0.140 0.924 !       1.02 eA-3
C123 0.683 0.188 0.265 !       1.01 eA-3
C124 0.187 0.687 0.729 !       1.01 eA-3
Q125 0.705 0.345 0.022 !       0.99 eA-3
C126 0.319 0.827 0.724 !       0.98 eA-3
C127 0.148 0.359 0.269 !       0.94 eA-3
C128 0.784 0.704 0.781 !       0.94 eA-3
C129 0.714 0.201 0.968 !       0.93 eA-3
C130 0.853 0.685 0.439 !       0.92 eA-3
C131 0.169 0.749 0.223 !       0.89 eA-3
C132 0.146 0.130 0.895 !       0.87 eA-3
C133 0.767 0.825 0.152 !       0.86 eA-3
C134 0.270 0.328 0.514 !       0.85 eA-3
C135 0.267 0.279 0.414 !       0.85 eA-3
C136 0.235 0.731 0.461 !       0.85 eA-3
C137 0.270 0.300 0.301 !       0.85 eA-3
C138 0.727 0.152 0.228 !       0.84 eA-3
C139 0.711 0.222 0.938 !       0.81 eA-3
C140 0.777 0.656 0.975 !       0.81 eA-3
C141 0.194 0.264 0.692 !       0.81 eA-3
Q142 0.687 0.344 0.624 !       0.80 eA-3
C143 0.731 0.690 0.952 !       0.80 eA-3
C144 0.252 0.718 0.513 !       0.79 eA-3
C145 0.216 0.751 0.426 !       0.78 eA-3
C146 0.221 0.754 0.010 !       0.75 eA-3
Q147 0.823 0.625 0.886 !       0.74 eA-3
C148 0.677 0.204 0.512 !       0.74 eA-3
C149 0.229 0.752 0.112 !       0.73 eA-3
C150 0.673 0.157 0.816 !       0.72 eA-3
C151 0.768 0.700 0.862 !       0.71 eA-3
C152 0.224 0.234 0.490 !       0.69 eA-3
Q153 0.188 0.188 0.683 !       0.69 eA-3
C154 0.859 0.717 0.637 !       0.68 eA-3
C155 0.234 0.233 0.371 !       0.67 eA-3
C156 0.720 0.332 0.494 !       0.66 eA-3
Q157 0.291 0.157 0.693 !       0.66 eA-3
C158 0.703 0.192 0.857 !       0.63 eA-3
Q159 0.661 0.779 0.536 !       0.62 eA-3
C160 0.731 0.824 0.236 !       0.62 eA-3
Q161 0.038 0.687 0.880 !       0.61 eA-3
C162 0.784 0.795 0.218 !       0.60 eA-3
Q163 0.196 0.779 0.536 !       0.60 eA-3
C164 0.809 0.672 0.875 !       0.60 eA-3
Q165 0.888 0.156 0.357 !       0.59 eA-3
Q166 0.344 0.125 0.002 !       0.57 eA-3
C167 0.748 0.783 0.943 !       0.56 eA-3
Q168 0.351 0.675 0.437 !       0.56 eA-3
Q169 0.662 0.219 0.839 !       0.54 eA-3
Q170 0.759 0.026 0.175 !       0.54 eA-3
C171 0.765 0.148 0.872 !       0.53 eA-3
Q172 0.774 0.611 0.066 !       0.53 eA-3
Q173 0.786 0.620 0.157 !       0.51 eA-3
)
;
_shelx_fab_checksum              52875
loop_
_space_group_symop_operation_xyz
'x, y, z'
'-x, -y, z+1/2'
'-y+1/2, x+1/2, z+3/4'
'y+1/2, -x+1/2, z+1/4'
'-x+1/2, y+1/2, -z+3/4'
'x+1/2, -y+1/2, -z+1/4'
'y, x, -z'
'-y, -x, -z+1/2'
loop_
_atom_site_label
_atom_site_type_symbol
_atom_site_fract_x
_atom_site_fract_y
_atom_site_fract_z
_atom_site_U_iso_or_equiv
_atom_site_adp_type
_atom_site_occupancy
_atom_site_site_symmetry_order
_atom_site_calc_flag
_atom_site_refinement_flags_posn
_atom_site_refinement_flags_adp
_atom_site_refinement_flags_occupancy
_atom_site_disorder_assembly
_atom_site_disorder_group
Zn1 Zn 1.03626(2) 0.49317(2) 0.64236(3) 0.02178(12) Uani 1 1 d . . . . .
Zn2 Zn 0.46443(2) 0.53557(2) 0.2500 0.02328(15) Uani 1 2 d S T P . .
Zn3 Zn 0.49226(2) 0.49226(2) 0.5000 0.02312(15) Uani 1 2 d S T P A .
O1 O 0.93797(15) 0.4938(3) 0.6782(2) 0.0770(15) Uani 1 1 d . . . . .
O2 O 0.90326(15) 0.4694(2) 0.8209(2) 0.0608(11) Uani 1 1 d . . . . .
O4 O 0.56318(12) 0.47709(12) 0.60501(18) 0.0278(5) Uani 1 1 d . . . . .
O6 O 0.4871(2) 0.40356(13) 0.4295(2) 0.0464(8) Uani 1 1 d . . . . .
O7 O 0.4578(3) 0.11579(17) 0.0868(2) 0.0670(12) Uani 1 1 d . . . . .
O8 O 0.47211(12) 0.06289(12) 0.22108(16) 0.0248(5) Uani 1 1 d . . . . .
N1 N 0.7569(2) 0.4669(4) 0.8445(3) 0.0812(19) Uani 1 1 d . U . . .
N2 N 0.64292(17) 0.4649(3) 0.7692(2) 0.0636(14) Uani 1 1 d . . . . .
N3 N 0.5058(3) 0.25856(18) 0.4526(3) 0.0783(19) Uani 1 1 d . . . . .
N4 N 0.4989(2) 0.14398(17) 0.3785(3) 0.0492(10) Uani 1 1 d . . . . .
C1 C 0.89312(19) 0.4813(2) 0.7367(3) 0.0388(10) Uani 1 1 d . . . . .
C2 C 0.8211(2) 0.4800(3) 0.6977(3) 0.0545(14) Uani 1 1 d . . . . .
C3 C 0.8127(3) 0.4831(5) 0.6029(4) 0.089(2) Uani 1 1 d . U . . .
H3 H 0.8516 0.4865 0.5648 0.107 Uiso 1 1 calc R U . . .
C4 C 0.7459(3) 0.4815(5) 0.5588(4) 0.092(3) Uani 1 1 d . U . . .
H4 H 0.7436 0.4807 0.4931 0.110 Uiso 1 1 calc R U . . .
C5 C 0.6856(2) 0.4809(4) 0.6092(4) 0.0682(19) Uani 1 1 d . . . . .
C6 C 0.69352(19) 0.4735(2) 0.7077(3) 0.0358(9) Uani 1 1 d . . . . .
C7 C 0.76095(19) 0.4719(2) 0.7523(3) 0.0384(9) Uani 1 1 d . . . . .
C8 C 0.6183(2) 0.4850(3) 0.5587(3) 0.0534(14) Uani 1 1 d . . . . .
C9 C 0.4761(3) 0.3935(2) 0.3456(3) 0.0418(11) Uani 1 1 d . . . . .
C10 C 0.4731(3) 0.3210(2) 0.3084(3) 0.0487(12) Uani 1 1 d . . . . .
C11 C 0.4515(3) 0.3116(2) 0.2161(3) 0.0579(15) Uani 1 1 d . . . . .
H11 H 0.4398 0.3501 0.1803 0.069 Uiso 1 1 calc R U . . .
C12 C 0.4465(3) 0.2457(2) 0.1745(3) 0.0572(15) Uani 1 1 d . . . . .
H12 H 0.4297 0.2419 0.1132 0.069 Uiso 1 1 calc R U . . .
C13 C 0.4658(3) 0.1866(2) 0.2221(3) 0.0437(11) Uani 1 1 d . . . . .
C14 C 0.4840(2) 0.19435(19) 0.3183(3) 0.0352(9) Uani 1 1 d . . . . .
C15 C 0.4879(3) 0.2612(2) 0.3612(3) 0.0422(10) Uani 1 1 d . . . . .
C16 C 0.4648(3) 0.1190(2) 0.1724(3) 0.0400(10) Uani 1 1 d . . . . .
S1 S 0.6820(2) 0.4283(6) 0.8673(4) 0.077(2) Uani 0.419(10) 1 d . U P A 1
S2 S 0.5272(3) 0.1796(3) 0.4743(5) 0.0542(13) Uani 0.581(10) 1 d . . P A 1
O3 O 0.6161(5) 0.5130(7) 0.4814(8) 0.071(3) Uani 0.581(10) 1 d . U P A 1
O5 O 0.4879(5) 0.4392(3) 0.2783(4) 0.048(2) Uani 0.581(10) 1 d . . P A 1
S1' S 0.67505(11) 0.4761(4) 0.87244(19) 0.0561(14) Uani 0.581(10) 1 d . . P A 2
S2' S 0.4970(6) 0.1769(5) 0.4863(6) 0.068(3) Uani 0.419(10) 1 d . . P A 2
O3' O 0.6181(6) 0.4814(5) 0.4663(8) 0.031(2) Uani 0.419(10) 1 d . . P A 2
O5' O 0.4412(4) 0.4367(3) 0.2988(5) 0.0225(17) Uani 0.419(10) 1 d . . P A 2
loop_
_atom_site_aniso_label
_atom_site_aniso_U_11
_atom_site_aniso_U_22
_atom_site_aniso_U_33
_atom_site_aniso_U_23
_atom_site_aniso_U_13
_atom_site_aniso_U_12
Zn1 0.0202(2) 0.0233(2) 0.0218(2) 0.00351(17) 0.00079(17) -0.00067(16)
Zn2 0.02028(19) 0.02028(19) 0.0293(3) -0.00150(19) -0.00150(19) 0.0005(2)
Zn3 0.02268(19) 0.02268(19) 0.0240(3) 0.00284(18) -0.00284(18) 0.0002(2)
O1 0.0196(14) 0.177(5) 0.0341(17) 0.035(2) 0.0011(12) -0.009(2)
O2 0.0239(14) 0.129(3) 0.0298(16) 0.0211(19) 0.0026(12) 0.0024(18)
O4 0.0179(11) 0.0311(13) 0.0343(14) 0.0053(11) -0.0018(10) 0.0012(10)
O6 0.086(3) 0.0221(13) 0.0307(15) 0.0003(11) -0.0018(16) -0.0051(15)
O7 0.145(4) 0.0355(17) 0.0206(16) -0.0030(12) -0.011(2) -0.005(2)
O8 0.0291(12) 0.0216(11) 0.0236(12) -0.0026(9) -0.0028(10) -0.0009(9)
N1 0.0267(19) 0.188(6) 0.0289(19) 0.002(3) -0.0040(16) -0.024(3)
N2 0.0192(16) 0.147(5) 0.0243(18) -0.006(2) -0.0008(14) -0.022(2)
N3 0.181(6) 0.0213(17) 0.032(2) -0.0026(15) -0.031(3) 0.005(3)
N4 0.098(3) 0.0207(15) 0.0291(18) -0.0010(14) -0.018(2) 0.0021(19)
C1 0.0218(17) 0.063(3) 0.032(2) 0.0110(19) 0.0066(16) 0.0019(17)
C2 0.023(2) 0.102(4) 0.038(2) 0.023(3) 0.0034(18) 0.001(2)
C3 0.034(3) 0.186(7) 0.048(3) 0.030(4) 0.000(2) -0.014(4)
C4 0.038(3) 0.186(8) 0.051(3) 0.044(4) 0.001(2) -0.009(4)
C5 0.028(2) 0.128(5) 0.049(3) 0.045(3) -0.006(2) -0.005(3)
C6 0.0231(18) 0.053(3) 0.031(2) 0.0011(18) 0.0005(15) -0.0026(16)
C7 0.0207(16) 0.068(3) 0.0264(18) 0.003(2) 0.0011(16) -0.0078(17)
C8 0.026(2) 0.094(4) 0.040(2) 0.028(3) -0.0040(18) -0.006(2)
C9 0.065(3) 0.0231(19) 0.037(2) 0.0020(17) -0.001(2) 0.0057(18)
C10 0.087(4) 0.024(2) 0.036(2) -0.0017(17) -0.006(2) 0.005(2)
C11 0.112(5) 0.028(2) 0.033(2) 0.0046(18) -0.012(3) 0.006(2)
C12 0.105(5) 0.034(2) 0.033(2) 0.0001(19) -0.009(3) 0.000(3)
C13 0.077(3) 0.0269(19) 0.027(2) 0.0010(16) -0.008(2) -0.001(2)
C14 0.053(2) 0.0210(17) 0.032(2) -0.0002(15) -0.0058(18) 0.0042(17)
C15 0.074(3) 0.0237(18) 0.029(2) -0.0008(16) -0.009(2) 0.003(2)
C16 0.070(3) 0.0239(19) 0.026(2) 0.0008(15) -0.003(2) -0.003(2)
S1 0.0383(18) 0.155(7) 0.037(2) 0.031(3) -0.0089(15) -0.030(3)
S2 0.107(3) 0.0216(12) 0.034(2) -0.0019(13) -0.028(2) 0.002(2)
O3 0.035(3) 0.122(8) 0.055(5) 0.039(6) -0.003(3) -0.013(6)
O5 0.082(6) 0.028(2) 0.035(3) -0.001(2) -0.006(3) 0.011(3)
S1' 0.0156(8) 0.131(4) 0.0217(10) -0.0111(15) 0.0011(7) -0.0115(13)
S2' 0.163(8) 0.0203(16) 0.0216(19) -0.0004(12) -0.015(4) 0.004(4)
O3' 0.031(4) 0.040(5) 0.021(4) 0.008(4) -0.006(3) -0.003(4)
O5' 0.023(4) 0.014(3) 0.030(3) 0.003(2) 0.001(3) -0.006(2)
loop_
_atom_type_symbol
_atom_type_description
_atom_type_scat_dispersion_real
_atom_type_scat_dispersion_imag
_atom_type_scat_source
C C 0.0181 0.0091 'International Tables Vol C Tables 4.2.6.8 and 6.1.1.4'
H H 0.0000 0.0000 'International Tables Vol C Tables 4.2.6.8 and 6.1.1.4'
N N 0.0311 0.0180 'International Tables Vol C Tables 4.2.6.8 and 6.1.1.4'
O O 0.0492 0.0322 'International Tables Vol C Tables 4.2.6.8 and 6.1.1.4'
S S 0.3331 0.5567 'International Tables Vol C Tables 4.2.6.8 and 6.1.1.4'
Zn Zn -1.5491 0.6778 'International Tables Vol C Tables 4.2.6.8 and 6.1.1.4'
loop_
_geom_angle_atom_site_label_1
_geom_angle_atom_site_label_2
_geom_angle_atom_site_label_3
_geom_angle
_geom_angle_site_symmetry_1
_geom_angle_site_symmetry_3
O1 Zn1 O2 94.7(2) . 3_644
O1 Zn1 O8 90.15(11) . 7_656
O2 Zn1 O8 108.37(11) 3_644 7_656
O1 Zn1 O8 96.73(13) . 5_655
O2 Zn1 O8 99.71(11) 3_644 5_655
O8 Zn1 O8 150.43(9) 7_656 5_655
O1 Zn1 N4 172.36(17) . 7_656
O2 Zn1 N4 91.68(19) 3_644 7_656
O8 Zn1 N4 83.84(12) 7_656 7_656
O8 Zn1 N4 86.32(12) 5_655 7_656
O1 Zn1 O7 90.51(19) . 5_655
O2 Zn1 O7 156.99(11) 3_644 5_655
O8 Zn1 O7 93.99(10) 7_656 5_655
O8 Zn1 O7 57.37(9) 5_655 5_655
N4 Zn1 O7 85.23(18) 7_656 5_655
O5 Zn2 O5 66.5(6) . 8_665
O5' Zn2 O5' 120.4(4) 8_665 .
O5 Zn2 N2 165.6(3) . 7_556
O5 Zn2 N2 101.5(3) 8_665 7_556
O5' Zn2 N2 74.9(3) 8_665 7_556
O5' Zn2 N2 162.7(3) . 7_556
O5 Zn2 N2 101.5(3) . 2_664
O5 Zn2 N2 165.6(3) 8_665 2_664
O5' Zn2 N2 162.7(3) 8_665 2_664
O5' Zn2 N2 74.9(3) . 2_664
N2 Zn2 N2 91.4(3) 7_556 2_664
O5 Zn2 O4 98.31(17) . 2_664
O5 Zn2 O4 90.93(16) 8_665 2_664
O5' Zn2 O4 86.41(18) 8_665 2_664
O5' Zn2 O4 99.10(18) . 2_664
N2 Zn2 O4 89.48(12) 7_556 2_664
N2 Zn2 O4 82.81(12) 2_664 2_664
O5 Zn2 O4 90.92(16) . 7_556
O5 Zn2 O4 98.31(17) 8_665 7_556
O5' Zn2 O4 99.10(18) 8_665 7_556
O5' Zn2 O4 86.41(18) . 7_556
N2 Zn2 O4 82.81(12) 7_556 7_556
N2 Zn2 O4 89.48(12) 2_664 7_556
O4 Zn2 O4 168.97(13) 2_664 7_556
O6 Zn3 O6 99.4(2) . 7_556
O6 Zn3 O4 102.09(11) . 7_556
O6 Zn3 O4 105.89(12) 7_556 7_556
O6 Zn3 O4 105.89(12) . .
O6 Zn3 O4 102.09(11) 7_556 .
O4 Zn3 O4 136.12(14) 7_556 .
O6 Zn3 O3 97.9(3) . .
O6 Zn3 O3 155.4(3) 7_556 .
O4 Zn3 O3 87.3(3) 7_556 .
O4 Zn3 O3 56.1(3) . .
O6 Zn3 O3 155.4(3) . 7_556
O6 Zn3 O3 97.9(3) 7_556 7_556
O4 Zn3 O3 56.1(3) 7_556 7_556
O4 Zn3 O3 87.3(3) . 7_556
O3 Zn3 O3 71.9(6) . 7_556
O6 Zn3 C8 130.77(13) . 7_556
O6 Zn3 C8 99.30(19) 7_556 7_556
O4 Zn3 C8 28.76(12) 7_556 7_556
O4 Zn3 C8 113.95(13) . 7_556
O3 Zn3 C8 82.2(3) . 7_556
O3 Zn3 C8 27.9(3) 7_556 7_556
O6 Zn3 C8 99.30(19) . .
O6 Zn3 C8 130.77(13) 7_556 .
O4 Zn3 C8 113.95(13) 7_556 .
O4 Zn3 C8 28.76(12) . .
O3 Zn3 C8 27.9(3) . .
O3 Zn3 C8 82.2(3) 7_556 .
C8 Zn3 C8 101.9(3) 7_556 .
C1 O1 Zn1 149.2(3) . .
C1 O2 Zn1 129.3(3) . 4_565
C8 O4 Zn3 100.1(2) . .
C8 O4 Zn2 136.4(3) . 2_665
Zn3 O4 Zn2 123.08(11) . 2_665
C9 O6 Zn3 129.3(3) . .
C16 O7 Zn1 85.6(3) . 5_645
C16 O8 Zn1 137.5(2) . 7_546
C16 O8 Zn1 97.2(2) . 5_645
Zn1 O8 Zn1 125.08(11) 7_546 5_645
C7 N1 S1' 106.8(3) . .
C7 N1 S1 106.1(4) . .
C6 N2 S1' 107.1(3) . .
C6 N2 S1 104.7(3) . .
C6 N2 Zn2 130.7(3) . 2_665
S1' N2 Zn2 120.2(2) . 2_665
S1 N2 Zn2 122.4(2) . 2_665
C15 N3 S2 106.6(4) . .
C15 N3 S2' 106.6(4) . .
C14 N4 S2 107.3(4) . .
C14 N4 S2' 107.6(4) . .
C14 N4 Zn1 128.8(3) . 7_546
S2 N4 Zn1 123.8(3) . 7_546
S2' N4 Zn1 120.6(4) . 7_546
O1 C1 O2 125.3(4) . .
O1 C1 C2 114.6(4) . .
O2 C1 C2 120.1(4) . .
C3 C2 C7 116.8(4) . .
C3 C2 C1 118.4(4) . .
C7 C2 C1 124.8(4) . .
C2 C3 C4 122.6(5) . .
C2 C3 H3 118.7 . .
C4 C3 H3 118.7 . .
C5 C4 C3 122.9(5) . .
C5 C4 H4 118.6 . .
C3 C4 H4 118.6 . .
C4 C5 C6 115.0(4) . .
C4 C5 C8 119.9(5) . .
C6 C5 C8 125.1(4) . .
N2 C6 C5 125.7(4) . .
N2 C6 C7 112.3(3) . .
C5 C6 C7 122.0(4) . .
N1 C7 C2 127.2(4) . .
N1 C7 C6 112.4(4) . .
C2 C7 C6 120.3(4) . .
O3 C8 O4 119.2(6) . .
O4 C8 O3' 120.6(7) . .
O3 C8 C5 119.0(6) . .
O4 C8 C5 119.1(4) . .
O3' C8 C5 118.6(7) . .
O3 C8 Zn3 69.8(5) . .
O4 C8 Zn3 51.16(19) . .
O3' C8 Zn3 71.3(6) . .
C5 C8 Zn3 170.1(4) . .
O6 C9 O5' 119.7(5) . .
O6 C9 O5 124.3(4) . .
O6 C9 C10 119.8(4) . .
O5' C9 C10 114.5(5) . .
O5 C9 C10 112.5(4) . .
C11 C10 C15 117.0(4) . .
C11 C10 C9 117.8(4) . .
C15 C10 C9 125.2(4) . .
C10 C11 C12 122.2(4) . .
C10 C11 H11 118.9 . .
C12 C11 H11 118.9 . .
C13 C12 C11 122.0(4) . .
C13 C12 H12 119.0 . .
C11 C12 H12 119.0 . .
C12 C13 C14 116.7(4) . .
C12 C13 C16 119.8(4) . .
C14 C13 C16 123.5(4) . .
N4 C14 C13 126.4(4) . .
N4 C14 C15 112.5(3) . .
C13 C14 C15 121.1(4) . .
N3 C15 C10 126.6(4) . .
N3 C15 C14 112.8(3) . .
C10 C15 C14 120.6(4) . .
O7 C16 O8 119.8(4) . .
O7 C16 C13 121.1(4) . .
O8 C16 C13 119.2(3) . .
N1 S1 N2 92.4(3) . .
N3 S2 N4 99.1(4) . .
C8 O3 Zn3 82.3(5) . .
C9 O5 Zn2 138.2(5) . .
N2 S1' N1 98.1(2) . .
N4 S2' N3 95.8(5) . .
C9 O5' Zn2 131.8(5) . .
loop_
_geom_bond_atom_site_label_1
_geom_bond_atom_site_label_2
_geom_bond_distance
_geom_bond_site_symmetry_2
Zn1 O1 1.972(3) .
Zn1 O2 2.019(3) 3_644
Zn1 O8 2.041(2) 7_656
Zn1 O8 2.105(2) 5_655
Zn1 N4 2.113(3) 7_656
Zn1 O7 2.399(3) 5_655
Zn2 O5 1.964(5) .
Zn2 O5 1.964(5) 8_665
Zn2 O5' 2.087(6) 8_665
Zn2 O5' 2.087(6) .
Zn2 N2 2.100(3) 7_556
Zn2 N2 2.100(3) 2_664
Zn2 O4 2.134(3) 2_664
Zn2 O4 2.134(3) 7_556
Zn3 O6 1.991(3) .
Zn3 O6 1.991(3) 7_556
Zn3 O4 2.046(2) 7_556
Zn3 O4 2.046(2) .
Zn3 O3 2.449(10) .
Zn3 O3 2.449(10) 7_556
Zn3 C8 2.586(4) 7_556
Zn3 C8 2.586(4) .
O1 C1 1.225(5) .
O2 C1 1.230(5) .
O2 Zn1 2.019(3) 4_565
O4 C8 1.264(5) .
O4 Zn2 2.134(3) 2_665
O6 C9 1.221(5) .
O7 C16 1.221(5) .
O7 Zn1 2.399(3) 5_645
O8 C16 1.296(5) .
O8 Zn1 2.041(2) 7_546
O8 Zn1 2.105(2) 5_645
N1 C7 1.310(6) .
N1 S1' 1.646(5) .
N1 S1 1.667(6) .
N2 C6 1.322(5) .
N2 S1' 1.603(4) .
N2 S1 1.734(7) .
N2 Zn2 2.100(3) 2_665
N3 C15 1.341(5) .
N3 S2 1.616(8) .
N3 S2' 1.663(10) .
N4 C14 1.328(5) .
N4 S2 1.617(8) .
N4 S2' 1.654(10) .
N4 Zn1 2.113(3) 7_546
C1 C2 1.503(5) .
C2 C3 1.352(7) .
C2 C7 1.408(6) .
C3 C4 1.438(7) .
C3 H3 0.9300 .
C4 C5 1.369(7) .
C4 H4 0.9300 .
C5 C6 1.410(6) .
C5 C8 1.490(6) .
C6 C7 1.453(5) .
C8 O3 1.221(11) .
C8 O3' 1.309(13) .
C9 O5' 1.265(8) .
C9 O5 1.321(7) .
C9 C10 1.502(5) .
C10 C11 1.383(6) .
C10 C15 1.410(6) .
C11 C12 1.412(6) .
C11 H11 0.9300 .
C12 C13 1.380(6) .
C12 H12 0.9300 .
C13 C14 1.414(6) .
C13 C16 1.487(5) .
C14 C15 1.433(5) .
loop_
_geom_torsion_atom_site_label_1
_geom_torsion_atom_site_label_2
_geom_torsion_atom_site_label_3
_geom_torsion_atom_site_label_4
_geom_torsion
_geom_torsion_site_symmetry_1
Zn1 O1 C1 O2 15.2(13) .
Zn1 O1 C1 C2 -163.6(7) .
Zn1 O2 C1 O1 -1.4(9) 4_565
Zn1 O2 C1 C2 177.3(4) 4_565
O1 C1 C2 C3 8.6(9) .
O2 C1 C2 C3 -170.3(7) .
O1 C1 C2 C7 -175.0(6) .
O2 C1 C2 C7 6.1(9) .
C7 C2 C3 C4 2.7(13) .
C1 C2 C3 C4 179.4(7) .
C2 C3 C4 C5 4.2(15) .
C3 C4 C5 C6 -7.5(12) .
C3 C4 C5 C8 175.0(8) .
S1' N2 C6 C5 -167.5(6) .
S1 N2 C6 C5 158.8(7) .
Zn2 N2 C6 C5 -3.9(9) 2_665
S1' N2 C6 C7 14.8(6) .
S1 N2 C6 C7 -18.8(7) .
Zn2 N2 C6 C7 178.4(4) 2_665
C4 C5 C6 N2 -173.0(7) .
C8 C5 C6 N2 4.3(10) .
C4 C5 C6 C7 4.5(10) .
C8 C5 C6 C7 -178.2(6) .
S1' N1 C7 C2 167.4(6) .
S1 N1 C7 C2 -158.2(7) .
S1' N1 C7 C6 -8.1(7) .
S1 N1 C7 C6 26.3(8) .
C3 C2 C7 N1 179.3(7) .
C1 C2 C7 N1 2.8(10) .
C3 C2 C7 C6 -5.5(9) .
C1 C2 C7 C6 178.0(5) .
N2 C6 C7 N1 -4.3(7) .
C5 C6 C7 N1 177.9(6) .
N2 C6 C7 C2 179.8(5) .
C5 C6 C7 C2 2.0(8) .
Zn3 O4 C8 O3 16.7(10) .
Zn2 O4 C8 O3 -155.9(8) 2_665
Zn3 O4 C8 O3' -17.4(8) .
Zn2 O4 C8 O3' 170.0(5) 2_665
Zn3 O4 C8 C5 177.7(5) .
Zn2 O4 C8 C5 5.1(9) 2_665
Zn2 O4 C8 Zn3 -172.6(5) 2_665
C4 C5 C8 O3 -26.4(13) .
C6 C5 C8 O3 156.4(9) .
C4 C5 C8 O4 172.6(7) .
C6 C5 C8 O4 -4.6(10) .
C4 C5 C8 O3' 7.4(11) .
C6 C5 C8 O3' -169.8(7) .
Zn3 O6 C9 O5' -27.3(8) .
Zn3 O6 C9 O5 23.9(9) .
Zn3 O6 C9 C10 -178.6(4) .
O6 C9 C10 C11 171.4(6) .
O5' C9 C10 C11 18.7(8) .
O5 C9 C10 C11 -28.6(8) .
O6 C9 C10 C15 -5.9(9) .
O5' C9 C10 C15 -158.7(6) .
O5 C9 C10 C15 154.1(7) .
C15 C10 C11 C12 -2.2(10) .
C9 C10 C11 C12 -179.8(6) .
C10 C11 C12 C13 -2.9(10) .
C11 C12 C13 C14 6.4(9) .
C11 C12 C13 C16 -175.1(5) .
S2 N4 C14 C13 171.7(5) .
S2' N4 C14 C13 -165.7(6) .
Zn1 N4 C14 C13 -5.6(8) 7_546
S2 N4 C14 C15 -8.4(6) .
S2' N4 C14 C15 14.2(7) .
Zn1 N4 C14 C15 174.3(4) 7_546
C12 C13 C14 N4 174.6(5) .
C16 C13 C14 N4 -3.8(8) .
C12 C13 C14 C15 -5.3(8) .
C16 C13 C14 C15 176.4(5) .
S2 N3 C15 C10 -172.3(5) .
S2' N3 C15 C10 165.3(7) .
S2 N3 C15 C14 8.2(7) .
S2' N3 C15 C14 -14.1(8) .
C11 C10 C15 N3 -176.2(6) .
C9 C10 C15 N3 1.2(10) .
C11 C10 C15 C14 3.2(8) .
C9 C10 C15 C14 -179.4(5) .
N4 C14 C15 N3 0.1(7) .
C13 C14 C15 N3 180.0(5) .
N4 C14 C15 C10 -179.4(5) .
C13 C14 C15 C10 0.5(8) .
Zn1 O7 C16 O8 1.3(5) 5_645
Zn1 O7 C16 C13 -179.3(5) 5_645
Zn1 O8 C16 O7 173.6(4) 7_546
Zn1 O8 C16 O7 -1.5(6) 5_645
Zn1 O8 C16 C13 -5.9(7) 7_546
Zn1 O8 C16 C13 179.1(4) 5_645
C12 C13 C16 O7 11.6(9) .
C14 C13 C16 O7 -170.1(6) .
C12 C13 C16 O8 -169.0(5) .
C14 C13 C16 O8 9.4(8) .
C7 N1 S1 N2 -32.2(8) .
C6 N2 S1 N1 29.4(7) .
Zn2 N2 S1 N1 -166.0(4) 2_665
C15 N3 S2 N4 -11.8(6) .
C14 N4 S2 N3 12.0(6) .
Zn1 N4 S2 N3 -170.5(4) 7_546
O4 C8 O3 Zn3 -13.8(8) .
C5 C8 O3 Zn3 -174.8(6) .
O6 C9 O5 Zn2 -52.7(12) .
C10 C9 O5 Zn2 148.4(7) .
C6 N2 S1' N1 -17.5(6) .
Zn2 N2 S1' N1 176.9(4) 2_665
C7 N1 S1' N2 15.1(7) .
C14 N4 S2' N3 -19.7(7) .
Zn1 N4 S2' N3 178.2(4) 7_546
C15 N3 S2' N4 19.6(8) .
O6 C9 O5' Zn2 72.7(9) .
C10 C9 O5' Zn2 -134.5(5) .
