#------------------------------------------------------------------------------
#$Date: 2017-06-21 02:52:30 +0300 (Wed, 21 Jun 2017) $
#$Revision: 198016 $
#$URL: file:///home/coder/svn-repositories/cod/cif/1/54/63/1546354.cif $
#------------------------------------------------------------------------------
#
# This file is available in the Crystallography Open Database (COD),
# http://www.crystallography.net/
#
# All data on this site have been placed in the public domain by the
# contributors.
#
data_1546354
loop_
_publ_author_name
'Luo, Jie'
'Liu, Yannan'
'Zhao, Xiaodan'
_publ_section_title
;
 Chiral Selenide-Catalyzed Enantioselective Construction of Saturated
 Trifluoromethylthiolated Azaheterocycles
;
_journal_name_full               'Organic Letters'
_journal_paper_doi               10.1021/acs.orglett.7b01392
_journal_year                    2017
_chemical_absolute_configuration unk
_chemical_formula_moiety         'C13 H15 F3 N2 O4 S2'
_chemical_formula_sum            'C13 H15 F3 N2 O4 S2'
_chemical_formula_weight         384.40
_space_group_crystal_system      orthorhombic
_space_group_IT_number           19
_space_group_name_Hall           ' P 2ac 2ab'
_space_group_name_H-M_alt        'P 21 21 21'
_symmetry_Int_Tables_number      19
_symmetry_space_group_name_Hall  'P 2ac 2ab'
_symmetry_space_group_name_H-M   'P 21 21 21'
_atom_sites_solution_primary     iterative
_audit_creation_date             2017-03-22
_audit_creation_method
;
Olex2 1.2
(compiled 2017.01.04 svn.r3372 for OlexSys, GUI svn.r5292)
;
_cell_angle_alpha                90
_cell_angle_beta                 90
_cell_angle_gamma                90
_cell_formula_units_Z            4
_cell_length_a                   6.3432(2)
_cell_length_b                   12.8646(6)
_cell_length_c                   20.0976(8)
_cell_measurement_reflns_used    1955
_cell_measurement_temperature    298
_cell_measurement_theta_max      23.4760
_cell_measurement_theta_min      3.4320
_cell_volume                     1640.02(11)
_computing_cell_refinement
;
CrysAlisPro, Agilent Technologies,
Version 1.171.36.28 (release 01-02-2013 CrysAlis171 .NET)
(compiled Feb  1 2013,16:14:44)
;
_computing_data_collection
;
CrysAlisPro, Agilent Technologies,
Version 1.171.36.28 (release 01-02-2013 CrysAlis171 .NET)
(compiled Feb  1 2013,16:14:44)
;
_computing_data_reduction
;
CrysAlisPro, Agilent Technologies,
Version 1.171.36.28 (release 01-02-2013 CrysAlis171 .NET)
(compiled Feb  1 2013,16:14:44)
;
_computing_molecular_graphics    'Olex2 (Dolomanov et al., 2009)'
_computing_publication_material  'Olex2 (Dolomanov et al., 2009)'
_computing_structure_refinement  'olex2.refine (Bourhis et al., 2015)'
_computing_structure_solution    'olex2.solve (Bourhis et al., 2015)'
_diffrn_ambient_temperature      298
_diffrn_detector_area_resol_mean 16.0855
_diffrn_measured_fraction_theta_full 0.9979
_diffrn_measured_fraction_theta_max 0.9979
_diffrn_measurement_details
;
#__ type_ start__ end____ width___ exp.time_
  1 omega  -13.00   51.00   1.0000   70.0000
omega____ theta____ kappa____ phi______ frames
    -      -18.0610   57.0000  120.0000 64

#__ type_ start__ end____ width___ exp.time_
  2 omega  -87.00  -12.00   1.0000   70.0000
omega____ theta____ kappa____ phi______ frames
    -      -18.0610  -57.0000  150.0000 75

#__ type_ start__ end____ width___ exp.time_
  3 omega   56.00   83.00   1.0000   70.0000
omega____ theta____ kappa____ phi______ frames
    -       18.0610 -138.0000  -16.0000 27

#__ type_ start__ end____ width___ exp.time_
  4 omega    5.00   49.00   1.0000   70.0000
omega____ theta____ kappa____ phi______ frames
    -       18.0610  -99.0000  -30.0000 44
;
_diffrn_measurement_device_type  'Xcalibur, Sapphire3, Gemini ultra'
_diffrn_measurement_method       '\w scans'
_diffrn_orient_matrix_UB_11      0.1082986000
_diffrn_orient_matrix_UB_12      0.0137049000
_diffrn_orient_matrix_UB_13      0.0002704000
_diffrn_orient_matrix_UB_21      0.0277288000
_diffrn_orient_matrix_UB_22      -0.0532366000
_diffrn_orient_matrix_UB_23      0.0027315000
_diffrn_orient_matrix_UB_31      0.0029992000
_diffrn_orient_matrix_UB_32      -0.0040654000
_diffrn_orient_matrix_UB_33      -0.0351908000
_diffrn_radiation_monochromator  graphite
_diffrn_radiation_type           'Mo K\a'
_diffrn_radiation_wavelength     0.71073
_diffrn_reflns_av_R_equivalents  0.0310
_diffrn_reflns_av_unetI/netI     0.0520
_diffrn_reflns_limit_h_max       8
_diffrn_reflns_limit_h_min       -7
_diffrn_reflns_limit_k_max       14
_diffrn_reflns_limit_k_min       -17
_diffrn_reflns_limit_l_max       26
_diffrn_reflns_limit_l_min       -25
_diffrn_reflns_number            6702
_diffrn_reflns_theta_full        24.9924
_diffrn_reflns_theta_max         24.99
_diffrn_reflns_theta_min         3.17
_diffrn_source                   'Enhance (Mo) X-ray Source'
_exptl_absorpt_coefficient_mu    0.377
_exptl_absorpt_correction_T_max  1.00000
_exptl_absorpt_correction_T_min  0.86956
_exptl_absorpt_correction_type   multi-scan
_exptl_absorpt_process_details
;
CrysAlisPro, Agilent Technologies,
Version 1.171.36.28 (release 01-02-2013 CrysAlis171 .NET)
(compiled Feb  1 2013,16:14:44)
Empirical absorption correction using spherical harmonics,
 implemented in SCALE3 ABSPACK scaling algorithm.
;
_exptl_crystal_colour            colourless
_exptl_crystal_colour_primary    colourless
_exptl_crystal_density_diffrn    1.5567
_exptl_crystal_description       block
_exptl_crystal_F_000             793.5209
_exptl_crystal_size_max          0.05
_exptl_crystal_size_mid          0.04
_exptl_crystal_size_min          0.04
_refine_diff_density_max         0.3027
_refine_diff_density_min         -0.2640
_refine_diff_density_rms         0.0613
_refine_ls_abs_structure_details
'Flack, H. D. (1983). Acta Cryst. A39, 876-881.'
_refine_ls_abs_structure_Flack   0.18(14)
_refine_ls_d_res_high            0.8411
_refine_ls_d_res_low             6.4323
_refine_ls_goodness_of_fit_ref   1.0667
_refine_ls_hydrogen_treatment    constr
_refine_ls_matrix_type           full
_refine_ls_number_constraints    25
_refine_ls_number_parameters     217
_refine_ls_number_reflns         2891
_refine_ls_number_restraints     0
_refine_ls_restrained_S_all      1.0667
_refine_ls_R_factor_all          0.0568
_refine_ls_R_factor_gt           0.0488
_refine_ls_shift/su_max          0.0000
_refine_ls_shift/su_mean         0.0000
_refine_ls_structure_factor_coef Fsqd
_refine_ls_weighting_details
'w=1/[\s^2^(Fo^2^)+(0.0590P)^2^+0.2280P] where P=(Fo^2^+2Fc^2^)/3'
_refine_ls_weighting_scheme      calc
_refine_ls_wR_factor_gt          0.1125
_refine_ls_wR_factor_ref         0.1172
_reflns_Friedel_coverage         0.999
_reflns_limit_h_max              7
_reflns_limit_h_min              -7
_reflns_limit_k_max              15
_reflns_limit_k_min              -15
_reflns_limit_l_max              23
_reflns_limit_l_min              -23
_reflns_number_gt                2579
_reflns_number_total             2891
_reflns_threshold_expression     I>=2u(I)
_iucr_refine_instructions_details
;
TITL 
CELL 0.71073 6.343223 12.86456 20.097574 90 90 90
ZERR 4 0.000222 0.000568 0.000822 0 0 0
LATT -1
SYMM 0.5-X,-Y,0.5+Z
SYMM 0.5+X,0.5-Y,-Z
SYMM -X,0.5+Y,0.5-Z
SFAC C H F N O S
UNIT 52 60 12 8 16 8

L.S. 4
PLAN  20
FMAP 2
MORE -1
BOND $H
ACTA 
CONF 
OMIT -3 50
WGHT 0.059 0.228
FVAR 5.116567
REM <olex2.extras>
REM <HklSrc "%.\\exp_21168.hkl">
REM </olex2.extras>

S1    6     0.35996  0.27515  0.68694  11.00000  0.04333  0.03835  0.05211 =
 0.00395  0.00803  0.00843 
S2    6     0.24851  0.29020  0.89328  11.00000  0.06154  0.05511  0.05889 =
 0.01254 -0.00984 -0.01308 
O4    5     0.26788  0.17746  0.70430  11.00000  0.07039  0.03174  0.06484 =
 0.00416  0.01134  0.00264 
O3    5     0.57994  0.28250  0.67334  11.00000  0.04369  0.07447  0.07381 =
 0.01370  0.01019  0.01452 
C5    1     0.02323  0.28508  0.60158  11.00000  0.05224  0.03711  0.04763 =
 -0.00018  0.00967 -0.00745 
AFIX 43
H5    2    -0.03859  0.23531  0.62889  11.00000 -1.20000 
AFIX 0
N1    4    -0.10973  0.44250  0.45207  11.00000  0.06497  0.04191  0.05043 =
 -0.00456 -0.00524 -0.01051 
N2    4     0.30607  0.35555  0.74624  11.00000  0.04217  0.03446  0.04458 =
 0.00440  0.00190 -0.00181 
O2    5    -0.30076  0.43291  0.45322  11.00000  0.06171  0.07705  0.07718 =
 0.00282 -0.01526  0.00336 
C9    1     0.21335  0.43243  0.51932  11.00000  0.05256  0.04108  0.04620 =
 0.00432  0.00874 -0.00419 
AFIX 43
H9    2     0.27576  0.48024  0.49074  11.00000 -1.20000 
AFIX 0
O1    5    -0.01206  0.48546  0.40817  11.00000  0.08841  0.09285  0.05988 =
 0.02196 -0.00508 -0.02385 
C11   1     0.22672  0.32046  0.61451  11.00000  0.04037  0.03360  0.04424 =
 -0.00620  0.00596  0.00353 
F1    3     0.41218  0.14992  0.96570  11.00000  0.13811  0.11913  0.11434 =
 0.05218 -0.04466  0.00686 
C13   1     0.09090  0.35843  0.77502  11.00000  0.04019  0.03556  0.04817 =
 -0.00284 -0.00136  0.00472 
AFIX 13
H13   2    -0.01053  0.34803  0.73885  11.00000 -1.20000 
AFIX 0
C14   1     0.05104  0.27651  0.82733  11.00000  0.04197  0.03836  0.05005 =
 -0.00427  0.00406 -0.00720 
AFIX 13
H14   2     0.07050  0.20825  0.80658  11.00000 -1.20000 
AFIX 0
C15   1    -0.17434  0.28204  0.85383  11.00000  0.04545  0.07411  0.07336 =
 -0.00080  0.00593 -0.00683 
AFIX 137
H15a  2    -0.19609  0.22752  0.88572  11.00000 -1.50000 
H15b  2    -0.19684  0.34818  0.87478  11.00000 -1.50000 
H15c  2    -0.27175  0.27389  0.81765  11.00000 -1.50000 
AFIX 0
C16   1    -0.08508  0.32450  0.54806  11.00000  0.04365  0.03795  0.05635 =
 -0.00726  0.00567 -0.00448 
AFIX 43
H16   2    -0.22092  0.30160  0.53867  11.00000 -1.20000 
AFIX 0
C17   1     0.32148  0.39398  0.57341  11.00000  0.04206  0.04047  0.05195 =
 -0.00024  0.00778 -0.00480 
AFIX 43
H17   2     0.45742  0.41707  0.58246  11.00000 -1.20000 
AFIX 0
C18   1     0.26083  0.16064  0.92161  11.00000  0.09154  0.06049  0.08043 =
 0.01761 -0.00871  0.00369 
C19   1     0.21638  0.53152  0.75401  11.00000  0.09691  0.03085  0.09196 =
 0.00621 -0.01574  0.00075 
AFIX 23
H19a  2     0.14892  0.54510  0.71158  11.00000 -1.20000 
H19b  2     0.25738  0.59719  0.77389  11.00000 -1.20000 
AFIX 0
C20   1     0.07135  0.47230  0.79944  11.00000  0.06138  0.03842  0.07756 =
 -0.00201 -0.00016  0.01331 
AFIX 23
H20a  2    -0.07254  0.49703  0.79538  11.00000 -1.20000 
H20b  2     0.11573  0.47868  0.84545  11.00000 -1.20000 
AFIX 0
C21   1     0.00929  0.39804  0.50859  11.00000  0.04758  0.03269  0.04568 =
 -0.00607  0.00041 -0.00040 
F3    3     0.29368  0.09331  0.87728  11.00000  0.37436  0.09777  0.13769 =
 -0.02784 -0.07404  0.13680 
C23   1     0.40424  0.46183  0.74531  11.00000  0.06758  0.04420  0.05525 =
 -0.00249 -0.00184 -0.02334 
AFIX 23
H23a  2     0.50402  0.47030  0.78148  11.00000 -1.20000 
H23b  2     0.47506  0.47514  0.70339  11.00000 -1.20000 
AFIX 0
F2    3     0.09155  0.13129  0.95210  11.00000  0.12536  0.12031  0.27490 =
 0.12635  0.00585 -0.03028 
HKLF 4

END
Q1 1 0.15 0.1 0.9 11 0.05 0.3
Q2 1 0.1 0.275 0.883333 11 0.05 0.29
Q3 1 0.4 0.125 0.866667 11 0.05 0.26
Q4 1 0.35 0.3 0.633333 11 0.05 0.26
Q5 1 0.2 0.075 0.85 11 0.05 0.24

  REM The information below was added by Olex2.
  REM
  REM R1 = 0.0488 for 2579 Fo > 4sig(Fo) and 0.0568 for all 2891 data
  REM 217 parameters refined using 0 restraints
  REM Highest difference peak 0.3027, deepest hole -0.2640
  REM Mean Shift 0.0000, Max Shift 0.0000.

  REM +++ Tabular Listing of Refinement Information +++
  REM R1_all = 0.0568
  REM R1_gt = 0.0488
  REM wR_ref = 0.1172
  REM GOOF = 1.0667
  REM Shift_max = 0.0000
  REM Shift_mean = 0.0000
  REM Reflections_all = 2891
  REM Reflections_gt = 2579
  REM Parameters = 217
  REM Hole = -0.2640
  REM Peak = 0.3027
  REM Flack = 0.18(14)

  
;
_cod_data_source_file            ol7b01392_si_003.cif
_cod_data_source_block           exp_21168
_cod_database_code               1546354
_reflns_odcompleteness_completeness 99.54
_reflns_odcompleteness_iscentric 1
_reflns_odcompleteness_theta     26.32
_olex2_refinement_description
;
1. Fixed Uiso
 At 1.2 times of:
  All C(H) groups, All C(H,H) groups
 At 1.5 times of:
  All C(H,H,H) groups
2.a Ternary CH refined with riding coordinates:
 C13(H13), C14(H14)
2.b Secondary CH2 refined with riding coordinates:
 C19(H19a,H19b), C20(H20a,H20b), C23(H23a,H23b)
2.c Aromatic/amide H refined with riding coordinates:
 C5(H5), C9(H9), C16(H16), C17(H17)
2.d Idealised Me refined as rotating group:
 C15(H15a,H15b,H15c)
;
_iucr_refine_fcf_details
;
data_exp_21168
_computing_structure_refinement   'olex2.refine (Bourhis et al., 2015)'
_shelx_refln_list_code            4
loop_
  _space_group_symop_id
  _space_group_symop_operation_xyz
  1  x,y,z
  2  x+1/2,-y+1/2,-z
  3  -x,y+1/2,-z+1/2
  4  -x+1/2,-y,z+1/2

_space_group_crystal_system       orthorhombic
_space_group_IT_number            19
_space_group_name_H-M_alt         'P 21 21 21'
_space_group_name_Hall            ' P 2ac 2ab'
_symmetry_space_group_name_H-M    'P 21 21 21'
_symmetry_space_group_name_Hall   ' P 2ac 2ab'
_symmetry_Int_Tables_number       19
_cell_length_a                    6.3432(2)
_cell_length_b                    12.8646(6)
_cell_length_c                    20.0976(8)
_cell_angle_alpha                 90
_cell_angle_beta                  90
_cell_angle_gamma                 90
_cell_volume                      1640.02(11)
loop_
  _refln_index_h
  _refln_index_k
  _refln_index_l
  _refln_F_squared_calc
  _refln_F_squared_meas
  _refln_F_squared_sigma
  _refln_F_squared_weight
  _refln_observed_status
-7 -5 -4 32.785 46.436 9.615 77.441 o
-7 -5 -3 2.936 13.876 5.565 251.198 o
-7 -5 -2 13.332 18.464 6.069 199.629 o
-7 -5 -1 8.184 22.115 10.530 71.648 o
-7 -4 -6 55.505 53.573 12.055 48.688 o
-7 -4 -5 13.232 20.267 6.378 181.776 o
-7 -4 -4 0.088 11.597 6.459 192.059 o
-7 -4 -3 29.811 43.536 7.944 109.175 o
-7 -4 -2 5.960 22.703 6.373 187.487 o
-7 -4 -1 56.459 58.488 8.775 80.820 o
-7 -3 -7 25.773 44.083 12.550 48.687 o
-7 -3 -6 10.987 15.834 10.241 75.656 o
-7 -3 -5 3.253 13.490 5.313 274.027 o
-7 -3 -4 89.051 98.025 10.520 50.851 o
-7 -3 -3 33.660 51.305 8.298 98.349 o
-7 -3 -2 8.231 14.308 5.509 247.881 o
-7 -3 -1 16.064 15.277 5.380 245.193 o
-7 -2 -8 20.568 21.569 9.754 80.783 o
-7 -2 -7 36.512 53.172 12.852 45.288 o
-7 -2 -6 28.125 36.151 10.810 64.424 o
-7 -2 -5 15.896 19.191 8.698 101.751 o
-7 -2 -4 21.366 25.920 6.645 160.046 o
-7 -2 -3 6.901 22.504 6.010 208.005 o
-7 -2 -2 36.944 50.106 8.165 99.887 o
-7 -2 -1 53.099 47.212 7.415 108.177 o
-7 -1 -8 15.538 31.132 11.938 55.095 o
-7 -1 -7 39.835 52.926 13.353 41.984 o
-7 -1 -6 9.627 13.686 8.455 110.128 o
-7 -1 -5 11.508 19.633 9.164 93.207 o
-7 -1 -4 4.773 27.242 9.545 86.772 o
-7 -1 -3 11.077 15.133 9.990 79.421 o
-7 -1 -2 35.080 42.663 7.788 110.508 o
-7 -1 -1 18.658 20.239 7.492 132.623 o
-6 -9 -3 25.064 20.194 10.514 69.566 o
-6 -9 -2 79.736 88.263 16.617 25.714 o
-6 -9 -1 58.924 51.966 13.803 38.189 o
-6 -8 -7 25.101 38.471 7.688 118.964 o
-6 -8 -6 13.505 17.849 5.664 225.915 o
-6 -8 -5 10.580 20.583 5.882 213.173 o
-6 -8 -4 44.431 48.833 12.495 47.115 o
-6 -8 -3 36.013 45.473 11.995 51.815 o
-6 -8 -2 30.263 38.791 11.826 54.186 o
-6 -8 -1 25.411 40.706 11.652 56.140 o
-6 -7 -9 36.351 38.984 7.692 113.056 o
-6 -7 -8 30.307 42.366 7.744 113.961 o
-6 -7 -7 23.070 32.083 6.913 146.062 o
-6 -7 -6 57.455 56.046 8.400 86.383 o
-6 -7 -5 38.833 41.661 10.677 63.736 o
-6 -7 -4 54.018 62.987 8.732 81.491 o
-6 -7 -3 47.862 74.563 9.550 71.033 o
-6 -7 -2 99.748 126.918 18.347 20.352 o
-6 -7 -1 182.031 207.451 22.810 11.875 o
-6 -6 -11 11.012 12.926 7.229 147.949 o
-6 -6 -10 17.307 28.831 6.067 189.743 o
-6 -6 -9 0.430 8.467 4.546 382.809 o
-6 -6 -8 32.834 37.538 6.686 144.612 o
-6 -6 -7 49.238 54.364 15.961 29.753 o
-6 -6 -6 8.994 8.799 4.689 337.237 o
-6 -6 -5 60.466 66.325 14.091 36.200 o
-6 -6 -4 51.151 48.820 7.939 98.311 o
-6 -6 -3 85.036 96.517 9.624 58.376 o
-6 -6 -2 33.013 39.103 10.914 62.373 o
-6 -6 -1 70.396 72.887 21.997 15.827 o
-6 -5 -12 96.160 99.146 15.715 27.137 o
-6 -5 -11 56.129 62.107 12.582 44.699 o
-6 -5 -10 0.687 10.990 5.136 299.356 o
-6 -5 -9 79.623 85.543 11.575 46.622 o
-6 -5 -8 123.610 127.559 11.107 39.746 o
-6 -5 -7 2.706 10.665 7.014 162.186 o
-6 -5 -6 26.084 33.010 6.051 178.566 o
-6 -5 -5 0.157 3.778 3.217 768.182 o
-6 -5 -4 62.114 64.342 6.472 117.119 o
-6 -5 -3 39.634 57.539 6.201 146.106 o
-6 -5 -2 45.610 48.215 7.591 108.195 o
-6 -5 -1 259.528 241.688 15.292 15.896 o
-6 -4 -13 24.486 34.188 7.739 118.959 o
-6 -4 -12 20.565 21.883 6.038 191.522 o
-6 -4 -11 16.619 18.243 6.161 191.024 o
-6 -4 -10 2.030 8.349 7.790 132.849 o
-6 -4 -9 2.657 2.155 3.320 705.873 o
-6 -4 -8 47.929 49.103 10.179 66.749 o
-6 -4 -7 35.364 40.744 5.562 185.354 o
-6 -4 -6 36.850 44.386 5.693 175.186 o
-6 -4 -5 12.049 10.128 3.162 627.671 o
-6 -4 -4 8.850 9.624 3.402 587.934 o
-6 -4 -3 185.060 171.169 12.728 25.893 o
-6 -4 -2 107.735 94.980 10.005 50.905 o
-6 -4 -1 5.934 11.556 4.740 335.067 o
-6 -3 -13 88.575 92.827 11.257 46.710 o
-6 -3 -12 52.182 57.879 8.753 82.659 o
-6 -3 -11 82.023 90.567 10.407 53.654 o
-6 -3 -10 40.733 45.825 7.463 114.385 o
-6 -3 -9 84.508 81.237 9.437 61.940 o
-6 -3 -8 207.445 231.087 14.806 19.070 o
-6 -3 -7 50.312 52.340 5.733 153.032 o
-6 -3 -6 12.907 17.468 3.839 436.932 o
-6 -3 -5 59.582 52.085 5.836 140.260 o
-6 -3 -4 30.046 22.317 4.247 304.345 o
-6 -3 -3 87.763 95.872 9.729 56.997 o
-6 -3 -2 227.377 240.999 14.972 17.650 o
-6 -3 -1 19.864 31.576 6.034 187.123 o
-6 -2 -14 5.109 13.973 5.688 238.070 o
-6 -2 -13 38.327 40.186 7.862 107.860 o
-6 -2 -12 44.696 43.156 7.388 114.684 o
-6 -2 -11 85.080 88.415 10.229 54.573 o
-6 -2 -10 46.657 44.529 7.329 114.547 o
-6 -2 -9 10.524 14.079 4.983 292.899 o
-6 -2 -8 21.239 23.488 5.746 206.342 o
-6 -2 -7 31.532 36.374 5.055 221.859 o
-6 -2 -6 38.471 42.276 5.305 191.917 o
-6 -2 -5 8.679 4.258 5.733 236.206 o
-6 -2 -4 116.461 123.196 8.002 58.468 o
-6 -2 -3 191.031 196.379 13.389 23.237 o
-6 -2 -2 96.706 98.153 9.311 57.817 o
-6 -2 -1 6.986 16.502 4.775 321.709 o
-6 -1 -14 80.431 90.407 16.154 26.912 o
-6 -1 -13 29.288 34.638 10.667 65.965 o
-6 -1 -12 0.483 11.334 5.638 249.945 o
-6 -1 -11 147.903 143.607 12.549 30.858 o
-6 -1 -10 112.156 97.142 13.947 31.647 o
-6 -1 -9 97.975 105.193 10.568 48.304 o
-6 -1 -8 139.480 157.146 12.257 31.892 o
-6 -1 -7 39.962 45.678 5.102 196.630 o
-6 -1 -6 141.443 133.329 8.245 49.178 o
-6 -1 -5 38.056 33.712 4.762 229.607 o
-6 -1 -4 46.063 48.467 11.913 51.136 o
-6 -1 -3 14.625 16.365 6.539 174.257 o
-6 -1 -2 6.628 13.227 4.659 341.572 o
-6 -1 -1 112.864 122.360 10.096 46.757 o
-5 -11 -4 49.303 39.940 12.646 46.065 o
-5 -11 -3 31.934 45.709 11.899 53.014 o
-5 -11 -2 12.546 16.863 9.533 86.491 o
-5 -11 -1 4.788 11.471 10.361 75.097 o
-5 -10 -8 68.329 72.377 14.639 33.165 o
-5 -10 -7 8.362 10.243 7.603 136.251 o
-5 -10 -6 28.638 37.101 10.401 68.974 o
-5 -10 -5 51.208 56.629 12.564 45.591 o
-5 -10 -4 7.962 16.570 10.484 72.652 o
-5 -10 -3 252.386 250.723 25.664 8.747 o
-5 -10 -2 21.009 31.341 10.447 70.163 o
-5 -10 -1 149.710 158.015 14.531 25.070 o
-5 -9 -11 22.910 21.473 6.413 170.731 o
-5 -9 -10 2.595 4.126 5.294 284.863 o
-5 -9 -9 8.524 5.017 8.440 112.096 o
-5 -9 -8 125.632 154.012 19.364 17.461 o
-5 -9 -7 33.344 52.308 12.753 46.254 o
-5 -9 -6 47.651 61.741 13.159 42.099 o
-5 -9 -5 26.544 19.610 9.368 85.955 o
-5 -9 -4 43.090 58.283 12.130 49.310 o
-5 -9 -3 13.891 16.148 8.001 120.323 o
-5 -9 -2 61.788 68.555 13.660 38.029 o
-5 -9 -1 88.476 93.035 15.770 27.553 o
-5 -8 -12 1.289 5.525 8.752 106.083 o
-5 -8 -11 105.507 106.066 11.308 42.934 o
-5 -8 -10 12.715 16.144 5.618 231.511 o
-5 -8 -9 39.578 50.144 9.326 79.347 o
-5 -8 -8 1.452 12.259 5.196 290.219 o
-5 -8 -7 8.810 0.938 5.312 275.372 o
-5 -8 -6 67.438 71.214 13.053 40.469 o
-5 -8 -5 40.319 34.258 10.298 68.347 o
-5 -8 -4 135.129 144.434 13.113 30.351 o
-5 -8 -3 313.027 301.097 26.555 7.395 o
-5 -8 -2 52.540 71.058 13.783 38.050 o
-5 -8 -1 327.418 340.313 28.835 6.352 o
-5 -7 -14 11.813 21.706 9.189 92.412 o
-5 -7 -13 14.918 24.903 6.575 168.774 o
-5 -7 -12 7.858 11.874 4.844 316.957 o
-5 -7 -11 138.675 136.708 12.209 33.198 o
-5 -7 -10 3.958 11.547 4.856 325.137 o
-5 -7 -9 120.761 132.742 11.625 37.631 o
-5 -7 -8 231.872 217.263 14.855 18.136 o
-5 -7 -7 27.931 34.147 7.180 133.182 o
-5 -7 -6 217.119 218.881 21.345 12.226 o
-5 -7 -5 35.714 41.880 10.701 63.975 o
-5 -7 -4 107.288 104.329 15.538 26.866 o
-5 -7 -3 13.667 19.517 8.006 119.616 o
-5 -7 -2 159.292 167.585 19.306 16.353 o
-5 -7 -1 174.507 178.700 20.142 14.804 o
-5 -6 -15 2.782 12.117 8.572 109.333 o
-5 -6 -14 38.629 55.808 13.242 42.612 o
-5 -6 -13 98.024 114.215 12.928 35.947 o
-5 -6 -12 108.368 110.574 29.014 9.023 o
-5 -6 -11 165.482 170.693 21.591 13.620 o
-5 -6 -10 62.900 71.102 8.695 77.619 o
-5 -6 -9 10.779 6.225 9.056 97.070 o
-5 -6 -8 2.323 4.908 4.403 406.751 o
-5 -6 -7 94.816 82.877 8.736 65.164 o
-5 -6 -6 15.684 11.115 4.522 336.217 o
-5 -6 -5 179.216 194.431 12.916 25.054 o
-5 -6 -4 255.397 284.168 23.783 9.414 o
-5 -6 -3 503.296 483.360 31.642 4.153 o
-5 -6 -2 388.821 402.834 28.629 5.658 o
-5 -6 -1 260.065 281.714 23.797 9.355 o
-5 -5 -16 27.288 31.361 9.897 76.335 o
-5 -5 -15 16.602 26.000 8.994 94.456 o
-5 -5 -14 25.065 34.725 10.777 65.357 o
-5 -5 -13 51.302 57.186 7.642 101.893 o
-5 -5 -12 9.584 16.785 5.230 267.953 o
-5 -5 -11 23.480 35.744 11.860 54.778 o
-5 -5 -10 8.808 16.432 4.762 318.656 o
-5 -5 -9 82.573 74.883 8.492 72.753 o
-5 -5 -8 323.209 321.729 24.150 8.039 o
-5 -5 -7 283.766 283.474 21.602 10.099 o
-5 -5 -6 415.359 388.222 40.116 3.599 o
-5 -5 -5 6.241 10.548 4.696 341.348 o
-5 -5 -4 355.324 324.497 16.100 10.892 o
-5 -5 -3 208.266 229.371 20.714 12.813 o
-5 -5 -2 135.979 149.828 17.314 20.454 o
-5 -5 -1 111.386 121.644 14.480 29.086 o
-5 -4 -16 19.227 11.816 7.853 123.284 o
-5 -4 -15 35.986 26.485 9.055 87.901 o
-5 -4 -14 35.684 36.739 10.568 65.864 o
-5 -4 -13 65.788 73.591 13.278 39.360 o
-5 -4 -12 264.284 279.706 15.614 14.687 o
-5 -4 -11 148.095 162.704 15.084 23.830 o
-5 -4 -10 44.737 37.857 6.021 156.988 o
-5 -4 -9 0.901 5.775 5.437 271.722 o
-5 -4 -8 240.792 225.523 16.313 15.966 o
-5 -4 -7 9.773 3.238 3.996 457.844 o
-5 -4 -6 10.658 3.508 3.278 636.660 o
-5 -4 -5 166.010 184.787 29.601 8.043 o
-5 -4 -4 691.668 681.937 23.060 3.504 o
-5 -4 -3 313.024 308.315 28.662 6.661 o
-5 -4 -2 368.745 369.236 20.423 8.405 o
-5 -4 -1 477.192 442.002 14.331 7.689 o
-5 -3 -17 99.715 119.001 17.893 21.363 o
-5 -3 -16 33.779 33.086 10.086 72.321 o
-5 -3 -15 10.700 10.451 8.508 108.978 o
-5 -3 -14 21.633 31.198 8.976 92.731 o
-5 -3 -13 23.360 25.047 8.386 105.365 o
-5 -3 -12 35.396 37.358 9.433 80.557 o
-5 -3 -11 1.891 2.111 5.647 253.268 o
-5 -3 -10 152.780 155.874 8.310 43.944 o
-5 -3 -9 97.340 87.935 6.216 90.042 o
-5 -3 -8 510.054 495.943 18.645 6.062 o
-5 -3 -7 552.911 579.707 19.697 5.074 o
-5 -3 -6 160.565 172.952 10.964 32.493 o
-5 -3 -5 99.558 85.110 6.586 85.159 o
-5 -3 -4 416.276 428.416 14.284 8.957 o
-5 -3 -3 380.827 381.442 13.204 10.689 o
-5 -3 -2 71.343 74.748 7.977 83.241 o
-5 -3 -1 15.534 22.916 4.362 337.803 o
-5 -2 -17 1.370 18.428 6.372 193.320 o
-5 -2 -16 57.684 51.921 8.530 85.096 o
-5 -2 -15 6.760 7.969 6.927 164.548 o
-5 -2 -14 0.540 -3.503 11.384 63.184 o
-5 -2 -13 24.352 16.365 5.065 254.182 o
-5 -2 -12 222.212 226.641 15.312 17.828 o
-5 -2 -11 58.528 60.910 4.904 164.459 o
-5 -2 -10 483.286 439.679 12.558 7.960 o
-5 -2 -9 323.268 322.736 12.092 14.049 o
-5 -2 -8 37.485 32.249 4.018 285.118 o
-5 -2 -7 42.136 43.854 4.596 220.238 o
-5 -2 -6 202.949 219.761 10.942 25.713 o
-5 -2 -5 434.481 413.086 13.875 8.852 o
-5 -2 -4 287.614 253.794 10.556 18.612 o
-5 -2 -3 266.801 284.880 11.047 18.483 o
-5 -2 -2 893.844 902.649 20.552 2.392 o
-5 -2 -1 85.071 70.543 5.403 117.244 o
-5 -1 -17 146.379 146.523 13.886 27.238 o
-5 -1 -16 14.758 11.884 5.144 270.675 o
-5 -1 -15 21.121 14.926 5.128 256.801 o
-5 -1 -14 15.357 8.903 4.179 388.717 o
-5 -1 -13 4.798 6.532 4.142 443.415 o
-5 -1 -12 105.924 120.121 14.207 30.384 o
-5 -1 -11 225.597 244.689 12.805 20.275 o
-5 -1 -10 5.795 11.634 2.680 894.725 o
-5 -1 -9 327.106 324.119 16.863 11.242 o
-5 -1 -8 112.298 112.326 9.488 51.363 o
-5 -1 -7 806.260 730.501 19.545 3.054 o
-5 -1 -6 25.694 32.359 4.222 304.572 o
-5 -1 -5 101.329 76.946 5.801 96.242 o
-5 -1 -4 61.640 64.180 5.305 146.383 o
-5 -1 -3 544.176 590.599 21.186 4.916 o
-5 -1 -2 108.504 110.278 7.548 66.472 o
-5 -1 -1 16.368 14.590 2.730 687.533 o
-4 -12 -7 26.527 13.112 8.926 94.847 o
-4 -12 -6 61.047 56.097 13.896 37.431 o
-4 -12 -5 73.317 78.077 16.390 26.845 o
-4 -12 -4 58.716 56.119 13.177 41.289 o
-4 -12 -3 15.728 12.878 8.710 102.432 o
-4 -12 -2 24.054 30.851 10.258 72.115 o
-4 -12 -1 31.714 53.107 14.402 36.989 o
-4 -11 -10 8.099 22.777 10.071 78.065 o
-4 -11 -9 28.538 37.788 11.183 60.367 o
-4 -11 -8 19.131 25.616 9.992 77.100 o
-4 -11 -7 17.209 45.232 12.039 53.405 o
-4 -11 -6 4.720 17.501 9.475 88.975 o
-4 -11 -5 32.958 31.659 11.409 58.005 o
-4 -11 -4 77.939 93.781 15.852 27.838 o
-4 -11 -3 59.109 66.258 14.044 36.512 o
-4 -11 -2 122.938 106.359 17.349 21.809 o
-4 -11 -1 279.669 245.748 25.146 8.679 o
-4 -10 -12 38.900 40.666 8.044 103.540 o
-4 -10 -11 2.286 14.339 8.688 106.334 o
-4 -10 -10 50.802 52.708 11.960 49.974 o
-4 -10 -9 14.770 21.755 8.460 107.140 o
-4 -10 -8 68.194 60.798 13.070 40.797 o
-4 -10 -7 86.068 98.523 16.430 25.700 o
-4 -10 -6 18.625 17.101 8.586 103.740 o
-4 -10 -5 6.418 6.818 7.653 136.092 o
-4 -10 -4 8.822 14.743 8.779 102.502 o
-4 -10 -3 154.219 159.359 20.308 15.385 o
-4 -10 -2 60.253 72.456 14.004 36.390 o
-4 -10 -1 119.023 115.359 12.212 36.533 o
-4 -9 -14 67.343 76.047 10.319 58.664 o
-4 -9 -13 66.445 85.563 10.683 54.929 o
-4 -9 -12 129.889 142.892 13.288 30.361 o
-4 -9 -11 1.622 9.313 4.719 351.910 o
-4 -9 -10 54.184 58.928 12.488 45.652 o
-4 -9 -9 34.225 33.415 9.648 78.166 o
-4 -9 -8 12.944 18.744 7.688 129.534 o
-4 -9 -7 44.727 43.634 10.908 60.272 o
-4 -9 -6 23.180 19.909 9.273 88.374 o
-4 -9 -5 78.330 83.122 14.332 33.327 o
-4 -9 -4 72.548 59.274 12.467 43.792 o
-4 -9 -3 30.452 33.962 10.639 66.146 o
-4 -9 -2 489.595 504.429 23.851 5.345 o
-4 -9 -1 315.464 313.630 27.040 7.138 o
-4 -8 -15 26.155 22.900 9.680 80.645 o
-4 -8 -14 19.537 9.741 11.992 55.203 o
-4 -8 -13 33.609 22.771 5.888 183.542 o
-4 -8 -12 32.956 41.931 7.525 118.206 o
-4 -8 -11 10.891 13.969 6.998 157.043 o
-4 -8 -10 100.790 102.647 10.483 48.543 o
-4 -8 -9 107.649 110.819 15.124 27.811 o
-4 -8 -8 37.867 30.892 9.273 83.193 o
-4 -8 -7 637.756 617.787 35.901 2.907 o
-4 -8 -6 130.668 129.810 16.369 22.964 o
-4 -8 -5 128.880 127.541 16.298 23.259 o
-4 -8 -4 48.690 57.606 12.242 47.935 o
-4 -8 -3 263.572 277.316 16.666 13.907 o
-4 -8 -2 186.059 177.704 19.214 15.522 o
-4 -8 -1 106.859 108.757 15.872 25.877 o
-4 -7 -17 15.324 21.984 10.010 77.842 o
-4 -7 -16 57.050 54.101 8.405 86.836 o
-4 -7 -15 50.542 50.481 8.444 89.350 o
-4 -7 -14 82.694 73.445 9.336 64.331 o
-4 -7 -13 61.656 46.416 14.394 35.437 o
-4 -7 -12 156.928 163.752 26.599 9.849 o
-4 -7 -11 51.319 56.128 7.751 100.057 o
-4 -7 -10 91.768 97.401 10.035 53.707 o
-4 -7 -9 59.196 59.396 12.605 44.384 o
-4 -7 -8 192.961 180.607 18.293 16.329 o
-4 -7 -7 360.799 337.624 25.140 7.148 o
-4 -7 -6 4.632 5.982 5.803 234.616 o
-4 -7 -5 241.023 241.199 21.229 11.575 o
-4 -7 -4 543.993 520.718 31.460 3.878 o
-4 -7 -3 465.525 474.498 30.278 4.584 o
-4 -7 -2 458.676 435.062 28.872 4.985 o
-4 -7 -1 49.994 69.507 12.600 44.837 o
-4 -6 -17 260.994 280.459 26.976 7.896 o
-4 -6 -16 56.500 50.649 12.500 45.768 o
-4 -6 -15 15.228 13.178 8.952 97.321 o
-4 -6 -14 12.398 7.431 4.773 319.732 o
-4 -6 -13 0.028 7.550 4.484 395.705 o
-4 -6 -12 24.539 13.497 6.552 166.566 o
-4 -6 -11 123.907 123.421 10.669 41.950 o
-4 -6 -10 64.730 64.947 8.543 80.044 o
-4 -6 -9 9.411 10.834 4.429 368.973 o
-4 -6 -8 239.226 235.213 15.175 17.017 o
-4 -6 -7 799.823 749.196 36.771 2.236 o
-4 -6 -6 20.088 30.742 8.564 101.575 o
-4 -6 -5 0.669 23.360 7.989 124.285 o
-4 -6 -4 124.476 121.246 14.860 27.137 o
-4 -6 -3 744.143 722.954 36.513 2.415 o
-4 -6 -2 187.854 166.369 16.923 18.572 o
-4 -6 -1 89.371 110.577 14.331 31.549 o
-4 -5 -18 15.155 21.463 7.841 123.316 o
-4 -5 -17 55.400 54.439 12.662 44.672 o
-4 -5 -16 14.449 30.009 11.549 58.866 o
-4 -5 -15 0.267 4.882 6.180 212.181 o
-4 -5 -14 31.311 31.357 5.902 180.506 o
-4 -5 -13 258.448 265.646 15.190 15.547 o
-4 -5 -12 501.799 547.580 21.876 5.366 o
-4 -5 -11 6.912 4.188 7.198 153.740 o
-4 -5 -10 88.150 82.531 8.400 70.555 o
-4 -5 -9 20.117 24.272 5.055 255.584 o
-4 -5 -8 218.040 190.739 12.107 23.671 o
-4 -5 -7 126.242 132.099 10.300 42.562 o
-4 -5 -5 919.837 873.768 38.261 1.814 o
-4 -5 -4 683.272 679.844 33.164 2.850 o
-4 -5 -3 349.452 413.598 25.539 6.742 o
-4 -5 -2 713.610 652.838 33.299 2.787 o
-4 -5 -1 163.177 164.112 16.207 20.851 o
-4 -4 -19 6.034 -1.854 3.712 555.313 o
-4 -4 -18 76.358 71.766 9.540 64.233 o
-4 -4 -17 128.578 127.310 11.904 35.925 o
-4 -4 -16 207.792 182.795 13.751 21.966 o
-4 -4 -15 29.210 26.803 9.243 86.517 o
-4 -4 -14 73.073 69.010 7.840 85.609 o
-4 -4 -13 154.400 184.674 12.203 29.202 o
-4 -4 -12 158.932 147.502 10.705 35.060 o
-4 -4 -11 27.273 37.989 6.010 176.340 o
-4 -4 -10 30.559 24.006 4.877 247.877 o
-4 -4 -9 77.070 80.103 8.495 73.702 o
-4 -4 -8 283.319 322.032 15.151 13.599 o
-4 -4 -7 1996.190 1945.390 63.885 0.451 o
-4 -4 -6 624.268 616.907 23.202 4.045 o
-4 -4 -5 68.459 76.936 8.268 80.094 o
-4 -4 -4 375.420 392.856 15.304 9.908 o
-4 -4 -3 433.855 403.197 23.870 6.347 o
-4 -4 -2 368.177 323.782 15.772 10.725 o
-4 -4 -1 11.238 13.891 3.149 621.035 o
-4 -3 -19 15.608 23.682 6.038 196.040 o
-4 -3 -18 14.479 18.277 5.829 213.195 o
-4 -3 -17 88.143 90.287 9.744 57.427 o
-4 -3 -16 6.569 9.232 5.946 219.974 o
-4 -3 -15 5.467 2.384 7.913 128.651 o
-4 -3 -14 302.930 263.851 11.483 16.706 o
-4 -3 -13 298.826 308.494 12.241 15.280 o
-4 -3 -12 259.489 297.433 16.372 13.938 o
-4 -3 -11 566.739 603.350 41.132 2.740 o
-4 -3 -10 24.468 16.703 7.903 118.563 o
-4 -3 -9 180.386 166.566 24.706 10.810 o
-4 -3 -8 186.042 180.343 20.076 14.553 o
-4 -3 -7 13.690 15.364 5.915 210.414 o
-4 -3 -6 894.342 806.648 23.046 2.458 o
-4 -3 -5 329.757 338.950 12.100 13.480 o
-4 -3 -4 244.022 261.847 9.276 22.728 o
-4 -3 -3 668.320 645.837 20.640 3.908 o
-4 -3 -2 253.665 232.659 10.000 22.265 o
-4 -3 -1 921.346 933.533 54.988 1.318 o
-4 -2 -20 28.992 38.096 6.766 144.652 o
-4 -2 -19 19.536 17.703 6.124 190.299 o
-4 -2 -18 147.567 156.967 13.484 27.756 o
-4 -2 -17 28.081 29.793 6.571 155.880 o
-4 -2 -16 75.949 79.187 8.920 69.575 o
-4 -2 -15 8.477 5.535 4.178 423.228 o
-4 -2 -14 15.439 17.811 4.732 303.370 o
-4 -2 -13 159.076 171.518 9.829 36.167 o
-4 -2 -12 65.377 59.814 5.793 131.985 o
-4 -2 -11 251.442 247.656 9.998 21.858 o
-4 -2 -10 185.389 161.577 7.922 38.502 o
-4 -2 -9 278.946 266.935 9.991 19.252 o
-4 -2 -8 548.191 517.272 17.142 5.756 o
-4 -2 -7 217.629 213.980 11.196 24.264 o
-4 -2 -6 885.790 836.917 22.922 2.442 o
-4 -2 -5 248.598 262.115 11.833 19.477 o
-4 -2 -4 514.256 505.116 16.549 6.303 o
-4 -2 -3 644.124 621.626 14.713 4.623 o
-4 -2 -2 155.409 142.757 5.581 56.437 o
-4 -2 -1 228.596 222.168 7.649 28.388 o
-4 -1 -20 35.887 42.180 6.387 150.405 o
-4 -1 -19 14.332 12.059 4.096 399.432 o
-4 -1 -18 8.313 3.736 4.657 350.311 o
-4 -1 -17 68.263 83.788 8.039 81.822 o
-4 -1 -16 29.692 29.162 4.985 236.745 o
-4 -1 -15 15.279 14.883 3.851 429.437 o
-4 -1 -14 8.781 13.375 3.661 508.221 o
-4 -1 -13 368.468 376.524 14.704 10.501 o
-4 -1 -12 276.675 266.946 9.152 20.165 o
-4 -1 -11 501.165 509.890 13.312 6.964 o
-4 -1 -10 77.906 78.457 4.939 129.195 o
-4 -1 -9 185.159 199.448 7.824 35.616 o
-4 -1 -8 136.431 118.166 7.461 56.699 o
-4 -1 -7 191.882 195.738 6.933 36.913 o
-4 -1 -6 182.692 164.092 6.080 44.140 o
-4 -1 -5 54.209 51.661 3.331 246.997 o
-4 -1 -4 49.261 44.131 2.886 303.008 o
-4 -1 -3 849.824 834.453 18.051 2.729 o
-4 -1 -2 1465.510 1539.630 26.329 0.935 o
-4 -1 -1 267.566 299.018 9.470 19.409 o
-3 -14 -1 28.084 43.075 13.149 44.473 o
-3 -13 -8 32.628 33.831 11.805 54.377 o
-3 -13 -7 104.775 101.971 17.255 22.830 o
-3 -13 -6 14.894 6.689 7.372 142.189 o
-3 -13 -5 70.246 64.811 14.465 33.982 o
-3 -13 -4 60.076 70.081 15.475 30.584 o
-3 -13 -3 68.640 79.494 15.741 29.013 o
-3 -13 -2 39.292 49.758 13.204 43.025 o
-3 -13 -1 19.303 41.994 12.009 53.609 o
-3 -12 -11 5.253 11.534 9.061 97.595 o
-3 -12 -10 60.081 31.075 11.271 55.605 o
-3 -12 -9 21.240 29.166 11.899 54.987 o
-3 -12 -8 75.424 101.822 17.972 22.335 o
-3 -12 -7 5.737 12.905 9.313 92.266 o
-3 -12 -6 14.511 28.053 9.757 81.296 o
-3 -12 -5 17.859 17.659 9.008 94.948 o
-3 -12 -4 51.843 41.357 10.984 58.608 o
-3 -12 -3 17.753 34.634 10.759 66.631 o
-3 -12 -2 291.701 264.244 26.269 7.937 o
-3 -12 -1 17.839 12.960 7.210 144.788 o
-3 -11 -13 52.900 75.062 15.141 32.054 o
-3 -11 -12 16.971 20.637 9.829 80.415 o
-3 -11 -11 28.404 37.962 11.007 62.157 o
-3 -11 -10 11.080 23.599 9.622 84.590 o
-3 -11 -9 1.342 13.768 9.067 98.069 o
-3 -11 -8 23.589 24.282 9.600 82.298 o
-3 -11 -7 74.953 69.848 13.634 37.036 o
-3 -11 -6 15.488 7.503 7.368 141.794 o
-3 -11 -5 99.642 96.452 15.791 26.810 o
-3 -11 -4 37.167 40.029 11.407 56.960 o
-3 -11 -3 287.819 279.116 25.672 8.141 o
-3 -11 -2 52.582 56.816 12.387 46.588 o
-3 -11 -1 39.267 57.778 11.809 52.190 o
-3 -10 -15 18.539 29.029 8.007 115.701 o
-3 -10 -14 132.560 136.315 13.424 30.011 o
-3 -10 -13 142.126 128.506 18.292 18.974 o
-3 -10 -12 117.893 120.485 17.963 20.545 o
-3 -10 -11 16.122 23.592 8.993 94.916 o
-3 -10 -10 260.854 226.675 23.192 10.100 o
-3 -10 -9 21.535 14.889 6.963 151.213 o
-3 -10 -8 99.081 96.462 14.847 29.648 o
-3 -10 -7 9.776 33.782 10.411 72.176 o
-3 -10 -6 11.902 18.250 10.238 75.388 o
-3 -10 -5 292.034 255.249 24.112 8.930 o
-3 -10 -4 8.834 7.187 5.676 238.581 o
-3 -10 -3 49.211 36.226 10.422 65.106 o
-3 -10 -2 205.661 195.326 20.526 13.438 o
-3 -10 -1 291.452 325.690 26.683 7.447 o
-3 -9 -16 12.737 13.801 9.235 92.212 o
-3 -9 -15 46.274 53.371 8.820 84.376 o
-3 -9 -14 35.970 26.624 6.554 151.175 o
-3 -9 -13 26.252 25.716 6.051 182.375 o
-3 -9 -12 11.628 25.640 9.511 86.158 o
-3 -9 -11 284.792 262.789 23.785 9.135 o
-3 -9 -10 20.690 23.856 8.429 105.522 o
-3 -9 -9 6.402 9.373 6.677 176.383 o
-3 -9 -8 80.679 80.773 13.284 37.667 o
-3 -9 -7 33.361 39.816 9.422 80.930 o
-3 -9 -6 262.761 268.489 23.761 9.432 o
-3 -9 -5 146.440 156.037 17.771 19.151 o
-3 -9 -4 140.573 155.391 17.789 19.357 o
-3 -9 -3 187.094 168.186 17.986 17.125 o
-3 -9 -2 29.527 34.174 10.236 71.111 o
-3 -9 -1 1111.610 998.558 46.422 1.277 o
-3 -8 -18 8.862 7.880 5.455 256.419 o
-3 -8 -17 41.681 42.810 7.892 105.005 o
-3 -8 -16 86.149 114.253 11.468 44.281 o
-3 -8 -15 24.041 36.041 7.351 129.708 o
-3 -8 -14 29.683 42.139 7.685 115.818 o
-3 -8 -13 155.898 146.204 12.473 30.181 o
-3 -8 -12 40.267 39.086 7.122 125.382 o
-3 -8 -11 30.451 30.232 8.346 102.693 o
-3 -8 -10 331.297 342.178 25.503 7.335 o
-3 -8 -9 326.059 336.385 25.535 7.415 o
-3 -8 -8 538.776 496.527 30.851 4.037 o
-3 -8 -7 198.702 201.993 19.716 14.294 o
-3 -8 -6 255.084 238.330 20.534 11.787 o
-3 -8 -5 203.711 200.220 19.018 14.881 o
-3 -8 -4 51.512 68.885 11.683 50.898 o
-3 -8 -3 120.952 107.455 14.175 29.831 o
-3 -8 -2 43.870 40.878 7.026 125.022 o
-3 -8 -1 309.314 339.664 17.870 10.964 o
-3 -7 -19 2.331 8.021 7.805 132.282 o
-3 -7 -18 133.626 128.560 12.157 34.363 o
-3 -7 -17 21.086 29.682 7.102 141.545 o
-3 -7 -16 83.568 88.811 10.308 54.251 o
-3 -7 -15 24.551 35.134 6.882 145.018 o
-3 -7 -14 5.889 17.399 5.449 254.156 o
-3 -7 -13 126.897 125.745 14.345 28.224 o
-3 -7 -12 59.415 59.677 8.078 89.904 o
-3 -7 -11 121.493 125.011 10.897 41.160 o
-3 -7 -10 207.284 226.916 19.972 13.504 o
-3 -7 -9 242.719 238.535 20.679 11.956 o
-3 -7 -8 131.622 130.707 14.935 26.178 o
-3 -7 -7 30.207 27.720 8.693 96.104 o
-3 -7 -6 171.886 173.595 16.780 19.308 o
-3 -7 -5 101.327 80.290 11.920 42.119 o
-3 -7 -4 181.454 145.188 15.472 21.687 o
-3 -7 -3 541.604 520.827 21.017 5.257 o
-3 -7 -2 118.202 137.250 16.251 23.649 o
-3 -7 -1 98.123 117.928 14.525 30.012 o
-3 -6 -19 6.505 20.698 9.617 85.818 o
-3 -6 -18 9.426 13.655 5.314 263.335 o
-3 -6 -17 7.483 17.834 5.427 253.228 o
-3 -6 -16 39.387 51.058 7.631 109.825 o
-3 -6 -15 43.693 55.751 7.855 101.797 o
-3 -6 -14 415.744 398.703 20.576 7.435 o
-3 -6 -13 58.775 54.201 7.514 101.255 o
-3 -6 -12 40.719 43.141 7.752 108.439 o
-3 -6 -11 133.070 127.585 10.289 41.863 o
-3 -6 -10 565.482 497.580 37.495 3.207 o
-3 -6 -9 1335.400 1204.150 46.367 0.993 o
-3 -6 -8 251.280 254.615 19.874 12.153 o
-3 -6 -7 147.547 153.221 15.454 23.370 o
-3 -6 -6 205.121 204.900 17.569 16.331 o
-3 -6 -5 491.030 440.628 25.601 5.299 o
-3 -6 -4 193.777 182.037 16.627 18.404 o
-3 -6 -3 387.116 374.934 24.392 6.868 o
-3 -6 -2 526.403 581.143 30.087 3.974 o
-3 -6 -1 145.793 132.039 15.023 25.037 o
-3 -5 -20 22.332 30.376 7.464 128.847 o
-3 -5 -19 95.139 68.002 13.714 35.092 o
-3 -5 -18 175.459 172.181 20.922 14.048 o
-3 -5 -17 83.342 88.039 9.420 61.520 o
-3 -5 -16 30.555 48.104 7.216 126.099 o
-3 -5 -15 155.603 168.112 17.103 19.613 o
-3 -5 -14 238.905 250.402 17.459 14.496 o
-3 -5 -13 43.954 50.992 9.358 77.605 o
-3 -5 -12 82.837 71.143 9.335 64.604 o
-3 -5 -11 278.005 291.903 34.541 5.336 o
-3 -5 -10 143.928 144.695 10.393 38.427 o
-3 -5 -9 219.145 238.982 31.820 6.601 o
-3 -5 -8 762.088 714.272 32.338 2.598 o
-3 -5 -7 48.093 63.821 9.687 70.696 o
-3 -5 -6 276.707 263.817 18.549 12.331 o
-3 -5 -5 24.179 48.614 8.529 97.851 o
-3 -5 -4 904.038 878.421 36.503 1.893 o
-3 -5 -3 846.745 883.585 36.173 2.012 o
-3 -5 -2 402.441 371.197 22.498 7.248 o
-3 -5 -1 527.276 525.695 27.193 4.489 o
-3 -4 -21 22.262 30.021 7.144 139.243 o
-3 -4 -20 8.155 19.711 6.187 197.373 o
-3 -4 -19 17.692 14.456 6.035 199.022 o
-3 -4 -18 11.827 13.183 5.465 246.882 o
-3 -4 -17 77.472 76.800 8.257 76.896 o
-3 -4 -16 114.747 114.571 9.734 49.159 o
-3 -4 -15 278.208 272.751 14.886 14.884 o
-3 -4 -14 171.236 154.994 11.076 31.983 o
-3 -4 -13 423.469 456.562 32.894 4.458 o
-3 -4 -12 43.321 41.919 5.849 162.659 o
-3 -4 -11 242.772 256.536 23.471 9.990 o
-3 -4 -10 350.745 357.085 27.576 6.431 o
-3 -4 -9 970.013 1023.250 27.713 1.867 o
-3 -4 -8 272.919 274.784 25.124 8.589 o
-3 -4 -7 745.847 697.117 36.649 2.437 o
-3 -4 -6 309.578 313.540 19.098 10.614 o
-3 -4 -5 338.660 381.237 21.107 8.541 o
-3 -4 -4 494.005 532.739 25.386 4.953 o
-3 -4 -3 129.144 142.466 12.969 31.424 o
-3 -4 -2 800.788 931.952 36.144 2.058 o
-3 -4 -1 440.148 410.027 22.576 6.547 o
-3 -3 -21 29.110 29.802 7.269 131.059 o
-3 -3 -20 112.627 100.698 19.677 18.088 o
-3 -3 -19 21.192 16.580 5.601 220.309 o
-3 -3 -18 46.648 53.611 8.304 92.627 o
-3 -3 -17 160.561 140.902 12.111 30.999 o
-3 -3 -16 2.809 6.806 2.899 871.025 o
-3 -3 -15 44.698 37.228 5.731 168.348 o
-3 -3 -14 500.170 557.319 20.066 5.615 o
-3 -3 -13 2.271 14.686 4.121 440.889 o
-3 -3 -12 348.698 357.247 18.731 9.515 o
-3 -3 -11 41.717 34.565 5.118 202.082 o
-3 -3 -10 74.439 89.841 14.466 32.849 o
-3 -3 -9 45.303 65.793 6.608 126.041 o
-3 -3 -8 280.682 277.345 12.417 16.724 o
-3 -3 -7 455.013 464.576 16.206 7.463 o
-3 -3 -6 107.340 118.881 7.228 67.934 o
-3 -3 -5 295.316 280.157 9.117 18.515 o
-3 -3 -4 539.727 550.930 12.868 6.219 o
-3 -3 -3 174.757 173.280 8.739 36.943 o
-3 -3 -2 1449.720 1346.700 28.293 1.012 o
-3 -3 -1 487.863 481.293 21.209 5.931 o
-3 -2 -21 26.133 21.863 6.333 171.184 o
-3 -2 -20 7.698 -0.864 4.234 427.074 o
-3 -2 -19 19.115 23.134 14.138 39.776 o
-3 -2 -18 11.870 22.018 6.215 190.965 o
-3 -2 -17 79.741 95.121 9.783 58.480 o
-3 -2 -16 127.446 114.493 10.626 42.290 o
-3 -2 -15 145.596 146.618 8.036 47.643 o
-3 -2 -14 69.542 71.177 5.632 126.462 o
-3 -2 -13 508.211 527.093 15.642 6.385 o
-3 -2 -12 657.368 687.151 17.277 4.096 o
-3 -2 -11 172.055 162.327 10.606 32.754 o
-3 -2 -10 15.489 19.022 3.624 457.703 o
-3 -2 -9 733.076 737.421 20.809 3.306 o
-3 -2 -8 654.787 677.873 19.428 3.985 o
-3 -2 -7 172.986 188.538 9.589 33.712 o
-3 -2 -6 439.607 435.985 13.810 8.538 o
-3 -2 -5 27.807 34.324 3.121 415.803 o
-3 -2 -4 590.312 646.435 11.686 5.231 o
-3 -2 -3 70.550 76.337 3.458 175.219 o
-3 -2 -2 20.787 10.706 1.724 1023.980 o
-3 -2 -1 1837.350 1902.620 54.816 0.530 o
-3 -1 -21 105.752 124.283 10.460 45.897 o
-3 -1 -20 69.440 80.948 10.357 57.434 o
-3 -1 -19 22.578 33.724 7.140 137.989 o
-3 -1 -18 24.328 27.560 4.759 267.028 o
-3 -1 -17 90.863 92.924 7.895 72.920 o
-3 -1 -16 17.112 24.272 4.241 344.997 o
-3 -1 -15 42.693 41.075 5.009 200.434 o
-3 -1 -14 156.046 160.419 6.871 48.350 o
-3 -1 -13 87.154 83.573 6.457 94.178 o
-3 -1 -12 86.194 97.342 5.989 96.971 o
-3 -1 -11 171.972 142.415 6.835 46.779 o
-3 -1 -10 288.456 304.883 10.187 17.378 o
-3 -1 -9 55.766 56.074 4.179 199.517 o
-3 -1 -8 133.906 139.879 6.258 60.951 o
-3 -1 -7 1409.470 1413.750 29.714 1.007 o
-3 -1 -6 230.802 227.561 7.507 28.021 o
-3 -1 -5 241.777 212.174 7.452 27.718 o
-3 -1 -4 559.746 501.349 11.863 6.402 o
-3 -1 -3 1273.770 1268.740 36.548 1.129 o
-3 -1 -2 2819.800 2819.800 36.916 0.276 o
-3 -1 -1 1106.280 1048.550 15.904 1.776 o
-2 -14 -7 3.974 22.272 9.948 80.642 o
-2 -14 -6 107.775 121.312 19.320 18.507 o
-2 -14 -5 23.381 35.791 8.105 109.851 o
-2 -14 -4 44.521 57.588 9.812 70.806 o
-2 -14 -3 62.881 61.764 9.666 67.558 o
-2 -14 -2 118.182 117.870 13.267 32.586 o
-2 -14 -1 13.794 14.694 6.190 194.073 o
-2 -13 -10 10.340 10.250 8.402 111.778 o
-2 -13 -9 120.991 120.951 19.575 17.748 o
-2 -13 -8 14.817 13.965 9.009 96.174 o
-2 -13 -7 50.681 74.611 15.020 32.652 o
-2 -13 -6 34.311 42.129 7.790 110.961 o
-2 -13 -5 152.114 150.401 14.561 25.097 o
-2 -13 -4 6.131 10.508 5.892 223.632 o
-2 -13 -3 178.257 166.963 14.099 23.783 o
-2 -13 -2 36.755 53.520 8.606 91.087 o
-2 -13 -1 97.903 84.760 10.277 52.067 o
-2 -12 -13 2.179 19.470 10.904 67.758 o
-2 -12 -12 46.638 36.929 10.909 60.495 o
-2 -12 -11 24.161 27.212 10.710 66.806 o
-2 -12 -10 34.335 40.908 12.337 49.607 o
-2 -12 -9 58.270 68.363 14.506 34.472 o
-2 -12 -8 66.519 66.103 13.958 36.371 o
-2 -12 -7 65.197 71.866 8.971 73.377 o
-2 -12 -6 89.108 89.857 9.878 56.226 o
-2 -12 -5 63.538 74.232 15.731 29.428 o
-2 -12 -4 352.208 313.132 21.681 8.645 o
-2 -12 -3 124.118 145.764 12.938 31.838 o
-2 -12 -2 27.383 28.905 8.515 100.451 o
-2 -12 -1 37.183 37.843 7.266 123.792 o
-2 -11 -15 139.310 157.621 14.477 25.902 o
-2 -11 -14 10.718 28.303 9.876 80.125 o
-2 -11 -13 95.534 92.524 16.249 25.875 o
-2 -11 -12 4.995 9.023 8.591 108.692 o
-2 -11 -11 62.931 61.080 13.337 39.856 o
-2 -11 -10 23.620 26.227 9.311 86.841 o
-2 -11 -9 259.762 235.187 23.874 9.667 o
-2 -11 -8 44.434 48.317 7.570 109.233 o
-2 -11 -7 24.428 27.058 6.549 161.041 o
-2 -11 -6 367.515 349.508 18.173 9.445 o
-2 -11 -5 100.346 117.746 10.889 45.023 o
-2 -11 -4 220.532 243.305 15.438 17.379 o
-2 -11 -3 82.164 82.555 9.439 62.345 o
-2 -11 -2 78.013 91.866 14.273 33.265 o
-2 -11 -1 440.416 380.255 38.700 3.710 o
-2 -10 -16 17.422 32.051 7.368 134.108 o
-2 -10 -15 25.979 29.585 7.245 133.777 o
-2 -10 -14 33.148 38.693 10.845 63.098 o
-2 -10 -13 79.278 67.765 13.410 37.788 o
-2 -10 -12 272.534 222.028 23.105 9.996 o
-2 -10 -11 58.480 48.463 11.811 50.377 o
-2 -10 -10 58.722 68.371 13.381 39.679 o
-2 -10 -9 73.262 70.241 7.744 86.611 o
-2 -10 -8 55.645 53.020 6.929 115.516 o
-2 -10 -7 15.684 25.145 8.837 97.990 o
-2 -10 -6 232.165 226.086 19.615 13.183 o
-2 -10 -5 31.250 39.597 6.601 148.011 o
-2 -10 -4 897.131 845.719 57.712 1.316 o
-2 -10 -3 163.513 162.707 12.181 29.437 o
-2 -10 -2 142.127 156.101 11.912 32.728 o
-2 -10 -1 43.774 43.778 6.777 130.941 o
-2 -9 -18 12.950 14.704 6.729 167.199 o
-2 -9 -17 102.822 125.867 12.830 35.275 o
-2 -9 -16 49.961 50.834 8.512 88.391 o
-2 -9 -15 30.699 40.767 7.634 116.917 o
-2 -9 -14 154.248 133.215 12.441 31.060 o
-2 -9 -13 12.026 18.910 8.353 111.100 o
-2 -9 -12 194.494 193.121 20.263 13.986 o
-2 -9 -11 46.847 60.117 12.228 48.097 o
-2 -9 -10 162.223 144.890 9.780 37.845 o
-2 -9 -9 298.377 290.864 14.084 14.362 o
-2 -9 -8 154.331 143.854 10.219 37.587 o
-2 -9 -7 291.773 284.859 14.318 14.563 o
-2 -9 -6 580.935 567.651 20.984 4.740 o
-2 -9 -5 27.005 27.431 5.881 189.048 o
-2 -9 -4 159.436 183.203 11.694 30.081 o
-2 -9 -3 39.694 42.085 8.025 103.276 o
-2 -9 -2 154.641 159.460 11.257 33.133 o
-2 -9 -1 268.437 293.679 15.429 14.427 o
-2 -8 -19 39.629 52.700 8.978 84.155 o
-2 -8 -18 55.443 65.072 15.598 30.504 o
-2 -8 -17 4.917 10.925 5.738 236.339 o
-2 -8 -16 39.968 33.783 7.150 126.511 o
-2 -8 -15 0.637 2.292 4.076 485.093 o
-2 -8 -14 119.734 105.001 10.764 43.602 o
-2 -8 -13 49.578 34.748 6.428 140.228 o
-2 -8 -12 232.656 224.062 21.375 11.823 o
-2 -8 -11 116.282 128.101 16.185 24.123 o
-2 -8 -10 501.057 506.694 17.318 6.327 o
-2 -8 -9 100.161 110.834 9.844 51.860 o
-2 -8 -8 7.819 12.479 3.956 452.886 o
-2 -8 -7 92.046 96.344 7.837 72.415 o
-2 -8 -6 42.115 54.934 6.352 140.266 o
-2 -8 -5 122.617 111.554 12.434 35.479 o
-2 -8 -4 210.434 233.990 16.855 16.397 o
-2 -8 -3 52.628 64.998 6.901 114.166 o
-2 -8 -2 183.712 187.023 11.418 28.119 o
-2 -8 -1 208.433 231.396 12.842 21.751 o
-2 -7 -20 23.564 27.819 10.446 70.046 o
-2 -7 -19 17.818 15.654 8.468 106.939 o
-2 -7 -18 92.186 77.447 9.300 61.653 o
-2 -7 -17 43.241 46.455 12.223 49.258 o
-2 -7 -16 100.377 97.330 10.313 50.157 o
-2 -7 -15 39.460 49.091 16.198 29.430 o
-2 -7 -14 53.857 55.578 7.659 100.681 o
-2 -7 -13 77.852 68.126 9.074 69.019 o
-2 -7 -12 50.765 51.899 7.434 107.772 o
-2 -7 -11 162.405 135.409 8.455 43.498 o
-2 -7 -10 402.312 312.958 11.877 11.556 o
-2 -7 -9 595.643 555.210 17.046 5.112 o
-2 -7 -8 1073.670 1135.920 28.263 1.570 o
-2 -7 -7 261.490 255.872 11.615 19.113 o
-2 -7 -6 530.988 553.233 18.139 5.609 o
-2 -7 -5 659.311 686.554 20.768 3.831 o
-2 -7 -4 779.559 778.015 32.856 2.432 o
-2 -7 -3 87.264 103.850 8.054 70.643 o
-2 -7 -2 909.849 839.788 31.175 2.096 o
-2 -7 -1 333.596 329.821 12.096 13.509 o
-2 -6 -21 7.941 3.359 6.749 173.752 o
-2 -6 -20 51.405 65.148 13.333 40.677 o
-2 -6 -19 79.507 71.206 13.809 35.830 o
-2 -6 -18 17.406 11.529 15.692 32.700 o
-2 -6 -17 49.975 56.323 9.025 79.733 o
-2 -6 -16 24.928 21.704 7.947 116.100 o
-2 -6 -15 29.106 35.043 6.457 157.131 o
-2 -6 -14 115.746 109.654 10.232 46.655 o
-2 -6 -13 129.052 131.780 11.761 36.139 o
-2 -6 -12 434.855 440.137 21.028 6.798 o
-2 -6 -11 1073.170 1006.270 45.223 1.337 o
-2 -6 -10 364.018 370.212 23.556 7.417 o
-2 -6 -9 147.164 121.782 6.530 58.019 o
-2 -6 -8 60.814 67.384 5.295 145.755 o
-2 -6 -7 484.192 492.871 15.241 7.008 o
-2 -6 -6 353.731 319.143 15.750 11.168 o
-2 -6 -5 554.689 563.358 17.185 5.446 o
-2 -6 -4 408.219 432.848 15.153 8.828 o
-2 -6 -3 1306.690 1277.090 47.860 0.971 o
-2 -6 -2 547.076 565.107 15.511 5.724 o
-2 -6 -1 141.862 188.042 12.245 30.139 o
-2 -5 -21 2.309 2.386 4.218 446.781 o
-2 -5 -20 22.669 52.683 11.669 55.615 o
-2 -5 -19 74.860 73.825 13.166 39.081 o
-2 -5 -18 74.979 85.490 14.354 33.393 o
-2 -5 -17 48.676 50.139 7.646 104.951 o
-2 -5 -16 135.248 144.419 16.068 22.998 o
-2 -5 -15 114.907 119.271 15.938 25.006 o
-2 -5 -14 4.684 4.005 3.513 610.365 o
-2 -5 -13 59.497 78.102 7.994 87.260 o
-2 -5 -12 142.878 154.670 10.700 36.746 o
-2 -5 -11 106.417 93.063 8.526 62.012 o
-2 -5 -10 224.378 209.175 13.038 21.151 o
-2 -5 -9 568.741 608.799 28.746 3.832 o
-2 -5 -8 332.209 332.309 20.587 9.271 o
-2 -5 -7 139.916 188.781 15.091 23.526 o
-2 -5 -6 282.495 250.008 17.215 13.320 o
-2 -5 -5 587.568 677.013 29.448 3.510 o
-2 -5 -4 11.609 18.913 6.412 182.093 o
-2 -5 -3 814.845 928.881 35.228 2.065 o
-2 -5 -2 1497.320 1581.710 49.284 0.753 o
-2 -5 -1 153.996 187.046 15.091 22.754 o
-2 -4 -22 17.237 20.245 6.882 155.536 o
-2 -4 -21 80.167 80.213 10.588 53.637 o
-2 -4 -20 33.465 36.036 7.580 118.115 o
-2 -4 -19 48.258 36.083 10.633 63.059 o
-2 -4 -18 76.841 50.696 11.814 47.846 o
-2 -4 -17 28.642 45.461 10.736 64.446 o
-2 -4 -16 30.017 24.294 5.250 223.153 o
-2 -4 -15 395.702 421.510 18.447 8.182 o
-2 -4 -14 24.002 29.157 5.491 213.829 o
-2 -4 -13 535.116 495.169 19.096 5.725 o
-2 -4 -12 270.371 263.926 13.399 16.685 o
-2 -4 -11 511.175 552.794 19.441 5.623 o
-2 -4 -10 16.606 17.943 3.946 400.266 o
-2 -4 -9 693.479 715.269 29.464 2.994 o
-2 -4 -8 301.621 360.220 19.840 9.922 o
-2 -4 -7 1248.320 1235.410 40.541 1.120 o
-2 -4 -6 1064.600 1008.460 35.213 1.550 o
-2 -4 -5 700.361 686.192 27.568 3.148 o
-2 -4 -4 356.566 357.851 18.924 9.278 o
-2 -4 -3 873.328 882.290 31.854 2.108 o
-2 -4 -2 404.026 459.413 21.973 6.826 o
-2 -4 -1 570.724 592.623 17.557 5.112 o
-2 -3 -22 67.240 76.550 10.347 58.395 o
-2 -3 -21 6.105 9.404 5.441 260.771 o
-2 -3 -20 9.293 3.809 5.025 301.844 o
-2 -3 -19 114.396 118.031 11.323 40.751 o
-2 -3 -18 316.547 315.329 18.101 10.960 o
-2 -3 -17 91.892 95.219 9.851 55.232 o
-2 -3 -16 44.816 33.057 8.505 93.665 o
-2 -3 -15 225.066 216.182 12.222 22.044 o
-2 -3 -14 1.336 2.863 1.194 4412.160 o
-2 -3 -13 83.327 80.006 7.246 86.451 o
-2 -3 -12 717.901 729.502 26.498 3.057 o
-2 -3 -11 135.664 145.209 9.146 44.921 o
-2 -3 -10 560.860 602.332 25.069 4.292 o
-2 -3 -9 89.081 75.290 8.541 69.998 o
-2 -3 -8 605.956 553.889 23.231 4.359 o
-2 -3 -7 561.863 580.731 23.634 4.523 o
-2 -3 -6 836.537 881.755 21.156 2.588 o
-2 -3 -5 861.992 886.425 21.310 2.492 o
-2 -3 -4 63.888 66.207 7.629 93.653 o
-2 -3 -3 52.678 48.706 6.375 133.175 o
-2 -3 -2 2346.570 2433.130 61.346 0.342 o
-2 -3 -1 1541.260 1590.530 31.286 0.838 o
-2 -2 -22 9.911 13.617 5.955 213.181 o
-2 -2 -21 37.405 40.508 14.799 35.182 o
-2 -2 -20 110.887 112.207 11.878 39.093 o
-2 -2 -19 71.700 67.336 15.320 30.586 o
-2 -2 -18 15.281 14.808 11.578 59.255 o
-2 -2 -17 24.680 27.954 5.908 190.141 o
-2 -2 -16 4.269 6.832 3.873 504.079 o
-2 -2 -15 104.220 85.280 6.561 82.990 o
-2 -2 -14 6.332 5.272 1.666 1921.930 o
-2 -2 -13 468.813 373.836 63.542 1.706 o
-2 -2 -12 43.733 42.399 10.513 64.567 o
-2 -2 -11 301.862 338.792 16.708 11.801 o
-2 -2 -10 1828.920 1953.090 50.710 0.540 o
-2 -2 -9 267.039 312.200 15.479 14.106 o
-2 -2 -8 149.875 176.372 11.192 32.893 o
-2 -2 -7 579.566 580.976 15.858 5.270 o
-2 -2 -6 1509.710 1420.630 23.169 0.964 o
-2 -2 -5 1459.370 1407.410 19.498 1.031 o
-2 -2 -4 1752.580 1645.750 32.492 0.700 o
-2 -2 -3 1086.540 1128.170 22.788 1.644 o
-2 -2 -2 621.965 585.289 14.374 4.997 o
-2 -2 -1 231.550 240.264 13.536 19.144 o
-2 -1 -22 24.753 36.189 7.570 122.937 o
-2 -1 -21 23.398 21.697 9.011 92.883 o
-2 -1 -20 34.417 46.288 6.448 147.787 o
-2 -1 -19 188.547 198.227 11.972 26.008 o
-2 -1 -18 325.554 335.553 14.935 12.148 o
-2 -1 -17 61.210 63.198 6.579 115.884 o
-2 -1 -16 383.987 401.149 15.523 9.545 o
-2 -1 -15 223.840 196.780 10.479 25.653 o
-2 -1 -14 127.397 131.081 8.253 52.854 o
-2 -1 -13 16.869 17.487 3.189 543.531 o
-2 -1 -12 107.873 103.663 5.273 89.514 o
-2 -1 -11 756.824 820.338 26.049 2.766 o
-2 -1 -10 64.333 63.969 5.135 148.023 o
-2 -1 -9 789.836 661.134 149.741 0.334 o
-2 -1 -8 613.672 656.210 16.399 4.593 o
-2 -1 -7 686.446 800.347 15.419 3.675 o
-2 -1 -6 402.721 403.436 9.868 10.861 o
-2 -1 -5 6125.700 5890.070 87.144 0.060 o
-2 -1 -4 65.570 63.690 2.953 214.447 o
-2 -1 -3 132.126 116.140 3.745 82.856 o
-2 -1 -2 390.629 410.473 7.047 11.884 o
-2 -1 -1 1023.300 1050.700 19.562 1.893 o
-1 -15 -3 58.143 58.032 9.719 68.596 o
-1 -15 -2 53.465 55.744 16.743 27.052 o
-1 -15 -1 37.787 46.720 9.157 82.830 o
-1 -14 -9 7.048 21.489 11.960 56.038 o
-1 -14 -8 132.396 121.101 19.742 17.191 o
-1 -14 -7 101.867 100.714 11.857 41.060 o
-1 -14 -6 72.923 72.377 10.403 57.215 o
-1 -14 -5 0.233 17.167 6.446 190.521 o
-1 -14 -4 7.925 16.804 6.023 209.199 o
-1 -14 -3 32.331 38.769 10.234 70.198 o
-1 -14 -2 55.148 67.010 9.757 67.817 o
-1 -14 -1 60.549 63.383 9.824 66.251 o
-1 -13 -12 5.355 14.673 9.389 90.716 o
-1 -13 -11 21.372 30.678 12.353 51.131 o
-1 -13 -10 15.508 22.028 10.092 76.603 o
-1 -13 -9 68.230 76.197 16.357 27.206 o
-1 -13 -8 125.057 116.821 11.744 37.608 o
-1 -13 -7 4.329 10.938 5.455 261.019 o
-1 -13 -6 245.884 224.819 16.462 15.636 o
-1 -13 -5 167.594 171.757 14.330 23.870 o
-1 -13 -4 35.830 46.529 8.546 93.731 o
-1 -13 -3 51.425 50.459 8.324 91.022 o
-1 -13 -2 87.984 82.688 10.474 52.788 o
-1 -13 -1 54.246 59.378 8.996 78.352 o
-1 -12 -14 10.659 10.486 8.072 120.562 o
-1 -12 -13 25.934 29.820 10.308 71.231 o
-1 -12 -12 65.668 70.048 14.535 33.826 o
-1 -12 -11 118.213 106.687 17.524 21.638 o
-1 -12 -10 132.194 113.052 18.174 19.788 o
-1 -12 -9 11.190 18.599 5.979 207.389 o
-1 -12 -8 101.060 107.141 10.996 45.168 o
-1 -12 -7 34.371 35.997 7.194 128.127 o
-1 -12 -6 115.872 128.950 12.399 35.404 o
-1 -12 -5 378.229 375.372 20.251 8.264 o
-1 -12 -4 1.384 16.632 6.098 211.180 o
-1 -12 -3 81.587 93.880 10.496 52.775 o
-1 -12 -2 89.596 86.335 9.873 56.543 o
-1 -12 -1 2.148 14.271 5.392 267.623 o
-1 -11 -16 78.446 89.044 11.591 46.442 o
-1 -11 -15 12.567 21.394 10.263 74.696 o
-1 -11 -14 77.593 67.562 14.692 32.520 o
-1 -11 -13 0.178 -0.012 6.512 193.091 o
-1 -11 -12 5.028 12.954 8.472 111.150 o
-1 -11 -11 92.613 77.930 13.979 33.833 o
-1 -11 -10 127.822 105.512 10.239 44.841 o
-1 -11 -9 176.673 173.444 13.054 25.787 o
-1 -11 -8 12.255 20.032 5.927 208.604 o
-1 -11 -7 140.795 147.939 12.140 32.596 o
-1 -11 -6 57.477 64.653 15.213 31.816 o
-1 -11 -5 595.141 548.988 23.158 4.457 o
-1 -11 -4 88.742 81.154 9.319 61.907 o
-1 -11 -3 376.491 389.147 19.668 8.377 o
-1 -11 -2 770.216 711.920 27.020 2.862 o
-1 -11 -1 98.351 112.346 10.773 46.432 o
-1 -10 -17 11.549 19.305 8.096 117.964 o
-1 -10 -16 199.620 213.645 16.726 17.374 o
-1 -10 -15 75.340 75.985 14.734 32.236 o
-1 -10 -14 36.829 31.997 10.431 67.639 o
-1 -10 -13 37.285 35.252 10.696 64.308 o
-1 -10 -12 92.601 95.571 15.266 28.765 o
-1 -10 -11 3.145 10.130 6.629 180.921 o
-1 -10 -10 52.565 51.405 7.267 110.468 o
-1 -10 -9 504.062 529.037 21.542 5.482 o
-1 -10 -8 138.544 150.795 11.562 34.574 o
-1 -10 -7 296.416 308.262 16.363 12.601 o
-1 -10 -6 95.657 101.692 10.551 49.125 o
-1 -10 -5 757.976 781.346 27.042 2.780 o
-1 -10 -4 140.474 154.936 11.682 33.711 o
-1 -10 -3 48.825 46.152 6.784 126.163 o
-1 -10 -2 142.442 129.914 10.818 38.096 o
-1 -10 -1 0.887 1.588 4.109 477.969 o
-1 -9 -19 25.033 31.782 10.594 67.697 o
-1 -9 -18 1.279 5.115 11.201 65.000 o
-1 -9 -17 54.722 65.746 9.392 72.266 o
-1 -9 -16 44.823 37.458 7.246 119.778 o
-1 -9 -15 5.841 3.310 5.779 236.698 o
-1 -9 -14 91.611 75.383 13.777 34.821 o
-1 -9 -13 143.633 160.743 19.025 17.301 o
-1 -9 -12 56.258 53.111 6.662 121.249 o
-1 -9 -11 257.485 264.661 14.056 16.658 o
-1 -9 -10 363.681 351.877 16.375 10.235 o
-1 -9 -9 520.888 585.831 21.523 5.085 o
-1 -9 -8 765.546 783.510 38.574 2.193 o
-1 -9 -7 240.132 261.843 14.142 17.457 o
-1 -9 -6 75.077 87.029 8.657 71.425 o
-1 -9 -5 438.446 470.348 19.277 6.968 o
-1 -9 -4 32.675 46.625 6.780 138.129 o
-1 -9 -3 1267.010 1356.510 35.377 1.107 o
-1 -9 -2 128.782 120.999 9.787 45.527 o
-1 -9 -1 111.717 102.953 9.141 54.786 o
-1 -8 -20 23.292 27.553 10.318 71.746 o
-1 -8 -19 63.112 50.225 11.912 48.962 o
-1 -8 -18 21.819 1.745 6.548 173.902 o
-1 -8 -17 23.104 17.426 5.850 201.687 o
-1 -8 -16 5.946 15.482 5.776 229.344 o
-1 -8 -15 362.413 316.153 18.434 9.778 o
-1 -8 -14 39.047 45.287 7.574 112.811 o
-1 -8 -13 19.841 23.299 7.687 125.268 o
-1 -8 -12 161.111 172.697 10.592 33.510 o
-1 -8 -11 3.905 4.207 3.167 745.137 o
-1 -8 -10 378.754 390.682 16.282 9.503 o
-1 -8 -9 325.670 289.620 13.814 13.549 o
-1 -8 -8 1337.320 1301.010 32.548 1.096 o
-1 -8 -7 102.263 115.634 9.089 55.903 o
-1 -8 -6 464.420 480.073 18.321 6.769 o
-1 -8 -5 1073.130 1087.180 29.504 1.588 o
-1 -8 -4 26.646 35.661 5.970 180.240 o
-1 -8 -3 560.439 634.239 21.436 4.592 o
-1 -8 -2 115.130 135.249 9.528 48.136 o
-1 -8 -1 17.384 10.616 4.000 404.783 o
-1 -7 -21 36.688 58.396 13.323 42.188 o
-1 -7 -20 10.829 -1.030 5.349 269.241 o
-1 -7 -19 73.377 72.617 13.445 37.927 o
-1 -7 -18 7.334 6.683 6.282 198.620 o
-1 -7 -17 49.075 39.898 9.551 75.117 o
-1 -7 -16 22.270 25.791 5.626 210.568 o
-1 -7 -15 36.083 47.453 11.754 53.637 o
-1 -7 -14 261.550 236.879 10.664 20.752 o
-1 -7 -13 25.742 31.528 3.481 388.461 o
-1 -7 -12 10.628 9.558 2.710 815.260 o
-1 -7 -11 703.262 681.958 20.599 3.610 o
-1 -7 -10 1928.210 1828.110 38.582 0.568 o
-1 -7 -9 609.666 610.169 19.455 4.522 o
-1 -7 -8 162.571 157.993 9.661 37.190 o
-1 -7 -7 48.778 45.714 5.683 160.294 o
-1 -7 -6 139.551 152.512 9.626 41.487 o
-1 -7 -5 192.424 190.577 10.508 29.036 o
-1 -7 -4 559.962 626.023 19.920 4.796 o
-1 -7 -3 801.637 850.765 23.994 2.651 o
-1 -7 -2 306.853 349.954 14.603 12.691 o
-1 -7 -1 53.499 56.781 6.134 135.547 o
-1 -6 -21 11.448 27.423 8.595 104.154 o
-1 -6 -20 76.487 61.579 12.951 40.597 o
-1 -6 -19 212.899 211.529 22.912 11.217 o
-1 -6 -18 23.210 22.439 8.016 114.885 o
-1 -6 -17 2.083 -0.119 5.603 258.372 o
-1 -6 -16 138.749 152.012 18.090 19.001 o
-1 -6 -15 250.946 250.780 10.759 20.899 o
-1 -6 -14 33.377 35.638 4.325 268.306 o
-1 -6 -13 230.397 204.785 7.267 29.826 o
-1 -6 -12 10.793 17.555 2.571 805.118 o
-1 -6 -11 35.441 35.782 3.594 322.344 o
-1 -6 -10 232.138 224.049 8.159 27.122 o
-1 -6 -9 55.248 58.547 5.527 150.485 o
-1 -6 -8 662.741 726.424 22.789 3.557 o
-1 -6 -7 547.501 579.419 17.561 5.391 o
-1 -6 -6 2376.170 2617.350 80.913 0.291 o
-1 -6 -5 1413.010 1418.560 30.941 0.993 o
-1 -6 -4 1333.970 1537.230 52.821 0.824 o
-1 -6 -3 302.578 284.068 37.989 4.511 o
-1 -6 -2 1235.740 1313.670 29.689 1.221 o
-1 -6 -1 2225.790 2331.580 44.526 0.404 o
-1 -5 -22 3.769 0.497 4.518 389.236 o
-1 -5 -21 1.937 10.027 7.702 135.567 o
-1 -5 -20 74.727 71.201 12.805 41.059 o
-1 -5 -19 36.002 30.112 9.068 87.154 o
-1 -5 -18 88.822 84.117 13.518 35.761 o
-1 -5 -17 68.539 73.005 12.448 43.590 o
-1 -5 -16 100.360 88.284 7.388 75.281 o
-1 -5 -15 315.741 309.624 11.583 14.946 o
-1 -5 -14 1335.310 1243.940 34.471 1.105 o
-1 -5 -13 18.162 21.552 6.135 189.114 o
-1 -5 -12 365.781 333.028 11.170 12.723 o
-1 -5 -11 511.257 485.937 12.360 7.141 o
-1 -5 -10 767.073 743.439 14.839 3.415 o
-1 -5 -9 341.773 324.072 8.950 14.916 o
-1 -5 -8 792.823 793.291 16.974 3.083 o
-1 -5 -7 1355.010 1529.780 30.499 0.999 o
-1 -5 -6 799.705 827.385 20.176 2.856 o
-1 -5 -5 4482.740 4763.180 73.945 0.103 o
-1 -5 -4 2437.490 2880.040 75.951 0.277 o
-1 -5 -3 1459.370 1697.020 54.513 0.709 o
-1 -5 -2 1784.980 1894.260 76.184 0.461 o
-1 -5 -1 190.477 241.420 13.121 22.190 o
-1 -4 -22 6.010 2.565 6.645 180.720 o
-1 -4 -21 43.168 39.288 7.516 113.586 o
-1 -4 -20 145.058 127.316 12.000 33.704 o
-1 -4 -19 74.212 65.278 11.910 46.625 o
-1 -4 -18 21.145 23.371 8.286 108.809 o
-1 -4 -17 22.509 23.214 7.992 115.638 o
-1 -4 -16 132.828 107.921 8.526 52.844 o
-1 -4 -15 86.809 85.458 6.719 90.249 o
-1 -4 -14 37.536 31.201 3.706 312.977 o
-1 -4 -13 99.548 95.728 5.787 91.543 o
-1 -4 -12 3.761 2.302 1.884 1891.020 o
-1 -4 -11 132.299 129.247 7.066 58.590 o
-1 -4 -10 330.757 338.699 11.432 13.803 o
-1 -4 -9 2048.170 1867.970 45.564 0.503 o
-1 -4 -8 596.669 586.969 11.449 5.491 o
-1 -4 -7 154.075 147.309 5.117 58.100 o
-1 -4 -6 2039.240 2130.540 30.712 0.502 o
-1 -4 -5 534.112 533.289 16.626 5.895 o
-1 -4 -4 126.833 128.833 6.528 63.882 o
-1 -4 -3 370.987 405.721 14.775 10.054 o
-1 -4 -2 229.740 218.251 8.762 26.785 o
-1 -4 -1 393.179 392.804 10.181 11.209 o
-1 -3 -23 26.181 26.516 6.902 146.227 o
-1 -3 -22 0.179 12.781 8.661 107.710 o
-1 -3 -21 3.862 13.231 5.436 261.740 o
-1 -3 -20 9.458 15.365 5.372 256.758 o
-1 -3 -19 79.438 75.972 9.124 66.930 o
-1 -3 -18 305.492 329.794 18.256 10.968 o
-1 -3 -17 4.563 3.650 4.949 320.948 o
-1 -3 -16 37.857 42.972 5.206 197.141 o
-1 -3 -15 301.332 278.342 12.206 15.876 o
-1 -3 -14 597.347 522.870 32.545 3.516 o
-1 -3 -13 332.040 286.402 21.068 9.467 o
-1 -3 -12 398.885 401.316 12.880 10.078 o
-1 -3 -11 831.129 783.933 35.694 2.171 o
-1 -3 -10 568.499 563.015 14.476 5.626 o
-1 -3 -9 2266.970 2224.880 71.228 0.352 o
-1 -3 -8 2174.480 2298.890 95.721 0.306 o
-1 -3 -7 705.813 643.918 34.188 2.769 o
-1 -3 -6 1214.090 1238.010 29.382 1.292 o
-1 -3 -5 2921.560 2989.300 45.473 0.249 o
-1 -3 -4 7215.650 7389.970 195.880 0.037 o
-1 -3 -3 3407.590 3549.020 59.520 0.179 o
-1 -3 -2 164.200 166.781 10.110 34.916 o
-1 -3 -1 340.467 352.943 23.184 7.960 o
-1 -2 -23 17.865 25.859 8.851 96.990 o
-1 -2 -22 22.615 22.233 9.243 88.767 o
-1 -2 -21 24.185 40.499 7.783 116.425 o
-1 -2 -20 124.598 133.468 12.053 35.475 o
-1 -2 -19 328.254 358.572 19.685 9.493 o
-1 -2 -18 179.440 177.840 8.448 36.650 o
-1 -2 -17 271.534 267.742 9.998 19.704 o
-1 -2 -16 424.395 400.234 11.934 9.746 o
-1 -2 -15 106.220 91.778 4.390 104.807 o
-1 -2 -14 269.051 260.174 9.796 20.328 o
-1 -2 -13 177.595 176.321 6.026 44.062 o
-1 -2 -12 248.461 192.201 8.365 26.777 o
-1 -2 -11 271.456 258.517 12.804 17.314 o
-1 -2 -10 177.186 175.061 11.036 30.300 o
-1 -2 -9 206.666 182.770 12.273 24.581 o
-1 -2 -8 435.112 472.523 11.282 8.843 o
-1 -2 -7 3939.980 3914.880 51.330 0.143 o
-1 -2 -6 204.713 201.886 9.834 28.482 o
-1 -2 -5 1473.080 1510.380 22.874 0.959 o
-1 -2 -4 10914.500 10477.100 202.265 0.018 o
-1 -2 -3 4071.690 4259.370 120.382 0.109 o
-1 -2 -2 1601.270 1656.800 40.105 0.738 o
-1 -2 -1 2137.720 2256.140 51.609 0.417 o
-1 -1 -23 12.080 13.932 8.624 105.281 o
-1 -1 -22 63.898 50.906 8.512 83.287 o
-1 -1 -21 66.313 82.011 8.232 80.415 o
-1 -1 -20 58.129 72.313 7.453 97.974 o
-1 -1 -19 66.101 51.451 6.387 120.870 o
-1 -1 -18 153.116 153.073 9.990 37.884 o
-1 -1 -17 15.127 13.498 3.915 422.580 o
-1 -1 -16 58.130 56.548 6.433 124.039 o
-1 -1 -15 657.642 560.152 13.494 4.863 o
-1 -1 -14 57.819 49.718 3.974 210.438 o
-1 -1 -13 450.365 443.393 12.279 8.610 o
-1 -1 -12 1180.110 1172.780 43.976 1.166 o
-1 -1 -11 2275.710 2222.520 49.644 0.395 o
-1 -1 -10 2037.580 1895.620 42.382 0.511 o
-1 -1 -9 1063.570 902.804 28.554 1.783 o
-1 -1 -8 2105.900 2003.340 72.131 0.397 o
-1 -1 -7 529.840 570.625 11.709 6.357 o
-1 -1 -6 1742.230 1820.550 26.085 0.685 o
-1 -1 -5 3161.830 2986.760 40.731 0.228 o
-1 -1 -4 11517.900 11158.600 122.659 0.017 o
-1 -1 -3 6640.660 6578.600 86.378 0.051 o
-1 -1 -2 8601.010 8261.930 111.411 0.031 o
-1 -1 -1 21027.000 21113.400 390.966 0.005 o
0 0 4 148.265 105.514 6.408 61.087 o
0 0 6 2806.230 2766.180 62.799 0.258 o
0 0 8 598.994 508.536 21.122 4.814 o
0 0 10 922.758 822.907 26.939 2.225 o
0 0 12 54.004 54.283 6.794 119.318 o
0 0 14 3811.030 4007.550 76.664 0.139 o
0 0 16 270.940 252.996 14.336 16.057 o
0 0 18 1.583 -2.502 5.181 302.550 o
0 0 20 188.925 197.627 20.802 13.554 o
0 0 22 0.735 9.231 8.257 118.706 o
0 1 3 241.690 245.138 7.499 25.859 o
0 1 4 1700.200 1655.040 19.060 0.771 o
0 1 5 9196.970 9303.600 104.071 0.026 o
0 1 6 322.036 355.482 7.583 15.761 o
0 1 7 1587.400 1599.400 21.149 0.851 o
0 1 8 1135.220 1152.880 20.658 1.570 o
0 1 9 1021.510 921.356 29.494 1.823 o
0 1 10 58.118 73.561 7.764 92.449 o
0 1 11 846.189 889.720 30.595 2.208 o
0 1 13 291.808 295.265 19.529 10.970 o
0 1 14 54.704 54.088 5.662 149.454 o
0 1 15 350.240 379.622 14.059 11.210 o
0 1 16 94.125 100.939 9.787 54.592 o
0 1 17 76.814 95.468 7.583 81.594 o
0 1 18 501.390 514.979 18.149 6.135 o
0 1 19 137.847 131.670 9.090 46.096 o
0 1 20 5.167 7.299 2.650 966.186 o
0 1 21 118.340 123.339 9.221 50.423 o
0 1 22 0.007 17.496 6.009 218.200 o
0 1 23 0.020 -4.614 4.683 373.530 o
0 2 0 10201.900 11570.000 217.570 0.018 o
0 2 1 4176.540 4465.290 51.080 0.122 o
0 2 2 2866.650 3254.250 47.475 0.240 o
0 2 3 3341.160 3581.980 52.153 0.185 o
0 2 4 12555.200 13316.800 254.686 0.013 o
0 2 5 975.160 916.921 12.992 2.298 o
0 2 6 4834.090 4851.140 50.925 0.096 o
0 2 7 2649.080 2576.480 27.383 0.323 o
0 2 8 931.623 899.860 19.965 2.301 o
0 2 9 66.693 72.094 5.209 138.702 o
0 2 10 2203.430 2086.710 50.196 0.424 o
0 2 11 31.292 31.958 5.149 220.538 o
0 2 12 12.661 22.878 5.059 271.776 o
0 2 13 1478.070 1351.970 30.810 0.969 o
0 2 14 1278.890 1275.000 25.721 1.235 o
0 2 15 24.032 32.687 4.228 308.837 o
0 2 16 78.570 69.092 5.223 127.505 o
0 2 17 61.526 55.391 5.019 160.458 o
0 2 18 116.727 91.136 6.237 78.552 o
0 2 19 95.276 108.070 7.052 76.641 o
0 2 20 5.683 11.069 3.777 506.821 o
0 2 21 54.725 47.567 10.749 59.809 o
0 2 22 1.592 3.632 7.193 156.755 o
0 2 23 19.825 28.709 10.264 72.928 o
0 3 1 2376.670 2599.720 41.102 0.354 o
0 3 2 7478.690 8418.090 94.883 0.037 o
0 3 3 9213.990 10019.500 137.466 0.025 o
0 3 4 6901.250 7480.280 85.327 0.045 o
0 3 5 1056.960 1082.740 20.360 1.778 o
0 3 6 3776.940 3749.660 47.002 0.156 o
0 3 7 370.841 379.146 8.392 12.774 o
0 3 8 1053.850 1124.730 20.258 1.744 o
0 3 9 154.664 136.088 8.679 44.075 o
0 3 10 415.156 371.503 17.129 8.686 o
0 3 11 221.406 223.978 13.410 20.360 o
0 3 12 120.202 140.323 8.473 52.260 o
0 3 13 460.055 483.348 16.756 7.130 o
0 3 14 72.671 59.541 6.289 114.835 o
0 3 15 151.906 139.975 16.877 20.759 o
0 3 16 5.108 0.395 4.771 347.103 o
0 3 17 0.020 3.250 5.044 318.899 o
0 3 18 33.742 33.379 9.261 84.161 o
0 3 19 192.658 202.356 10.936 27.514 o
0 3 20 136.521 141.490 9.924 41.711 o
0 3 21 16.442 13.083 5.145 266.220 o
0 3 22 0.158 -0.996 3.980 516.494 o
0 3 23 5.902 7.918 5.595 248.707 o
0 4 0 876.448 852.992 27.612 2.284 o
0 4 1 9802.450 10467.700 145.284 0.022 o
0 4 2 8149.300 8476.380 97.523 0.033 o
0 4 3 6496.320 7205.940 72.912 0.050 o
0 4 4 4806.300 5305.040 64.623 0.090 o
0 4 5 654.429 706.193 14.153 4.259 o
0 4 6 1444.620 1567.900 24.699 0.949 o
0 4 7 736.641 866.933 16.804 3.178 o
0 4 8 654.738 713.416 15.121 4.170 o
0 4 9 2.935 1.016 2.439 1262.200 o
0 4 10 1950.880 1885.750 117.381 0.302 o
0 4 11 5.685 -0.244 5.922 227.722 o
0 4 12 229.229 220.295 10.778 23.686 o
0 4 13 202.737 206.598 12.237 24.020 o
0 4 14 953.478 854.478 24.571 2.178 o
0 4 15 2399.640 2510.230 50.187 0.345 o
0 4 16 23.051 34.766 5.753 196.143 o
0 4 17 711.068 703.579 23.499 3.329 o
0 4 18 1.178 -0.527 4.363 426.423 o
0 4 19 7.659 3.390 3.175 704.065 o
0 4 20 30.552 39.180 9.864 75.309 o
0 4 21 0.726 8.340 5.925 228.343 o
0 4 22 13.066 20.474 6.398 180.811 o
0 4 23 102.072 125.535 13.468 32.977 o
0 5 1 4964.450 4959.790 76.845 0.088 o
0 5 2 2666.950 2944.000 40.694 0.285 o
0 5 3 2343.540 2588.000 31.935 0.372 o
0 5 4 1083.890 1127.210 17.623 1.721 o
0 5 5 921.801 860.637 17.296 2.458 o
0 5 6 1411.160 1456.280 24.652 1.023 o
0 5 7 363.085 370.490 10.797 12.321 o
0 5 8 1063.720 1092.180 20.900 1.747 o
0 5 9 909.035 896.979 23.752 2.263 o
0 5 10 313.760 306.153 13.126 14.118 o
0 5 11 1.689 2.500 2.948 895.647 o
0 5 12 1.672 7.892 2.818 926.342 o
0 5 13 24.484 32.107 4.700 266.109 o
0 5 14 236.896 240.547 12.361 20.261 o
0 5 15 121.251 152.201 10.143 42.427 o
0 5 16 159.157 139.270 9.884 38.389 o
0 5 17 0.438 -0.753 2.877 982.330 o
0 5 18 54.060 67.933 7.735 96.171 o
0 5 19 132.934 145.164 17.422 20.480 o
0 5 20 158.099 164.297 19.347 16.385 o
0 5 21 71.355 63.711 12.944 41.028 o
0 5 22 0.900 -0.199 5.338 286.220 o
0 6 0 12.165 17.974 6.329 186.380 o
0 6 1 4463.450 4703.650 76.215 0.104 o
0 6 2 461.925 605.528 18.484 6.014 o
0 6 3 1944.900 2121.510 41.486 0.507 o
0 6 4 1057.720 1126.630 21.934 1.710 o
0 6 5 3083.520 3390.250 55.301 0.210 o
0 6 6 1956.070 1990.270 32.376 0.547 o
0 6 7 450.999 444.404 16.198 7.688 o
0 6 8 126.114 109.841 13.529 31.365 o
0 6 9 612.290 619.747 20.317 4.385 o
0 6 10 1.101 0.773 3.212 776.821 o
0 6 11 796.905 808.872 24.278 2.727 o
0 6 12 32.926 42.297 9.571 78.526 o
0 6 13 539.321 527.823 16.307 5.911 o
0 6 14 16.414 10.966 4.102 392.116 o
0 6 15 545.227 454.751 18.590 5.910 o
0 6 16 187.201 180.213 11.853 27.167 o
0 6 17 11.646 24.528 5.252 255.251 o
0 6 18 23.105 12.321 6.607 165.804 o
0 6 19 0.505 2.026 6.065 221.327 o
0 6 20 30.340 23.886 8.619 98.156 o
0 6 21 8.657 9.287 7.384 144.213 o
0 7 1 106.442 141.454 9.246 50.900 o
0 7 2 9.346 4.451 7.101 156.392 o
0 7 3 51.533 64.659 6.595 122.092 o
0 7 4 4004.620 4057.210 70.312 0.132 o
0 7 5 347.809 406.924 13.002 11.334 o
0 7 6 71.472 80.411 6.051 112.437 o
0 7 7 47.238 43.164 4.538 213.476 o
0 7 8 384.618 394.447 12.981 10.496 o
0 7 9 3.215 7.033 3.761 537.659 o
0 7 10 396.206 364.340 16.159 9.456 o
0 7 11 1023.520 984.085 62.471 1.066 o
0 7 12 306.612 281.363 14.418 13.998 o
0 7 13 115.987 107.601 7.658 63.493 o
0 7 14 9.065 12.684 3.750 488.575 o
0 7 15 45.756 40.753 8.645 89.504 o
0 7 16 283.093 249.501 14.274 15.666 o
0 7 17 13.652 10.442 5.004 287.945 o
0 7 18 199.652 232.251 22.097 11.867 o
0 7 19 55.474 50.340 11.204 55.425 o
0 7 20 43.081 59.399 12.309 47.988 o
0 7 21 0.180 4.016 5.437 274.047 o
0 8 0 351.388 363.785 22.904 7.837 o
0 8 1 1857.120 1785.630 40.278 0.596 o
0 8 2 482.184 479.387 18.571 6.499 o
0 8 3 1506.670 1511.610 36.530 0.854 o
0 8 4 8.463 16.398 4.570 343.587 o
0 8 5 328.257 356.182 16.016 11.223 o
0 8 6 12.995 18.101 4.997 281.851 o
0 8 7 779.981 836.519 20.729 2.892 o
0 8 8 20.717 21.409 6.690 160.503 o
0 8 9 940.903 892.098 21.663 2.241 o
0 8 10 47.809 43.692 5.286 177.980 o
0 8 11 309.297 305.007 12.375 14.811 o
0 8 12 377.704 415.834 16.220 9.283 o
0 8 13 784.814 790.094 36.873 2.219 o
0 8 14 70.638 78.862 7.114 95.197 o
0 8 15 43.016 46.413 6.716 132.273 o
0 8 16 21.120 19.298 5.233 244.431 o
0 8 17 3.567 7.815 6.496 188.729 o
0 8 18 43.588 43.502 10.794 61.587 o
0 8 19 5.339 10.163 6.546 183.703 o
0 8 20 53.962 72.661 13.966 37.013 o
0 9 1 286.705 288.491 14.923 14.238 o
0 9 2 86.984 85.789 8.526 69.133 o
0 9 3 236.789 233.647 13.626 18.931 o
0 9 4 683.041 682.721 23.943 3.483 o
0 9 5 931.339 1059.110 31.079 1.825 o
0 9 6 1346.510 1310.080 35.282 1.058 o
0 9 7 125.394 126.592 10.457 42.434 o
0 9 8 6.256 9.139 7.634 136.343 o
0 9 9 85.173 96.558 7.399 79.882 o
0 9 10 485.876 477.792 16.188 6.916 o
0 9 11 172.626 199.591 10.568 30.587 o
0 9 12 3.316 14.168 4.035 454.533 o
0 9 13 6.274 8.317 4.376 392.069 o
0 9 14 260.318 267.773 12.359 18.086 o
0 9 15 69.471 73.332 7.368 93.277 o
0 9 16 37.627 29.403 8.886 89.892 o
0 9 17 8.723 7.845 6.549 181.862 o
0 9 18 17.399 29.399 9.463 85.343 o
0 9 19 2.829 0.412 6.083 218.669 o
0 10 0 37.086 54.829 11.890 51.992 o
0 10 1 2574.860 2611.140 56.583 0.303 o
0 10 2 139.568 157.003 12.193 32.087 o
0 10 3 157.746 145.288 11.926 31.592 o
0 10 4 1531.560 1518.430 40.278 0.812 o
0 10 5 293.118 281.766 15.979 13.374 o
0 10 6 3.594 4.362 3.735 550.642 o
0 10 7 307.424 269.989 15.775 13.240 o
0 10 8 4.448 14.020 5.663 240.905 o
0 10 9 656.669 683.175 25.938 3.463 o
0 10 10 882.409 937.304 30.924 2.056 o
0 10 11 95.898 80.495 9.142 61.635 o
0 10 12 12.309 25.489 4.836 290.897 o
0 10 13 51.997 57.942 6.326 131.185 o
0 10 14 18.587 19.966 5.689 215.829 o
0 10 15 108.906 114.613 17.709 21.472 o
0 10 16 0.009 6.104 7.035 164.001 o
0 10 17 26.548 19.754 9.069 91.210 o
0 10 18 39.719 38.025 10.636 64.331 o
0 11 1 90.934 105.835 10.423 50.421 o
0 11 2 3.525 10.928 6.250 202.057 o
0 11 3 13.934 11.931 5.325 256.147 o
0 11 4 522.721 537.223 23.537 4.987 o
0 11 5 20.469 21.996 6.181 184.052 o
0 11 6 359.266 367.050 19.063 9.088 o
0 11 7 0.039 9.564 4.935 326.153 o
0 11 8 3.280 12.498 5.461 260.827 o
0 11 9 0.837 7.359 4.698 359.581 o
0 11 10 252.151 241.872 15.868 15.643 o
0 11 11 66.592 60.279 8.705 78.074 o
0 11 12 163.695 164.991 13.359 26.463 o
0 11 13 141.433 112.349 17.062 21.476 o
0 11 14 6.371 28.340 10.441 72.651 o
0 11 15 15.052 16.733 8.760 100.984 o
0 11 16 31.421 52.168 8.883 88.334 o
0 12 0 416.064 347.860 28.186 5.760 o
0 12 1 737.943 677.168 27.261 3.035 o
0 12 2 192.847 171.258 14.054 22.773 o
0 12 3 607.079 560.133 24.968 4.147 o
0 12 4 43.746 30.315 7.058 127.761 o
0 12 5 198.863 187.488 14.400 21.322 o
0 12 6 63.966 58.226 8.272 85.378 o
0 12 7 0.105 -1.037 4.142 477.250 o
0 12 8 8.430 5.927 4.607 353.809 o
0 12 9 49.767 73.592 9.802 67.813 o
0 12 10 6.038 10.540 4.966 308.330 o
0 12 11 0.124 16.272 5.927 224.578 o
0 12 12 16.203 31.494 11.039 63.873 o
0 12 13 136.933 142.395 20.809 15.412 o
0 12 14 161.125 166.724 23.720 11.837 o
0 13 1 69.330 76.984 10.028 60.726 o
0 13 2 43.382 59.474 9.526 74.412 o
0 13 3 1.045 7.342 6.584 185.818 o
0 13 4 145.647 146.469 13.575 28.095 o
0 13 5 87.454 85.408 10.823 50.231 o
0 13 6 77.216 68.539 9.489 64.921 o
0 13 7 0.001 8.953 5.518 262.969 o
0 13 8 8.362 15.417 5.643 236.273 o
0 13 9 141.170 138.622 13.405 29.242 o
0 13 10 15.849 15.851 5.959 204.895 o
0 13 11 6.086 -3.498 7.291 151.343 o
0 13 12 176.488 198.378 24.905 10.509 o
0 14 0 103.358 124.970 18.554 19.889 o
0 14 1 66.049 76.360 10.568 56.770 o
0 14 2 3.521 13.738 7.289 149.342 o
0 14 3 26.610 40.608 8.502 98.933 o
0 14 4 60.638 63.044 16.550 27.219 o
0 14 5 12.280 31.491 8.063 116.265 o
0 14 6 12.742 17.450 6.623 171.292 o
0 14 7 307.869 303.066 20.003 10.288 o
0 14 8 0.918 6.424 7.138 158.791 o
0 14 9 23.955 28.543 7.466 128.404 o
0 15 1 70.697 74.067 11.752 47.522 o
0 15 2 102.913 112.763 13.173 34.577 o
0 15 3 0.511 15.885 6.497 187.931 o
0 15 4 22.489 28.216 6.982 145.324 o
1 0 2 35.736 56.843 2.066 401.916 o
1 0 3 44.410 48.862 2.903 312.471 o
1 0 4 2478.380 2329.640 24.703 0.378 o
1 0 5 0.482 4.048 1.164 4696.330 o
1 0 6 4771.580 4663.890 62.623 0.099 o
1 0 7 35.921 28.193 1.987 531.334 o
1 0 8 616.045 556.947 9.966 5.562 o
1 0 9 445.760 521.649 10.117 8.343 o
1 0 10 312.603 325.582 9.225 16.162 o
1 0 11 231.240 272.641 9.793 22.712 o
1 0 12 34.379 41.061 4.408 252.583 o
1 0 13 242.997 220.153 8.767 25.339 o
1 0 14 367.956 388.119 11.066 11.764 o
1 0 15 252.227 233.717 8.702 23.920 o
1 0 16 326.078 299.285 13.007 13.851 o
1 0 17 185.154 185.373 10.653 29.781 o
1 0 18 98.800 77.270 10.782 49.255 o
1 0 19 120.207 104.963 10.435 45.203 o
1 0 20 113.485 139.702 12.618 34.274 o
1 0 21 36.246 46.810 23.644 14.286 o
1 0 22 14.954 17.970 6.372 181.587 o
1 0 23 6.673 2.122 3.275 683.052 o
1 1 0 160.311 118.705 6.585 54.125 o
1 1 1 20929.700 21067.000 391.256 0.005 o
1 1 2 8661.630 8466.510 163.696 0.029 o
1 1 3 6584.660 6473.570 107.490 0.050 o
1 1 4 11601.800 11462.800 108.944 0.017 o
1 1 5 3122.010 3031.540 36.241 0.232 o
1 1 6 1755.580 1869.280 17.310 0.688 o
1 1 7 531.408 584.243 9.334 6.495 o
1 1 8 2107.910 2169.570 26.595 0.483 o
1 1 9 1068.860 958.812 15.370 1.960 o
1 1 10 2029.620 2014.630 31.354 0.521 o
1 1 11 2251.730 2390.890 73.174 0.338 o
1 1 12 1152.730 1179.970 27.297 1.435 o
1 1 13 449.772 465.821 13.601 8.115 o
1 1 14 55.315 49.382 4.116 210.099 o
1 1 15 655.597 566.345 17.180 4.549 o
1 1 16 58.153 64.541 7.080 107.087 o
1 1 17 14.817 20.359 3.723 439.893 o
1 1 18 155.612 162.535 9.806 37.422 o
1 1 19 66.788 54.159 7.784 92.606 o
1 1 20 56.519 55.041 6.331 128.461 o
1 1 21 64.990 62.157 7.003 105.157 o
1 1 22 65.925 74.440 7.776 88.493 o
1 1 23 10.700 27.380 5.744 217.814 o
1 2 0 2409.520 2597.210 57.751 0.326 o
1 2 1 2089.900 2273.200 51.929 0.425 o
1 2 2 1620.880 1757.030 28.164 0.756 o
1 2 3 4076.200 4219.760 78.478 0.124 o
1 2 4 10941.500 10417.800 203.208 0.018 o
1 2 5 1429.960 1486.590 22.624 1.006 o
1 2 6 178.951 192.765 5.572 43.088 o
1 2 7 3915.300 3968.060 67.473 0.138 o
1 2 8 413.207 487.089 10.420 9.357 o
1 2 9 220.294 225.598 6.907 30.350 o
1 2 10 186.532 197.579 6.788 38.044 o
1 2 11 268.135 270.607 9.712 20.111 o
1 2 12 247.080 222.720 9.993 23.206 o
1 2 13 174.071 174.424 10.665 31.628 o
1 2 14 268.984 298.954 11.620 17.452 o
1 2 15 108.102 102.939 6.552 76.887 o
1 2 16 427.771 403.413 12.764 9.401 o
1 2 17 270.443 273.976 10.787 18.833 o
1 2 18 173.076 168.249 8.733 37.639 o
1 2 19 324.828 356.187 13.047 12.844 o
1 2 20 126.706 129.285 9.254 47.819 o
1 2 21 23.410 32.086 6.642 156.007 o
1 2 22 22.884 26.963 7.032 143.690 o
1 2 23 18.865 28.075 6.478 168.455 o
1 3 0 187.087 267.333 9.118 28.154 o
1 3 1 375.516 403.571 11.757 11.050 o
1 3 2 164.614 168.255 5.641 49.556 o
1 3 3 3365.370 3519.710 37.508 0.191 o
1 3 4 7238.000 7391.910 74.001 0.043 o
1 3 5 2946.090 3007.430 38.454 0.250 o
1 3 6 1231.980 1289.170 17.530 1.357 o
1 3 7 700.451 727.170 28.330 3.017 o
1 3 8 2176.590 2306.940 33.939 0.436 o
1 3 9 2270.450 2269.040 50.337 0.390 o
1 3 10 561.029 261.682 284.331 0.100 o
1 3 11 833.906 804.523 31.663 2.305 o
1 3 12 395.751 404.970 22.013 7.257 o
1 3 13 340.995 339.942 14.544 11.822 o
1 3 14 588.629 579.729 19.962 4.748 o
1 3 15 311.164 300.813 14.586 13.378 o
1 3 16 38.208 45.875 6.238 151.784 o
1 3 17 4.642 5.666 3.525 600.348 o
1 3 18 304.380 332.690 14.005 13.422 o
1 3 19 79.701 91.035 9.922 57.815 o
1 3 20 9.601 21.110 4.286 371.423 o
1 3 21 3.551 3.898 3.549 607.964 o
1 3 22 0.118 5.630 5.971 226.895 o
1 3 23 27.468 35.900 7.354 127.697 o
1 4 0 29.117 40.191 4.244 280.226 o
1 4 1 385.027 384.275 9.998 11.655 o
1 4 2 237.277 234.793 8.221 25.922 o
1 4 3 375.337 415.775 8.544 11.912 o
1 4 4 126.169 127.856 5.680 69.999 o
1 4 5 573.291 577.790 11.091 5.836 o
1 4 6 2078.680 2141.350 30.937 0.488 o
1 4 7 151.336 146.510 6.497 53.078 o
1 4 8 596.170 582.892 14.742 5.216 o
1 4 9 2039.550 1895.080 54.050 0.477 o
1 4 10 315.649 309.383 18.216 10.991 o
1 4 11 134.819 121.710 11.961 35.314 o
1 4 12 4.059 7.176 5.029 308.736 o
1 4 13 101.794 106.182 15.039 28.567 o
1 4 14 35.825 34.584 5.115 212.302 o
1 4 15 89.875 95.816 10.494 51.076 o
1 4 16 134.837 123.371 14.101 28.407 o
1 4 17 21.548 18.669 9.199 90.263 o
1 4 18 20.128 25.944 5.250 238.995 o
1 4 19 71.791 74.396 11.103 51.793 o
1 4 20 144.573 140.882 11.470 34.754 o
1 4 21 43.353 48.907 10.516 64.015 o
1 4 22 6.053 9.443 5.786 232.134 o
1 5 0 2550.670 2660.370 33.214 0.328 o
1 5 1 199.221 246.127 8.462 29.131 o
1 5 2 1776.190 1890.640 29.618 0.643 o
1 5 3 1477.690 1739.050 23.571 0.868 o
1 5 4 2428.560 2853.290 40.226 0.325 o
1 5 5 4458.280 4621.430 59.539 0.109 o
1 5 6 802.404 813.061 16.836 3.003 o
1 5 7 1370.060 1483.960 25.160 1.043 o
1 5 8 791.564 771.477 18.794 3.062 o
1 5 9 350.131 318.221 11.316 13.507 o
1 5 10 750.476 713.951 31.064 2.704 o
1 5 11 511.075 504.873 25.554 4.904 o
1 5 12 369.434 346.349 14.965 10.754 o
1 5 13 17.238 18.209 4.249 354.192 o
1 5 14 1337.590 1252.250 32.474 1.120 o
1 5 15 312.646 316.254 15.196 12.697 o
1 5 16 99.200 75.737 7.885 73.111 o
1 5 17 70.455 68.412 8.905 73.061 o
1 5 18 86.738 84.237 8.530 69.426 o
1 5 19 36.063 32.719 5.963 171.529 o
1 5 20 74.748 76.147 8.634 73.572 o
1 5 21 2.119 4.084 5.724 245.196 o
1 5 22 3.691 4.244 4.203 440.548 o
1 6 0 34.705 27.899 5.752 185.649 o
1 6 1 2239.330 2332.530 36.844 0.413 o
1 6 2 1226.870 1329.400 20.779 1.310 o
1 6 3 303.999 313.681 8.736 17.254 o
1 6 4 1320.820 1481.420 26.176 1.082 o
1 6 5 1418.830 1362.230 25.425 1.052 o
1 6 6 2363.810 2579.050 39.088 0.360 o
1 6 7 536.119 535.640 13.975 6.220 o
1 6 8 680.830 735.597 17.066 3.808 o
1 6 9 62.590 63.981 4.848 158.431 o
1 6 10 237.332 217.173 16.114 16.475 o
1 6 11 34.412 34.733 8.640 94.548 o
1 6 12 12.106 14.941 4.276 375.024 o
1 6 13 227.195 215.459 12.357 21.727 o
1 6 14 35.526 38.807 5.816 174.940 o
1 6 15 244.862 249.625 14.010 17.664 o
1 6 16 136.641 136.728 10.896 38.130 o
1 6 17 2.335 -4.290 4.051 488.458 o
1 6 18 23.219 26.060 5.461 219.311 o
1 6 19 212.516 217.715 14.415 19.677 o
1 6 20 78.065 63.571 8.353 77.938 o
1 6 21 11.063 10.682 6.774 167.949 o
1 7 0 551.767 525.635 18.214 5.529 o
1 7 1 57.130 62.370 6.615 118.322 o
1 7 2 302.744 316.993 11.781 15.230 o
1 7 3 813.464 825.589 20.067 2.811 o
1 7 4 546.617 611.222 20.874 4.852 o
1 7 5 189.602 183.698 11.343 27.872 o
1 7 6 136.574 149.374 7.671 51.213 o
1 7 7 51.982 49.645 4.571 196.543 o
1 7 8 161.347 145.774 7.543 46.194 o
1 7 9 614.912 574.944 15.655 4.990 o
1 7 10 1920.260 1742.620 76.897 0.445 o
1 7 11 712.865 645.281 55.888 1.659 o
1 7 12 11.441 10.354 5.778 225.469 o
1 7 13 26.467 34.638 5.769 191.022 o
1 7 14 262.007 244.159 17.058 14.187 o
1 7 15 36.250 38.302 6.259 156.552 o
1 7 16 20.671 27.739 5.586 213.933 o
1 7 17 49.101 52.678 7.158 114.593 o
1 7 18 7.752 9.647 4.502 365.423 o
1 7 19 73.375 68.385 8.373 78.525 o
1 7 20 9.979 7.890 7.422 142.521 o
1 7 21 38.087 47.349 11.912 52.134 o
1 8 0 377.857 387.527 16.505 9.475 o
1 8 1 16.972 9.725 3.819 439.556 o
1 8 2 106.243 114.288 9.081 55.145 o
1 8 3 553.771 570.082 16.987 5.446 o
1 8 4 26.960 35.916 4.699 255.858 o
1 8 5 1066.600 1030.460 24.381 1.741 o
1 8 6 474.656 481.780 19.588 6.379 o
1 8 7 104.850 117.610 10.064 48.894 o
1 8 8 1342.210 1249.780 34.659 1.095 o
1 8 9 329.575 299.901 16.082 11.923 o
1 8 10 385.442 395.092 24.471 6.754 o
1 8 11 4.164 8.619 4.226 425.494 o
1 8 12 154.027 140.676 14.903 24.527 o
1 8 13 19.888 19.702 7.848 121.438 o
1 8 14 41.100 47.733 7.148 121.393 o
1 8 15 363.234 327.553 17.316 10.121 o
1 8 16 6.469 24.790 5.875 215.999 o
1 8 17 23.381 25.835 6.926 147.570 o
1 8 18 22.528 25.883 6.116 183.125 o
1 8 19 65.236 58.662 11.572 50.547 o
1 8 20 23.443 21.394 8.132 112.072 o
1 9 0 1641.890 1704.400 41.306 0.700 o
1 9 1 110.647 100.421 15.841 25.980 o
1 9 2 123.223 110.412 9.793 47.565 o
1 9 3 1267.000 1255.950 34.809 1.161 o
1 9 4 32.898 39.574 5.552 189.979 o
1 9 5 433.360 441.166 15.806 8.107 o
1 9 6 77.190 78.227 7.005 93.464 o
1 9 7 242.110 245.105 11.973 20.257 o
1 9 8 769.368 741.198 30.497 2.632 o
1 9 9 518.825 537.297 23.448 5.031 o
1 9 10 369.925 346.325 18.435 9.325 o
1 9 11 265.458 239.547 15.405 15.594 o
1 9 12 56.218 60.662 8.185 89.327 o
1 9 13 146.133 129.945 15.844 23.274 o
1 9 14 89.095 77.277 12.870 38.967 o
1 9 15 5.980 8.942 4.061 449.105 o
1 9 16 44.040 44.462 7.393 114.571 o
1 9 17 56.244 66.187 8.547 82.783 o
1 9 18 1.226 9.097 6.695 179.084 o
1 9 19 23.898 17.682 8.563 102.476 o
1 10 0 130.621 115.833 11.762 36.913 o
1 10 1 0.933 3.534 4.013 495.894 o
1 10 2 146.031 134.080 11.316 35.522 o
1 10 3 47.551 54.228 7.993 97.716 o
1 10 4 144.308 145.770 11.914 33.050 o
1 10 5 764.648 755.489 27.523 2.778 o
1 10 6 96.751 88.011 7.839 72.200 o
1 10 7 295.834 277.977 13.334 15.277 o
1 10 8 143.988 140.204 13.591 28.434 o
1 10 9 499.296 492.548 18.088 6.301 o
1 10 10 50.040 49.728 6.398 134.321 o
1 10 11 2.419 5.842 3.740 551.972 o
1 10 12 91.799 92.837 10.763 49.240 o
1 10 13 36.421 20.029 7.356 127.046 o
1 10 14 35.648 45.682 10.944 61.170 o
1 10 15 73.805 83.730 13.893 35.428 o
1 10 16 199.479 211.490 15.096 19.584 o
1 10 17 11.350 4.677 5.437 256.580 o
1 11 0 887.987 868.466 30.411 2.139 o
1 11 1 93.027 115.515 11.135 45.005 o
1 11 2 770.098 699.669 26.933 2.889 o
1 11 3 380.126 368.356 30.016 5.539 o
1 11 4 86.298 78.763 9.294 63.071 o
1 11 5 591.871 494.171 23.744 4.603 o
1 11 6 54.302 60.041 8.666 82.838 o
1 11 7 141.482 150.372 12.809 30.392 o
1 11 8 12.304 12.611 5.365 254.886 o
1 11 9 178.796 181.609 11.580 28.499 o
1 11 10 131.752 110.605 9.396 47.962 o
1 11 11 91.564 90.931 9.712 56.822 o
1 11 12 5.413 16.596 4.572 351.984 o
1 11 13 0.440 13.509 5.178 292.797 o
1 11 14 76.755 79.857 10.860 52.282 o
1 11 15 12.173 8.394 8.244 115.637 o
1 11 16 77.717 99.193 16.247 26.572 o
1 12 0 129.867 109.819 11.054 40.347 o
1 12 1 1.913 14.437 5.463 261.285 o
1 12 2 91.649 87.013 9.863 56.091 o
1 12 3 80.388 80.224 13.555 36.499 o
1 12 4 1.861 9.470 5.415 269.665 o
1 12 5 375.176 350.046 19.948 8.626 o
1 12 6 111.751 117.644 12.153 37.481 o
1 12 7 35.241 38.745 7.270 124.604 o
1 12 8 98.271 111.670 11.875 40.730 o
1 12 9 12.433 23.216 6.988 153.519 o
1 12 10 132.659 115.377 12.323 34.598 o
1 12 11 120.353 122.129 15.343 26.104 o
1 12 12 65.443 64.238 7.526 95.062 o
1 12 13 25.595 36.267 6.306 165.975 o
1 12 14 10.633 8.085 7.045 156.975 o
1 13 0 7.365 -2.106 4.226 429.905 o
1 13 1 52.617 60.930 8.865 80.425 o
1 13 2 88.664 77.056 9.958 57.090 o
1 13 3 53.018 60.933 9.095 77.166 o
1 13 4 34.847 29.264 7.254 128.174 o
1 13 5 173.169 160.700 14.578 23.379 o
1 13 6 243.759 234.232 23.208 10.308 o
1 13 7 4.568 5.361 5.373 272.714 o
1 13 8 128.901 113.867 12.736 33.601 o
1 13 9 65.319 63.120 10.206 61.419 o
1 13 10 14.939 21.387 7.132 146.919 o
1 13 11 20.365 27.504 7.568 127.523 o
1 13 12 4.900 6.965 5.605 249.811 o
1 14 0 2.311 9.123 5.367 273.855 o
1 14 1 62.598 72.139 10.292 60.262 o
1 14 2 56.278 51.738 8.852 80.899 o
1 14 3 32.460 39.752 8.444 98.142 o
1 14 4 7.616 16.754 6.715 170.986 o
1 14 5 0.178 3.217 5.284 290.560 o
1 14 6 74.215 76.628 10.965 52.219 o
1 14 7 102.651 85.953 11.574 43.380 o
1 14 8 130.330 125.451 13.290 31.082 o
1 14 9 7.028 26.794 7.971 121.785 o
1 15 0 9.108 13.739 5.613 238.671 o
1 15 1 37.476 49.085 15.139 33.506 o
1 15 2 53.797 59.014 10.354 62.742 o
1 15 3 59.537 69.277 10.826 56.421 o
2 0 0 4107.150 4536.120 64.132 0.121 o
2 0 1 664.641 504.660 8.446 5.421 o
2 0 2 108.879 107.676 2.313 115.340 o
2 0 3 853.589 737.651 8.030 3.198 o
2 0 4 786.871 746.070 8.838 3.508 o
2 0 5 1847.500 1900.910 22.715 0.628 o
2 0 6 1534.230 1445.740 13.836 0.974 o
2 0 7 5495.430 5562.770 46.276 0.075 o
2 0 8 1195.490 1313.190 15.644 1.405 o
2 0 9 212.477 195.610 4.999 37.062 o
2 0 10 69.134 66.419 3.740 179.113 o
2 0 11 131.549 111.483 7.197 60.908 o
2 0 12 310.340 264.860 10.757 16.849 o
2 0 13 65.746 69.515 5.949 123.610 o
2 0 14 193.617 180.856 9.611 31.472 o
2 0 15 42.815 35.485 4.737 219.558 o
2 0 16 107.456 122.531 8.563 57.296 o
2 0 17 97.648 83.043 7.406 77.333 o
2 0 18 1.170 3.679 4.244 443.397 o
2 0 19 75.049 81.570 11.718 46.644 o
2 0 20 3.434 0.030 4.989 322.201 o
2 0 21 132.410 139.712 10.423 40.430 o
2 0 22 178.921 220.959 13.376 23.248 o
2 0 23 0.002 5.533 4.109 473.261 o
2 1 0 2705.830 2652.190 33.395 0.305 o
2 1 1 1010.680 1045.520 16.872 1.972 o
2 1 2 367.158 390.092 11.422 11.625 o
2 1 3 130.273 115.916 3.520 85.521 o
2 1 4 67.440 69.257 2.538 215.226 o
2 1 5 6093.340 5743.760 105.119 0.060 o
2 1 6 379.660 374.004 6.206 13.186 o
2 1 7 679.704 772.231 10.359 4.043 o
2 1 8 644.925 674.530 9.917 4.709 o
2 1 9 794.372 835.091 12.697 3.130 o
2 1 10 58.042 68.812 3.983 189.949 o
2 1 11 749.685 802.476 16.006 3.304 o
2 1 12 105.512 88.458 17.025 23.595 o
2 1 13 14.598 19.265 2.834 649.220 o
2 1 14 121.290 108.646 7.378 63.597 o
2 1 15 227.504 207.089 10.573 24.707 o
2 1 16 387.963 401.212 15.268 9.545 o
2 1 17 62.444 65.686 7.456 97.406 o
2 1 18 325.317 350.471 15.066 11.864 o
2 1 19 186.063 204.436 11.684 26.526 o
2 1 20 35.179 33.059 5.776 180.645 o
2 1 21 23.450 31.611 5.520 211.061 o
2 1 22 23.816 37.157 6.123 175.403 o
2 2 0 1659.180 1642.790 43.866 0.693 o
2 2 1 225.866 238.143 9.315 25.348 o
2 2 2 614.288 589.969 25.866 3.928 o
2 2 3 1048.160 1089.740 23.542 1.735 o
2 2 4 1768.000 1600.640 46.221 0.644 o
2 2 5 1459.220 1381.610 34.012 0.949 o
2 2 6 1514.670 1482.170 22.128 0.941 o
2 2 7 583.527 607.007 11.297 5.538 o
2 2 8 153.595 171.256 6.541 48.867 o
2 2 9 258.142 286.895 7.751 22.110 o
2 2 10 1814.870 1810.350 36.071 0.623 o
2 2 11 295.741 300.254 12.518 15.402 o
2 2 12 40.977 26.381 28.202 10.140 o
2 2 13 464.712 437.893 25.676 5.513 o
2 2 14 6.668 -0.275 3.117 758.798 o
2 2 15 103.278 95.706 6.945 76.915 o
2 2 16 4.234 3.307 2.494 1142.810 o
2 2 17 25.663 26.508 8.923 93.237 o
2 2 18 13.806 20.110 5.158 263.387 o
2 2 19 72.022 69.394 8.784 73.821 o
2 2 20 110.871 124.500 11.596 39.556 o
2 2 21 38.199 33.004 8.733 91.853 o
2 2 22 9.456 4.369 4.670 344.529 o
2 3 0 144.455 139.757 7.356 51.940 o
2 3 1 1525.160 1585.300 30.427 0.855 o
2 3 2 2388.280 2471.000 34.582 0.371 o
2 3 3 51.819 52.381 3.558 241.519 o
2 3 4 66.997 67.149 3.763 181.721 o
2 3 5 840.251 846.273 34.910 2.112 o
2 3 6 809.255 766.549 82.021 0.900 o
2 3 7 571.282 579.209 13.200 5.645 o
2 3 8 601.445 560.609 13.356 5.408 o
2 3 9 82.763 71.660 5.681 113.722 o
2 3 10 563.213 580.797 17.678 5.221 o
2 3 11 136.479 73.503 69.713 1.661 o
2 3 12 710.124 684.672 32.382 2.804 o
2 3 13 86.628 67.250 10.687 52.916 o
2 3 14 1.435 8.290 5.712 244.468 o
2 3 15 224.826 208.850 12.182 22.378 o
2 3 16 41.503 40.909 6.215 151.795 o
2 3 17 93.852 88.661 7.176 80.299 o
2 3 18 312.272 316.065 13.784 13.574 o
2 3 19 110.660 117.497 8.822 55.376 o
2 3 20 9.383 9.040 5.150 283.214 o
2 3 21 5.844 5.314 4.686 350.806 o
2 3 22 66.517 85.454 11.118 51.642 o
2 4 0 255.695 230.366 10.139 22.029 o
2 4 1 576.814 622.736 17.308 4.951 o
2 4 2 418.207 456.414 14.111 8.682 o
2 4 3 878.007 882.822 20.758 2.465 o
2 4 4 351.392 358.567 11.672 12.556 o
2 4 5 706.328 693.738 31.160 2.878 o
2 4 6 1080.060 920.686 65.868 0.994 o
2 4 7 1266.290 1209.450 42.178 1.096 o
2 4 8 298.742 331.802 20.451 9.958 o
2 4 9 680.881 671.203 19.395 3.849 o
2 4 10 19.902 7.927 5.972 203.972 o
2 4 11 507.131 503.146 27.354 4.671 o
2 4 12 263.003 259.295 19.606 12.005 o
2 4 13 544.138 528.850 29.288 4.113 o
2 4 14 22.381 22.961 4.788 274.536 o
2 4 15 393.512 417.327 24.540 6.531 o
2 4 16 30.552 26.063 5.257 220.293 o
2 4 17 28.448 36.927 5.791 185.953 o
2 4 18 77.768 67.128 8.005 81.798 o
2 4 19 49.090 44.840 8.743 86.051 o
2 4 20 33.331 39.896 11.384 57.674 o
2 4 21 80.647 94.750 8.558 69.408 o
2 4 22 17.953 27.378 6.505 168.337 o
2 5 0 89.266 69.534 6.171 101.492 o
2 5 1 144.120 164.336 11.346 33.811 o
2 5 2 1489.950 1506.050 31.905 0.896 o
2 5 3 803.902 900.560 22.469 2.619 o
2 5 4 14.027 16.914 4.358 353.296 o
2 5 5 583.457 658.330 13.329 5.106 o
2 5 6 295.602 270.440 7.462 20.068 o
2 5 7 141.867 179.248 7.120 48.547 o
2 5 8 324.627 300.023 19.310 10.326 o
2 5 9 588.974 591.041 29.761 3.674 o
2 5 10 218.256 198.372 17.020 16.593 o
2 5 11 107.088 101.297 12.040 39.505 o
2 5 12 141.252 141.205 14.718 25.747 o
2 5 13 61.374 71.550 7.096 102.785 o
2 5 14 4.252 7.572 5.798 234.525 o
2 5 15 112.819 103.921 8.967 55.571 o
2 5 16 134.087 131.452 10.381 40.991 o
2 5 17 47.885 41.766 6.587 133.980 o
2 5 18 73.041 71.368 8.164 80.754 o
2 5 19 74.498 58.191 8.429 79.256 o
2 5 20 22.887 26.176 9.203 88.909 o
2 5 21 2.564 5.785 3.355 675.588 o
2 6 0 26.330 22.125 6.022 185.782 o
2 6 1 140.706 189.295 10.754 34.558 o
2 6 2 565.934 567.350 28.563 3.974 o
2 6 3 1292.080 1251.160 29.363 1.197 o
2 6 4 410.289 429.299 15.140 8.826 o
2 6 5 536.753 518.240 12.648 6.499 o
2 6 6 350.915 315.309 11.691 13.343 o
2 6 7 485.820 469.064 15.810 7.050 o
2 6 8 61.223 59.723 4.547 173.051 o
2 6 9 142.905 115.739 9.497 44.761 o
2 6 10 370.652 360.992 23.938 7.272 o
2 6 11 1073.150 1016.550 43.247 1.370 o
2 6 12 427.627 435.674 17.704 7.759 o
2 6 13 130.487 134.217 10.066 42.732 o
2 6 14 114.836 111.584 9.321 51.909 o
2 6 15 31.585 27.116 5.498 203.625 o
2 6 16 24.393 27.953 5.416 218.826 o
2 6 17 50.089 57.108 7.477 105.823 o
2 6 18 16.707 30.943 10.281 73.042 o
2 6 19 78.131 90.047 9.486 61.997 o
2 6 20 52.454 49.735 7.514 105.788 o
2 6 21 8.529 16.139 5.512 245.872 o
2 7 0 1.024 3.494 2.910 920.410 o
2 7 1 323.954 321.622 15.011 12.367 o
2 7 2 914.067 820.642 25.193 2.308 o
2 7 3 83.749 97.920 15.697 27.890 o
2 7 4 765.680 735.161 21.371 3.133 o
2 7 5 669.292 649.722 15.611 4.259 o
2 7 6 525.904 507.035 19.206 5.741 o
2 7 7 249.942 239.984 11.483 20.495 o
2 7 8 1065.500 1046.670 25.118 1.715 o
2 7 9 612.385 530.851 16.088 5.172 o
2 7 10 411.531 305.827 27.010 6.264 o
2 7 11 161.084 149.916 16.665 20.495 o
2 7 12 49.536 47.792 10.706 61.099 o
2 7 13 79.354 78.407 7.979 79.227 o
2 7 14 56.538 58.492 7.381 103.844 o
2 7 15 43.369 51.914 7.157 118.415 o
2 7 16 101.104 106.874 10.021 50.941 o
2 7 17 43.242 52.993 12.204 49.047 o
2 7 18 92.298 93.762 9.761 55.974 o
2 7 19 18.309 20.424 5.486 229.582 o
2 7 20 22.083 21.859 5.612 214.534 o
2 8 0 1200.430 1309.130 28.325 1.279 o
2 8 1 207.065 205.989 10.537 26.701 o
2 8 2 176.460 171.602 11.684 28.978 o
2 8 3 58.496 58.909 7.237 105.452 o
2 8 4 203.461 206.932 13.058 22.580 o
2 8 5 128.139 110.632 9.984 45.614 o
2 8 6 41.856 45.242 9.935 71.293 o
2 8 7 90.323 94.879 7.424 77.732 o
2 8 8 8.024 7.133 2.890 793.814 o
2 8 9 102.989 110.221 14.897 28.791 o
2 8 10 506.119 470.155 30.032 4.395 o
2 8 11 111.270 123.988 15.620 25.869 o
2 8 12 238.696 218.460 20.982 12.043 o
2 8 13 49.045 47.328 11.398 54.945 o
2 8 14 121.590 116.574 10.431 44.006 o
2 8 15 0.653 -0.204 3.197 793.767 o
2 8 16 39.714 36.578 6.790 136.279 o
2 8 17 5.642 15.977 5.367 262.986 o
2 8 18 54.935 67.660 9.025 76.482 o
2 8 19 40.568 52.602 8.443 92.731 o
2 9 0 36.774 64.813 7.797 104.101 o
2 9 1 272.398 305.813 16.079 13.588 o
2 9 2 153.703 153.799 9.671 38.863 o
2 9 3 41.815 39.788 5.517 179.254 o
2 9 4 161.843 182.516 13.058 26.597 o
2 9 5 29.671 34.661 9.724 77.951 o
2 9 6 585.164 572.991 23.755 4.377 o
2 9 7 292.926 261.427 22.376 9.723 o
2 9 8 149.023 137.281 16.826 21.039 o
2 9 9 299.764 259.624 22.432 9.595 o
2 9 10 159.515 135.871 16.676 20.866 o
2 9 11 45.036 49.098 11.275 56.441 o
2 9 12 196.615 191.616 20.177 14.035 o
2 9 13 10.588 18.797 9.317 90.579 o
2 9 14 155.247 148.032 18.418 17.994 o
2 9 15 32.957 46.209 7.462 118.635 o
2 9 16 48.167 52.332 7.915 99.341 o
2 9 17 104.188 102.093 12.707 36.855 o
2 9 18 13.500 16.338 9.081 94.755 o
2 10 0 20.363 24.328 6.001 192.370 o
2 10 1 42.664 41.460 6.923 128.471 o
2 10 2 145.779 147.110 12.156 32.067 o
2 10 3 165.941 150.892 10.073 35.892 o
2 10 4 895.577 816.081 27.927 2.272 o
2 10 5 32.591 37.714 5.837 178.195 o
2 10 6 231.071 209.420 14.844 18.380 o
2 10 7 16.191 24.894 5.591 222.189 o
2 10 8 52.799 67.606 13.245 40.933 o
2 10 9 74.316 70.703 13.153 39.343 o
2 10 10 56.968 51.876 12.431 46.099 o
2 10 11 61.562 66.585 13.148 40.728 o
2 10 12 279.318 246.917 24.001 9.225 o
2 10 13 78.964 59.687 13.213 39.127 o
2 10 14 33.617 28.869 9.325 83.761 o
2 10 15 24.709 28.869 7.012 142.553 o
2 10 16 17.098 33.383 6.684 158.881 o
2 11 0 1.138 9.646 4.859 333.551 o
2 11 1 448.460 382.537 26.893 5.637 o
2 11 2 77.092 79.094 9.358 64.853 o
2 11 3 79.377 85.512 9.687 60.487 o
2 11 4 221.193 209.563 15.409 18.154 o
2 11 5 97.151 101.928 8.979 59.782 o
2 11 6 364.503 315.478 15.398 11.097 o
2 11 7 27.997 24.072 5.131 234.869 o
2 11 8 45.676 33.743 7.214 121.206 o
2 11 9 252.164 218.756 15.967 16.000 o
2 11 10 23.896 21.893 8.840 96.043 o
2 11 11 63.185 73.793 14.196 35.283 o
2 11 12 4.971 8.775 7.668 135.770 o
2 11 13 96.032 94.227 16.477 25.217 o
2 11 14 10.909 10.419 9.090 95.858 o
2 11 15 141.822 144.236 19.914 16.392 o
2 12 0 9.004 14.597 6.182 199.341 o
2 12 1 36.975 26.555 8.878 90.679 o
2 12 2 25.329 37.211 8.994 90.486 o
2 12 3 121.590 149.054 13.562 29.989 o
2 12 4 360.526 302.338 42.877 3.530 o
2 12 5 61.340 67.882 9.815 65.626 o
2 12 6 88.746 76.654 11.604 45.794 o
2 12 7 65.597 60.890 7.695 93.034 o
2 12 8 64.879 58.948 7.472 97.609 o
2 12 9 58.708 50.947 8.822 80.669 o
2 12 10 31.256 32.548 7.417 124.653 o
2 12 11 23.498 21.177 6.688 158.464 o
2 12 12 45.633 67.916 10.287 64.158 o
2 12 13 2.067 9.232 6.840 171.176 o
2 13 0 0.776 4.063 4.423 409.666 o
2 13 1 96.801 105.399 11.817 41.606 o
2 13 2 36.965 46.785 8.940 86.493 o
2 13 3 179.394 178.067 15.222 21.341 o
2 13 4 6.249 9.600 5.673 240.618 o
2 13 5 152.207 154.045 14.187 25.817 o
2 13 6 33.682 33.791 7.722 114.980 o
2 13 7 48.727 64.811 9.864 68.393 o
2 13 8 14.621 21.648 7.170 145.614 o
2 13 9 118.600 117.896 18.238 20.066 o
2 13 10 10.074 1.070 5.199 284.400 o
2 14 0 2.550 12.987 6.765 173.346 o
2 14 1 14.252 22.660 7.380 138.045 o
2 14 2 116.576 98.928 11.722 39.914 o
2 14 3 62.700 59.172 9.562 69.072 o
2 14 4 48.113 42.414 8.773 86.318 o
2 14 5 23.068 31.055 8.141 110.068 o
2 14 6 104.565 108.851 12.409 37.715 o
2 14 7 4.379 15.192 7.121 155.336 o
3 0 1 1209.640 1289.870 28.408 1.278 o
3 0 2 122.810 199.811 8.565 44.547 o
3 0 3 1012.470 1164.960 17.115 1.833 o
3 0 4 572.574 635.043 9.791 5.625 o
3 0 5 15.152 10.766 1.224 1554.440 o
3 0 6 3300.300 3386.700 31.146 0.203 o
3 0 7 277.533 270.983 6.453 22.247 o
3 0 8 1616.540 1557.320 17.659 0.858 o
3 0 9 517.861 478.494 9.062 7.559 o
3 0 10 43.183 44.861 2.363 368.844 o
3 0 11 1.874 1.785 1.131 4787.050 o
3 0 12 333.321 302.552 7.790 16.466 o
3 0 13 134.840 109.241 6.486 64.827 o
3 0 14 0.711 -1.262 4.023 503.002 o
3 0 15 287.199 291.856 11.198 17.019 o
3 0 16 16.492 15.857 3.816 426.817 o
3 0 17 312.717 324.669 12.667 14.084 o
3 0 18 5.893 6.203 3.266 673.890 o
3 0 19 2.985 5.379 5.763 240.117 o
3 0 20 10.317 12.729 4.511 351.496 o
3 0 21 0.487 8.621 4.338 418.389 o
3 1 0 266.663 288.157 7.123 21.899 o
3 1 1 1110.860 1076.490 19.541 1.693 o
3 1 2 2786.930 2689.280 76.597 0.249 o
3 1 3 1280.990 1267.660 17.214 1.309 o
3 1 4 567.220 519.534 9.548 6.427 o
3 1 5 244.418 220.689 5.373 29.528 o
3 1 6 230.391 210.221 5.213 32.476 o
3 1 7 1418.010 1391.020 26.669 1.032 o
3 1 8 131.578 129.103 3.754 79.237 o
3 1 9 56.512 43.217 5.597 155.661 o
3 1 10 277.216 237.201 26.223 8.275 o
3 1 11 174.585 141.355 5.415 51.320 o
3 1 12 86.617 99.005 5.379 104.668 o
3 1 13 91.282 76.462 6.271 96.440 o
3 1 14 151.928 165.022 9.335 39.433 o
3 1 15 42.756 38.970 4.997 202.729 o
3 1 16 16.438 24.008 4.347 334.887 o
3 1 17 90.297 97.243 8.127 70.022 o
3 1 18 23.852 24.256 4.439 301.530 o
3 1 19 22.085 20.958 4.596 295.684 o
3 1 20 69.185 77.398 9.795 62.869 o
3 1 21 106.847 128.846 12.757 34.995 o
3 2 0 961.517 1118.600 48.051 1.339 o
3 2 1 1816.080 1839.400 31.482 0.631 o
3 2 2 22.287 10.269 1.310 1162.800 o
3 2 3 65.805 73.697 3.466 186.587 o
3 2 4 593.394 644.200 15.961 4.847 o
3 2 5 30.128 27.977 2.570 502.082 o
3 2 6 429.702 367.927 39.850 3.619 o
3 2 7 174.166 154.691 18.687 16.885 o
3 2 8 656.670 631.135 36.155 2.809 o
3 2 9 741.109 732.442 16.192 3.521 o
3 2 10 15.981 16.145 2.815 656.753 o
3 2 11 170.891 152.215 7.272 44.339 o
3 2 12 639.543 652.489 22.546 3.905 o
3 2 13 512.696 529.613 20.790 5.516 o
3 2 14 68.520 70.180 7.929 86.047 o
3 2 15 141.970 131.760 10.907 37.694 o
3 2 16 133.942 127.594 10.987 38.787 o
3 2 17 75.770 91.656 13.864 35.081 o
3 2 18 12.040 19.915 5.893 211.083 o
3 2 19 19.188 16.017 5.455 233.925 o
3 2 20 7.536 8.620 4.428 378.874 o
3 2 21 25.765 26.973 6.605 157.649 o
3 3 0 884.148 950.294 34.931 1.912 o
3 3 1 483.157 512.184 24.634 5.237 o
3 3 2 1443.170 1345.910 44.976 0.884 o
3 3 3 172.322 175.121 14.150 23.805 o
3 3 4 540.762 525.070 11.588 6.531 o
3 3 5 290.169 250.091 7.747 21.019 o
3 3 6 109.645 98.210 12.316 38.148 o
3 3 7 447.028 397.198 41.542 3.319 o
3 3 8 281.445 279.944 10.118 18.573 o
3 3 9 45.888 61.727 14.271 36.509 o
3 3 10 67.583 75.902 5.786 122.767 o
3 3 11 43.152 34.080 4.269 248.443 o
3 3 12 353.254 348.034 15.911 10.734 o
3 3 13 1.678 4.520 4.682 363.513 o
3 3 14 495.197 566.464 33.111 3.808 o
3 3 15 44.771 35.042 8.512 93.205 o
3 3 16 3.286 3.840 2.497 1159.240 o
3 3 17 160.582 153.165 12.469 29.419 o
3 3 18 43.588 46.624 7.735 106.523 o
3 3 19 20.368 30.497 6.945 147.360 o
3 3 20 113.769 104.280 11.150 42.651 o
3 3 21 29.515 34.798 7.201 131.327 o
3 4 0 20.850 26.809 7.044 144.676 o
3 4 1 459.397 440.486 24.281 5.822 o
3 4 2 806.142 892.581 51.088 1.568 o
3 4 3 121.941 122.739 11.954 36.788 o
3 4 4 495.020 499.734 18.826 6.179 o
3 4 5 326.263 335.989 29.405 6.219 o
3 4 6 317.984 254.837 25.018 8.190 o
3 4 7 749.254 572.750 69.064 1.244 o
3 4 8 276.955 273.365 10.315 18.882 o
3 4 9 965.611 963.288 23.788 2.035 o
3 4 10 355.740 345.319 13.378 11.854 o
3 4 11 237.948 245.607 19.079 13.212 o
3 4 12 41.210 16.145 26.581 11.416 o
3 4 13 417.698 435.016 28.665 5.312 o
3 4 14 168.948 170.621 18.493 17.048 o
3 4 15 272.418 277.264 23.635 9.286 o
3 4 16 112.988 108.352 11.604 40.306 o
3 4 17 74.231 79.097 9.974 59.901 o
3 4 18 12.133 11.373 5.875 217.249 o
3 4 19 17.314 16.221 10.295 73.921 o
3 4 20 8.292 14.854 6.836 165.533 o
3 4 21 22.600 36.791 14.368 38.063 o
3 5 0 100.214 80.939 11.386 45.110 o
3 5 1 535.911 525.958 27.820 4.352 o
3 5 2 397.879 390.943 24.411 6.658 o
3 5 3 851.575 895.302 48.500 1.588 o
3 5 4 895.936 829.197 40.058 1.837 o
3 5 5 27.277 46.168 6.276 160.794 o
3 5 6 289.798 249.110 10.406 18.756 o
3 5 7 52.941 32.434 9.847 71.330 o
3 5 8 761.073 725.021 35.545 2.419 o
3 5 9 222.100 250.561 11.590 21.920 o
3 5 10 142.809 96.579 43.498 4.144 o
3 5 11 272.573 105.733 127.737 0.496 o
3 5 12 82.246 63.972 10.972 51.882 o
3 5 13 43.292 53.417 11.088 58.048 o
3 5 14 239.245 256.806 22.495 10.628 o
3 5 15 154.766 149.930 10.711 35.429 o
3 5 16 30.462 37.428 7.760 114.712 o
3 5 17 85.727 77.911 8.313 73.090 o
3 5 18 172.114 160.937 19.002 16.448 o
3 5 19 97.061 86.478 14.964 29.721 o
3 5 20 21.899 27.404 6.023 187.736 o
3 6 0 165.571 172.061 16.093 20.736 o
3 6 1 133.232 131.883 14.640 26.780 o
3 6 2 522.317 556.223 30.084 4.061 o
3 6 3 400.482 375.415 24.688 6.640 o
3 6 4 190.657 175.602 17.542 17.434 o
3 6 5 490.144 436.983 37.344 3.595 o
3 6 6 212.943 174.387 13.710 21.971 o
3 6 7 143.038 131.774 9.996 41.134 o
3 6 8 254.975 142.443 67.974 1.695 o
3 6 9 1332.370 1241.720 50.973 0.931 o
3 6 10 573.223 532.078 31.854 3.671 o
3 6 11 130.825 123.706 16.089 23.711 o
3 6 12 41.158 41.767 9.417 78.748 o
3 6 13 62.173 62.754 6.876 109.205 o
3 6 14 417.449 378.993 17.176 8.561 o
3 6 15 44.228 61.936 7.552 106.120 o
3 6 16 36.774 38.792 12.247 50.144 o
3 6 17 7.239 11.106 3.862 478.824 o
3 6 18 10.306 13.141 7.130 152.173 o
3 6 19 6.028 7.616 5.786 233.325 o
3 7 0 12.912 9.205 5.921 214.555 o
3 7 1 98.776 85.886 12.689 38.358 o
3 7 2 123.444 131.381 16.016 24.058 o
3 7 3 528.468 505.801 29.993 4.175 o
3 7 4 172.436 146.844 16.592 20.174 o
3 7 5 98.948 100.075 13.638 33.724 o
3 7 6 168.766 141.589 14.615 24.186 o
3 7 7 28.522 19.508 2.722 528.925 o
3 7 8 129.024 153.633 17.910 19.621 o
3 7 9 245.216 253.556 22.695 10.430 o
3 7 10 209.260 222.183 21.067 12.582 o
3 7 11 125.973 145.468 17.895 19.912 o
3 7 12 59.408 63.568 7.392 100.712 o
3 7 13 130.485 115.499 9.766 45.827 o
3 7 14 5.475 6.629 3.791 517.748 o
3 7 15 24.717 23.311 5.111 243.163 o
3 7 16 81.807 78.961 8.743 69.654 o
3 7 17 20.314 30.208 10.429 70.590 o
3 7 18 135.311 146.212 19.781 16.717 o
3 7 19 1.809 6.139 7.781 133.616 o
3 8 0 358.089 360.357 26.120 6.759 o
3 8 1 307.069 326.174 24.859 7.945 o
3 8 2 48.287 44.188 9.897 70.451 o
3 8 3 123.741 118.059 14.906 27.165 o
3 8 4 50.925 61.782 11.413 53.544 o
3 8 5 206.751 237.160 21.588 12.064 o
3 8 6 253.247 250.423 22.316 10.544 o
3 8 7 196.522 194.518 20.472 13.719 o
3 8 8 542.382 495.373 32.531 3.822 o
3 8 9 319.182 316.102 26.364 7.316 o
3 8 10 333.759 348.194 27.352 6.693 o
3 8 11 29.827 28.951 10.173 72.344 o
3 8 12 40.228 45.934 11.963 51.568 o
3 8 13 159.062 143.862 11.328 33.312 o
3 8 14 30.823 37.337 6.406 156.530 o
3 8 15 23.218 29.893 7.546 126.074 o
3 8 16 88.335 88.380 15.710 27.862 o
3 8 17 40.513 49.221 12.883 44.918 o
3 8 18 8.009 17.151 10.535 71.919 o
3 9 0 0.222 18.000 6.879 167.718 o
3 9 1 1112.320 1071.230 48.936 1.197 o
3 9 2 28.474 29.563 10.159 72.719 o
3 9 3 188.860 155.367 18.834 16.221 o
3 9 4 139.975 149.480 17.690 19.655 o
3 9 5 154.138 160.454 19.348 16.556 o
3 9 6 263.053 286.087 24.657 8.861 o
3 9 7 32.767 31.811 9.285 84.232 o
3 9 8 85.067 87.292 14.778 31.088 o
3 9 9 6.319 9.465 7.670 135.015 o
3 9 10 21.458 19.848 9.161 90.826 o
3 9 11 287.516 291.861 26.674 7.672 o
3 9 12 11.731 16.909 9.791 82.305 o
3 9 13 27.168 33.288 10.177 72.391 o
3 9 14 37.034 32.375 6.764 140.746 o
3 9 15 46.160 51.799 8.061 97.588 o
3 9 16 13.459 17.640 9.315 90.119 o
3 10 0 842.166 741.778 41.331 1.965 o
3 10 1 292.460 322.385 19.037 10.929 o
3 10 2 203.742 196.968 22.071 12.151 o
3 10 3 46.205 32.345 10.452 65.691 o
3 10 4 9.436 3.634 5.573 248.575 o
3 10 5 292.198 272.964 25.133 8.352 o
3 10 6 12.608 29.830 9.640 83.376 o
3 10 7 9.410 20.511 8.820 100.700 o
3 10 8 97.890 91.157 15.036 29.293 o
3 10 9 20.927 18.330 9.117 91.973 o
3 10 10 257.560 228.995 23.481 9.968 o
3 10 11 17.495 26.147 10.648 68.588 o
3 10 12 120.328 98.586 16.941 22.935 o
3 10 13 141.057 133.433 19.349 17.333 o
3 10 14 134.144 141.646 14.429 26.924 o
3 10 15 18.561 19.757 9.741 81.569 o
3 11 0 30.316 38.682 11.542 56.676 o
3 11 1 38.272 38.481 11.370 57.248 o
3 11 2 51.572 57.961 8.984 79.560 o
3 11 3 290.349 249.356 17.323 13.014 o
3 11 4 38.608 42.684 8.400 96.137 o
3 11 5 96.003 81.049 15.378 28.643 o
3 11 6 16.617 30.646 10.829 66.246 o
3 11 7 73.291 71.566 14.004 35.457 o
3 11 8 22.457 36.385 11.305 60.016 o
3 11 9 1.487 21.421 9.394 90.717 o
3 11 10 11.131 25.305 10.466 71.865 o
3 11 11 28.977 53.995 13.331 42.885 o
3 11 12 17.029 26.933 11.195 62.357 o
3 11 13 54.150 55.923 13.003 42.681 o
3 12 0 86.130 92.513 16.696 25.136 o
3 12 1 18.204 27.991 11.009 64.172 o
3 12 2 286.157 257.718 25.835 8.219 o
3 12 3 16.433 33.614 11.319 60.749 o
3 12 4 52.191 48.377 8.927 81.669 o
3 12 5 17.775 16.682 6.308 182.858 o
3 12 6 14.146 15.729 6.347 184.633 o
3 12 7 5.571 14.567 6.141 205.236 o
3 12 8 75.257 96.421 14.887 31.041 o
3 12 9 21.305 17.376 8.093 114.688 o
3 12 10 57.923 48.295 12.049 48.758 o
3 12 11 5.459 26.423 12.016 55.453 o
3 13 0 38.998 47.769 13.054 44.035 o
3 13 1 18.666 20.570 9.559 84.415 o
3 13 2 38.653 46.275 12.450 48.120 o
3 13 3 72.645 81.054 15.344 30.075 o
3 13 4 58.530 54.303 13.979 37.281 o
3 13 5 68.251 72.953 15.605 29.646 o
3 13 6 14.906 9.995 8.929 98.286 o
3 13 7 103.720 99.230 12.519 37.866 o
3 13 8 33.349 28.854 7.713 116.583 o
3 14 0 138.244 134.837 20.702 15.600 o
3 14 1 28.458 47.098 13.541 41.923 o
4 0 0 243.889 241.256 16.216 15.640 o
4 0 1 330.872 279.230 8.804 16.672 o
4 0 2 599.944 670.927 15.140 4.750 o
4 0 3 98.118 115.505 6.000 84.231 o
4 0 4 855.339 848.343 18.164 2.680 o
4 0 5 9.911 6.017 2.173 1180.340 o
4 0 6 1201.420 1129.320 22.197 1.467 o
4 0 7 8.709 12.158 2.621 866.712 o
4 0 8 1523.530 1381.020 28.784 0.937 o
4 0 9 2.897 2.753 1.760 2170.490 o
4 0 10 697.776 660.542 14.205 4.111 o
4 0 11 408.586 399.460 11.489 10.282 o
4 0 12 22.064 18.837 2.272 713.631 o
4 0 13 4.681 4.962 2.236 1328.650 o
4 0 14 1.081 2.933 2.688 1075.080 o
4 0 15 0.153 1.279 2.746 1069.790 o
4 0 16 122.303 132.247 8.198 54.345 o
4 0 17 3.040 2.984 2.980 853.395 o
4 0 18 135.522 159.523 10.823 36.984 o
4 0 19 28.317 31.305 6.780 147.278 o
4 0 20 26.009 43.145 8.377 101.274 o
4 1 0 1702.950 1714.790 27.305 0.727 o
4 1 1 282.375 315.965 8.915 18.356 o
4 1 2 1452.630 1510.760 23.620 0.971 o
4 1 3 839.402 750.123 41.846 1.943 o
4 1 4 49.459 46.063 5.006 185.369 o
4 1 5 54.348 50.811 3.465 241.213 o
4 1 6 182.478 161.232 5.514 46.170 o
4 1 7 189.272 181.513 5.959 41.097 o
4 1 8 134.769 93.316 15.470 25.783 o
4 1 9 182.804 163.255 19.527 15.470 o
4 1 10 78.910 73.252 13.277 38.202 o
4 1 11 495.594 379.695 74.099 1.296 o
4 1 12 282.024 251.496 18.154 12.630 o
4 1 13 374.063 381.456 24.306 7.003 o
4 1 14 8.576 13.477 4.903 306.532 o
4 1 15 15.558 18.077 4.821 293.497 o
4 1 16 29.710 33.559 6.376 160.454 o
4 1 17 67.340 73.508 13.421 38.524 o
4 1 18 8.238 8.406 4.381 384.331 o
4 1 19 14.438 11.014 4.889 297.405 o
4 1 20 35.380 49.004 8.634 91.874 o
4 2 0 1.296 2.522 1.211 4393.720 o
4 2 1 226.607 174.911 31.596 6.836 o
4 2 2 152.887 144.866 8.728 43.364 o
4 2 3 636.415 630.028 18.634 4.330 o
4 2 4 525.470 487.367 15.751 6.400 o
4 2 5 247.909 244.345 10.386 21.793 o
4 2 6 883.402 796.731 36.268 2.022 o
4 2 7 210.340 172.976 15.881 18.896 o
4 2 8 546.801 461.436 64.150 1.585 o
4 2 9 275.018 270.032 21.820 10.261 o
4 2 10 185.637 88.767 38.479 5.130 o
4 2 11 254.659 278.620 23.527 9.600 o
4 2 12 64.402 63.444 7.443 97.197 o
4 2 13 158.544 162.164 12.357 29.480 o
4 2 14 15.305 14.200 5.785 217.676 o
4 2 15 8.684 12.239 4.892 308.960 o
4 2 16 76.441 103.442 10.347 53.926 o
4 2 17 27.180 43.021 16.673 28.349 o
4 2 18 146.017 157.814 13.318 28.272 o
4 2 19 19.019 20.854 5.934 199.736 o
4 2 20 29.162 39.732 8.506 98.118 o
4 3 0 691.795 743.173 45.966 2.036 o
4 3 1 935.356 928.682 32.406 1.908 o
4 3 2 257.183 216.266 15.428 16.388 o
4 3 3 691.580 662.890 18.275 3.886 o
4 3 4 244.351 258.855 8.318 23.949 o
4 3 5 331.723 309.744 9.122 15.653 o
4 3 6 885.932 712.191 62.556 1.263 o
4 3 7 15.296 12.209 5.006 282.385 o
4 3 8 194.449 144.445 34.788 6.022 o
4 3 9 183.761 106.319 45.456 3.743 o
4 3 10 25.156 30.718 9.495 82.900 o
4 3 11 555.255 576.900 34.233 3.412 o
4 3 12 259.664 290.470 25.729 8.386 o
4 3 13 286.983 294.825 16.018 13.334 o
4 3 14 302.430 287.961 16.185 12.841 o
4 3 15 5.466 14.128 5.532 250.247 o
4 3 16 7.110 13.058 5.034 295.822 o
4 3 17 89.282 105.126 13.219 36.028 o
4 3 18 14.472 10.570 7.863 125.231 o
4 3 19 15.538 19.431 8.394 108.855 o
4 4 0 6.430 1.963 2.538 1070.870 o
4 4 1 10.740 15.486 5.959 210.927 o
4 4 2 377.389 329.554 16.962 9.934 o
4 4 3 430.002 357.531 37.472 3.958 o
4 4 4 370.489 375.142 10.763 12.007 o
4 4 5 65.830 71.364 3.855 177.238 o
4 4 6 618.788 495.539 31.503 3.585 o
4 4 7 1999.590 1497.290 21.419 0.652 o
4 4 8 290.116 246.257 26.658 7.897 o
4 4 9 74.796 62.175 4.635 149.198 o
4 4 10 30.383 22.399 3.046 448.393 o
4 4 11 27.755 33.682 9.784 77.613 o
4 4 12 159.534 156.994 18.506 17.572 o
4 4 13 153.905 161.820 19.153 16.797 o
4 4 14 72.395 70.023 13.627 37.267 o
4 4 15 29.758 31.830 14.427 37.537 o
4 4 16 210.365 226.066 20.444 13.030 o
4 4 17 129.844 142.690 33.315 6.811 o
4 4 18 74.378 81.386 14.400 33.399 o
4 4 19 5.638 8.395 9.152 95.942 o
4 5 0 4.223 1.274 5.454 268.439 o
4 5 1 165.453 193.884 18.570 16.681 o
4 5 2 710.989 684.905 35.219 2.629 o
4 5 3 350.453 407.464 27.112 6.330 o
4 5 4 690.000 651.646 34.591 2.780 o
4 5 5 912.990 706.762 57.668 1.366 o
4 5 6 452.169 352.262 36.506 4.019 o
4 5 7 125.595 62.381 37.094 5.699 o
4 5 8 224.664 204.117 10.762 24.784 o
4 5 9 20.421 20.647 3.302 480.923 o
4 5 10 87.119 77.413 5.934 103.945 o
4 5 11 7.859 26.574 8.629 104.555 o
4 5 12 500.070 536.998 34.593 3.679 o
4 5 13 253.613 248.518 23.831 9.683 o
4 5 14 32.934 31.660 8.762 93.263 o
4 5 15 0.170 -2.170 6.418 198.833 o
4 5 16 14.800 33.661 10.475 70.587 o
4 5 17 54.610 56.608 12.871 43.380 o
4 5 18 15.343 23.991 6.053 195.332 o
4 6 0 157.361 163.280 17.173 19.528 o
4 6 1 89.695 93.949 13.984 33.415 o
4 6 2 192.445 182.758 18.675 15.864 o
4 6 3 745.354 699.145 37.529 2.389 o
4 6 4 121.862 100.227 14.563 28.855 o
4 6 5 0.800 5.846 6.173 211.759 o
4 6 6 21.390 18.573 8.472 105.198 o
4 6 7 790.646 745.789 39.580 2.135 o
4 6 8 239.170 236.620 22.277 10.951 o
4 6 9 9.510 9.560 2.961 728.052 o
4 6 10 65.370 66.099 12.705 42.819 o
4 6 11 123.682 131.326 17.625 20.751 o
4 6 12 24.991 10.309 6.171 185.962 o
4 6 13 0.034 -1.921 5.074 318.278 o
4 6 14 12.722 11.109 7.910 124.419 o
4 6 15 15.068 7.399 8.197 116.074 o
4 6 16 55.267 53.917 12.473 45.899 o
4 6 17 261.259 290.337 27.677 7.564 o
4 7 0 358.242 359.822 26.372 6.687 o
4 7 1 51.172 51.472 11.125 56.668 o
4 7 2 474.980 440.975 29.973 4.676 o
4 7 3 459.762 460.739 30.943 4.554 o
4 7 4 544.761 496.603 32.087 3.859 o
4 7 5 234.329 288.536 25.305 8.910 o
4 7 6 4.427 26.126 10.443 73.043 o
4 7 7 360.545 361.310 28.388 6.109 o
4 7 8 192.546 194.861 21.062 13.264 o
4 7 9 61.230 76.777 13.748 37.332 o
4 7 10 94.380 89.773 15.792 27.263 o
4 7 11 50.606 51.396 12.329 47.470 o
4 7 12 160.302 179.664 21.067 14.161 o
4 7 13 62.322 69.066 13.960 36.563 o
4 7 14 83.763 89.429 15.868 27.602 o
4 7 15 49.870 55.231 12.525 46.052 o
4 7 16 56.529 80.167 15.290 31.167 o
4 7 17 15.032 26.230 9.959 78.279 o
4 8 0 309.958 293.664 24.996 8.057 o
4 8 1 110.734 124.368 16.988 22.691 o
4 8 2 186.514 165.490 19.058 15.871 o
4 8 3 254.797 286.407 24.838 8.883 o
4 8 4 47.446 42.141 10.799 61.013 o
4 8 5 131.922 138.062 17.633 20.286 o
4 8 6 130.444 130.465 18.036 19.780 o
4 8 7 639.082 646.699 39.559 2.606 o
4 8 8 38.383 39.033 11.390 57.014 o
4 8 9 110.664 91.861 15.255 27.829 o
4 8 10 102.845 116.095 17.140 22.870 o
4 8 11 11.458 11.059 9.760 83.373 o
4 8 12 33.958 33.938 10.828 63.528 o
4 8 13 33.313 36.865 10.966 61.959 o
4 8 14 20.265 19.467 8.744 99.425 o
4 8 15 26.200 28.020 9.795 78.379 o
4 9 0 330.950 273.369 25.038 7.907 o
4 9 1 310.784 323.354 27.245 7.067 o
4 9 2 485.716 513.300 34.849 3.759 o
4 9 3 31.014 36.566 9.988 73.808 o
4 9 4 67.792 75.544 14.590 33.289 o
4 9 5 76.698 85.795 14.830 31.489 o
4 9 6 22.450 34.370 12.177 52.284 o
4 9 7 44.317 35.470 11.412 56.274 o
4 9 8 12.422 20.647 10.089 77.277 o
4 9 9 35.668 45.041 12.171 50.511 o
4 9 10 55.544 58.028 13.095 41.935 o
4 9 11 1.679 7.390 7.726 135.339 o
4 9 12 129.210 160.073 21.532 14.550 o
4 9 13 67.311 56.556 14.789 33.125 o
4 9 14 68.489 66.047 14.809 32.687 o
4 10 0 193.273 169.424 14.756 21.590 o
4 10 1 116.780 118.311 18.294 20.019 o
4 10 2 59.920 64.086 14.343 35.200 o
4 10 3 155.743 176.231 21.682 13.676 o
4 10 4 7.300 12.599 8.658 105.999 o
4 10 5 7.062 7.499 7.415 144.261 o
4 10 6 19.022 17.640 9.404 87.291 o
4 10 7 90.354 109.989 17.444 22.820 o
4 10 8 67.386 56.076 14.261 35.327 o
4 10 9 15.196 24.119 10.708 68.308 o
4 10 10 51.880 54.169 13.902 38.129 o
4 10 11 2.322 18.929 11.382 62.286 o
4 10 12 39.069 63.643 13.939 38.501 o
4 11 0 118.277 115.957 18.091 20.376 o
4 11 1 272.957 232.774 17.541 13.625 o
4 11 2 119.130 104.457 12.151 37.394 o
4 11 3 58.982 36.373 11.381 54.459 o
4 11 4 77.833 90.279 17.028 24.679 o
4 11 5 31.355 33.039 11.573 56.611 o
4 11 6 4.249 12.281 9.652 86.332 o
4 11 7 17.482 16.305 9.917 79.356 o
4 11 8 18.941 33.463 11.964 54.434 o
4 11 9 28.431 38.932 12.948 45.909 o
4 11 10 8.054 13.236 10.018 79.617 o
4 12 0 12.222 20.832 10.684 69.222 o
4 12 1 29.953 34.973 11.040 61.808 o
4 12 2 24.128 30.770 10.847 64.996 o
4 12 3 16.527 14.228 6.486 176.108 o
4 12 4 58.189 68.362 10.930 55.857 o
4 12 5 72.955 77.564 11.959 45.697 o
4 12 6 60.184 74.326 15.691 29.727 o
4 12 7 26.300 44.797 12.996 45.531 o
5 0 1 21.401 31.523 11.871 55.104 o
5 0 2 1339.140 1352.880 33.567 1.062 o
5 0 3 89.627 97.492 8.401 67.595 o
5 0 4 202.665 200.626 11.749 25.128 o
5 0 5 50.684 47.395 4.648 197.582 o
5 0 6 75.178 87.340 6.099 106.258 o
5 0 7 203.058 190.075 8.973 31.122 o
5 0 8 2.078 12.515 4.100 450.590 o
5 0 9 50.749 51.574 7.009 117.355 o
5 0 10 245.461 206.824 9.642 24.512 o
5 0 11 60.666 47.411 11.258 54.418 o
5 0 12 148.188 142.303 12.105 32.223 o
5 0 13 100.034 108.771 16.560 24.490 o
5 0 14 19.071 44.054 10.681 66.655 o
5 0 15 26.561 50.395 12.413 49.334 o
5 0 16 78.909 113.309 18.121 21.712 o
5 0 17 2.257 14.498 9.158 95.888 o
5 1 0 11.958 12.488 3.888 445.422 o
5 1 1 15.802 12.057 3.199 573.414 o
5 1 2 106.958 109.346 8.595 59.015 o
5 1 3 550.963 602.741 20.667 4.876 o
5 1 4 59.860 60.572 6.685 115.466 o
5 1 5 98.662 91.562 7.587 73.301 o
5 1 6 27.239 37.918 6.773 145.821 o
5 1 7 815.193 720.572 32.852 2.413 o
5 1 8 113.080 117.233 15.185 27.106 o
5 1 9 317.425 342.673 26.676 7.092 o
5 1 10 5.581 7.398 6.443 190.332 o
5 1 11 222.931 250.219 23.860 10.121 o
5 1 12 105.564 128.739 17.721 21.310 o
5 1 13 4.806 12.745 4.344 394.726 o
5 1 14 16.543 17.578 7.647 129.408 o
5 1 15 21.602 26.779 6.285 175.395 o
5 1 16 14.232 22.000 10.324 73.554 o
5 1 17 145.024 181.580 22.845 12.729 o
5 2 0 0.253 7.531 3.146 777.991 o
5 2 1 87.085 64.861 4.718 131.054 o
5 2 2 899.527 877.947 17.895 2.487 o
5 2 3 262.484 246.355 10.682 20.342 o
5 2 4 293.398 239.662 14.194 15.506 o
5 2 5 436.654 405.977 15.695 8.391 o
5 2 6 203.863 179.070 6.957 36.231 o
5 2 7 43.569 39.585 7.451 114.843 o
5 2 8 35.736 33.631 13.689 41.044 o
5 2 9 318.971 125.676 176.573 0.260 o
5 2 10 479.083 497.050 32.866 4.077 o
5 2 11 59.674 72.920 13.504 38.785 o
5 2 12 227.577 229.723 13.755 19.387 o
5 2 13 23.165 28.307 6.208 176.750 o
5 2 14 0.309 4.323 4.154 464.564 o
5 2 15 6.483 10.820 4.887 316.321 o
5 2 16 57.926 63.307 14.475 34.788 o
5 2 17 1.293 15.263 9.046 98.358 o
5 3 0 20.867 18.714 3.394 467.524 o
5 3 1 15.517 15.786 2.992 613.460 o
5 3 2 71.719 75.591 5.233 130.937 o
5 3 3 382.886 288.286 57.515 2.146 o
5 3 4 416.974 361.369 26.949 5.983 o
5 3 5 97.601 77.374 4.560 116.646 o
5 3 6 153.464 143.568 9.311 41.089 o
5 3 7 554.327 547.608 38.599 3.061 o
5 3 8 515.112 257.401 259.391 0.120 o
5 3 9 93.887 104.705 15.140 28.799 o
5 3 10 154.548 171.319 20.019 15.563 o
5 3 11 1.858 3.427 6.264 205.915 o
5 3 12 35.819 49.653 7.328 119.434 o
5 3 13 23.089 22.785 5.489 220.227 o
5 3 14 22.043 34.768 6.299 170.464 o
5 3 15 11.246 12.459 4.858 306.544 o
5 3 16 33.297 54.874 14.281 37.435 o
5 3 17 101.233 124.937 19.318 18.644 o
5 4 0 225.730 233.496 29.878 7.276 o
5 4 1 486.969 459.511 28.985 4.699 o
5 4 2 367.988 343.914 15.617 10.546 o
5 4 3 317.536 289.186 21.816 9.348 o
5 4 4 699.455 644.662 65.538 1.351 o
5 4 5 165.035 144.365 10.866 33.974 o
5 4 6 10.574 6.973 6.455 185.784 o
5 4 7 10.600 -2.235 5.429 262.149 o
5 4 8 245.291 234.586 22.528 10.697 o
5 4 9 1.239 -5.612 5.862 237.125 o
5 4 10 44.518 51.022 11.872 51.483 o
5 4 11 141.948 129.649 10.225 40.539 o
5 4 12 259.910 280.203 15.733 14.741 o
5 4 13 65.345 74.442 15.939 28.659 o
5 4 14 35.915 38.840 13.358 42.774 o
5 4 15 36.556 50.551 12.716 46.294 o
5 4 16 19.470 30.247 11.381 59.972 o
5 5 0 7.374 5.102 5.887 225.614 o
5 5 1 114.154 133.325 16.716 22.922 o
5 5 2 132.602 144.164 10.216 40.912 o
5 5 3 212.634 187.195 42.068 4.178 o
5 5 4 359.575 309.346 44.469 3.325 o
5 5 5 7.019 5.784 3.076 737.079 o
5 5 6 425.301 398.716 29.836 5.158 o
5 5 7 275.105 302.949 26.158 7.951 o
5 5 8 315.290 331.730 28.032 6.733 o
5 5 9 83.311 78.509 14.374 32.976 o
5 5 10 8.701 12.108 7.920 125.467 o
5 5 11 23.297 25.080 9.556 82.974 o
5 5 12 9.819 15.480 7.923 124.305 o
5 5 13 50.254 74.516 14.598 34.393 o
5 5 14 24.928 39.604 11.531 57.362 o
5 5 15 17.164 28.656 9.956 77.720 o
5 5 16 26.410 28.423 11.561 57.551 o
5 6 0 309.090 310.826 25.353 7.825 o
5 6 1 267.100 285.789 24.957 8.669 o
5 6 2 384.886 386.329 29.048 5.657 o
5 6 3 502.424 514.392 33.898 3.798 o
5 6 4 256.932 234.752 37.021 4.984 o
5 6 5 178.546 198.920 21.958 12.725 o
5 6 6 14.557 30.878 10.472 70.875 o
5 6 7 92.934 90.178 15.178 29.178 o
5 6 8 2.149 2.846 6.166 212.413 o
5 6 9 11.498 24.038 9.143 93.100 o
5 6 10 63.291 67.887 14.140 35.729 o
5 6 11 166.906 175.148 21.991 13.164 o
5 6 12 110.961 132.971 19.482 18.000 o
5 6 13 98.149 131.610 20.011 17.549 o
5 6 14 39.277 47.154 13.681 40.399 o
5 6 15 2.603 17.587 9.044 97.865 o
5 7 0 71.694 119.709 17.044 24.297 o
5 7 1 173.892 166.444 19.861 15.293 o
5 7 2 161.085 179.546 20.317 14.946 o
5 7 3 13.789 12.281 7.067 152.921 o
5 7 4 106.817 107.251 16.454 24.465 o
5 7 5 35.951 60.452 14.066 38.170 o
5 7 6 218.829 230.883 23.968 10.266 o
5 7 7 29.395 55.335 15.204 33.463 o
5 7 8 228.772 257.273 25.846 8.907 o
5 7 9 119.711 121.385 18.121 20.175 o
5 7 10 3.836 9.975 7.192 154.085 o
5 7 11 139.275 132.887 19.654 16.965 o
5 7 12 8.288 35.080 11.688 57.887 o
5 7 13 14.263 19.993 9.942 79.224 o
5 7 14 11.872 23.638 11.303 61.968 o
5 8 0 257.154 277.644 26.252 8.261 o
5 8 1 321.431 303.009 27.262 7.057 o
5 8 2 53.513 70.798 14.411 35.105 o
5 8 3 315.326 286.609 27.077 7.263 o
5 8 4 132.981 141.132 19.119 17.792 o
5 8 5 39.404 55.442 13.291 42.277 o
5 8 6 69.090 59.432 14.002 36.230 o
5 8 7 8.270 26.222 11.083 64.628 o
5 8 8 1.461 18.120 9.413 90.663 o
5 8 9 39.724 36.575 11.462 56.355 o
5 8 10 12.719 22.988 9.310 89.782 o
5 8 11 105.810 142.799 21.124 15.706 o
5 8 12 1.295 23.509 9.852 82.514 o
5 9 0 4.358 -2.307 6.497 190.985 o
5 9 1 89.896 112.745 18.031 21.538 o
5 9 2 62.387 42.270 12.533 45.385 o
5 9 3 14.728 10.882 8.522 107.357 o
5 9 4 41.253 44.524 12.568 47.136 o
5 9 5 26.433 30.393 10.918 63.916 o
5 9 6 50.612 52.502 12.809 44.318 o
5 9 7 33.228 51.451 13.097 44.085 o
5 9 8 128.329 117.716 18.341 19.555 o
5 9 9 9.154 0.645 6.110 210.587 o
5 9 10 2.630 12.971 8.134 121.074 o
5 9 11 22.762 35.796 13.073 45.614 o
5 10 0 5.060 18.451 10.575 71.675 o
5 10 1 148.940 152.025 21.208 14.574 o
5 10 2 19.409 42.848 12.314 51.077 o
5 10 3 248.864 234.658 25.816 8.815 o
5 10 4 8.490 3.739 9.934 81.602 o
5 10 5 52.166 65.054 14.816 33.655 o
5 10 6 28.570 45.572 12.966 45.524 o
5 10 7 8.005 4.978 7.715 133.689 o
5 10 8 66.867 72.960 15.772 29.162 o
5 11 0 0.187 6.619 6.366 199.460 o
5 11 1 4.870 19.591 7.296 146.887 o
5 11 2 12.395 22.506 10.691 68.999 o
5 11 3 31.278 48.105 13.028 44.805 o
5 11 4 50.008 55.721 14.356 36.049 o
6 0 0 186.594 189.762 17.835 16.950 o
6 0 1 175.632 189.198 12.653 26.084 o
6 0 2 3.073 0.028 3.486 648.411 o
6 0 3 7.800 6.624 3.843 492.256 o
6 0 4 7.213 8.561 4.365 390.187 o
6 0 5 39.297 40.494 6.299 151.146 o
6 0 6 70.267 56.791 6.863 106.207 o
6 0 7 1.561 12.401 7.216 153.632 o
6 0 8 4.438 17.898 7.461 141.332 o
6 0 9 0.977 6.099 6.977 166.182 o
6 0 10 1.002 5.418 7.648 138.701 o
6 0 11 3.965 17.007 8.668 106.058 o
6 0 12 105.116 121.860 18.647 19.716 o
6 0 13 114.336 139.583 19.793 17.353 o
6 0 14 40.201 59.425 14.415 36.258 o
6 1 0 263.349 236.145 14.398 16.711 o
6 1 1 112.097 131.961 10.420 44.366 o
6 1 2 5.890 4.938 4.645 357.010 o
6 1 3 13.453 13.944 3.894 433.180 o
6 1 4 46.029 37.160 9.360 78.872 o
6 1 5 37.405 23.889 5.011 225.242 o
6 1 6 143.484 142.242 17.496 19.988 o
6 1 7 39.486 41.973 11.404 56.552 o
6 1 8 142.124 161.645 19.674 16.460 o
6 1 9 97.328 134.333 18.794 19.507 o
6 1 10 111.995 133.393 18.790 19.073 o
6 1 11 145.474 140.444 19.352 17.098 o
6 1 12 0.511 5.975 9.132 97.615 o
6 1 13 31.921 75.468 14.995 33.729 o
6 1 14 80.300 94.501 17.090 24.343 o
6 2 0 46.854 46.113 6.938 123.563 o
6 2 1 6.662 11.175 4.534 361.748 o
6 2 2 96.232 86.812 8.575 65.594 o
6 2 3 187.256 180.651 12.007 26.818 o
6 2 4 117.388 118.717 12.929 33.810 o
6 2 5 10.230 0.151 5.058 300.022 o
6 2 6 40.227 38.972 10.047 70.928 o
6 2 7 31.725 32.691 9.171 86.271 o
6 2 8 20.441 20.799 8.996 94.097 o
6 2 9 10.907 12.014 7.770 129.264 o
6 2 10 48.104 71.303 15.552 30.870 o
6 2 11 84.209 111.630 17.514 22.866 o
6 2 12 43.884 63.977 14.377 36.077 o
6 2 13 37.720 43.828 12.240 49.848 o
6 2 14 4.746 32.316 12.852 48.483 o
6 3 0 81.758 72.769 13.184 38.407 o
6 3 1 17.634 26.456 5.511 224.261 o
6 3 2 233.174 233.520 13.882 18.823 o
6 3 3 92.100 88.919 10.876 48.805 o
6 3 4 30.084 30.660 9.820 76.921 o
6 3 5 59.594 48.686 11.130 55.538 o
6 3 6 12.301 5.773 5.650 236.882 o
6 3 7 50.469 72.406 14.383 35.370 o
6 3 8 212.047 237.199 24.130 10.222 o
6 3 9 85.099 74.287 14.039 34.314 o
6 3 10 41.328 69.284 13.942 38.138 o
6 3 11 79.683 77.622 15.531 29.166 o
6 3 12 50.325 60.488 13.872 38.162 o
6 3 13 87.212 90.682 16.723 25.060 o
6 4 0 0.027 5.270 3.775 558.821 o
6 4 1 6.099 4.681 4.309 410.522 o
6 4 2 110.019 101.009 12.652 36.525 o
6 4 3 187.343 196.015 12.482 25.202 o
6 4 4 9.584 24.029 10.180 76.130 o
6 4 5 12.060 12.826 8.649 104.861 o
6 4 6 35.507 34.120 10.245 69.901 o
6 4 7 36.399 35.743 10.623 65.212 o
6 4 8 46.417 52.879 12.890 44.191 o
6 4 9 2.629 3.758 7.068 161.690 o
6 4 10 2.126 4.008 6.534 189.047 o
6 4 11 16.577 18.256 8.397 108.633 o
6 4 12 19.323 27.220 10.287 72.835 o
6 4 13 23.810 23.389 9.523 83.588 o
6 5 0 324.723 324.830 26.064 7.313 o
6 5 1 257.177 216.595 21.828 11.093 o
6 5 2 48.465 51.877 10.826 59.780 o
6 5 3 40.429 52.775 12.670 46.141 o
6 5 4 61.771 76.955 14.690 33.233 o
6 5 5 0.127 1.932 6.649 184.672 o
6 5 6 25.967 40.643 11.222 60.124 o
6 5 7 2.762 6.135 8.445 113.400 o
6 5 8 124.285 142.715 19.911 16.881 o
6 5 9 79.448 69.180 15.708 28.834 o
6 5 10 0.842 14.819 10.251 76.987 o
6 5 11 56.936 56.620 13.844 37.960 o
6 5 12 95.606 102.491 17.686 22.237 o
6 6 0 190.949 161.781 12.495 26.282 o
6 6 1 69.748 64.227 7.883 87.476 o
6 6 2 34.346 33.488 9.802 75.950 o
6 6 3 87.537 111.169 18.043 21.622 o
6 6 4 49.978 55.645 12.659 45.160 o
6 6 5 60.025 73.084 15.502 30.413 o
6 6 6 9.937 16.716 8.986 97.497 o
6 6 7 49.725 66.697 15.071 32.720 o
6 6 8 31.932 34.050 10.886 63.206 o
6 6 9 0.471 11.582 9.562 88.632 o
6 6 10 16.413 41.922 11.392 59.542 o
6 6 11 11.354 21.363 10.253 75.024 o
6 7 0 0.591 8.592 11.689 59.630 o
6 7 1 185.260 174.073 21.910 12.881 o
6 7 2 101.933 118.589 18.412 20.298 o
6 7 3 46.417 65.936 14.213 36.612 o
6 7 4 54.901 76.239 15.633 30.135 o
6 7 5 39.334 44.617 11.681 54.019 o
6 7 6 57.581 63.792 15.600 30.422 o
6 7 7 22.489 31.546 12.072 53.277 o
6 7 8 30.505 62.854 14.999 34.099 o
6 7 9 36.881 39.736 11.939 52.479 o
6 8 0 138.000 125.722 18.455 18.902 o
6 8 1 25.891 32.397 12.355 50.651 o
6 8 2 31.517 38.764 11.695 55.171 o
6 8 3 34.254 62.222 14.415 36.526 o
6 8 4 44.300 53.980 14.762 34.633 o
6 8 5 10.712 23.718 10.955 65.963 o
6 8 6 12.874 21.342 11.308 61.929 o
6 8 7 26.089 41.586 12.778 47.144 o
6 9 0 19.964 36.357 12.145 52.678 o
6 9 1 60.340 57.503 14.549 34.502 o
6 9 2 79.971 96.842 17.440 23.467 o
6 9 3 26.013 31.585 12.418 50.186 o
7 0 1 103.026 95.765 10.153 50.817 o
7 0 2 107.888 137.572 11.787 38.275 o
7 0 3 2.813 -9.051 7.029 164.374 o
7 0 4 66.061 62.686 12.345 45.051 o
7 0 5 0.019 -3.265 5.315 290.013 o
7 0 6 15.408 21.065 9.333 88.987 o
7 0 7 83.725 99.846 16.791 24.839 o
7 0 8 17.439 43.194 12.229 51.911 o
7 1 0 1.434 -1.858 5.806 241.528 o
7 1 1 19.201 24.675 5.935 197.183 o
7 1 2 33.659 39.677 7.064 131.195 o
7 1 3 10.743 13.866 6.873 162.572 o
7 1 4 5.719 1.516 6.044 218.031 o
7 1 5 11.075 10.973 7.451 140.189 o
7 1 6 9.598 2.415 8.143 120.281 o
7 1 7 40.643 43.615 11.873 52.361 o
7 1 8 15.741 13.955 8.748 101.443 o
7 2 0 19.545 29.789 6.035 188.427 o
7 2 1 50.674 53.987 7.768 100.567 o
7 2 2 37.093 64.933 13.515 40.823 o
7 2 3 6.822 17.390 9.064 96.535 o
7 2 4 21.037 10.168 8.254 112.015 o
7 2 5 16.382 21.963 8.953 95.875 o
7 2 6 28.244 42.224 11.169 60.244 o
7 2 7 38.133 40.571 10.935 61.273 o
7 2 8 20.945 31.476 9.821 78.707 o
7 3 0 0.980 4.896 3.983 499.559 o
7 3 1 15.503 24.592 10.130 75.852 o
7 3 2 8.324 23.290 9.082 95.123 o
7 3 3 33.214 35.855 11.460 57.243 o
7 3 4 90.558 112.099 18.044 21.500 o
7 3 5 3.223 10.190 7.520 141.483 o
7 3 6 11.500 10.777 9.271 92.115 o
7 3 7 25.304 48.926 12.404 49.589 o
7 4 0 102.138 112.913 17.059 23.145 o
7 4 1 56.705 66.699 14.521 34.562 o
7 4 2 6.106 24.937 10.083 78.020 o
7 4 3 29.474 32.438 11.056 61.888 o
7 4 4 0.069 23.224 10.587 71.841 o
7 4 5 12.885 14.508 8.700 103.221 o
7 4 6 56.908 51.993 13.088 42.121 o
7 5 0 54.477 65.374 14.495 34.852 o
7 5 1 8.040 24.604 10.336 74.106 o
7 5 2 14.114 18.427 9.095 94.063 o
7 5 3 2.796 26.454 11.630 59.345 o
7 5 4 33.390 56.503 15.274 32.970 o
;
_olex2_submission_special_instructions 'No special instructions were received'
loop_
_space_group_symop_id
_space_group_symop_operation_xyz
1 x,y,z
2 x+1/2,-y+1/2,-z
3 -x,y+1/2,-z+1/2
4 -x+1/2,-y,z+1/2
loop_
_atom_site_label
_atom_site_type_symbol
_atom_site_fract_x
_atom_site_fract_y
_atom_site_fract_z
_atom_site_U_iso_or_equiv
_atom_site_adp_type
_atom_site_occupancy
_atom_site_refinement_flags_posn
S1 S 0.35996(14) 0.27515(7) 0.68694(5) 0.0446(2) Uani 1.000000 .
S2 S 0.24851(17) 0.29020(8) 0.89328(5) 0.0585(3) Uani 1.000000 .
O4 O 0.2679(5) 0.17746(18) 0.70430(12) 0.0557(7) Uani 1.000000 .
O3 O 0.5799(4) 0.2825(2) 0.67334(14) 0.0640(8) Uani 1.000000 .
C5 C 0.0232(5) 0.2851(3) 0.60158(17) 0.0457(8) Uani 1.000000 .
H5 H -0.0386(5) 0.2353(3) 0.62889(17) 0.0548(10) Uiso 1.000000 R
N1 N -0.1097(6) 0.4425(2) 0.45207(15) 0.0524(8) Uani 1.000000 .
N2 N 0.3061(4) 0.3555(2) 0.74624(13) 0.0404(7) Uani 1.000000 .
O2 O -0.3008(5) 0.4329(3) 0.45322(15) 0.0720(9) Uani 1.000000 .
C9 C 0.2134(6) 0.4324(3) 0.51932(17) 0.0466(9) Uani 1.000000 .
H9 H 0.2758(6) 0.4802(3) 0.49074(17) 0.0559(10) Uiso 1.000000 R
O1 O -0.0121(5) 0.4855(3) 0.40817(14) 0.0804(10) Uani 1.000000 .
C11 C 0.2267(5) 0.3205(2) 0.61451(15) 0.0394(8) Uani 1.000000 .
F1 F 0.4122(6) 0.1499(3) 0.96570(18) 0.1239(13) Uani 1.000000 .
C13 C 0.0909(5) 0.3584(3) 0.77502(17) 0.0413(8) Uani 1.000000 .
H13 H -0.0105(5) 0.3480(3) 0.73885(17) 0.0496(10) Uiso 1.000000 R
C14 C 0.0510(5) 0.2765(3) 0.82733(16) 0.0435(8) Uani 1.000000 .
H14 H 0.0705(5) 0.2083(3) 0.80658(16) 0.0521(10) Uiso 1.000000 R
C15 C -0.1743(6) 0.2820(4) 0.8538(2) 0.0643(11) Uani 1.000000 .
H15a H -0.1961(16) 0.2275(16) 0.8857(12) 0.0965(17) Uiso 1.000000 GR
H15b H -0.1968(16) 0.3482(10) 0.8748(14) 0.0965(17) Uiso 1.000000 GR
H15c H -0.2718(6) 0.274(2) 0.8177(3) 0.0965(17) Uiso 1.000000 GR
C16 C -0.0851(6) 0.3245(3) 0.54806(17) 0.0460(9) Uani 1.000000 .
H16 H -0.2209(6) 0.3016(3) 0.53867(17) 0.0552(10) Uiso 1.000000 R
C17 C 0.3215(6) 0.3940(3) 0.57341(17) 0.0448(9) Uani 1.000000 .
H17 H 0.4574(6) 0.4171(3) 0.58246(17) 0.0538(10) Uiso 1.000000 R
C18 C 0.2608(9) 0.1606(4) 0.9216(3) 0.0775(13) Uani 1.000000 .
C19 C 0.2164(8) 0.5315(3) 0.7540(2) 0.0732(13) Uani 1.000000 .
H19a H 0.1489(8) 0.5451(3) 0.7116(2) 0.0879(16) Uiso 1.000000 R
H19b H 0.2574(8) 0.5972(3) 0.7739(2) 0.0879(16) Uiso 1.000000 R
C20 C 0.0714(7) 0.4723(3) 0.7994(2) 0.0591(11) Uani 1.000000 .
H20a H -0.0725(7) 0.4970(3) 0.7954(2) 0.0709(13) Uiso 1.000000 R
H20b H 0.1157(7) 0.4787(3) 0.8455(2) 0.0709(13) Uiso 1.000000 R
C21 C 0.0093(6) 0.3980(3) 0.50859(16) 0.0420(8) Uani 1.000000 .
F3 F 0.2937(11) 0.0933(3) 0.8773(2) 0.203(3) Uani 1.000000 .
C23 C 0.4042(6) 0.4618(3) 0.7453(2) 0.0557(10) Uani 1.000000 .
H23a H 0.5040(6) 0.4703(3) 0.7815(2) 0.0668(12) Uiso 1.000000 R
H23b H 0.4751(6) 0.4751(3) 0.7034(2) 0.0668(12) Uiso 1.000000 R
F2 F 0.0915(7) 0.1313(3) 0.9521(3) 0.174(2) Uani 1.000000 .
loop_
_atom_site_aniso_label
_atom_site_aniso_U_11
_atom_site_aniso_U_22
_atom_site_aniso_U_33
_atom_site_aniso_U_12
_atom_site_aniso_U_13
_atom_site_aniso_U_23
S1 0.0433(5) 0.0383(5) 0.0521(5) 0.0084(4) 0.0080(4) 0.0040(4)
S2 0.0615(6) 0.0551(6) 0.0589(5) -0.0131(6) -0.0098(5) 0.0125(5)
O4 0.0704(17) 0.0317(12) 0.0648(16) 0.0026(14) 0.0113(13) 0.0042(11)
O3 0.0437(13) 0.0745(19) 0.0738(17) 0.0145(15) 0.0102(12) 0.0137(16)
C5 0.052(2) 0.0371(18) 0.0476(18) -0.0075(19) 0.0097(16) -0.0002(17)
N1 0.065(2) 0.0419(18) 0.0504(18) -0.0105(18) -0.0052(17) -0.0046(15)
N2 0.0422(16) 0.0345(15) 0.0446(15) -0.0018(13) 0.0019(13) 0.0044(12)
O2 0.062(2) 0.077(2) 0.0772(19) 0.0034(17) -0.0153(16) 0.0028(17)
C9 0.053(2) 0.0411(19) 0.0462(18) -0.0042(19) 0.0087(17) 0.0043(16)
O1 0.088(2) 0.093(2) 0.0599(17) -0.024(2) -0.0051(17) 0.0220(17)
C11 0.0404(18) 0.0336(16) 0.0442(17) 0.0035(16) 0.0060(15) -0.0062(14)
F1 0.138(3) 0.119(3) 0.114(2) 0.007(3) -0.045(2) 0.052(2)
C13 0.040(2) 0.0356(18) 0.0482(19) 0.0047(16) -0.0014(15) -0.0028(15)
C14 0.0420(18) 0.0384(18) 0.050(2) -0.0072(18) 0.0041(15) -0.0043(16)
C15 0.045(2) 0.074(3) 0.073(3) -0.007(2) 0.0059(19) -0.001(2)
C16 0.044(2) 0.0380(19) 0.056(2) -0.0045(17) 0.0057(17) -0.0073(17)
C17 0.042(2) 0.040(2) 0.0519(19) -0.0048(17) 0.0078(17) -0.0002(16)
C18 0.092(4) 0.060(3) 0.080(3) 0.004(3) -0.009(3) 0.018(3)
C19 0.097(4) 0.031(2) 0.092(3) 0.001(2) -0.016(3) 0.006(2)
C20 0.061(3) 0.038(2) 0.078(3) 0.0133(19) -0.000(2) -0.002(2)
C21 0.048(2) 0.0327(18) 0.0457(19) -0.0004(17) 0.0004(16) -0.0061(15)
F3 0.374(8) 0.098(3) 0.138(3) 0.137(4) -0.074(4) -0.028(3)
C23 0.068(3) 0.044(2) 0.055(2) -0.023(2) -0.002(2) -0.0025(17)
F2 0.125(3) 0.120(3) 0.275(6) -0.030(3) 0.006(4) 0.126(4)
loop_
_atom_type_symbol
_atom_type_scat_dispersion_real
_atom_type_scat_dispersion_imag
_atom_type_scat_Cromer_Mann_a1
_atom_type_scat_Cromer_Mann_a2
_atom_type_scat_Cromer_Mann_a3
_atom_type_scat_Cromer_Mann_a4
_atom_type_scat_Cromer_Mann_b1
_atom_type_scat_Cromer_Mann_b2
_atom_type_scat_Cromer_Mann_b3
_atom_type_scat_Cromer_Mann_b4
_atom_type_scat_Cromer_Mann_c
_atom_type_scat_source
_atom_type_scat_dispersion_source
C 0.00347 0.00161 2.31000 1.02000 1.58860 0.86500 20.84390 10.20750 0.56870
51.65120 0.215599998832
'International Tables Volume C Table 6.1.1.4 (pp. 500-502)'
'Henke, Gullikson and Davis, At. Data and Nucl. Data Tables, 1993, 54, 2'
F 0.01794 0.01033 3.53920 2.64120 1.51700 1.02430 10.28250 4.29440 0.26150
26.14760 0.277599990368
'International Tables Volume C Table 6.1.1.4 (pp. 500-502)'
'Henke, Gullikson and Davis, At. Data and Nucl. Data Tables, 1993, 54, 2'
H 0.00000 0.00000 0.49300 0.32291 0.14019 0.04081 10.51090 26.12570 3.14236
57.79970 0.0030380000826
'International Tables Volume C Table 6.1.1.4 (pp. 500-502)'
'Henke, Gullikson and Davis, At. Data and Nucl. Data Tables, 1993, 54, 2'
O 0.01158 0.00611 3.04850 2.28680 1.54630 0.86700 13.27710 5.70110 0.32390
32.90890 0.250800013542
'International Tables Volume C Table 6.1.1.4 (pp. 500-502)'
'Henke, Gullikson and Davis, At. Data and Nucl. Data Tables, 1993, 54, 2'
N 0.00653 0.00323 12.21260 3.13220 2.01250 1.16630 0.00570 9.89330 28.99750
0.58260 -11.5290002823
'International Tables Volume C Table 6.1.1.4 (pp. 500-502)'
'Henke, Gullikson and Davis, At. Data and Nucl. Data Tables, 1993, 54, 2'
S 0.12424 0.12443 6.90530 5.20340 1.43790 1.58630 1.46790 22.21510 0.25360
56.17200 0.866900026798
'International Tables Volume C Table 6.1.1.4 (pp. 500-502)'
'Henke, Gullikson and Davis, At. Data and Nucl. Data Tables, 1993, 54, 2'
loop_
_geom_angle_atom_site_label_1
_geom_angle_atom_site_label_2
_geom_angle_atom_site_label_3
_geom_angle
O3 S1 O4 120.36(18)
N2 S1 O4 107.25(15)
N2 S1 O3 107.84(17)
C11 S1 O4 107.06(17)
C11 S1 O3 106.62(16)
C11 S1 N2 107.05(14)
C18 S2 C14 100.0(2)
C11 C5 H5 120.4(2)
C16 C5 H5 120.4(2)
C16 C5 C11 119.3(3)
O1 N1 O2 124.7(4)
C21 N1 O2 117.0(3)
C21 N1 O1 118.3(3)
C13 N2 S1 119.9(2)
C23 N2 S1 119.1(2)
C23 N2 C13 111.3(3)
C17 C9 H9 120.9(2)
C21 C9 H9 120.9(2)
C21 C9 C17 118.3(3)
C5 C11 S1 119.0(3)
C17 C11 S1 120.2(3)
C17 C11 C5 120.8(3)
H13 C13 N2 108.14(17)
C14 C13 N2 114.1(3)
C14 C13 H13 108.14(18)
C20 C13 N2 102.8(3)
C20 C13 H13 108.1(2)
C20 C13 C14 115.2(3)
C13 C14 S2 108.8(2)
H14 C14 S2 107.94(12)
H14 C14 C13 107.94(18)
C15 C14 S2 112.5(2)
C15 C14 C13 111.5(3)
C15 C14 H14 107.9(2)
H15a C15 C14 109.5
H15b C15 C14 109.5
H15b C15 H15a 109.5
H15c C15 C14 109.5
H15c C15 H15a 109.5
H15c C15 H15b 109.5
H16 C16 C5 120.4(2)
C21 C16 C5 119.3(3)
C21 C16 H16 120.4(2)
C11 C17 C9 119.8(3)
H17 C17 C9 120.1(2)
H17 C17 C11 120.1(2)
F1 C18 S2 110.5(4)
F3 C18 S2 115.4(4)
F3 C18 F1 106.5(5)
F2 C18 S2 113.1(4)
F2 C18 F1 104.9(4)
F2 C18 F3 105.8(6)
H19b C19 H19a 108.9
C20 C19 H19a 110.8(2)
C20 C19 H19b 110.8(2)
C23 C19 H19a 110.8(2)
C23 C19 H19b 110.8(2)
C23 C19 C20 104.7(3)
C19 C20 C13 103.7(3)
H20a C20 C13 111.0(2)
H20a C20 C19 111.0(2)
H20b C20 C13 111.0(2)
H20b C20 C19 111.0(2)
H20b C20 H20a 109.0
C9 C21 N1 118.2(3)
C16 C21 N1 119.2(3)
C16 C21 C9 122.6(3)
C19 C23 N2 102.3(3)
H23a C23 N2 111.31(19)
H23a C23 C19 111.3(2)
H23b C23 N2 111.31(19)
H23b C23 C19 111.3(2)
H23b C23 H23a 109.2
loop_
_geom_bond_atom_site_label_1
_geom_bond_atom_site_label_2
_geom_bond_distance
S1 O4 1.429(3)
S1 O3 1.425(3)
S1 N2 1.615(3)
S1 C11 1.781(3)
S2 C14 1.832(3)
S2 C18 1.763(5)
C5 H5 0.9300
C5 C11 1.393(5)
C5 C16 1.373(5)
N1 O2 1.218(4)
N1 O1 1.212(4)
N1 C21 1.479(5)
N2 C13 1.483(4)
N2 C23 1.503(5)
C9 H9 0.9300
C9 C17 1.377(5)
C9 C21 1.385(5)
C11 C17 1.392(5)
F1 C18 1.314(6)
C13 H13 0.9800
C13 C14 1.510(5)
C13 C20 1.550(5)
C14 H14 0.9800
C14 C15 1.527(5)
C15 H15a 0.9600
C15 H15b 0.9600
C15 H15c 0.9600
C16 H16 0.9300
C16 C21 1.372(5)
C17 H17 0.9300
C18 F3 1.260(6)
C18 F2 1.293(6)
C19 H19a 0.9700
C19 H19b 0.9700
C19 C20 1.503(6)
C19 C23 1.501(6)
C20 H20a 0.9700
C20 H20b 0.9700
C23 H23a 0.9700
C23 H23b 0.9700
loop_
_refln_index_h
_refln_index_k
_refln_index_l
_refln_F_squared_meas
_refln_F_squared_sigma
_refln_scale_group_code
0 0 3 63.8095 35.6719 4
0 0 4 2762.27 167.765 4
0 0 5 -42.2438 59.4456 4
0 0 6 72416.5 1644.03 4
0 0 7 -17.2034 63.3655 4
0 0 8 13313.1 552.963 4
0 0 10 21543.1 705.257 1
0 0 11 -20.6339 56.966 1
0 0 12 1421.08 177.855 1
0 0 -13 -20.8374 110.798 4
0 0 -14 106873 2653.52 4
0 0 -14 102859 2667.18 3
0 0 -15 591.688 187.857 3
0 0 -15 1247.37 255.111 4
0 0 -16 6800.55 528.011 4
0 0 -16 6431.82 533.567 3
0 0 -17 215.806 158.941 3
0 0 -18 -65.4982 135.627 3
0 0 -19 -96.7776 124.79 3
0 0 -20 5173.73 544.591 3
0 0 -21 45.3892 165.054 3
0 0 -22 241.655 216.154 3
0 0 -23 311.149 222.492 3
0 0 -24 899.69 301.726 3
0 0 -25 204.862 205.551 3
0 1 3 6184.25 255.772 3
0 1 3 6576.89 218.015 2
0 1 4 44004.9 1018.9 4
0 -1 -4 42775 997.718 1
0 1 4 43107.7 1029.58 3
0 1 4 43411.1 951.122 2
0 1 5 245818 4732.18 4
0 1 5 243917 4742.24 3
0 1 5 240955 4683.2 1
0 1 6 9085.8 374.936 1
0 1 6 9945.08 409.833 4
0 -1 6 8887.18 391.461 4
0 1 6 9319.71 415.899 3
0 1 7 41106.8 1058.62 1
0 -1 7 42649.9 1114.94 4
0 1 7 41300.8 1139.17 3
0 1 7 42448.3 1121.62 4
0 -1 8 29557.4 922.675 4
0 1 8 29679.4 861.494 1
0 1 8 31349.7 936.51 4
0 1 9 24120.4 772.134 1
0 1 10 1925.77 203.254 1
0 1 11 23292.2 800.951 1
0 1 -13 7729.81 511.256 4
0 -1 -14 1746.72 270.283 3
0 1 -14 1210.04 209.626 3
0 1 -14 1323.73 233.612 4
0 -1 -15 9947.72 644.451 3
0 1 -15 9850.45 623.328 4
0 1 -15 10021.3 645.438 3
0 1 -16 2397.96 337.707 3
0 1 -16 2344.17 318.9 4
0 -1 -16 3186.61 379.819 3
0 1 -17 2633.94 355.552 3
0 1 -17 2337.26 323.23 4
0 -1 -17 2540.1 355.893 3
0 -1 -18 13183.7 829.222 3
0 1 -18 13585.7 807.553 4
0 1 -18 13661.9 832.708 3
0 -1 -19 4037.7 461.232 3
0 1 -19 2735.15 396.146 4
0 1 19 3604.56 361.572 2
0 1 -19 3258.45 441.863 3
0 -1 -20 223.555 166.663 3
0 1 -20 230.31 151.172 4
0 1 20 250.322 108.697 2
0 1 -20 39.4617 151.741 3
0 -1 -21 3415.84 487.662 3
0 1 -21 2956.64 426.564 3
0 1 21 3299.6 366.09 2
0 -1 -22 514.759 215.919 3
0 1 -22 397.694 229.637 3
0 1 -23 -76.7821 198.854 3
0 -1 -23 -155.257 155.734 3
0 -1 -24 592.574 231.429 3
0 1 -24 592.254 241.331 3
0 1 -25 343.67 214.17 3
0 -2 0 302894 5695.82 1
0 2 1 118210 2305.59 2
0 -2 1 116789 2306.41 1
0 -2 -1 115633 2336.86 1
0 -2 -2 85652.9 1788.42 1
0 2 2 84760.7 1728.43 2
0 2 3 93672.5 1893.8 2
0 -2 -3 93882.9 1970.17 1
0 -2 -4 355275 6619.81 1
0 2 4 341940 6509.17 2
0 2 5 24056.9 640.451 2
0 -2 -5 23884.9 726.617 1
0 -2 -5 24417.8 642.379 2
0 2 5 23505.4 727.623 3
0 2 6 126456 2582.46 2
0 -2 -6 128076 2689.71 1
0 2 6 125654 2679.18 1
0 2 6 127855 2720.23 3
0 2 7 65942.4 1510.77 2
0 2 7 66369.4 1654.22 3
0 2 7 67032.4 1603.65 1
0 2 7 69516.6 1643.32 4
0 -2 -7 68497.7 1615.49 1
0 2 8 23339.2 705.484 2
0 2 8 23818.1 778.138 1
0 2 9 1799.6 175.603 2
0 2 9 2006.9 216.427 1
0 2 10 53380.7 1361.84 2
0 2 10 56008.9 1467.08 1
0 2 11 836.639 134.801 2
0 2 12 598.921 132.43 2
0 2 -13 35430.8 1211.42 4
0 2 13 35363.9 1081.05 2
0 2 14 33514.7 1068.8 2
0 -2 -14 33645.8 1260.82 3
0 2 -14 32960.5 1194.31 4
0 2 -15 907.436 208.332 4
0 2 15 814.381 158.475 2
0 -2 -15 871.609 230.78 3
0 2 -16 1733.65 268.62 4
0 -2 -16 1926.27 309.779 3
0 2 16 1869.43 242.338 2
0 2 -16 1687.93 286.491 3
0 2 17 1336.62 222.747 2
0 2 -17 1283.2 264.563 3
0 -2 -17 1716.16 310.405 3
0 2 -17 1519.32 276.273 4
0 2 18 2652.31 301.47 2
0 -2 -18 2566.24 369.424 3
0 2 -18 2019.41 309.146 4
0 2 -18 2208.02 338.71 3
0 -2 -19 3026.99 414.901 3
0 2 -19 2741.92 375.486 4
0 2 19 2935.9 327.936 2
0 2 -19 2573.75 374.272 3
0 2 -20 248.823 179.629 4
0 2 20 289.476 138.672 2
0 2 -20 342.183 227.819 3
0 2 -21 956.073 251.389 3
0 2 -21 1518.87 308.197 4
0 2 -22 -76.4321 139.296 3
0 2 -22 300.181 166.586 4
0 2 -23 751.593 268.715 3
0 2 -24 4170.9 559.113 3
0 -3 0 115.259 79.9585 1
0 -3 -1 68192.3 1537.45 1
0 -3 1 67929.9 1506.43 1
0 -3 -2 217180 4346.59 1
0 -3 2 222547 4280.35 1
0 3 2 221245 4281.12 2
0 -3 -3 262754 5136.36 1
0 3 3 261866 5043.7 2
0 -3 -4 195749 3949.11 1
0 -3 -4 193682 3815.12 2
0 3 4 198036 3846.63 2
0 -3 -5 27244.4 852.98 1
0 -3 -5 29328.2 762.452 2
0 3 5 28167.8 773.504 2
0 -3 -6 99898.2 2085.81 2
0 3 6 96172.2 2090.7 2
0 -3 -6 98363.2 2225.88 1
0 3 7 9510.36 396.425 2
0 3 7 10214.7 487.887 1
0 -3 -7 10106.4 409.879 2
0 -3 -7 9970.44 487.874 1
0 3 8 28649 838.913 2
0 -3 -8 30580 979.478 1
0 3 8 29325.9 956.81 1
0 3 9 3731.69 253.027 2
0 -3 -9 3277.25 308.151 1
0 3 10 9725.66 448.431 2
0 3 11 5863.59 351.069 2
0 3 -12 3862.27 353.067 4
0 3 12 3539.23 285.134 2
0 3 -13 12857.8 686.198 4
0 3 13 12508.7 570.445 2
0 3 -14 1631.33 258.348 4
0 3 14 1504.93 213.639 2
0 3 -15 3147.45 359.012 4
0 3 15 4031.1 342.158 2
0 3 -16 -122.967 126.565 4
0 3 16 126.81 110.594 2
0 3 -17 -45.6034 135.028 4
0 3 17 218.49 137.852 2
0 3 -18 647.086 203.295 3
0 3 18 1264.66 218.424 2
0 3 -18 462.802 181.067 4
0 3 -19 4972.1 518.644 4
0 3 19 5455.12 441.519 2
0 3 -19 5386.4 546.05 3
0 3 20 4147.1 390.077 2
0 3 -20 3527.98 460.198 3
0 3 -20 3220.95 412.636 4
0 3 -21 490.124 214.436 3
0 3 -21 223.337 173.093 4
0 3 -22 -34.2627 135.193 4
0 3 -22 -16.1844 163.528 3
0 3 -23 232.109 209.05 3
0 3 -23 182.918 205.253 4
0 3 -24 215.824 189.071 3
0 3 -24 485.916 229.672 4
0 3 -25 360.917 215.43 4
0 -4 0 22330.7 722.862 1
0 -4 -1 275787 5399.27 1
0 -4 1 272292 5358.64 1
0 -4 2 217446 4392.55 1
0 4 2 224704 4400.89 2
0 -4 -2 223498 4474.05 1
0 -4 -3 186209 3893.1 1
0 4 3 190562 3800.93 2
0 -4 3 188337 3796.96 1
0 -4 -3 189304 3782.18 2
0 -4 -4 137639 2876.48 2
0 -4 -4 141812 3027.13 1
0 4 4 137378 2893.95 2
0 -4 -5 18429 702.77 1
0 4 5 18771.5 630.885 2
0 -4 -5 18264.3 603.359 2
0 -4 -6 41526.5 1074.15 2
0 4 6 41073 1097.3 2
0 -4 -6 40398.5 1199.89 1
0 -4 -7 23208 724.877 2
0 -4 -7 22725.4 849.418 1
0 4 7 22128.7 729.668 2
0 4 8 18837 661.395 2
0 -4 -8 19211.9 772.169 1
0 -4 -8 18125.7 643.089 2
0 4 9 85.9945 84.7686 2
0 -4 -9 -41.466 97.1094 1
0 -4 -10 52749.6 1520.91 1
0 4 10 46603.7 1292.28 2
0 4 -11 157.777 122.69 4
0 4 11 -152.288 109.041 2
0 4 -12 5946.8 446.141 4
0 4 12 5640.91 364.29 2
0 4 -13 5775.86 448.916 4
0 4 13 5135.17 365.221 2
0 4 14 22473.1 854.966 2
0 4 -14 22233.1 976.517 4
0 4 -15 66845.3 1971.08 4
0 4 15 64784.1 1762.52 2
0 4 -16 1061.32 275.651 4
0 4 16 827.619 179.843 2
0 4 17 18583.2 811.993 2
0 4 -17 18193.4 942.579 4
0 4 18 -111.859 88.7776 2
0 4 -18 116.578 118.014 4
0 4 19 145.816 110.546 2
0 4 -19 23.662 126.086 4
0 4 -20 1025.7 258.232 4
0 4 -21 74.7128 184.823 4
0 4 -21 384.933 214.367 3
0 4 -22 665.421 237.42 4
0 4 -22 407.136 236.35 3
0 4 -23 2921.9 454.859 3
0 4 -23 3627.07 489.906 4
0 4 -24 1067.77 295.115 4
0 4 -24 1063.79 332.588 3
0 4 -25 632.107 259.39 4
0 -5 0 1.03299 87.8514 1
0 -5 -1 128424 2857.51 1
0 -5 1 131209 2832.71 1
0 -5 -2 75676.6 1806.56 2
0 -5 2 77879.5 1834.07 1
0 -5 -2 77705 1898.64 1
0 5 3 69176.6 1664.9 2
0 -5 3 66666.5 1651.34 1
0 -5 -3 67208 1740.11 1
0 -5 -3 67872.1 1637.37 2
0 5 4 28938.5 906.558 2
0 -5 4 29103.5 902.93 1
0 -5 -4 29995.6 1000.75 1
0 -5 -4 30041.1 892.272 2
0 -5 -5 23049.4 751.353 2
0 5 5 22068.4 762.805 2
0 -5 -5 22414 848.94 1
0 -5 -6 38400.6 1211.83 1
0 5 6 38214.4 1094.05 2
0 -5 -6 37822.5 1063.27 2
0 -5 -7 9614.97 453.817 2
0 -5 -7 9642.13 557.13 1
0 5 7 9829.83 474.615 2
0 -5 -8 28528.5 1045.01 1
0 -5 -8 28645.9 895.638 2
0 5 8 28585.5 921.305 2
0 -5 -9 24358.8 957.489 1
0 -5 -9 22289.8 785.427 2
0 5 9 24051.3 831.503 2
0 5 10 8121.94 453.655 2
0 -5 -10 7865.99 526.346 1
0 5 11 134.436 120.406 2
0 5 -11 -85.6796 113.136 4
0 -5 -11 172.728 140.651 1
0 5 -12 209.307 118.53 4
0 5 12 187.016 130.75 2
0 -5 -12 223.921 136.057 1
0 5 13 926.652 180.004 2
0 5 -13 746.849 168.567 4
0 5 -14 6457.41 505.397 4
0 5 14 6181.15 421.281 2
0 5 15 4094.82 348.327 2
0 5 -15 3820.45 410.301 4
0 5 16 3833.95 349.112 2
0 5 -16 3386.61 385.448 4
0 5 17 -40.1481 93.7259 2
0 5 -17 7.89255 126.498 4
0 5 -18 1848.14 317.041 4
0 5 18 1727.05 263.199 2
0 5 -19 3800.29 456.094 4
0 5 -20 4301.17 506.489 4
0 5 -21 1667.9 338.873 4
0 5 -22 -166.343 191.984 3
0 5 -22 113.133 140.982 4
0 5 -23 594.848 227.703 4
0 5 -23 -12.5424 151.003 3
0 5 -24 291.26 227.797 4
0 5 -25 485.49 239.277 4
0 -6 0 470.554 165.693 1
0 -6 1 122749 2812.48 1
0 -6 -1 123530 2831.01 1
0 -6 2 15736.3 667.211 1
0 -6 -2 15979 702.818 1
0 -6 -3 55286.5 1577.08 1
0 -6 3 55766 1497.89 1
0 -6 4 29309.6 965.812 1
0 6 4 29985.9 971.85 2
0 -6 -4 29120.8 1052.87 1
0 -6 5 89577.2 2048.86 1
0 6 5 87918.1 2045.96 2
0 6 6 51885.6 1433.58 2
0 -6 -6 50943.6 1545.56 1
0 -6 6 53270.1 1433.21 1
0 -6 -7 11651.4 639.432 1
0 6 7 11620.6 566.527 2
0 -6 -8 3283.67 353.282 1
0 6 8 2575.31 268.346 2
0 6 9 15977 691.077 2
0 -6 -9 16571.3 833.053 1
0 -6 -10 104.836 139.012 1
0 6 10 -44.0225 105.614 2
0 -6 -11 21815.1 981.98 1
0 6 11 20689.6 833.77 2
0 -6 -12 1200.67 226.988 1
0 6 12 1447.28 233.218 2
0 6 -12 477.59 168.332 4
0 6 -13 13897.7 753.636 4
0 -6 -13 14012.6 820.329 1
0 6 13 13621.3 668.117 2
0 6 -14 209.806 144.939 4
0 6 14 372.353 159.91 2
0 6 -15 11623.4 739.065 4
0 6 15 12112 646.685 2
0 6 -16 4623.03 468.886 4
0 6 16 4789.16 413.926 2
0 6 17 737.582 193.508 2
0 6 -17 519.675 195.4 4
0 6 -18 322.545 172.958 4
0 6 -19 53.0375 158.788 4
0 6 -20 625.305 225.643 4
0 6 -21 243.125 193.311 4
0 6 -22 527.694 227.147 4
0 6 -23 601.572 227.419 4
0 6 -24 687.884 255.828 4
0 -7 0 -85.7318 104.524 1
0 -7 1 3844.65 335.938 1
0 -7 -1 3537.09 349.102 1
0 -7 -2 337.359 143.495 1
0 -7 2 -34.4605 98.1082 1
0 -7 -3 1810.38 253.509 1
0 -7 3 1575.81 235.756 1
0 -7 4 106061 2547.34 1
0 -7 -4 106382 2662.8 1
0 -7 -5 10567 639.942 1
0 -7 5 10921.2 574.564 1
0 7 5 10451.4 562.56 2
0 -7 6 2130.01 267.295 1
0 7 6 2054.85 259.642 2
0 -7 -6 2138.6 301.151 1
0 -7 7 1044.43 186.335 1
0 7 7 1312.53 217.446 2
0 -7 -7 1012.09 218.795 1
0 7 8 10012.6 557.363 2
0 -7 -8 11019.3 672.011 1
0 -7 8 10118 556.835 1
0 7 9 143.256 118.468 2
0 -7 -9 245.175 177.102 1
0 -7 -10 9532.71 658.89 1
0 7 10 9541.94 551.76 2
0 7 11 24346.6 964.142 2
0 -7 -11 27617.5 1175.28 1
0 -7 -12 7704.41 601.396 1
0 7 12 7128.06 484.819 2
0 7 13 2733.38 310.153 2
0 -7 -13 3236.44 414.992 1
0 7 -13 2569.73 339.512 4
0 -7 -14 480.664 226.167 1
0 7 -14 449.065 182.035 4
0 7 14 181.164 116.079 2
0 7 -15 812.658 212.747 4
0 7 15 1265.29 234.525 2
0 7 16 6527.43 495.875 2
0 7 -16 6537.42 568.445 4
0 7 17 427.926 181.012 2
0 7 -17 165.934 125.806 4
0 7 -18 6080.15 578.472 4
0 7 -19 1317.87 293.309 4
0 7 -20 1555.01 322.228 4
0 7 -21 105.139 142.337 4
0 7 -22 18.2798 137.249 4
0 7 -23 292.08 199.832 4
0 -8 0 9523.62 599.619 1
0 -8 1 47096.6 1480.08 1
0 -8 -1 46380.1 1502.59 1
0 -8 2 12355.9 670.806 1
0 -8 -2 12758 705.621 1
0 -8 -3 38901.6 1373.64 1
0 -8 3 40183.8 1332.2 1
0 -8 4 365.268 148.081 1
0 -8 -4 517.09 203.059 1
0 -8 -5 9165.76 623.263 1
0 -8 5 9451.89 566.709 1
0 -8 6 564.356 182.454 1
0 -8 -6 377.882 187.667 1
0 -8 7 21900.9 909.562 1
0 8 7 21876.8 905.049 2
0 -8 -7 21926.2 1017.29 1
0 -8 -8 168.376 174.568 1
0 -8 8 619.453 173.554 1
0 8 8 852.405 212.213 2
0 8 9 23357.4 950.629 2
0 -8 -9 24310.9 1098.72 1
0 -8 9 22626.6 922.855 1
0 8 10 898.93 228.014 2
0 -8 10 1281.87 231.436 1
0 -8 -10 1198.12 264.391 1
0 8 11 7828.19 539.605 2
0 -8 -11 8204.77 642.497 1
0 -8 11 7979.43 521.88 1
0 -8 -12 11951.9 791.742 1
0 -8 12 10485.9 604.513 1
0 8 12 10550.7 633.118 2
0 -8 -13 21801.3 1109.08 1
0 8 13 19870.7 903.437 2
0 8 14 2104.3 290.789 2
0 8 -14 2264.5 350.312 4
0 -8 -14 1765.41 335.967 1
0 8 -15 1274.62 269.79 4
0 8 15 1167.02 231.78 2
0 8 16 400.354 201.249 2
0 8 -16 596.781 187.005 4
0 8 -17 204.578 170.056 4
0 8 -18 1138.86 282.586 4
0 8 -19 266.058 171.378 4
0 8 -20 1902.21 365.625 4
0 8 -21 -175.184 157.458 4
0 8 -22 338.801 213.229 4
0 8 -23 1253.78 342.473 4
0 -9 0 36.6072 128.787 1
0 -9 1 7575.15 543.979 1
0 -9 -1 7528.19 561.419 1
0 -9 -2 2421.37 332.987 1
0 -9 2 2079.16 300.775 1
0 -9 3 5976.52 487.087 1
0 -9 -3 6271.2 523.835 1
0 -9 4 17600.5 847.894 1
0 -9 -4 18191 930.782 1
0 -9 5 27050.7 1095.91 1
0 -9 -5 28514.6 1214.51 1
0 -9 -6 34967.8 1364.62 1
0 -9 6 33708.4 1254.75 1
0 -9 7 3271.36 365.724 1
0 -9 -7 3366.97 412.829 1
0 -9 8 468.001 184.767 1
0 -9 -8 68.31 138.067 1
0 -9 -9 2918.28 406.824 1
0 -9 9 2298.69 303.544 1
0 9 9 2479.53 320.107 2
0 -9 -10 13093.7 834.118 1
0 -9 10 12030.9 679.997 1
0 9 10 12564.9 712.774 2
0 -9 11 5044.56 444.608 1
0 -9 -11 5890.41 578.919 1
0 9 11 4939.63 446.176 2
0 -9 -12 391.463 211.365 1
0 9 12 465.094 175.308 2
0 -9 12 263.216 169.749 1
0 9 13 86.525 156.202 2
0 -9 -13 517.343 237.276 1
0 -9 13 162.559 130.548 1
0 -9 14 7180.99 519.921 1
0 -9 -14 7241.27 668.392 1
0 9 14 6666.27 525.917 2
0 9 -15 1852.95 339.245 4
0 9 15 1969.53 306.536 2
0 -9 -15 1922.09 364.039 1
0 9 -16 769.758 232.638 4
0 9 -17 205.382 171.446 4
0 9 -18 769.653 247.728 4
0 9 -19 10.7764 159.238 4
0 9 -20 1845.43 342.433 4
0 9 -21 804.978 297.801 4
0 9 -22 112.569 167.728 4
0 -10 0 1435.38 311.265 1
0 -10 -1 68864.7 2114.62 1
0 -10 1 67862 2075.69 1
0 -10 2 3992.36 436.622 1
0 -10 -2 4237.69 467.792 1
0 -10 -3 3989.16 456.805 1
0 -10 3 3624.41 427.731 1
0 -10 4 39548.7 1447.18 1
0 -10 -4 39978.3 1539.55 1
0 -10 5 7007.09 550.241 1
0 -10 -5 7829.16 643.959 1
0 -10 6 109.273 121.884 1
0 -10 -6 120.797 163.81 1
0 -10 7 6857.74 543.615 1
0 -10 -7 7336.45 635.033 1
0 -10 -8 241.732 152.797 1
0 -10 8 538.24 208.765 1
0 -10 9 17515.3 891.381 1
0 -10 -9 18372.4 1048.19 1
0 -10 -10 24888.1 1250.89 1
0 -10 10 24279.2 1061.96 1
0 -10 -11 2294.19 390.953 1
0 -10 11 1977.31 302.679 1
0 -10 -12 851.122 275.774 1
0 10 12 589.06 190.389 2
0 -10 12 610.938 214.943 1
0 10 13 1277.76 253.678 2
0 -10 13 1667.44 277.892 1
0 -10 -13 1631.92 354.085 1
0 10 14 528.559 191.183 2
0 -10 -14 515.414 237.499 1
0 -10 -15 3000.47 463.62 1
0 10 -16 159.81 184.16 4
0 10 -17 517.142 237.426 4
0 10 -18 995.461 278.429 4
0 10 -19 299.079 237.111 4
0 10 -20 829.714 265.189 4
0 -11 0 -107.507 134.968 1
0 -11 1 2971.75 390.651 1
0 -11 -1 2547.22 381.294 1
0 -11 -2 130.492 194.768 1
0 -11 2 457.735 214.844 1
0 -11 -3 399.819 206.768 1
0 -11 3 232.5 188.743 1
0 -11 -4 14323.4 906.699 1
0 -11 4 13833.7 839.919 1
0 -11 -5 452.735 216.262 1
0 -11 5 714.668 243.917 1
0 -11 6 9836.44 690.81 1
0 -11 -6 9347.95 721.733 1
0 -11 7 183.209 174.097 1
0 -11 -7 324.762 192.75 1
0 -11 -8 482.492 211.52 1
0 -11 8 196.537 177.949 1
0 -11 -9 195.131 178.67 1
0 -11 9 190.322 169.55 1
0 -11 -10 6147.22 625.156 1
0 -11 10 6470.81 555.863 1
0 -11 11 1499.37 296.986 1
0 -11 -11 1678.7 355.391 1
0 -11 12 4472.21 464.823 1
0 -11 -12 4101.93 530.918 1
0 -11 -13 2941.22 446.668 1
0 -11 -14 741.913 273.338 1
0 -11 -15 438.057 229.328 1
0 11 -16 1447.95 326.124 4
0 -11 -16 1268.64 331.701 1
0 11 -17 251.732 215.878 4
0 11 -18 123.099 218.128 4
0 11 -19 1815.69 382.518 4
0 -12 0 9106.72 737.878 1
0 -12 1 17310.4 994.415 1
0 -12 -1 18150.5 1024.85 1
0 -12 -2 4253.75 504.546 1
0 -12 2 4718.53 537.693 1
0 -12 3 14216.8 890.409 1
0 -12 -3 15154 962.581 1
0 -12 -4 959.657 304.119 1
0 -12 4 660.036 232.637 1
0 -12 5 4984.27 523.565 1
0 -12 -5 4823.78 543.279 1
0 -12 6 1346.75 284.046 1
0 -12 -6 1717.58 334.642 1
0 -12 -7 -64.928 137.54 1
0 -12 7 21.267 176.232 1
0 -12 8 99.9007 147.711 1
0 -12 -8 233.331 208.954 1
0 -12 9 1913.08 346.896 1
0 -12 -9 1942.66 381.376 1
0 -12 10 411.033 210.643 1
0 -12 -10 169.956 165.223 1
0 -12 11 388.409 209.164 1
0 -12 -11 467.566 231.365 1
0 -12 -12 824.48 288.987 1
0 -12 -13 3727.79 544.778 1
0 -12 -14 4364.72 620.962 1
0 -12 -15 1129.19 326.435 1
0 -12 -16 499.094 291.674 1
0 12 -17 1119.53 317.197 4
0 -13 0 132.157 197.596 1
0 -13 -1 2108.26 380.346 1
0 -13 1 1922.7 362.823 1
0 -13 -2 1417.09 349.639 1
0 -13 2 1679.2 355.77 1
0 -13 3 41.4237 174.662 1
0 -13 -3 386.145 224.665 1
0 -13 -4 3560 498.578 1
0 -13 4 4081.68 506.688 1
0 -13 5 2124.3 376.171 1
0 -13 -5 2367.26 430.756 1
0 -13 -6 1966.08 382.839 1
0 -13 6 1644.96 326.489 1
0 -13 -7 350.09 225.471 1
0 -13 7 137.805 188.149 1
0 -13 8 544.799 220.672 1
0 -13 -8 276.398 198.843 1
0 -13 -9 3790.69 524.894 1
0 -13 9 3486.97 471.903 1
0 -13 10 447.556 219.701 1
0 -13 -10 382.111 221.519 1
0 -13 -11 -91.5725 190.878 1
0 -13 -12 5193.39 652.005 1
0 -13 -13 712.057 284.483 1
0 -13 -14 518.481 233.211 1
0 -13 -15 513.338 290.853 1
0 -14 0 3271.62 485.724 1
0 -14 1 1918.83 376.793 1
0 -14 -1 2085.4 407.568 1
0 -14 -2 586.145 270.379 1
0 -14 2 204.527 185.194 1
0 -14 3 919.898 289.94 1
0 -14 -3 1218.24 347.349 1
0 -14 4 1210.67 315.274 1
0 -14 -4 2077.21 406.825 1
0 -14 -5 745.596 307.163 1
0 -14 5 896.834 290.532 1
0 -14 -6 582.98 255.755 1
0 -14 6 340.486 235.85 1
0 -14 7 7735.5 696.358 1
0 -14 -7 8178.49 794.479 1
0 -14 8 10.0952 187.47 1
0 -14 -8 383.827 255.724 1
0 -14 9 917.465 283.504 1
0 -14 -9 572.431 269.85 1
0 -14 -10 586.895 295.113 1
0 -14 -11 557.42 288.256 1
0 -14 -12 402.088 264.141 1
0 -15 0 529.477 293.187 1
0 -15 -1 2233.8 443.782 1
0 -15 1 1618.5 393.903 1
0 -15 2 3198.11 498.005 1
0 -15 -2 2681.72 477.991 1
0 -15 -3 455.911 267.066 1
0 -15 3 382.779 220.597 1
0 -15 4 745.799 242.712 1
0 -15 -4 730.334 277.842 1
0 -15 5 397.907 206.819 1
0 -15 -5 937.577 310.619 1
0 -15 6 451.357 244.33 1
0 -15 -6 92.6344 185.04 1
0 -15 7 110.977 197.614 1
0 -15 -7 461.904 319.722 1
0 -15 -8 844.026 293.533 1
0 -15 8 464.763 247.068 1
0 -15 -9 938.473 344.078 1
0 -16 0 6346.53 699.228 1
0 -16 1 164.903 241.603 1
0 -16 -1 638.169 309.35 1
0 -16 -2 2700.73 510.632 1
0 -16 2 3171.04 508.958 1
0 -16 3 166.611 217.682 1
0 -16 -3 903.762 340.109 1
0 -16 4 639.008 312.425 1
0 -16 -4 683.785 309.32 1
0 -16 5 661.695 285.768 1
0 -16 6 -30.6303 171.259 1
0 -16 7 1905.8 390.596 1
0 -17 4 211.636 282.145 1
0 -17 5 751.878 312.477 1
0 -17 6 33.2298 194.954 1
-1 0 2 1413.94 82.7331 2
1 0 -2 1595.74 90.7833 3
-1 0 2 1440.44 111.491 4
1 0 -3 1318.61 105.429 3
1 0 3 1164.6 75.9006 4
-1 0 3 1092.39 119.776 4
-1 0 3 1464.95 91.2199 2
-1 0 -4 59420.4 1214.03 1
-1 0 4 61262.8 1381.85 4
1 0 4 61819.6 1262.46 4
1 0 -4 61628.4 1334.62 3
-1 0 5 63.0786 77.7197 4
-1 0 -5 173.27 52.9517 1
-1 0 -5 149.097 70.5788 4
1 0 -5 -17.237 64.5771 3
1 0 5 134.113 60.6852 4
-1 0 6 126810 2672.17 4
1 0 6 118374 2419.33 1
1 0 -6 123749 2629.03 3
-1 0 -6 117397 2531.1 4
1 0 6 126990 2548.07 4
-1 0 -6 119783 2414.93 1
1 0 7 733.529 88.0061 1
1 0 -7 694.659 120.392 3
1 0 7 705.274 119.812 4
-1 0 7 658.521 151.5 4
-1 0 -7 865.373 131.134 4
-1 0 -8 14088.9 535.598 4
1 0 8 14418.8 442.263 1
1 0 8 14969.4 546.619 4
1 0 -8 14983.1 603.389 3
1 0 9 13793.6 449.295 1
1 0 -9 14208.4 612 3
-1 0 -9 13370.1 551.429 4
1 0 9 13256.4 546.836 4
1 0 10 8366.2 350.039 1
-1 0 -10 8553.87 450.745 4
1 0 -10 8788.47 496.113 3
1 0 11 7205 316.405 1
1 0 -11 7004.88 437.504 3
1 0 -12 1070.99 200.424 3
1 0 12 1076.91 141.144 1
-1 0 -13 5858.56 450.186 3
1 0 13 5758.06 331.145 1
1 0 -13 5675.32 450.305 3
1 0 -14 9612.53 628.044 4
1 0 -14 10574.3 649.334 3
-1 0 -14 10641.2 643.357 3
1 0 14 9955.76 466.64 1
1 0 15 5961.78 364.048 1
1 0 -15 6116.87 496.806 3
1 0 -15 6350.5 523.346 4
-1 0 -15 6187.41 498.65 3
1 0 -16 8413.62 607.595 4
-1 0 -16 7235.2 565.305 3
1 0 -16 7853.16 599.09 3
-1 0 -17 4710.23 477.436 3
1 0 -17 4634.47 478.63 3
1 0 -17 5198.32 493.619 4
-1 0 -18 2302.96 344.667 3
1 0 -18 1738.43 301.774 3
-1 0 -19 2779.26 378.082 3
1 0 -19 2712.7 395.158 3
-1 0 -20 3756.28 469.592 3
1 0 -20 3554.83 464.75 3
-1 0 -21 581.773 214.287 3
1 0 -21 1819.72 346.421 3
1 0 -22 520.923 256.462 3
-1 0 -22 427.234 219.613 3
1 0 -23 69.3544 141.487 3
1 0 23 29.5598 136.522 2
-1 0 -23 71.8793 175.691 3
1 0 -24 -116.988 173.965 3
1 0 24 233.995 195.738 2
-1 0 -24 -118.422 167.655 3
-1 0 -25 359.538 206.46 3
1 0 -25 507.76 259.406 3
-1 -1 -24 876.075 305.476 3
1 1 -24 1141.05 320.91 3
1 1 -23 628.67 249.357 3
-1 -1 -23 177.121 177.237 3
-1 -1 -22 1442.94 327.919 3
1 1 -22 1220.88 303.743 3
1 1 -21 2088.36 366.221 4
-1 -1 -21 2248.48 379.594 3
1 1 -21 2102.24 374.396 3
1 1 -20 2174.22 352.734 4
-1 -1 -20 1769.62 334.011 3
1 1 -20 1706.2 328.544 3
1 1 -19 1154.36 277.611 3
-1 -1 -19 1259.81 283.885 3
1 1 -19 1602.17 310.296 4
-1 -1 -18 3881.28 438.789 3
1 1 -18 4357.96 475.098 3
1 1 -18 3783.66 447.366 4
1 1 -17 403.802 185.784 4
1 1 -17 361.551 178.292 3
-1 -1 -17 299.513 169.577 3
-1 -1 -16 1624.51 284.634 3
1 1 -16 1694.45 296.148 4
1 1 -16 1124.11 238.754 3
1 -1 15 13926.3 543.797 1
-1 -1 -15 14951.3 798.098 3
1 1 -15 15202.7 807.726 3
1 1 -15 15324.8 808.655 4
1 1 -14 1040.02 223.152 3
1 -1 14 1408.51 162.01 1
-1 -1 -14 1340.79 237.833 3
1 1 -14 1242.93 246.122 4
1 1 -13 12018.3 665.775 3
1 -1 13 11256.7 440.996 1
-1 -1 -13 11945.1 662.44 3
1 -1 12 29876.4 807.318 1
1 1 -12 32178.9 1120.14 3
1 -1 11 58183.9 1299.65 1
1 -1 10 49625.8 1109.52 1
1 -1 9 22353.1 578.47 1
1 -1 9 24357.3 775.94 4
-1 -1 -9 24802 716.562 1
1 -1 8 48936.5 1063.37 1
1 -1 8 54874.7 1310.4 4
-1 -1 -8 54519.3 1233.66 1
-1 -1 -7 14764.8 485.432 1
-1 1 7 15215.4 604.368 4
1 -1 7 14926.7 522.589 4
-1 -1 -6 48384.9 1108.86 1
-1 1 6 47899.7 1215.15 3
-1 1 6 46467.4 1236.64 4
-1 -1 -5 76714.9 1637.33 1
-1 1 5 77491.9 1720.15 3
-1 1 5 80539.5 1767.15 4
-1 -1 -4 289757 5511.62 1
-1 1 4 291665 5613.11 4
-1 1 4 294938 5562.16 3
-1 1 3 177002 3380.91 4
-1 1 3 170886 3323.75 3
-1 -1 -3 168745 3317.55 1
-1 1 2 217797 4126.72 4
1 1 -2 214767 4122.84 2
1 1 -1 552734 10235.2 2
1 1 0 3107.61 172.378 2
1 1 1 551518 10242.8 2
1 1 2 221647 4285.43 2
1 1 3 170041 3365.84 2
1 1 3 163334 3274.69 3
-1 -1 3 174705 3279.54 2
1 -1 -4 301073 5713.41 3
1 1 4 296937 5717.21 3
1 1 4 301297 5781.25 2
-1 1 -4 300991 5608.78 4
1 -1 -5 80544.9 1749.35 3
1 1 5 80757.7 1753.3 3
1 1 5 78029.7 1782.18 2
1 1 5 75851.9 1660.82 1
-1 1 -5 81430.1 1652.84 4
-1 -1 6 48122 1252.53 4
1 -1 -6 50061.4 1235.84 3
-1 1 -6 50540.8 1147.07 4
1 1 6 48829.5 1246.04 2
1 1 6 48196.8 1168.74 4
1 1 6 47762.3 1124.87 1
1 1 6 48944.1 1239.59 3
1 -1 -7 15514.3 587.443 3
-1 -1 7 15400 603.144 4
1 1 7 14829.8 495.27 1
-1 1 -7 15570.1 527.838 4
1 1 7 15265.6 539.629 4
1 1 8 55248.8 1392.05 4
1 -1 -8 57343.6 1476.9 3
-1 1 -8 58299.8 1386.74 4
1 1 8 56306.1 1326.38 1
1 1 9 24789.9 740.73 1
1 1 9 24558.1 810.494 4
1 -1 -9 25691.9 881.297 3
-1 1 -9 25477.2 804.707 4
1 1 10 51799.8 1297.05 1
-1 1 -10 52106.5 1383.34 4
1 -1 -10 54647.2 1499.9 3
1 -1 -11 64956.2 1322.54 3
1 1 11 61124.9 1010.45 1
1 1 12 30433 926.683 1
1 -1 -12 31538.9 1122.44 3
1 1 13 11936.4 533.877 1
1 -1 -13 12688.7 683.419 3
-1 1 -13 12099.1 668.368 3
1 1 14 1094.63 165.566 1
-1 1 -14 1253.95 244.398 3
1 -1 -14 1418.1 263.19 3
-1 1 -14 1513.14 232.587 4
1 -1 -15 15784.3 822.87 3
-1 1 -15 14006.5 777.367 3
-1 1 -15 14701.8 742.872 4
-1 1 -16 1281.38 253.565 3
-1 1 -16 2040.63 287.65 4
1 -1 -16 1662.51 294.336 3
1 -1 -17 693.464 241.656 3
1 1 17 635.315 167.518 2
-1 1 -17 651.376 190.253 4
-1 1 -17 238.895 137.015 3
1 -1 -18 4393.97 477.986 3
-1 1 -18 4006.09 442.024 3
1 1 18 4353.46 419.613 2
-1 1 -19 947.775 241.29 3
1 -1 -19 1534.41 316.269 3
1 1 19 1695.75 283.472 2
1 -1 -20 1494.49 307.754 3
1 1 20 1463.49 262.465 2
-1 1 -20 1354.58 297.175 3
-1 1 -21 1633.65 351.998 3
1 -1 -21 1698.55 345.409 3
1 1 21 1574.71 274.222 2
1 -1 -22 2133.36 389.615 3
1 1 22 2079.93 330.663 2
-1 1 -22 1560.55 345.044 3
-1 1 -23 510.704 238.505 3
1 1 23 667.342 241.69 2
1 -1 -23 1040.33 324 3
1 -1 -24 749.23 285.193 3
-1 1 -24 708.822 283.153 3
1 2 -24 21.9513 201.825 3
1 2 -23 936.808 312.382 4
1 2 -23 473.389 244.734 3
1 2 -22 358.345 199.738 3
1 2 -22 842.272 255.425 4
1 2 -21 856.953 264.632 4
1 2 -21 1261.29 319.304 3
1 2 -20 3411.37 444.78 4
1 2 -20 3574.11 447.691 3
1 2 -19 9493.69 733.983 3
1 2 -19 9281.2 723.716 4
1 2 -18 4833.89 491.318 4
-1 2 18 4437.2 346.512 2
1 2 -18 4303.95 473.115 3
-1 -2 -18 5266.34 534.144 3
1 2 -17 6743.29 562.197 4
1 2 -17 7142.79 586.706 3
-1 2 17 7041.75 417.396 2
-1 -2 -17 7089.95 598.998 3
-1 2 16 10753.6 505.31 2
1 2 -16 10389.1 686.448 4
1 2 -16 9747.52 669.668 3
-1 -2 -16 10769.9 711.432 3
-1 2 15 2275.04 222.142 2
1 2 -15 2582.83 332.71 4
1 2 -15 2228.96 316.269 3
-1 -2 -15 2632.99 342.259 3
1 -2 15 2408.27 189.345 1
1 2 -14 6788.55 527.741 4
1 -2 14 6177.4 298.598 1
-1 -2 -14 7336.5 544.016 3
-1 2 14 7406.17 374.402 2
1 -2 13 4223.24 228.938 1
-1 2 13 5042.98 289.543 2
1 2 -13 4591.14 420.273 4
-1 -2 -13 4864.34 427.898 3
-1 2 12 5286.85 286.281 2
1 -2 12 4848.88 232.044 1
-1 -2 -11 7371.93 409.912 1
1 -2 11 6261.98 253.982 1
-1 2 11 7079.95 312.771 2
-1 -2 -10 5144.77 329.968 1
1 -2 10 4182.87 183.534 1
-1 2 10 4846.8 235.1 2
1 -2 9 4326.28 170.741 1
-1 -2 -9 5256.36 319.414 1
-1 2 9 5217.82 227.26 2
-1 -2 -8 12332.9 500.49 1
-1 2 8 12390.2 365.846 2
-1 2 7 102956 2294.99 3
-1 -2 -7 105148 2223.52 1
-1 2 7 99914.1 1978.9 2
-1 -2 -6 5499.12 299.05 1
-1 2 6 5744.05 321.549 3
-1 2 6 4845.81 171.478 2
-1 2 6 5956.67 344.152 4
-1 -2 -5 39389.4 1011.24 1
-1 2 5 39736.2 1034.83 3
-1 2 5 39499.3 1067.85 4
-1 -2 -4 274282 5295.14 1
1 -2 3 114335 2157.07 1
-1 -2 -3 108032 2324.29 1
1 2 -2 43373.7 1049.93 2
1 2 -1 59064.1 1351.08 2
1 2 0 67992.9 1511.88 2
1 2 1 59510.6 1359.47 2
1 2 2 46265 1121.86 2
-1 2 -2 45792.5 978.273 1
-1 2 -3 108589 2101.57 1
1 2 3 112698 2330 2
1 2 4 272731 5319.83 2
1 2 5 38485.9 1020.88 3
1 2 5 38402.4 1045.07 2
1 2 5 39795.2 1012.49 1
1 2 6 5036.8 293.55 1
-1 2 -6 4926.61 260.497 4
1 2 6 5084.73 315.141 2
1 2 6 5179.61 307.246 3
1 2 7 105856 2272.42 1
1 2 7 99908.1 2336.05 3
1 2 7 101314 2325.3 2
-1 2 -7 107604 2232.97 4
1 2 8 12190.9 518.141 4
1 2 8 13641 533.78 1
-1 2 -8 12763.8 508.381 4
1 2 8 12323.9 545.45 2
1 2 9 5836.09 342.795 1
1 -2 -9 5938.25 390.654 3
1 2 9 6023.3 379.69 2
-1 2 -9 5852.57 341.326 4
-1 2 -10 4954.75 336.198 4
1 -2 -10 5341.16 391.625 3
1 2 10 5291.98 340.841 1
1 2 10 5127.52 360.555 2
1 -2 -11 7152.7 478.255 3
1 2 11 7057.7 441.612 2
1 2 11 7056.37 409.278 1
1 -2 -12 6443.77 471.402 3
1 2 12 5673.6 375.216 1
1 2 12 5490.91 403.646 2
1 2 13 4508.63 378.781 2
1 -2 -13 4633.06 413.177 3
1 2 14 7714.93 510.086 2
1 -2 -14 8175.9 580.074 3
-1 2 -14 7656.68 500.556 4
1 2 15 3070.23 328.093 2
-1 2 -15 2428.52 299.53 4
1 -2 -15 2898.61 358.84 3
-1 2 -15 2351.97 315.886 3
-1 2 -16 10396.7 646.422 4
1 2 16 11521.2 656.491 2
1 -2 -16 10567.4 710.241 3
-1 2 -16 9555.63 665.235 3
-1 2 -17 7240.74 596.018 3
1 2 17 7052.19 529.054 2
1 -2 -17 7638.95 604.088 3
-1 2 -17 6823.54 541.337 4
1 -2 -18 4691.41 506.118 3
1 2 18 4253.5 427.663 2
-1 2 -18 3882.81 447.739 3
-1 2 -18 4772.22 457.799 4
1 2 19 9372.76 644.907 2
-1 2 -19 8839.26 645.802 4
-1 2 -19 9400.91 720.67 3
1 -2 -19 9759.46 736.325 3
-1 2 -20 3864.63 472.797 3
1 2 20 3242.98 396.701 2
-1 2 -20 3105.64 401.221 4
-1 2 -21 1013.7 279.744 3
1 2 21 675.966 221.989 2
-1 2 -22 512.976 210.462 3
1 2 22 881.18 237.037 2
1 2 23 675.662 211.891 2
-1 2 -23 819.17 282.907 3
-1 2 -24 132.539 175.802 3
1 3 -24 1380.46 351.571 4
1 3 -24 1632.62 371.546 3
1 3 -23 688.844 258.111 3
1 3 -23 699.381 253.029 4
1 3 -22 120.183 206.087 4
1 3 -22 573.658 229.749 3
1 3 -21 400.163 191.396 3
1 3 -21 286.587 212.775 4
1 3 -20 372.945 188.368 4
1 3 -20 435.11 211.361 3
1 3 -19 2063.36 341.136 4
1 3 -19 1911.6 334.567 3
1 3 -18 8954.34 682.161 4
1 3 -18 8300.35 669.804 3
1 3 -17 -45.7272 131.26 4
-1 3 17 213.421 109.513 2
-1 3 16 1165.79 163.976 2
1 3 -16 1020.88 245.032 4
-1 3 15 7414.35 389.979 2
1 3 -15 7011.12 557.462 4
1 -3 14 12502.5 435.525 1
1 3 -14 15349.1 794.198 4
-1 3 14 14456.5 542.376 2
1 3 -13 8481.63 557.267 4
1 -3 13 6742.99 286.811 1
-1 3 13 8099.16 373.036 2
-1 3 12 10341.6 419.834 2
-1 -3 -12 10792.6 565.896 1
-1 3 11 19811.8 606.467 2
-1 -3 -11 21680.7 809.63 1
-1 3 10 14503.3 468.669 2
-1 -3 -10 15165.7 644.162 1
-1 -3 -9 60402.3 1534.64 1
-1 3 9 56672.9 1269.53 2
-1 3 8 58064.5 1273.54 2
-1 -3 -8 63076.3 1551.03 1
-1 3 7 17271.2 456.71 2
-1 -3 -7 19039.1 675.017 1
-1 -3 -7 18352 678.366 2
1 -3 7 14746.8 410.109 1
-1 -3 -6 35159.3 983.193 1
1 -3 6 30465.5 712.008 1
-1 3 6 32186.1 959.6 3
-1 3 6 32821.4 739.028 2
1 -3 5 77330.7 1568.4 1
-1 -3 -5 79483.1 1828.43 1
1 -3 4 198166 3722.71 1
-1 -3 -4 187910 3939.71 1
-1 -3 -3 91191.4 2067.87 1
1 -3 3 94307.8 1895.72 1
-1 -3 -2 4042.82 266.705 1
1 -3 2 4572.17 226.36 1
1 3 -1 8511.36 411.45 2
1 -3 1 9725.24 359.049 1
1 -3 0 6974.38 318.268 1
1 3 0 7029.42 360.862 2
1 -3 -1 10640.1 422.887 1
1 3 1 10479.5 448.802 2
1 3 2 4368.24 285.301 2
1 -3 -2 4446.53 272.844 1
-1 3 -2 4398.81 222.88 1
1 -3 -3 92383.9 1858.48 2
-1 3 -3 92226.9 1883.81 1
1 3 3 90800 2064.76 2
1 -3 -3 93072.7 2079.5 1
1 -3 -4 197028 3693.33 2
1 3 4 194977 3953.62 1
-1 -3 4 189453 3920.87 2
1 3 4 191976 3949.28 2
1 -3 -5 79274.1 1579.46 2
1 3 5 80108.6 1856.28 1
1 3 5 76558.1 1839.07 2
1 3 6 32199.5 988.999 3
1 3 6 34265.6 997.705 1
1 -3 -6 33934.9 758.194 2
1 3 6 34410.1 1009.44 2
1 3 7 19765.8 711.594 1
1 3 7 18282.5 696.107 2
-1 3 -8 60545.5 1496.35 4
1 3 8 61777.1 1566.75 1
1 3 8 58790.2 1556.58 2
1 3 9 60123.6 1573.47 1
-1 3 -9 61326.9 1523.89 4
1 3 9 56457.8 1559.25 2
1 3 10 14811.4 598.455 2
-1 3 -10 -75.7275 63.1161 4
1 3 11 21061.8 828.915 2
1 3 12 10601.8 576.288 2
-1 3 -13 9006.94 540.157 4
1 3 13 8790.64 536.783 2
-1 3 -14 15569.6 744.58 4
1 3 14 14775.1 733.647 2
-1 3 -15 7631.07 534.032 4
1 3 15 8115.08 546.186 2
1 3 16 1328.91 252.439 2
-1 3 -16 1088.61 214.134 4
1 3 17 120.73 129.462 2
-1 3 -17 176.397 131.586 4
-1 3 -18 8663.23 618.28 4
1 3 18 8883.43 619.601 2
-1 3 -18 8552.9 671.43 3
1 3 19 2807.02 355.017 2
-1 3 -19 1760.06 322.556 3
-1 3 -19 2438.26 348.799 4
-1 3 -20 519.915 187.589 4
-1 3 -20 346.91 195.386 3
1 3 20 750.381 200.732 2
-1 3 -21 7.91146 161.515 4
-1 3 -21 15.435 137.404 3
1 3 21 315.49 175.951 2
1 3 22 440.508 223.353 2
-1 3 -22 -88.5027 125.276 4
-1 3 -22 281.591 235.254 3
-1 3 -23 759.689 234.066 4
-1 3 -23 1144.71 306.405 3
-1 3 -24 1298.52 334.236 3
1 4 -24 680.939 256.112 3
1 4 -24 885.628 284.819 4
1 4 -23 2086.05 407.42 4
1 4 -23 1278.79 326.629 3
1 4 -22 -74.9528 149.499 4
1 4 -22 272.953 216.506 3
1 4 -21 995.114 276.445 4
1 4 -21 1060.71 280.124 3
1 4 -20 3285.35 437.279 4
1 4 -20 3382.44 451.645 3
1 4 -19 1708.92 311.79 4
1 4 -18 611.827 216.911 4
1 4 -17 607.724 209.23 4
-1 4 16 2685.59 240.69 2
1 4 -16 3132.01 385.147 4
1 4 -15 2216.18 319.018 4
-1 4 15 2246.31 210.849 2
-1 4 14 749.858 130.345 2
1 4 -14 880.424 217.685 4
-1 -4 -14 892.531 195.155 1
-1 -4 -13 2794.29 315.98 1
1 4 -13 2469.37 319.848 4
-1 4 13 2379.21 205.064 2
1 4 -12 62.732 112.024 4
-1 -4 -12 129.822 128.699 1
-1 4 12 26.1188 60.7414 2
-1 -4 -11 3508.2 334.563 1
-1 4 11 3325.72 222.013 2
-1 -4 -10 9158.82 525.497 1
-1 4 10 8719.68 364.106 2
-1 -4 -9 51892.5 1428.62 1
1 -4 9 46918.4 1083.6 1
-1 4 9 48988.7 1147.11 2
-1 4 8 15689.2 493.359 2
1 -4 8 15122.4 456.321 1
-1 -4 -8 15275.4 671.151 1
1 -4 7 3774.64 202.035 1
-1 4 7 3918.35 215.125 2
-1 -4 -7 3918.12 322.621 1
-1 -4 -6 55161.2 1473.17 2
1 -4 6 55740.5 1244.49 1
-1 -4 -6 56455.5 1506.72 1
-1 -4 -5 13401.8 595.357 1
1 -4 5 14272.3 458.271 1
1 -4 4 3440.15 215.283 1
-1 -4 -4 3251.23 281.014 1
-1 -4 -3 10153.3 493.386 1
1 -4 3 10926.9 413.399 1
-1 -4 -2 5704.11 357.083 1
1 -4 2 5720.32 299.289 1
1 4 -1 10574.6 487.185 2
-1 -4 -1 9943.14 474.086 1
1 -4 1 10320.4 429.769 1
1 4 0 1115.34 172.76 2
1 -4 0 1002.61 145.109 1
-1 4 -1 10377.9 424.413 1
1 -4 -1 10232.5 455.649 1
1 4 1 9439.91 467.248 2
-1 4 -2 6521.88 317.915 1
1 4 2 5872.07 365.865 2
1 -4 -2 5883.45 356.895 1
-1 4 -3 11294.4 418.879 1
1 -4 -3 10635 500.291 1
1 4 3 10731.4 507.839 2
1 -4 -3 10748.6 394.778 2
1 -4 -4 3428.86 292.904 1
1 4 4 2954.75 264.443 2
1 -4 -4 3503.93 203.089 2
1 4 5 14446.7 613.169 2
1 4 5 15370.4 653.676 1
1 -4 -5 14795.4 653.248 1
1 -4 -5 15536.2 470.478 2
1 4 6 54320.2 1483.43 2
1 4 6 57687.2 1525.17 1
1 -4 -6 56128.1 1236.64 2
1 -4 -7 3804.6 203.096 2
1 4 7 3906.25 311.191 2
1 -4 -8 15076.7 474.86 2
1 4 8 15603.6 662.326 2
1 4 9 49611.9 1414.99 2
1 4 10 8099.42 476.879 2
1 4 11 3186.29 313.125 2
1 4 12 187.871 131.65 2
-1 4 -13 2395.1 281.807 4
1 4 13 3182.54 332.404 2
-1 4 -14 853.653 176.437 4
1 4 14 967.394 205.604 2
-1 4 -15 2235.82 291.176 4
1 4 15 2785.26 327.536 2
1 4 16 3593.58 376.022 2
-1 4 -16 2855.28 340.042 4
-1 4 -17 282.776 129.944 4
1 4 17 764.398 210.518 2
-1 4 -18 583.969 183.183 4
1 4 18 771.972 207.877 2
-1 4 -19 1643.56 302.923 4
1 4 19 2224.88 336.545 2
-1 4 -20 3481.26 468.131 3
1 4 20 4261.18 446.905 2
-1 4 -20 3194.08 420.202 4
-1 4 -21 852.287 232.88 4
-1 4 -21 1050.06 278.699 3
1 4 21 1790 304.478 2
-1 4 -22 108.273 169.982 3
-1 4 -22 411.241 200.658 4
-1 4 -23 1528.32 386.471 3
-1 4 -23 1443.19 336.042 4
-1 4 -24 796.483 315.999 3
-1 4 -24 218.711 203.672 4
-1 4 -25 450.625 239.044 4
1 5 -24 973.184 313.579 4
1 5 -23 1413.32 355.475 4
1 5 -23 1027.12 323.495 3
1 5 -22 -12.5489 147.877 4
1 5 -22 47.0527 197.118 3
1 5 -21 262.492 201.62 4
1 5 -20 1863.98 335.229 4
1 5 -19 788.305 237.391 4
1 5 -18 2202.12 353.901 4
1 5 -17 1911.21 325.877 4
-1 5 16 2291.16 233.078 2
1 5 -16 2354.31 346.572 4
-1 -5 -15 8563.28 599.377 1
-1 5 15 7800.9 420.965 2
1 5 -15 8230.43 639.063 4
-1 -5 -14 33723.8 1248.72 1
-1 5 14 31116 955.323 2
1 5 -14 33786.2 1301.22 4
-1 5 13 348.039 107.286 2
1 5 -13 520.049 167.354 4
-1 -5 -13 985.273 237.483 1
1 5 -12 9817.59 614.548 4
-1 5 12 8496.37 405.412 2
-1 -5 -12 9036.13 586.422 1
1 -5 12 8331.38 356.023 1
-1 5 11 12601 499.58 2
-1 -5 -11 13495.6 704.299 1
1 5 -11 13490.1 708.096 4
1 -5 11 12143 443.829 1
-1 5 10 19555.3 643.556 2
1 -5 10 19231.7 595.208 1
-1 -5 -10 19760.2 848.581 1
-1 5 9 8437.16 381.309 2
-1 -5 -9 8888.89 542.587 1
1 -5 9 8340.36 354.845 1
-1 5 8 19991.7 646.047 2
-1 -5 -8 21617.7 879.935 1
1 -5 8 21027.1 636.904 1
1 -5 7 40147.3 1023.9 1
-1 -5 -7 39893.9 1275.42 1
1 -5 6 21835.6 673.527 1
-1 -5 -6 21374.3 851.29 1
1 -5 5 125785 2626.64 1
-1 -5 -5 123377 2864.04 1
-1 -5 -4 73174.8 1910.42 1
1 -5 4 77151.5 1742.66 1
1 -5 3 45671.1 1174.98 1
-1 -5 -3 42816.9 1293.97 1
-1 -5 -2 47385.2 1382.54 1
1 -5 2 51374.1 1294.76 1
-1 -5 -1 5929.15 393.963 1
1 -5 1 6616.15 362.043 1
-1 -5 0 67502.8 1764.66 1
1 5 0 70522.5 1784.37 2
-1 5 0 70710.1 1711.92 1
1 -5 0 69704.2 1699.4 1
-1 5 -1 6469.44 362.491 1
1 -5 -1 6324.85 383.164 1
1 5 1 6541.68 409.791 2
1 -5 -2 49808.9 1369.96 1
-1 5 -2 48609.1 1274.58 1
1 5 2 50199.8 1393.6 2
1 5 3 46180.4 1318.21 2
1 -5 -3 46119.7 1317.13 1
-1 5 -3 45324.6 1179 1
1 -5 -3 44742.1 1150.89 2
1 -5 -4 75242 1692.31 2
1 -5 -4 74587 1914.58 1
1 5 4 74114 1890.76 2
1 -5 -5 123284 2831.84 1
1 5 5 117974 2762.31 2
1 -5 -5 121578 2533.06 2
1 -5 -6 21634.2 652.056 2
1 -5 -6 20922.2 863.777 1
1 5 6 21038.1 828.976 2
1 -5 -7 39411.6 1295.56 1
1 5 7 37406 1203.07 2
1 -5 -7 39448.6 991.004 2
1 5 8 20306 813.526 2
1 -5 -8 20133.1 617.829 2
1 5 9 8563.17 523.753 2
1 -5 -9 8216.86 359.207 2
1 5 10 18690.7 813.223 2
1 5 11 13217.2 668.975 2
-1 5 -12 9315.53 551.817 4
1 5 12 8799.93 556.339 2
1 5 13 461.029 161.344 2
-1 5 -13 490.704 153.595 4
1 5 14 32568.2 1200.92 2
-1 5 -14 32995.8 1203.66 4
-1 5 -15 8594.76 576.085 4
1 5 15 7969.15 550.001 2
1 5 16 1966.77 289.555 2
-1 5 -16 1998.98 294.389 4
-1 5 -17 2034.28 307.742 4
1 5 17 1568.02 258.635 2
1 5 18 2257.52 312.442 2
-1 5 -18 2147.94 319.255 4
1 5 19 795.565 213.514 2
-1 5 -19 917.291 228.781 4
1 5 20 1896.21 297.026 2
-1 5 -20 2113.47 348.352 4
-1 5 -21 106.907 149.841 4
-1 5 -22 133.988 144.711 4
-1 5 -22 84.339 169.398 3
-1 5 -23 1590.41 332.737 4
-1 5 -23 1024.79 295.238 3
-1 5 -24 1330.55 311.469 4
-1 5 -25 80.9108 184.645 4
1 6 -23 19.1513 178.561 4
1 6 -22 318.548 217.947 4
1 6 -21 717.923 225.007 4
1 6 -20 1612.1 339.054 4
1 6 -19 5537.68 599.83 4
1 6 -18 587.436 209.857 4
1 6 -17 -3.11945 146.678 4
-1 -6 -16 4430.52 466.226 1
1 6 -16 3483.34 433.658 4
-1 6 15 6351.77 389.014 2
-1 -6 -15 7027.32 591.967 1
1 6 -15 6550.35 564.13 4
1 -6 14 686.474 117.912 1
-1 6 14 1044.66 164.006 2
1 6 -14 937.601 227.386 4
-1 -6 -14 1354.6 271.45 1
-1 -6 -13 5780.9 508.668 1
1 -6 13 5137.78 299.151 1
1 6 -13 5439.83 484.302 4
-1 6 13 5397.11 346.58 2
-1 -6 -12 590.089 189.798 1
-1 6 12 464.448 125.131 2
1 -6 12 397.861 103.608 1
1 6 -12 459.793 166.806 4
-1 -6 -11 878.217 220.854 1
-1 6 11 1011.92 160.228 2
1 -6 11 896.985 136.675 1
-1 -6 -10 5822.85 482.305 1
-1 6 10 5898.49 348.74 2
1 -6 10 5855.66 326.179 1
-1 -6 -9 1601.35 257.09 1
1 -6 9 1498.72 175.071 1
1 -6 8 19457.9 666.728 1
-1 -6 -8 18264.7 844.141 1
-1 -6 -7 15281.2 750.746 1
1 -6 7 15100.5 581.536 1
-1 -6 -6 66078.5 1887.74 1
1 -6 6 70315 1669.44 1
1 -6 5 37469.4 1072.71 1
-1 -6 -5 36686.4 1235.55 1
-1 -6 -4 38659.1 1289.69 1
1 -6 4 41424.7 1152.75 1
1 -6 3 8239.94 430.759 1
-1 -6 -3 6250.89 455.856 1
1 -6 2 35007.7 1057.05 1
-1 -6 -2 33635.4 1146.77 1
-1 -6 -1 60958.2 1688.27 1
1 -6 1 61112.6 1611.37 1
1 -6 0 860.67 169.099 1
-1 -6 0 559.525 156.134 1
1 6 1 62779.7 1699.82 2
-1 -6 1 60017 1673.15 1
1 -6 -1 60403.2 1640.56 1
-1 6 -2 35484.7 1066.8 1
1 6 2 34953.8 1152.79 2
1 -6 -2 34253.4 1123.35 1
1 -6 -2 34489.4 1022.82 2
1 6 3 8046.04 495.827 2
1 -6 -3 8382.37 420.529 2
1 -6 -3 8505.28 504.375 1
-1 6 -3 7924.33 427.758 1
1 -6 -4 39182.9 1086.58 2
1 6 4 38788.8 1241.15 2
1 -6 -4 38227.1 1256.48 1
1 6 5 34159.5 1164.62 2
1 -6 -5 36452.7 1228.75 1
1 -6 -5 36192.9 1011.95 2
1 6 6 65455.5 1828.66 2
1 -6 -6 68038.4 1612.56 2
1 -6 -6 68946.3 1919.63 1
1 6 7 13914.1 684.002 2
1 -6 -7 14291.4 538.947 2
1 -6 -7 13634.9 727.291 1
1 6 8 19283.1 840.774 2
1 -6 -8 18938.1 648.79 2
1 -6 -8 19822.5 905.432 1
1 -6 -9 1884.1 295.072 1
1 -6 -9 1666.99 171.772 2
1 6 9 1513.85 244.722 2
1 -6 -10 5399.41 312.488 2
1 6 10 6243.12 469.215 2
1 6 11 909.275 226.189 2
1 6 12 287.238 149.23 2
-1 6 -12 508.772 169.252 4
1 6 13 5747.94 464.687 2
-1 6 -13 5535.68 450.633 4
-1 6 -14 1005.41 208.914 4
1 6 14 1027.63 222.35 2
-1 6 -15 6290.06 515.148 4
1 6 15 6769 522.332 2
-1 6 -16 3535.71 405.736 4
1 6 16 3621.16 401.103 2
1 6 17 -72.4647 146.14 2
-1 6 -17 -154.363 154.159 4
-1 6 -18 640.49 206.878 4
1 6 18 716.327 197.786 2
-1 6 -19 5839.13 546.5 4
1 6 19 5566.2 521.761 2
-1 6 -20 1470.18 303.494 4
1 6 20 1832.36 315.353 2
-1 6 -21 279.653 177.326 4
-1 6 -22 626.01 228.479 4
-1 6 -23 -142.568 148.163 4
-1 6 -24 941.285 275.052 4
-1 6 -25 584.722 247.453 4
1 7 -22 432.674 247.138 4
1 7 -21 1528.76 348.789 4
1 7 -20 -26.9608 140.022 4
1 7 -19 1901.07 351.979 4
1 7 -18 174.946 164.445 4
1 7 -17 1044.51 250.042 4
-1 -7 -16 818.101 248.868 1
1 7 -16 563.303 182.741 4
-1 -7 -15 1528.42 298.054 1
1 7 -15 913.014 247.107 4
-1 7 14 6168.68 397.219 2
1 7 -14 5752.69 529.625 4
-1 -7 -14 6732.79 584.414 1
-1 -7 -13 923.645 247.364 1
1 7 -13 726.423 204.584 4
-1 7 13 837.738 163.283 2
1 -7 13 820.957 153.134 1
1 -7 12 205.647 98.7509 1
-1 7 12 247.989 133.321 2
-1 -7 -12 324.343 158.255 1
1 -7 11 17655.5 669.444 1
-1 -7 -11 18207.4 910.164 1
1 -7 10 47302.3 1297.96 1
-1 -7 -10 48688.1 1608.3 1
1 -7 9 16156.4 646.51 1
-1 -7 -9 15665.6 826.922 1
-1 -7 -8 3880.69 408.617 1
1 -7 8 4279.99 322.013 1
-1 -7 -7 1034.56 226.445 1
1 -7 7 1295.16 197.328 1
1 -7 6 3954.63 319.878 1
-1 -7 -6 4053.33 409.136 1
1 -7 5 4921.99 354.566 1
-1 -7 -5 5087.42 435.995 1
1 -7 4 16430.9 689.156 1
-1 -7 -4 16332.1 797.655 1
-1 -7 -3 22031.5 939.752 1
1 -7 3 22463.2 844.542 1
-1 -7 -2 9071.87 568.912 1
1 -7 2 9234.06 516.192 1
-1 -7 -1 1556 246.633 1
1 -7 1 1430.83 211.603 1
-1 -7 0 13440.5 691.74 1
1 -7 0 14038.3 658.192 1
1 -7 -1 1663.24 245.156 1
-1 -7 1 1601.28 244.69 1
1 7 2 8373.5 537.712 2
1 -7 -2 8613.86 537.687 1
-1 -7 2 7891.16 527.398 1
1 7 3 22170 914.791 2
1 -7 -3 21695 910.04 1
-1 -7 3 20953.2 904.96 1
1 7 4 15589.3 759.662 2
1 -7 -4 16420.8 786.661 1
1 -7 -5 5061.22 438.476 1
1 7 5 4572.66 403.582 2
1 7 6 3875.7 378.229 2
1 -7 -6 4064.46 302.313 2
1 -7 -6 3676.48 381.697 1
1 7 7 1073.96 214.739 2
1 -7 -7 1265.69 235.155 1
1 -7 -7 1439.1 182.355 2
1 -7 -8 3661.04 276.451 2
1 -7 -8 4041.82 420.819 1
1 7 8 3901.04 380.382 2
1 7 9 15259.3 766.779 2
1 -7 -9 14744.1 590.015 2
1 -7 -9 15410.6 851.273 1
1 7 10 46890.8 1507.05 2
1 -7 -10 49543.3 1660.24 1
1 -7 -10 42272.8 1209.49 2
1 -7 -11 15795.2 626.485 2
1 7 11 18721.4 880.242 2
1 7 12 271.068 151.275 2
-1 7 -13 840.044 193.269 4
1 7 13 995.136 241.987 2
1 7 14 6835.07 539.985 2
-1 7 -14 5941.91 507.316 4
1 7 15 818.096 232.326 2
-1 7 -15 1134.48 231.12 4
1 7 16 827.466 223.937 2
-1 7 -16 626.742 193.115 4
-1 7 -17 1289.44 253.111 4
1 7 17 1474.19 278.757 2
-1 7 -18 237.252 157.888 4
1 7 18 269.728 177.121 2
1 7 19 1907.61 310.9 2
-1 7 -19 1656.78 309.067 4
-1 7 -20 206.543 194.29 4
-1 7 -21 1239.55 311.838 4
-1 7 -22 80.7327 143.538 4
-1 7 -23 67.537 142.39 4
-1 7 -24 1620.04 339.142 4
1 8 -22 900.449 282.107 4
1 8 -21 737.712 271.567 4
1 8 -20 721.307 270.106 4
1 8 -19 1314.85 311.86 4
1 8 -18 45.6797 171.418 4
-1 -8 -17 590.059 247.07 1
1 8 -17 350.44 195.184 4
-1 -8 -16 537.105 260.51 1
1 8 -16 311.355 185.682 4
-1 -8 -15 7907.22 681.786 1
1 8 -15 8617.06 683.198 4
1 8 -14 1199.53 270.024 4
-1 -8 -14 1168.83 292.139 1
-1 -8 -13 609.958 201.246 1
1 -8 12 4592.15 342.087 1
-1 -8 -12 4378.33 473.452 1
1 -8 11 147.819 110.436 1
-1 -8 -11 67.3192 125.481 1
1 -8 10 10404.2 535.491 1
-1 -8 -10 9907.42 704.142 1
1 -8 9 7704.33 460.281 1
-1 -8 -9 7375.93 584.629 1
1 -8 8 34074 1107.51 1
-1 -8 -8 34038.6 1333.83 1
1 -8 7 2962.01 301.482 1
-1 -8 -7 3129.13 387.43 1
1 -8 6 12650.3 627.217 1
-1 -8 -6 12450.1 744.332 1
-1 -8 -5 27786.6 1164.97 1
1 -8 5 28969.5 1031.78 1
1 -8 4 922.951 209.839 1
-1 -8 -4 946.493 234.232 1
-1 -8 -3 16659.2 847.116 1
1 -8 3 16560.4 749.109 1
1 -8 2 3682.15 334.249 1
-1 -8 -2 3345.05 374.708 1
-1 -8 -1 308.774 155.505 1
1 -8 1 249.83 141.63 1
-1 -8 0 10247.9 636.548 1
1 -8 0 10055.7 588.418 1
1 -8 -1 289.659 134.392 1
-1 -8 1 215.55 149.624 1
-1 -8 2 2770.52 334.389 1
1 -8 -2 3188.61 338.033 1
-1 -8 3 14912.7 763.49 1
1 -8 -3 14824.8 772.734 1
1 8 3 15034.8 774.743 2
1 -8 -4 883.343 202.179 1
-1 -8 4 907.32 204.059 1
1 8 4 1045.97 238.299 2
1 8 5 27326.2 1102.8 2
1 -8 -5 27866.1 1135.65 1
-1 -8 5 25750.1 1080.27 1
1 -8 -6 13015.1 754.133 1
1 8 6 12244.7 699.384 2
1 -8 -7 3139.58 390.137 1
1 8 7 3026.2 357.225 2
1 -8 -8 33321.5 1330.35 1
1 8 8 32175.2 1240.67 2
1 -8 -9 8234.92 634.007 1
1 8 9 7519.67 563.106 2
1 8 10 9766.52 639.856 2
1 -8 -10 11047.8 752.235 1
1 8 11 213.764 174.85 2
1 -8 -11 235.364 142.87 1
1 8 12 3682.79 390.161 2
1 8 13 515.787 205.451 2
-1 8 -14 1323.66 266.782 4
1 8 14 1168.38 262.568 2
1 8 15 8726.04 645.235 2
-1 8 -15 8422.66 637.004 4
1 8 16 806.2 236.499 2
-1 8 -16 498.579 199.095 4
1 8 17 858.41 246.537 2
-1 8 -17 495.764 210.667 4
-1 8 -18 571.972 214.939 4
1 8 18 785.696 240.02 2
-1 8 -19 1535.72 302.937 4
-1 8 -20 560.076 212.881 4
-1 8 -21 404.898 210.684 4
-1 8 -22 290.05 206.065 4
-1 8 -23 43.8458 166.845 4
1 9 -21 1365.29 361.619 4
1 9 -20 201.744 172.269 4
1 9 -19 832.027 277.343 4
-1 -9 -18 -102.984 139.901 1
1 9 -18 483.477 206.447 4
-1 -9 -17 1954.78 382.492 1
1 9 -17 1507.94 320.971 4
1 9 -16 951.355 257.957 4
-1 -9 -16 1013.01 279.921 1
1 9 -15 -53.4444 155.051 4
-1 -9 -15 249.118 179.822 1
-1 -9 -14 1973.47 360.67 1
-1 -9 -13 4208.12 498.057 1
1 -9 12 1423.34 216.011 1
-1 -9 -12 1324.12 295.621 1
1 -9 11 6931.04 461.022 1
-1 -9 -11 6924.36 610.762 1
1 -9 10 9314.91 544.221 1
-1 -9 -10 9038.28 695.812 1
1 -9 9 15445.8 724.371 1
-1 -9 -9 15166.3 896.571 1
-1 -9 -8 19288.3 1038.81 1
1 -9 8 21308 880.86 1
1 -9 7 6950.17 482.084 1
-1 -9 -7 6713.02 578.012 1
1 -9 6 2183.16 291.278 1
-1 -9 -6 2410.62 360.766 1
1 -9 5 12024.8 661.743 1
-1 -9 -5 12693.3 780.14 1
-1 -9 -4 1311.83 285.93 1
1 -9 4 1155.69 226.379 1
-1 -9 -3 35214 1365.1 1
1 -9 3 35762.9 1260.63 1
-1 -9 -2 3025.68 374.879 1
1 -9 2 3282.41 351 1
1 -9 1 2504.22 317.111 1
-1 -9 -1 2912.5 364.735 1
1 -9 0 44550.1 1491.93 1
-1 -9 0 44697 1569.54 1
-1 -9 1 2201.79 312.945 1
1 -9 -1 3031.18 356.317 1
1 -9 -2 2778.5 355.558 1
-1 -9 2 3002.74 369.992 1
-1 -9 3 32316.2 1279.75 1
1 -9 -3 33440.2 1297.95 1
1 -9 -4 1105.78 246.033 1
-1 -9 4 983.881 254.362 1
1 9 4 1004.8 255.229 2
-1 -9 5 10991.8 694.285 1
1 9 5 11604.7 711.186 2
1 -9 -5 12079.1 747.642 1
1 -9 -6 1838.6 328.966 1
1 9 6 2009.68 321.967 2
-1 -9 6 2225.92 303.606 1
1 9 7 6421.81 537.54 2
1 -9 -7 6529.85 565.541 1
-1 -9 7 6309.62 527.72 1
1 9 8 18655 944.151 2
1 -9 -8 20251.8 1046.59 1
1 9 9 13493.5 793.747 2
1 -9 -9 14721.2 886.895 1
1 -9 -10 9544.7 722.064 1
1 9 10 8640.01 648.82 2
1 -9 -11 6558.12 619.603 1
1 9 11 6042.2 531.247 2
1 9 12 1749.76 311.124 2
1 -9 -12 1406.65 295.521 1
1 9 13 3401.86 414.793 2
1 9 14 2023.06 336.92 2
1 9 15 265.51 171.578 2
-1 9 -15 209.3 135.427 4
1 9 16 1232.2 286.766 2
-1 9 -16 1100.07 262.278 4
-1 9 -17 1688.39 317.125 4
1 9 17 1774.55 315.782 2
-1 9 -18 238.148 175.279 4
-1 9 -19 462.897 224.179 4
-1 9 -20 342.324 175.271 4
-1 9 -21 998.515 286.588 4
-1 9 -22 170.616 161.575 4
1 10 -19 644.886 252.326 4
-1 -10 -18 903.131 325.827 1
1 10 -18 1143.74 331.571 4
1 10 -17 744.259 263.323 4
-1 -10 -17 320.361 203.958 1
-1 -10 -16 5982.3 648.555 1
1 10 -16 5219.3 593.609 4
-1 -10 -15 1989.24 385.732 1
-1 -10 -14 837.652 273.069 1
-1 -10 -13 922.865 280.021 1
-1 -10 -12 2501.97 399.642 1
1 -10 11 441.929 156.743 1
-1 -10 -11 94.8585 151.083 1
1 -10 10 1288.75 239.493 1
-1 -10 -10 1433.35 313.149 1
1 -10 9 13957.2 727.901 1
-1 -10 -9 13685.3 891.972 1
1 -10 8 3975.35 381.317 1
-1 -10 -8 3899.69 497.668 1
-1 -10 -7 7749.12 656.97 1
1 -10 7 8291.94 565.016 1
-1 -10 -6 2335.22 369.868 1
1 -10 6 2887.67 341.496 1
1 -10 5 20833.3 951.78 1
-1 -10 -5 19966.3 1059.17 1
-1 -10 -4 3760.35 449.852 1
1 -10 4 4279.43 416.99 1
-1 -10 -3 1079.05 266.108 1
1 -10 3 1294.68 238.487 1
-1 -10 -2 3383.02 407.739 1
1 -10 2 3417.7 393.643 1
1 -10 1 139.731 147.836 1
-1 -10 -1 -62.527 156.819 1
1 -10 0 3323.98 393.962 1
-1 -10 0 2708.16 375.003 1
-1 -10 1 22.6223 141.407 1
1 -10 -1 170.104 156.937 1
-1 -10 2 3322.86 411.315 1
1 -10 -2 3691.82 427.056 1
1 -10 -3 1411.73 293.425 1
-1 -10 3 1427.74 298.475 1
-1 -10 4 3764.12 438.189 1
1 -10 -4 3868.13 444.049 1
-1 -10 5 19341.1 996.168 1
1 -10 -5 20236.4 1043.42 1
1 -10 -6 2538.07 376.632 1
-1 -10 6 2320.7 357.079 1
1 10 6 2057.57 336.093 2
-1 -10 7 7028.23 587.041 1
1 10 7 7401.62 598.98 2
1 -10 -7 7411.78 630.169 1
1 10 8 3156.25 402.6 2
1 -10 -8 4493.88 522.694 1
-1 -10 8 3498.48 412.749 1
-1 -10 9 12447.6 775.825 1
1 10 9 12481.8 793.575 2
1 -10 -9 13927.9 908.874 1
-1 -10 10 1137.01 268.133 1
1 -10 -10 1493.82 321.457 1
1 10 10 1290.99 288.034 2
1 10 11 18.0983 167.38 2
-1 -10 11 291.663 182.146 1
1 -10 -11 160.04 161.242 1
1 -10 -12 2462.74 418.291 1
1 10 12 2402.88 381.259 2
1 10 13 524.351 192.564 2
1 10 14 1195.92 286.511 2
1 10 15 2192 363.705 2
1 10 16 5461.93 552.699 2
-1 10 -16 5612.71 565.319 4
-1 10 -17 122.44 142.349 4
-1 10 -18 848.055 286.419 4
-1 10 -19 653.745 262.052 4
-1 10 -20 -15.7158 136.586 4
-1 10 -21 2108.27 397.646 4
-1 -11 -18 464.881 209.951 1
1 11 -18 600.355 280.37 4
-1 -11 -17 2110.82 417.815 1
1 11 -17 1643.46 368.082 4
-1 -11 -16 2381.67 441.807 1
1 11 -16 2284.03 417.504 4
-1 -11 -15 560.075 268.677 1
-1 -11 -14 1768.73 384.626 1
-1 -11 -13 -0.3136 170.488 1
-1 -11 -12 339.127 221.783 1
-1 -11 -11 2040.16 365.962 1
-1 -11 -10 2858.16 434.37 1
1 -11 10 2699.74 340.665 1
-1 -11 -9 4696.95 558.946 1
1 -11 9 4441.99 431.845 1
-1 -11 -8 520.052 240.288 1
1 -11 8 528.103 203.213 1
1 -11 7 3876.83 414.416 1
-1 -11 -7 3867.34 495.247 1
-1 -11 -6 1197.39 304.499 1
1 -11 6 1993.91 306.521 1
-1 -11 -5 13839.1 898.532 1
1 -11 5 14788.9 821.396 1
1 -11 4 2030.38 333.761 1
-1 -11 -4 2223.19 357.463 1
-1 -11 -3 9781.83 742.939 1
1 -11 3 10535.8 714.277 1
-1 -11 -2 18435.5 1026.95 1
1 -11 2 18816.2 975.714 1
1 -11 1 3134.2 386.786 1
-1 -11 -1 2685.34 412.093 1
1 -11 0 23064.5 1108.28 1
-1 -11 0 22374.5 1144.43 1
-1 -11 1 2845.24 419.058 1
1 -11 -1 3174.38 405.746 1
-1 -11 2 17880.7 991.662 1
1 -11 -2 18742.2 1002.7 1
-1 -11 3 8836.5 699.7 1
1 -11 -3 10408.1 739.364 1
-1 -11 4 1913.45 321.005 1
1 -11 -4 2233.76 373.022 1
-1 -11 5 12333.4 806.428 1
1 -11 -5 13576.6 870.906 1
1 -11 -6 1420.3 312.604 1
-1 -11 6 1711.73 329.78 1
1 -11 -7 4189.99 508.321 1
-1 -11 7 3716.57 446.155 1
-1 -11 8 265.817 176.622 1
1 -11 -8 414.512 231.654 1
-1 -11 9 4685.02 509.385 1
1 11 9 4759.98 510.658 2
1 -11 -9 4829.03 559.724 1
-1 -11 10 2668.18 390.475 1
1 -11 -10 3398.81 504.141 1
1 11 10 2728.43 407.105 2
1 -11 -11 2677.17 449.961 1
-1 -11 11 2621.41 389.165 1
1 11 11 1839.32 350.724 2
1 -11 -12 515.833 247.918 1
-1 -11 12 361.852 183.966 1
1 11 12 448.05 204.22 2
-1 -11 13 371.136 211.854 1
1 11 13 339.119 176.397 2
-1 -11 14 1817.11 326.7 1
1 11 14 2385.71 388.871 2
1 11 15 219.754 215.815 2
-1 11 -16 2596.8 425.325 4
-1 11 -17 1506.3 349.643 4
-1 11 -18 742.931 246.719 4
-1 11 -19 363.609 221.913 4
-1 11 -20 527.483 270.834 4
-1 -12 -18 849.902 298.194 1
-1 -12 -17 884.568 304.63 1
-1 -12 -16 2125.35 444.808 1
-1 -12 -15 1046.9 322.847 1
-1 -12 -14 274.521 211.322 1
-1 -12 -13 780.664 269.848 1
-1 -12 -12 1833.8 380.509 1
-1 -12 -11 2792.98 458.762 1
-1 -12 -10 2959.63 475.794 1
-1 -12 -9 324.764 258.022 1
1 -12 9 607.246 196.891 1
-1 -12 -8 2528.93 426.99 1
1 -12 8 2998.78 389.792 1
1 -12 7 911.345 243.888 1
-1 -12 -7 984.79 296.403 1
-1 -12 -6 3081.13 491.465 1
1 -12 6 3572.44 432.27 1
1 -12 5 10237.6 718.214 1
-1 -12 -5 9284.85 785.864 1
-1 -12 -4 333.613 209.842 1
1 -12 4 554.743 245.947 1
1 -12 3 2559.2 380.769 1
-1 -12 -3 2336.94 396.96 1
1 -12 2 2488.19 366.472 1
-1 -12 -2 1976.08 364.576 1
1 -12 1 334.254 207.154 1
-1 -12 -1 410.219 192.872 1
1 -12 0 3005.1 412.119 1
-1 -12 0 2735.95 406.436 1
-1 -12 1 307.168 191.445 1
1 -12 -1 457.504 215.138 1
-1 -12 2 2330 367.688 1
1 -12 -2 2224.88 362.706 1
-1 -12 3 1732.73 333.716 1
1 -12 -3 2442.43 382.354 1
-1 -12 4 312.572 226.323 1
1 -12 -4 195.954 181.828 1
-1 -12 5 8689.86 715.577 1
1 -12 -5 9650.43 763.872 1
1 -12 -6 3197.76 464.717 1
-1 -12 6 2967.76 436.468 1
1 -12 -7 843.161 265.956 1
-1 -12 7 1146.42 272.448 1
-1 -12 8 2920.88 419.38 1
1 -12 -8 2926.56 463.195 1
1 -12 -9 439.732 234.751 1
-1 -12 9 805.598 276.375 1
1 -12 -10 2948.36 474.659 1
-1 -12 10 3079.75 439.809 1
1 -12 -11 3646.93 531.411 1
-1 -12 11 2843.57 416.152 1
1 -12 -12 2065.66 424.073 1
-1 -12 12 1535.11 303.8 1
1 12 12 1545.4 326.797 2
1 -12 -13 1035.78 323.218 1
1 12 13 975.47 283.477 2
-1 -12 13 856.155 261.031 1
1 12 14 211.669 184.443 2
-1 12 -17 1062.09 285.762 4
-1 12 -18 377.874 234.447 4
-1 -13 -15 1625.29 394.75 1
-1 -13 -14 532.052 305.412 1
-1 -13 -13 1957.38 426.066 1
-1 -13 -12 384.125 245.793 1
-1 -13 -11 803.131 323.391 1
-1 -13 -10 576.688 264.205 1
-1 -13 -9 1994.78 428.205 1
1 -13 8 3273.71 423.127 1
-1 -13 -8 2773.95 447.49 1
-1 -13 -7 301.845 231.54 1
1 -13 7 274.21 181.42 1
-1 -13 -6 5696.17 634.349 1
1 -13 6 6038.77 587.325 1
1 -13 5 4717.44 521.022 1
-1 -13 -5 4231.24 540.635 1
1 -13 4 1165.59 296.19 1
-1 -13 -4 1281.53 341.429 1
1 -13 3 1255.24 294.691 1
-1 -13 -3 1392.47 323.681 1
1 -13 2 2077.96 366.511 1
-1 -13 -2 2265.82 413.21 1
-1 -13 -1 1663.57 367.406 1
1 -13 1 1468.25 306.827 1
-1 -13 0 54.8462 164.501 1
1 -13 0 -155.066 149.48 1
1 -13 -1 1617.87 326.24 1
-1 -13 1 1571.09 330.179 1
-1 -13 2 2027.24 378.409 1
1 -13 -2 2008.16 359.685 1
-1 -13 3 1547.38 330.829 1
1 -13 -3 1643.52 342.945 1
-1 -13 4 685.842 271.898 1
1 -13 -4 840.317 265.362 1
1 -13 -5 4393.07 556.307 1
-1 -13 5 4026.51 524.558 1
-1 -13 6 5537.72 606.874 1
1 -13 -6 6752.85 684.946 1
-1 -13 7 228.913 222.095 1
1 -13 -7 67.8704 181.736 1
-1 -13 8 2665.27 434.579 1
1 -13 -8 3332.09 512.474 1
-1 -13 9 1560.74 362.498 1
1 -13 -9 1749.73 395.382 1
-1 -13 10 553.199 259.3 1
1 -13 -10 566.826 269.047 1
1 -13 -11 588.163 284.329 1
-1 -13 11 845.57 276.211 1
1 -13 -12 356.41 214.061 1
-1 -13 12 62.9262 146.831 1
1 -13 -13 2588.58 497.853 1
-1 -14 -12 856.808 329.227 1
-1 -14 -11 1507.17 388.788 1
-1 -14 -10 619.114 241.708 1
-1 -14 -9 562.563 313.094 1
-1 -14 -8 3170.34 516.835 1
-1 -14 -7 2393.12 443.883 1
1 -14 7 2833.41 434.221 1
-1 -14 -6 1933.75 418.523 1
1 -14 6 1865.09 358.647 1
-1 -14 -5 597.685 275.597 1
1 -14 5 334.614 213.438 1
1 -14 4 415.958 207.818 1
-1 -14 -4 467.839 242.052 1
1 -14 3 761.458 253.712 1
-1 -14 -3 1297.29 349.511 1
-1 -14 -2 1497.65 338.952 1
1 -14 2 2006.05 388.566 1
1 -14 1 1570.82 350.651 1
-1 -14 -1 1751.69 378.315 1
1 -14 0 296.125 188.247 1
-1 -14 0 174.583 211.117 1
1 -14 -1 2080.52 385.729 1
-1 -14 1 1659.2 376.5 1
-1 -14 2 1312.32 332.077 1
1 -14 -2 1392.16 323.569 1
1 -14 -3 1221.65 327.568 1
-1 -14 3 834.932 299.554 1
-1 -14 4 306.31 223.06 1
1 -14 -4 608.01 285.64 1
1 -14 -5 118.46 252.194 1
-1 -14 5 61.75 165.459 1
-1 -14 6 1865.84 400.914 1
1 -14 -6 2134.97 411.179 1
-1 -14 7 2356.51 425.412 1
1 -14 -7 2129.04 431.644 1
-1 -14 8 2983.44 459.436 1
1 -14 -8 3617.72 532.748 1
-1 -14 9 592.434 276.506 1
1 -14 -9 826.826 318.047 1
-1 -14 10 551.254 266.644 1
1 -14 -10 1194.18 350.101 1
-1 -14 11 1126.45 298.646 1
1 -14 -11 1457.55 420.488 1
-1 -15 -8 1000.4 353.189 1
-1 -15 -7 628.616 307.228 1
-1 -15 -6 1476.17 399.696 1
1 -15 6 1046.23 302.293 1
-1 -15 -5 237.575 244.012 1
1 -15 5 884.029 283.523 1
1 -15 4 2397.33 416.124 1
-1 -15 -4 1954.82 429.234 1
1 -15 3 1425.04 327.968 1
-1 -15 -3 1642.74 403.228 1
1 -15 2 1018.5 299.933 1
-1 -15 -2 1895.12 406.779 1
1 -15 1 1388.2 341.545 1
-1 -15 -1 1002.69 336.55 1
-1 -15 0 375.271 188.678 1
1 -15 0 340.299 234.299 1
1 -15 -1 863.655 296.846 1
-1 -15 1 1656.3 380.02 1
-1 -15 2 1480.64 376.827 1
1 -15 -2 1608.4 390.196 1
1 -15 -3 1686.3 389.801 1
-1 -15 3 1937.89 412.795 1
-1 -15 4 2769.63 454.195 1
1 -15 -4 1684.55 384.204 1
1 -15 -5 823.359 323.961 1
-1 -15 5 679.257 280.985 1
-1 -15 6 1171.22 341.57 1
1 -15 -6 1129.19 372.303 1
-1 -15 7 222.708 220.369 1
1 -15 -7 1276.98 366.897 1
1 -15 -8 819.431 300.639 1
-1 -15 8 1248.06 339.276 1
-1 -15 9 1210.88 350.97 1
-1 -15 10 433.99 254.631 1
1 -16 5 417.588 231.393 1
1 -16 4 639.772 281.294 1
1 -16 3 1154.04 359.099 1
1 -16 2 1440.86 353.892 1
-1 -16 -2 1372.57 386.677 1
1 -16 1 685.261 264.234 1
-1 -16 -1 1173.82 388.847 1
-1 -16 0 564.104 308.341 1
1 -16 0 887.088 315.081 1
1 -16 -1 381.961 233.96 1
-1 -16 1 586.213 239.559 1
-1 -16 2 1307.99 363.137 1
1 -16 -2 1309.12 352.624 1
1 -16 -3 1297.5 375.935 1
-1 -16 3 608.723 237.848 1
1 -16 -4 1172.51 339.78 1
-1 -16 4 1306.9 349.248 1
-1 -16 5 506.954 269.697 1
-1 -16 6 286.717 263.743 1
-1 -16 7 534.232 292.256 1
-1 -16 8 78.7794 230.827 1
-1 -16 9 622.012 312.731 1
1 -17 4 571.87 248.556 1
1 -17 3 435.387 218.687 1
1 -17 2 877.582 328.34 1
2 0 0 118780 2465.86 2
2 0 0 118728 2292.33 4
2 0 -1 13374.2 396.04 4
2 0 -1 13231.5 451.478 2
-2 0 1 13180.3 446.642 2
2 0 1 12969.1 490.303 2
-2 0 2 2810.47 179.559 4
2 0 -2 2998.49 183.232 4
2 0 2 2775.3 227.433 2
-2 0 2 2798.54 176.984 2
-2 0 -2 2730.66 121.386 3
2 0 -2 2793.85 127.095 3
2 0 -2 2924.09 179.763 2
2 0 -3 19328.4 542.77 2
2 0 3 18725.3 666.001 2
2 0 -3 19649.2 597.55 4
2 0 -3 19715 508.748 3
-2 0 -3 18975.9 497.976 3
-2 0 3 18416.8 585.484 4
-2 0 3 20022.8 545.18 2
2 0 -4 18546.8 524.973 2
-2 0 4 19112.7 628.68 4
2 0 -4 19871.9 638.04 4
2 0 -4 19605.6 552.996 3
-2 0 -4 19988.8 555.211 3
-2 0 4 20030.7 530.606 2
-2 0 5 48351.3 1262.85 4
2 0 -5 51573.1 1280.78 4
2 0 5 48071.8 1035.85 4
2 0 -5 49943.6 1177.58 3
-2 0 -5 51990.2 1180.64 3
-2 0 5 49105.7 1081.09 2
-2 0 6 38355.8 871.106 2
-2 0 6 36323.5 1077.11 4
2 0 -6 39194.5 1092.58 4
2 0 6 37374 870.846 4
2 0 -6 39058.3 1009.85 3
-2 0 -6 37876.2 999.628 3
-2 0 -6 36889.9 875.481 1
-2 0 7 144748 2843.89 2
-2 0 -7 143852 2837.82 1
-2 0 -7 148564 3056.14 3
2 0 7 142974 2889.09 4
2 0 -7 147382 3063.33 3
2 0 -7 146907 3160.85 4
2 0 -8 35231.6 1102.89 4
-2 0 8 34806.2 832.66 2
-2 0 -8 33338.5 806.375 1
2 0 8 33092.4 892.16 4
-2 0 -8 34337.8 1020.28 3
2 0 -8 36225.6 1039.83 3
-2 0 9 5327.75 243.17 2
2 0 9 4995.74 286.534 4
-2 0 -9 4886.97 213.741 1
2 0 -9 5461.57 364.466 3
2 0 10 1773.09 187.899 4
-2 0 -10 1747.3 135.469 1
2 0 -10 1668.27 215.703 3
2 0 11 2838.25 242.918 4
2 0 -11 3032.01 298.509 3
2 0 -12 6858.46 504.234 4
-2 0 -12 7145.27 482.952 3
2 0 -12 6784.55 477.352 3
2 0 -13 1989.77 272.77 3
-2 0 -13 1494.16 250.806 3
2 0 -13 1957 289.954 4
2 0 -14 4654.75 449.077 4
-2 0 -14 4851 426.241 3
2 0 -14 4684.18 433.008 3
2 0 -15 823.605 192.121 3
-2 0 -15 802.154 206.689 3
2 0 -15 1200.62 262.508 4
-2 0 -16 3245.57 382.337 3
2 0 -16 3067.22 406.15 4
2 0 -16 3284.99 378.108 3
2 0 -17 2012.63 319.246 3
2 0 -17 2045.3 338.338 4
-2 0 -17 2451.74 352.287 3
2 0 -18 245.157 191.272 4
-2 0 -18 -138.498 171.308 3
2 0 -18 183.996 148.035 3
-2 0 -19 1803.66 344.706 3
2 0 -19 2417.2 367.737 3
-2 0 -20 -64.7464 151.418 3
2 0 -20 -204.142 180.866 3
2 0 20 284.444 181.155 2
-2 0 -21 3848.46 494.61 3
2 0 -21 3676.28 481.043 3
2 0 21 3468.02 446.247 2
-2 0 -22 5969.67 640.563 3
2 0 -22 6076.04 624.776 3
2 0 22 5356.89 562.871 2
2 0 23 94.7003 158.394 2
2 0 -23 373.401 239.097 3
-2 0 -23 26.3075 185.443 3
2 0 24 815.37 270.482 2
2 0 -24 959.124 319.803 3
-2 0 -24 780.042 302.252 3
2 0 25 -141.876 167.303 2
2 -1 26 512.613 209.609 2
2 -1 25 100.151 184.605 2
2 1 -24 439.945 210.516 3
2 -1 24 140.461 164.104 2
2 1 -23 520.585 237.455 3
2 1 -22 802.511 263.501 3
-2 -1 -22 1086.71 300.675 3
2 1 -21 1082.07 283.135 4
2 1 -21 306.224 209.251 3
-2 -1 -21 342.988 211.906 3
-2 -1 -20 1294.64 294.58 3
2 1 -20 1068.39 287.645 3
2 1 -20 1254.51 295.03 4
2 1 -19 5248.3 556.737 4
2 1 -19 5181.19 543.447 3
-2 -1 -19 5143.04 529.369 3
-2 -1 -18 8857.17 672.622 3
2 1 -18 9245.84 707.688 4
2 1 -18 8269.79 654.474 3
2 1 -17 1911.99 332.264 4
-2 -1 -17 1722.14 307.302 3
2 1 -17 1356 266.623 3
-2 -1 -16 9824.04 682.802 3
2 1 -16 11281.4 741.678 4
2 1 -16 10423.5 691.258 3
2 1 -15 5251.82 493.464 4
-2 -1 -15 5193.32 463.882 3
2 1 -15 5011.98 469.668 3
2 1 -14 3224.52 374.435 4
2 1 -14 3236.74 351.707 3
-2 -1 -14 3845.07 401.508 3
2 1 -13 481.409 157.535 4
-2 -1 -13 314.032 119.091 3
2 1 -13 615.093 174.888 3
-2 -1 -12 2642.5 217.566 1
-2 -1 -12 2772.78 304.31 3
2 1 -12 2828.79 325.781 4
2 1 -12 2685.47 299.801 3
-2 -1 -11 21987 677.546 1
2 1 -11 20623.1 847.545 3
-2 1 10 1504.2 109.868 2
2 1 -10 1833.54 219.1 3
-2 -1 -10 1915.62 174.431 1
-2 1 9 14702 323.88 2
-2 -1 -9 22542.2 568.373 1
-2 -1 -8 17125.9 557.808 1
-2 -1 -8 17255.8 672.374 3
-2 -1 -7 20832.7 631.112 1
2 1 -7 21349.1 783.31 4
-2 -1 -7 20770.8 707.728 3
2 1 -6 11300.6 506.022 4
-2 1 6 9806.55 479.31 4
-2 -1 -6 10423.1 400.636 1
-2 -1 -6 10718.8 442.125 3
-2 1 5 152896 3217.22 4
2 1 -5 155492 3235.56 4
-2 1 4 1575.2 133.523 3
2 1 -4 1718.37 174.934 4
-2 1 4 1788.72 167.444 4
2 1 -4 1632.15 152.783 2
2 1 -3 2904.71 206.104 2
-2 1 3 3171.65 209.41 4
-2 1 3 3187.33 170.464 3
2 1 -3 2789.39 207.195 4
2 1 -2 10625.6 421.583 2
-2 1 2 10976.6 313.069 3
2 1 -2 10517.6 387.829 4
-2 1 2 10709.5 380.662 4
-2 1 1 27244.5 673.201 4
2 1 -1 27858.4 789.043 2
-2 1 0 68133.8 1388.08 4
-2 -1 0 70178 1593.04 2
2 1 0 70341.9 1590.59 2
2 -1 -1 27410.7 722.948 2
-2 -1 1 27425.9 771.213 2
2 1 1 27260.5 808.12 2
-2 -1 2 10463.9 405.742 2
2 1 2 10879.3 464.249 2
2 1 2 9424.23 301.856 3
2 -1 -2 10577.3 348.134 2
2 1 3 2920.14 245.005 2
2 1 3 2920.66 165.969 3
2 -1 -3 3157.73 156.766 2
-2 -1 3 3059.35 203.647 2
-2 -1 4 1884.96 159.314 2
2 -1 -4 1820.43 109.223 2
2 1 4 1760.51 149.697 3
2 1 4 1923.51 205.105 2
2 -1 -4 1687.97 169.241 4
-2 -1 5 153862 3106.53 2
2 -1 -5 160830 3245.52 4
2 1 5 149467 3125.79 3
2 1 5 149797 3307.24 2
-2 1 -5 138276 2936.65 4
-2 -1 6 10066.7 387.704 2
2 -1 -6 9927.19 472.217 4
2 1 6 10015 505.268 2
-2 1 -6 9660.76 327.184 4
2 1 6 9405.05 354.584 4
2 -1 -6 9925.1 424.996 3
-2 -1 7 20181.4 625.69 2
2 -1 -7 20874.9 769.007 4
-2 1 -7 19607.4 572.376 4
2 1 7 19638.6 604.508 4
2 -1 -7 20936.6 708.573 3
2 1 7 20708.9 797.521 2
-2 -1 8 17565.4 582.178 2
-2 1 -8 17323.9 559.877 4
2 1 8 16936.7 578.027 4
2 -1 -8 18691.4 691.713 3
2 -1 -8 18041 736.039 4
2 1 8 17876.1 752.418 2
-2 -1 9 22028.9 691.502 2
2 1 9 21269.6 706.888 4
2 -1 -9 23236.4 824.772 3
-2 1 -9 21809.6 684.279 4
2 1 9 20908.5 859.836 2
2 1 10 1691.86 231.355 2
-2 1 -10 1756.1 180.757 4
2 -1 -10 1703.38 231.105 3
2 1 10 1990.71 204.299 4
2 -1 -11 21351.3 905.346 4
-2 1 -11 19967.2 727.159 4
2 1 11 21145.3 893.991 2
2 -1 -11 21923.4 866.106 3
2 1 12 2566.23 303.042 2
-2 1 -12 200.307 94.6492 4
2 -1 -12 2887.63 340.518 4
2 -1 -12 3066.29 322.126 3
-2 1 -12 3084.33 316.719 3
2 -1 -13 688.995 175.026 3
2 1 13 393.955 114.534 2
2 -1 -13 545.399 183.5 4
-2 1 -13 427.773 152.281 3
2 1 14 3045.52 344.013 2
2 -1 -14 2658.69 329.863 3
-2 1 -14 2819.36 330.378 3
2 -1 -15 5604.64 492.573 3
-2 1 -15 5283.24 466.136 3
2 1 15 5384.03 480.61 2
-2 1 -16 9966 673.12 3
2 -1 -16 10487.7 700.682 3
2 1 16 11049.5 704.492 2
2 1 17 2097.79 322.34 2
-2 1 -17 1442.61 287.099 3
2 -1 -17 1546.63 309.783 3
2 -1 -18 9044.44 686.572 3
-2 1 -18 8850.98 674.926 3
2 1 18 9609.06 688.243 2
-2 1 -19 5118.08 521.448 3
2 1 19 5312.3 518.522 2
2 -1 -19 5631.85 551.239 3
2 1 20 795.227 260.148 2
2 -1 -20 857.038 260.622 3
-2 1 -20 935.436 265.064 3
2 1 21 663.279 245.677 2
-2 1 -21 800.624 229.51 3
2 -1 -21 1019.69 284.803 3
2 1 22 1021.69 274.492 2
2 -1 -22 1021.58 311.647 3
-2 1 -22 886.18 255.248 3
2 1 23 870.117 259.647 2
-2 1 -23 1032.76 289.943 3
2 1 24 241.733 193.906 2
-2 1 -24 508.788 243.701 3
2 1 25 399.135 215.933 2
2 2 -24 113.389 148.026 3
2 2 -24 474.386 226.068 4
2 2 -23 -106.669 156.657 4
2 2 -23 223.968 194.882 3
2 2 -22 393.26 228.39 4
2 2 -22 322.149 213.338 3
2 2 -21 1421.2 316.325 4
2 2 -21 646.355 242.467 3
2 2 -20 2801.84 435.221 4
2 2 -20 3066.72 444.433 3
2 2 -19 2164.35 358.491 4
2 2 -19 1362.19 284.078 3
2 2 -18 779.774 278.504 4
2 2 -18 173.58 152.056 3
2 2 -17 797.976 228.309 4
2 2 -17 664.419 210.289 3
2 2 -16 166.393 129.264 4
2 2 -16 194.598 163.412 3
2 2 -15 2601.55 358.934 4
2 2 -15 2446.72 322.128 3
-2 2 15 2086.98 155.896 2
-2 2 14 121.874 50.2178 2
2 2 -14 195.223 131.724 4
2 2 -14 124.704 118.31 3
-2 2 13 7917.27 284.702 2
-2 -2 -13 12511 532.611 1
2 2 -13 12250.6 695.165 4
-2 -2 -12 1872.38 209.533 1
2 2 -12 1294.14 226.231 4
-2 2 12 888.897 72.7097 2
-2 -2 -11 8869.33 437.411 1
-2 -2 -10 51130.4 1327.55 1
-2 -2 -9 8173.17 405.215 1
-2 -2 -8 4617.29 292.99 1
-2 -2 -7 15356.4 574.017 1
-2 2 7 15045.1 601.18 3
-2 -2 -6 37802.5 1024.06 1
-2 2 6 37438.5 1025.13 3
2 2 -6 36140.8 1109.08 4
2 2 -5 38503 1067.67 4
-2 2 5 36072.7 973.975 3
-2 2 5 36165.1 1043.18 4
-2 -2 -5 36733.8 1006.29 1
2 2 -4 44036.7 1135.48 2
-2 2 4 44015.6 1134.19 4
-2 2 4 41359.1 1052.72 3
2 2 -3 29250.9 859.203 2
-2 2 3 29794 828.959 4
2 2 -2 15474.1 565.321 2
-2 2 2 15199.6 504.212 4
2 2 -1 6289.93 354.364 2
2 2 0 43006.9 1148.37 2
-2 -2 1 6323.1 338.568 2
2 2 1 6135.88 351.521 2
2 2 2 14722.1 589.048 2
-2 -2 2 16076.4 575.322 2
-2 -2 3 28614.1 840.066 2
2 2 3 28428.5 906.959 2
-2 -2 4 46580.7 1125.59 2
2 2 4 40468 1023.62 3
2 -2 -4 39739.8 847.534 2
2 2 4 42010.4 1183.77 2
-2 -2 5 38277.4 1011.99 2
-2 2 -5 37395.3 819.962 4
2 2 5 35016.1 958.031 3
2 2 5 37858.6 1112.25 2
-2 2 -5 33441.6 768.049 1
-2 2 -6 39095.9 910.624 4
-2 -2 6 40391.5 1069.44 2
2 2 6 36883.9 1050.46 3
2 2 6 38590.1 1182.47 2
-2 -2 7 16088.5 601.567 2
-2 2 -7 15830.3 499.698 4
2 2 7 15453 613.158 3
2 2 7 16291.2 706.372 2
-2 -2 8 4442.35 301.319 2
-2 2 -8 4626.59 256.966 4
2 2 8 4245.2 354.817 2
-2 -2 9 7575.05 412.473 2
-2 2 -9 7461.27 358.774 4
2 2 9 7366.35 390.804 4
2 2 9 7730.65 494.188 2
-2 2 -10 47134.8 1233.44 4
2 2 10 47755.3 1467.82 2
-2 2 -11 7814.86 418.929 4
2 2 11 7931.26 526.1 2
2 2 12 1612.52 255.383 2
-2 2 -12 135.886 73.0141 4
2 2 13 11463.7 672.168 2
2 2 14 73.6195 141.044 2
-2 2 -14 -64.534 100.052 3
-2 2 -15 2542.84 293.256 4
2 2 15 2392.57 322.385 2
-2 2 -15 2570.14 333.259 3
2 2 16 135.821 124.156 2
-2 2 -16 158.899 88.8016 4
-2 2 -16 -68.8898 128.335 3
2 2 17 1010.85 254.224 2
-2 2 -17 910.427 207.965 4
-2 2 -17 236.206 144.344 3
2 2 18 536.75 190.786 2
-2 2 -18 516.135 191.135 3
2 2 19 1924.16 328.718 2
-2 2 -19 1700.07 321.821 3
2 2 20 3425.57 427.498 2
-2 2 -20 3070.64 431.194 3
2 2 21 1097.79 302.045 2
-2 2 -21 640.536 238.337 3
2 2 22 202.331 176.399 2
-2 2 -22 29.8299 169.569 3
2 2 23 128.286 171.359 2
-2 2 -23 395.948 193.411 3
2 2 24 229.957 154.991 2
-2 2 -24 -56.028 155.621 3
2 3 -24 1486.11 383.902 3
2 3 -23 1539.22 344.394 3
2 3 -23 1516.34 370.943 4
2 3 -22 1873.18 377.922 4
2 3 -22 2125.85 388.463 3
2 3 -21 321.998 225.554 4
2 3 -21 184.465 183.687 3
2 3 -20 71.7633 175.381 4
2 3 -20 131.419 198.924 3
2 3 -19 2795.76 400.887 3
2 3 -19 3383.2 440.272 4
2 3 -18 7832.7 672.426 4
2 3 -18 8633.15 667.893 3
2 3 -17 2532.59 382.351 4
2 3 -17 2458.52 349.334 3
2 3 -16 865.41 222.66 4
2 3 -15 5309.04 501.852 4
-2 -3 -15 5876.32 415.305 1
-2 3 14 97.2846 29.7878 2
2 3 -14 -24.6411 106.332 4
-2 -3 -14 85.6032 88.1409 1
-2 -3 -13 2110.46 245.699 1
2 3 -13 2070.46 298.499 4
2 3 -12 18278.5 885.213 4
-2 -3 -12 19665.9 764.553 1
2 3 -11 3531.22 355.529 4
-2 -3 -11 3999.5 323.912 1
-2 -3 -10 15768.6 656.29 1
-2 -3 -9 1971.04 223.61 1
-2 -3 -8 14500.4 608.168 1
-2 -3 -7 15203.1 618.724 1
-2 -3 -6 23504.3 796.271 1
-2 3 6 22675.1 770.85 3
-2 -3 -5 23748.7 790.727 1
-2 3 5 22641.7 787.21 4
2 3 -4 1733.24 199.719 2
2 3 -3 1275.1 166.894 2
2 3 -2 63697.6 1606 2
2 3 -1 41915.7 1184.65 2
-2 3 1 41382.3 1133.67 1
2 3 0 3524.9 292.3 2
-2 3 0 3755.1 256 1
2 3 1 40985.6 1188.95 2
-2 3 -1 41913.3 1072.94 1
2 3 2 64226 1650.58 2
-2 -3 2 66309.5 1605.6 2
-2 3 -2 63649.9 1466.29 1
2 3 3 1380.55 195.803 2
-2 3 -3 1369.01 132.397 1
-2 -3 3 1367.75 176.34 2
-2 3 -4 1731.7 131.155 1
2 3 4 1773.98 212.211 2
-2 -3 4 1806.78 209.786 2
-2 -3 5 23523.5 788.387 2
2 3 5 23365.2 845.198 2
-2 3 -5 20856.5 544.328 1
-2 3 -6 15553.9 416.63 1
-2 -3 6 23973.1 766.48 2
2 3 6 22992.2 730.83 3
2 3 6 23600.6 836.34 2
-2 -3 7 15511.5 641.054 2
-2 3 -7 14818.4 510.46 4
2 3 7 15363.5 689.692 2
-2 -3 8 14870.8 633.457 2
2 3 8 14332.9 682.219 2
-2 3 -8 14740.9 531.599 4
2 3 9 1707.95 242.91 2
-2 3 -9 1963.63 188.089 4
-2 3 -10 15386.6 594.894 4
2 3 10 14917.4 736.593 2
-2 3 -11 152.391 103.558 4
2 3 11 3802.46 373.008 2
2 3 12 17924.2 847.74 2
2 3 13 1760.55 279.768 2
2 3 14 217.014 149.526 2
-2 3 -15 5250.18 413.32 4
2 3 15 5759.13 501.369 2
2 3 16 1236.11 270.471 2
-2 3 -16 948.963 203.678 4
2 3 17 2396.45 344.744 2
-2 3 -17 2381.01 298.391 4
-2 3 -17 2154.24 339.314 3
-2 3 -18 8629.5 671.445 3
-2 3 -18 8130.91 578.283 4
2 3 18 8109.11 636.12 2
-2 3 -19 3380.21 390.882 4
-2 3 -19 2844.04 405.878 3
2 3 19 2923.98 403.797 2
2 3 20 601.977 249.812 2
-2 3 -20 120.432 138.91 3
-2 3 -20 146.221 144.571 4
-2 3 -21 63.9454 166.18 3
2 3 21 221.365 181.821 2
2 3 22 2509.78 398.141 2
-2 3 -22 1927.67 371.732 3
2 3 23 1938.57 371.124 2
-2 3 -23 1493.38 381.466 3
2 3 24 1846.39 381.244 2
-2 3 -24 1925.27 392.953 3
2 4 -24 555.229 262.226 3
2 4 -23 10.8812 170.664 4
2 4 -23 195.268 184.974 3
2 4 -22 735.025 267.438 4
2 4 -22 374.673 202.624 3
2 4 -21 2230.52 401.122 4
2 4 -21 1964.38 383.49 3
2 4 -20 1004.31 305.385 4
2 4 -20 893.342 261.041 3
2 4 -19 944.631 278.374 4
2 4 -18 1327.19 309.287 4
2 4 -17 1190.14 281.056 4
2 4 -16 647.743 225.753 4
-2 -4 -16 628.568 173.242 1
-2 -4 -15 11386 642.623 1
2 4 -15 10542.8 731.952 4
-2 -4 -14 771.261 190.399 1
2 4 -14 752.506 219.253 4
2 4 -13 12429.4 740.866 4
-2 -4 -13 13377.7 677.362 1
-2 -4 -12 7214.44 479.685 1
2 4 -12 6521.51 514.284 4
-2 -4 -11 14500.2 689.82 1
2 4 -11 14437.6 753.986 4
2 4 -10 376.611 142.739 4
-2 -4 -10 549.555 149.708 1
-2 -4 -9 18725.2 771.356 1
-2 -4 -8 9430.28 519.401 1
-2 -4 -7 32342.2 1061.34 1
-2 -4 -6 26400.7 921.853 1
-2 -4 -5 17964 721.702 1
-2 -4 -4 9368.26 495.421 1
2 4 -3 23097.7 833.904 2
2 4 -2 12027.1 575.248 2
2 4 -1 15585.8 673.815 2
-2 4 1 15451.8 628.548 1
-2 4 0 5992.87 354.568 1
2 4 0 6078.47 400.333 2
2 4 1 16814.3 705.5 2
-2 4 -1 15923.5 591.149 1
2 4 2 11920.6 590.668 2
-2 4 -2 11966.5 473.451 1
2 4 3 23069.1 866.557 2
-2 4 -3 23139.1 697.633 1
2 4 4 9617.46 533.637 2
-2 4 -4 9270.4 372.734 1
2 -4 -5 16867.2 478.173 2
-2 4 -5 18977.1 537.773 1
2 4 5 19512.6 792.6 2
-2 4 -6 25452.3 610.453 1
2 -4 -6 21489.2 542.746 2
2 4 6 27455.7 966.721 2
2 4 7 31662.5 1104.19 2
2 4 8 8686.33 535.387 2
-2 4 -9 17574.2 652.424 4
2 4 9 17567.6 808.577 2
-2 4 -10 74.2685 85.5554 4
2 4 10 386.954 121.899 2
2 4 11 13172 716.115 2
2 4 12 6788.15 513.271 2
2 4 13 13844.9 766.747 2
2 4 14 659.166 204.298 2
-2 4 -14 559.821 158.747 4
-2 4 -15 10369 597.104 4
2 4 15 11653.9 724.446 2
-2 4 -16 610.061 172.138 4
2 4 16 782.124 229.095 2
-2 4 -17 932.516 198.563 4
2 4 17 1010.79 234.718 2
2 4 18 1778.82 317.51 2
-2 4 -18 1740.44 278.953 4
2 4 19 1612.09 318.237 2
-2 4 -19 1124.38 250.203 4
-2 4 -19 690.487 238.276 3
-2 4 -20 925.92 225.977 4
2 4 20 1639.86 314.417 2
-2 4 -20 494.002 213.684 3
-2 4 -21 2192.35 343.445 4
2 4 21 2556.54 404.396 2
-2 4 -21 2763.44 433.22 3
-2 4 -22 473.626 200.238 4
2 4 22 1102.99 303.877 2
-2 4 -22 623.562 287.82 3
-2 4 -23 414.164 215.32 4
2 4 23 629.362 232.027 2
-2 4 -23 -68.196 140.06 3
-2 4 -24 751.231 263.904 3
2 5 -23 1199.86 308.134 4
2 5 -23 1192.12 348.569 3
2 5 -22 1924.17 394.964 4
2 5 -22 1615.02 358.199 3
2 5 -21 150.071 163.963 4
2 5 -21 -17.3463 149.364 3
2 5 -20 1379.2 305.495 4
2 5 -19 1932.69 344.69 4
2 5 -18 2238.06 375.791 4
2 5 -17 1354.5 294.551 4
-2 -5 -17 1274.38 272.819 1
-2 -5 -16 4149.97 418.456 1
2 5 -16 3308.66 422.542 4
-2 -5 -15 3475.01 374.301 1
2 5 -15 2640.5 381.465 4
2 5 -14 47.6277 114.426 4
-2 -5 -14 182.107 154.545 1
-2 -5 -13 1962 283.139 1
2 5 -13 2136.05 310.691 4
-2 -5 -12 4250.84 390.952 1
2 5 -12 3811.81 401.586 4
2 5 -11 2238.44 307.153 4
-2 -5 -11 2625.15 324.946 1
-2 -5 -10 5793.98 446.073 1
2 5 -10 5111.32 448.739 4
-2 -5 -9 15937.9 752.539 1
-2 -5 -8 8699.59 538.949 1
-2 -5 -7 4942.14 395.085 1
-2 -5 -6 6545.01 450.68 1
-2 -5 -5 17723.7 770.917 1
-2 -5 -4 495.142 167.858 1
-2 -5 -3 24317.4 922.25 1
2 5 -2 41407.9 1290.21 2
2 5 -1 4896.73 395.057 2
-2 5 0 1755.78 212.098 1
2 5 0 1902.68 249.353 2
2 5 1 3949.74 354.229 2
-2 5 -1 4543.81 314.57 1
2 5 2 39366.8 1267.58 2
-2 5 -2 39473.6 1110.43 1
2 5 3 23453.8 930.22 2
-2 5 -3 23656.7 759.297 1
-2 5 -4 521.838 109.225 1
2 5 4 293.648 129.435 2
2 5 5 17038.1 780.983 2
-2 5 -5 17082.1 570.13 1
2 -5 -5 17455.8 534.785 2
2 -5 -6 7265.25 289.779 2
2 5 6 7076.92 499.531 2
-2 5 -6 6853.63 311.809 1
2 5 7 4598.58 402.004 2
2 -5 -7 4717.67 210.382 2
2 -5 -8 7656.78 260.199 2
2 5 8 8667.8 561.692 2
2 5 9 15473 779.132 2
2 5 10 5193.23 445.579 2
2 5 11 2651.88 315.189 2
2 5 12 3696.65 385.307 2
2 5 13 1884.91 286.835 2
-2 5 -13 1864.52 243.814 4
2 5 14 59.2097 133.293 2
-2 5 -14 362.791 157.77 4
2 5 15 2672.62 354.311 2
-2 5 -15 2756.95 313.394 4
2 5 16 3493.57 416.906 2
-2 5 -16 3401.64 358.37 4
-2 5 -17 1055.17 225.087 4
2 5 17 1143.55 268.331 2
2 5 18 1878.17 313.558 2
-2 5 -18 1859.74 292.121 4
-2 5 -19 1744.13 302.832 4
2 5 19 1302.82 261.631 2
-2 5 -20 906.373 229.92 4
2 5 20 424.52 206.332 2
2 5 21 76.2885 129.588 2
-2 5 -21 180.106 141.707 4
-2 5 -21 235.253 221.901 3
-2 5 -22 1578.38 313.628 4
2 5 22 1355.74 308.958 2
-2 5 -22 1455 383.772 3
-2 5 -23 1460.18 313.17 4
-2 5 -23 1458.1 345.178 3
2 6 -22 881.35 294.057 4
2 6 -21 87.937 176.696 4
2 6 -20 1705.52 349.053 4
2 6 -19 1864.13 361.521 4
-2 -6 -18 814.205 237.877 1
2 6 -18 -7.40692 125.825 4
-2 -6 -17 1692.37 309.289 1
2 6 -17 1219.84 283.889 4
2 6 -16 392.843 145.027 4
-2 -6 -16 808.955 231.713 1
-2 -6 -15 751.348 211.705 1
2 6 -15 1089.45 259.479 4
2 6 -14 2609.05 383.501 4
-2 -6 -14 3081.66 374.307 1
2 6 -13 3136.41 381.167 4
-2 -6 -13 3752.19 409.401 1
-2 -6 -12 12044.6 709.097 1
2 6 -12 10943.6 711.679 4
2 6 -11 25122.1 1104.93 4
-2 -6 -11 27489.9 1120 1
-2 -6 -10 9691.88 616.68 1
-2 -6 -9 3364.63 364.199 1
2 -6 9 3134.63 193.602 1
2 -6 8 1730.98 160.146 1
-2 -6 -8 1856.27 276.805 1
-2 -6 -7 12667.1 690.598 1
2 -6 7 13018 488.838 1
-2 -6 -6 7806.45 537.161 1
2 -6 6 8631.1 400.807 1
-2 -6 -5 14349.5 728.453 1
2 -6 5 14983.8 572.023 1
-2 -6 -4 11508 641.489 1
2 -6 4 11219.6 504.807 1
-2 -6 -3 31980.3 1158.49 1
2 -6 3 34486.2 1024.12 1
-2 -6 -2 14938.6 732.289 1
2 6 -2 13794 725.896 2
2 -6 2 15372.3 633.401 1
2 6 -1 4548.62 407.03 2
2 -6 1 5189.76 367.236 1
2 -6 0 444.67 133.172 1
2 6 0 759.954 201.796 2
2 6 1 5136.23 420.822 2
2 -6 -1 4798.99 378.785 1
2 6 2 14852.8 747.764 2
2 6 3 32203.3 1178.67 2
-2 6 -3 33150.7 1014.01 1
2 6 4 10815.4 629.446 2
-2 6 -4 11500.3 510.228 1
-2 6 -5 13551.8 543.039 1
2 6 5 13844.1 727.896 2
2 -6 -5 13440.7 510.112 2
2 6 6 8357.81 568.265 2
2 -6 -6 8211.61 363.247 2
2 -6 -7 12510 442.252 2
2 6 7 11682.2 688.496 2
2 6 8 1667.18 276.105 2
2 -6 -8 1537.86 131.914 2
2 6 9 3423.6 371.714 2
2 -6 -9 2926.37 176.298 2
2 6 10 9450.49 626.681 2
2 6 11 26612.5 1132.18 2
2 6 12 11438.8 714.652 2
-2 6 -12 11381.4 608.888 4
-2 6 -13 3519.62 347.376 4
2 6 13 3505.62 404.429 2
2 6 14 2836.03 372.051 2
-2 6 -14 2982.32 323.254 4
2 6 15 830.648 233.513 2
-2 6 -15 608.971 182.782 4
2 6 16 603.267 208.266 2
-2 6 -16 816.757 193.597 4
2 6 17 1595.87 296.524 2
-2 6 -17 1406.66 260.613 4
2 6 18 512.408 194.02 2
-2 6 -18 1050.69 234.366 4
-2 6 -19 2135.18 326.099 4
2 6 19 2608.47 383.188 2
-2 6 -20 1185.94 255.654 4
2 6 20 1440.67 307.957 2
-2 6 -21 441.319 196.322 4
2 6 21 402.092 212.788 2
-2 6 -22 1010.42 264.143 4
2 6 22 853.519 267.877 2
2 7 -21 920.626 309.789 4
2 7 -20 728.275 273.466 4
2 7 -19 409.8 221.691 4
-2 -7 -18 1924.89 327.178 1
2 7 -18 2141.98 364.503 4
-2 -7 -17 1507.22 301.928 1
2 7 -17 867.214 250.755 4
-2 -7 -16 2637.73 383.023 1
2 7 -16 2452.78 380.606 4
-2 -7 -15 1681.84 308.392 1
2 7 -15 833.752 231.627 4
-2 -7 -14 1403.16 264.71 1
2 7 -14 1519.41 307.143 4
-2 -7 -13 2008.5 316.91 1
2 7 -13 1533.4 291.919 4
-2 -7 -12 1344.86 269.994 1
2 7 -12 1373.29 280.802 4
2 -7 11 3448.29 210.749 1
-2 -7 -11 3890.98 423.683 1
-2 -7 -10 8264.89 604.794 1
2 -7 10 8166.88 362.506 1
-2 -7 -9 14111 792.99 1
2 -7 9 14723.3 539.829 1
-2 -7 -8 28779.7 1176.7 1
2 -7 8 30259.5 890.588 1
-2 -7 -7 6591.33 519.891 1
2 -7 7 6752.95 374.866 1
-2 -7 -6 14365.2 777.687 1
2 -7 6 14552.5 599.623 1
-2 -7 -5 18008.4 873.228 1
2 -7 5 17951.3 694.814 1
-2 -7 -4 19335.5 909.013 1
2 -7 4 21055.8 774.362 1
2 -7 3 2771.19 272.061 1
-2 -7 -3 2635.71 333.638 1
-2 -7 -2 21047.2 953.413 1
2 -7 2 22679.5 851.654 1
-2 -7 -1 8107.46 565.224 1
2 7 -1 8433.86 572.232 2
2 -7 1 9168.3 513.772 1
2 -7 0 89.8564 129.683 1
-2 -7 0 -7.54801 117.066 1
2 7 0 227.441 158.428 2
2 7 1 7995.53 568.259 2
2 -7 -1 8774.22 544.037 1
2 -7 -2 21472.2 908.063 1
2 7 2 21496.7 959.505 2
2 -7 -3 2938.48 332.835 1
2 7 3 2116.61 308.359 2
2 7 4 19207.4 911.568 2
2 -7 -4 19269.2 708.625 2
-2 7 -5 17248.9 682.984 1
2 7 5 16224.3 839.03 2
2 -7 -5 17230.3 642.434 2
2 7 6 12596.9 742.38 2
2 -7 -6 13602.5 537.582 2
2 -7 -7 6100.77 334.764 2
2 7 7 6702.03 532.88 2
2 7 8 26909 1148.04 2
2 -7 -8 27634.8 802.178 2
2 7 9 13974.5 799.59 2
2 -7 -9 13867.4 495.487 2
2 7 10 9075.76 649.844 2
2 -7 -10 7661.56 339.009 2
2 7 11 3924.69 436.287 2
2 7 12 1251.16 280.265 2
2 7 13 1921.33 314.032 2
-2 7 -13 2145.92 279.738 4
-2 7 -14 1621.3 258.043 4
2 7 14 1398 291.586 2
2 7 15 1247.43 271.867 2
-2 7 -15 1446.2 258.598 4
-2 7 -16 3000.21 364.878 4
2 7 16 2542.4 377.455 2
-2 7 -17 1102.96 238.176 4
2 7 17 1741.96 334.284 2
-2 7 -18 2296.23 330.63 4
2 7 18 2657.59 402.658 2
-2 7 -19 435.047 194.642 4
2 7 19 642.875 212.803 2
2 7 20 619.052 228.888 2
-2 7 -20 533.097 191.583 4
-2 7 -21 1122.62 264.586 4
2 7 21 1061.96 276.477 2
-2 7 -22 885.813 252.255 4
2 8 -20 344.207 193.028 4
2 8 -19 1275.25 334.448 4
-2 -8 -19 1468.14 330.387 1
2 8 -18 1281.54 304.356 4
-2 -8 -18 2098.2 376.625 1
2 8 -17 156.419 176.586 4
-2 -8 -17 456.865 232.816 1
-2 -8 -16 1070.09 262.93 1
2 8 -16 695.71 213.732 4
2 8 -15 34.5154 141.945 4
-2 -8 -15 89.0831 161.84 1
-2 -8 -14 2735.09 400.261 1
2 8 -14 2762.24 396.779 4
2 8 -13 796.613 229.65 4
-2 -8 -13 1012.81 247.328 1
-2 -8 -12 5865.78 559.578 1
-2 -8 -11 3353.58 423.715 1
-2 -8 -10 12982 814.521 1
2 -8 10 13388 545.722 1
2 -8 9 2747.79 247.522 1
-2 -8 -9 3263.23 413.674 1
2 -8 8 257.908 122.446 1
-2 -8 -8 435.737 194.148 1
2 -8 7 2628.99 260.152 1
-2 -8 -7 2323.4 333.74 1
-2 -8 -6 1599.81 283.329 1
2 -8 6 1336.43 205.405 1
-2 -8 -5 2523.33 331.98 1
2 -8 5 3174.37 297.798 1
-2 -8 -4 5591.29 496.515 1
2 -8 4 6473.8 431.198 1
2 -8 3 1814.83 242.56 1
-2 -8 -3 1534.77 270.758 1
-2 -8 -2 4619.49 447.486 1
2 -8 2 5098.12 401.694 1
-2 -8 -1 5862.46 504.417 1
2 -8 1 6205.28 450.974 1
-2 -8 0 34855 1326.32 1
2 8 0 34005.6 1316.05 2
2 -8 0 33995.7 1219.2 1
-2 -8 1 5417.13 484.093 1
2 8 1 5330.92 493.354 2
2 -8 -1 5423.01 458.032 1
2 8 2 4346.73 441.858 2
2 -8 -2 4618.56 423.82 1
2 -8 -3 1486.85 259.938 1
2 8 3 1600.44 276.701 2
2 8 4 5524.84 490.584 2
2 -8 -4 5311.76 476.595 1
2 -8 -5 2868.02 358.023 1
2 8 5 2927.83 382.497 2
2 8 6 1184.4 260.094 2
2 -8 -7 2460.91 233.568 2
2 8 7 2534.02 350.431 2
2 -8 -8 236.957 89.0147 2
2 8 8 105.736 143.629 2
2 8 9 2885.51 389.982 2
2 8 10 12308.3 786.227 2
2 8 11 3245.92 408.917 2
2 8 12 5719.13 549.298 2
2 8 13 1239.01 298.382 2
-2 8 -14 2951.36 354.627 4
2 8 14 3187.32 428.042 2
-2 8 -15 8.60539 98.0056 4
2 8 15 -28.2603 160.933 2
-2 8 -16 822.135 218.895 4
2 8 16 1145.81 304.638 2
-2 8 -17 373.172 172.44 4
2 8 17 481.634 242.29 2
-2 8 -18 1744.87 314.788 4
2 8 18 1804.26 357.582 2
2 8 19 1297.14 314.774 2
-2 8 -19 1446.77 310.442 4
2 8 20 871.033 280.968 2
-2 8 -20 601.54 221.237 4
-2 8 -21 332.717 196.485 4
-2 -9 -19 1085.01 307.827 1
2 9 -19 698.176 284.282 4
2 9 -18 381.669 253.954 4
-2 -9 -18 388.07 244.6 1
2 9 -17 3149.83 462.353 4
-2 -9 -17 3443.59 488.726 1
-2 -9 -16 1381.9 311.224 1
2 9 -16 1272.43 319.224 4
2 9 -15 852.752 264.01 4
-2 -9 -15 1252.48 297.317 1
2 9 -14 3366.01 457.393 4
-2 -9 -14 3604.16 463.914 1
-2 -9 -13 495.061 218.682 1
-2 -9 -12 5055.77 530.468 1
-2 -9 -11 1573.83 320.127 1
2 -9 10 3829.34 309.111 1
-2 -9 -10 3711.36 457.021 1
-2 -9 -9 7448.31 625.903 1
2 -9 9 7700.07 456.271 1
-2 -9 -8 3680.84 443.572 1
2 -9 8 3812.97 335.373 1
-2 -9 -7 7543.71 623.932 1
2 -9 7 7407.77 468.892 1
-2 -9 -6 14727.9 870.641 1
2 -9 6 14947.2 708.07 1
-2 -9 -5 758.505 242.36 1
2 -9 5 687.989 199.372 1
-2 -9 -4 5116.24 490.306 1
2 -9 4 4566.99 391.923 1
-2 -9 -3 809.669 253.113 1
2 -9 3 1229.86 206.6 1
2 -9 2 4247.38 393.837 1
-2 -9 -2 4078.07 444.19 1
-2 -9 -1 7384.82 595.196 1
2 -9 1 7929.59 549.935 1
-2 -9 0 1798.4 306.018 1
2 -9 0 1605.47 273.979 1
-2 -9 1 7713.34 607.458 1
2 -9 -1 8258.41 583.837 1
2 -9 -2 4336.93 437.321 1
-2 -9 2 3854.96 435.716 1
2 9 2 3844.74 442.625 2
2 9 3 1149.59 263.613 2
2 -9 -3 1000.76 237.804 1
-2 -9 3 972.707 251.127 1
2 9 4 4606.7 484.161 2
2 -9 -4 4937.16 482.733 1
2 9 5 1151.32 277.494 2
2 -9 -5 642.176 218.152 1
2 9 6 14665.8 868.996 2
2 -9 -6 15336.4 890.325 1
2 9 7 6843.96 585.792 2
2 9 8 3593.92 440.484 2
2 9 9 6796.75 587.262 2
2 9 10 3557.01 436.575 2
2 9 11 1285.36 295.161 2
2 9 12 5016.36 528.211 2
2 9 13 492.079 243.917 2
2 9 14 3875.36 482.169 2
-2 9 -15 1118.61 242.157 4
2 9 15 1350.43 330.623 2
-2 9 -16 1240.8 264.266 4
2 9 16 1536.52 333.806 2
-2 9 -17 2380.66 349.861 4
2 9 17 3045.96 447.364 2
-2 9 -18 232.714 181.457 4
2 9 18 708.164 260.961 2
-2 9 -19 842.997 246.13 4
2 9 19 883.99 285.309 2
-2 9 -20 1504.45 322.301 4
-2 -10 -20 706.045 277.671 1
-2 -10 -19 713.789 312.175 1
-2 -10 -18 1690.78 382.444 1
2 10 -18 2090.9 430.787 4
-2 -10 -17 803.467 283.282 1
2 10 -17 825.871 280.958 4
-2 -10 -16 926.049 279.195 1
2 10 -16 747.198 266.799 4
2 10 -15 918.844 313.378 4
-2 -10 -15 664.778 238.244 1
-2 -10 -14 1012.94 283.926 1
-2 -10 -13 1774.03 351.072 1
-2 -10 -12 5812.52 604.879 1
-2 -10 -11 1268.72 309.206 1
-2 -10 -10 1789.89 350.293 1
2 -10 9 1813.72 251.391 1
-2 -10 -9 1883.87 342.792 1
-2 -10 -8 1309.83 287.812 1
2 -10 8 1435.05 233.625 1
2 -10 7 851.138 204.9 1
-2 -10 -7 388.443 207.062 1
-2 -10 -6 5296.86 535.909 1
2 -10 6 6323.85 472.586 1
-2 -10 -5 879.619 255.555 1
2 -10 5 1138.79 234.564 1
-2 -10 -4 20388.3 1088.3 1
2 -10 4 23410 992.766 1
-2 -10 -3 3994.11 464.068 1
2 -10 3 4471.68 438.967 1
-2 -10 -2 3987.94 459.596 1
2 -10 2 4167.19 424.561 1
2 -10 1 1130.65 231.623 1
-2 -10 -1 1167.29 275.981 1
2 -10 0 623.223 210.565 1
-2 -10 0 652.221 235.972 1
2 -10 -1 962.882 241.757 1
-2 -10 1 1210.47 273.867 1
2 -10 -2 3869.62 443.48 1
-2 -10 2 3831.52 456.933 1
-2 -10 3 3861.02 461.501 1
2 -10 -3 4291.22 465.479 1
2 10 3 3674.48 444.155 2
-2 -10 4 20186.1 1067.49 1
2 10 4 20942 1091.13 2
2 -10 -4 22865.6 1101.29 1
-2 -10 5 1069.74 272.753 1
2 -10 -5 972.697 255.594 1
2 10 5 911.988 266.527 2
2 10 6 5681.47 555.877 2
2 -10 -6 5277.63 543.501 1
2 -10 -7 674.468 207.391 1
2 10 7 627.442 206.596 2
2 10 8 1769.88 346.736 2
2 10 9 1850.95 344.335 2
2 10 10 1358.08 325.424 2
2 10 11 1743.14 344.192 2
2 10 12 6464.11 628.325 2
2 10 13 1562.55 345.895 2
2 10 14 755.755 244.118 2
-2 10 -15 712 233.668 4
2 10 15 812.179 296.637 2
-2 10 -16 736.307 228.312 4
2 10 16 1015.93 272.39 2
-2 10 -17 623.879 220.55 4
2 10 17 690.497 290.303 2
-2 10 -18 1783.27 337.915 4
2 10 18 1866.18 387.62 2
-2 10 -19 413.891 216.798 4
-2 -11 -20 276.827 250.362 1
-2 -11 -19 1126.39 344.801 1
-2 -11 -18 414.26 263.419 1
-2 -11 -17 2824.26 471.104 1
2 11 -17 3223.28 509.546 4
-2 -11 -16 569.116 252.452 1
2 11 -16 719.318 316.613 4
2 11 -15 4475.69 558.026 4
-2 -11 -15 3771.45 516.385 1
-2 -11 -14 740.943 258.542 1
-2 -11 -13 2422.21 425.383 1
-2 -11 -12 236.225 224.906 1
-2 -11 -11 1599.02 349.15 1
-2 -11 -10 686.617 243.747 1
-2 -11 -9 6157.03 625.014 1
-2 -11 -8 1331.96 332.789 1
2 -11 8 1224.81 246.709 1
2 -11 7 787.742 228.382 1
-2 -11 -7 604.638 259.49 1
-2 -11 -6 8629.92 735.646 1
2 -11 6 9489.79 623.759 1
-2 -11 -5 3136.25 440.511 1
2 -11 5 3042.58 373.941 1
-2 -11 -4 6140.13 609.314 1
2 -11 4 6538.8 540.059 1
2 -11 3 2354.36 339.178 1
-2 -11 -3 1888.9 360.75 1
-2 -11 -2 1968.6 362.167 1
2 -11 2 2715.93 359.096 1
-2 -11 -1 8828.74 714.756 1
2 -11 1 10855 708.629 1
-2 -11 0 165.291 169.579 1
2 -11 0 351.439 192.319 1
-2 -11 1 9247.42 738.447 1
2 -11 -1 10655.5 724.565 1
-2 -11 2 1932.65 342.531 1
2 -11 -2 2197.68 350.544 1
2 -11 -3 2298.64 351.656 1
-2 -11 3 2169.75 366.033 1
-2 -11 4 5189.87 565.748 1
2 -11 -4 5762.22 575.353 1
2 -11 -5 2894.02 422.14 1
-2 -11 5 2293.62 373.512 1
2 11 5 2834.07 433.567 2
-2 -11 6 8075.5 693.968 1
2 11 6 8118.14 689.429 2
2 -11 -6 8582.62 711.833 1
-2 -11 7 563.182 227.817 1
2 -11 -7 583.35 225.65 1
2 11 7 751.416 246.027 2
-2 -11 8 691.944 247.64 1
2 11 8 1068.42 292.004 2
2 11 9 5467.92 588.581 2
-2 -11 9 5968.31 593.765 1
2 11 10 573.141 231.423 2
2 11 11 1931.85 371.651 2
2 11 12 229.724 200.739 2
2 11 13 2466.79 431.354 2
2 11 14 272.773 237.975 2
2 11 15 3775.99 521.337 2
-2 11 -16 458.512 188.977 4
2 11 16 661.664 277.25 2
-2 11 -17 3025.59 428.344 4
2 11 17 2559.47 451.357 2
-2 11 -18 153.949 176.649 4
-2 11 -19 1063.41 298.797 4
-2 -12 -17 1226.84 352.567 1
-2 -12 -16 650.543 267.464 1
-2 -12 -15 419.77 227.047 1
-2 -12 -14 1070.31 316.116 1
-2 -12 -13 509.708 285.467 1
-2 -12 -12 966.78 285.583 1
-2 -12 -11 712.379 280.388 1
-2 -12 -10 1070.95 322.984 1
-2 -12 -9 1789.69 379.765 1
-2 -12 -8 1730.52 365.407 1
-2 -12 -7 1858.97 366.592 1
2 -12 7 1896.7 305.866 1
-2 -12 -6 2515.83 419.752 1
2 -12 6 2240.13 328.287 1
-2 -12 -5 1460.44 333.248 1
2 -12 5 2284.11 350.093 1
-2 -12 -4 8842.66 749.773 1
2 -12 4 7707.48 610.111 1
2 -12 3 3724.92 444.504 1
-2 -12 -3 3935.33 523.028 1
2 -12 2 975.748 278.023 1
-2 -12 -2 529.905 246.061 1
-2 -12 -1 1115.24 310.961 1
2 -12 1 898.258 240.46 1
-2 -12 0 342.916 240.152 1
2 -12 0 417.917 219.057 1
-2 -12 1 459.95 228.83 1
2 -12 -1 924.795 262.388 1
-2 -12 2 696.98 282.871 1
2 -12 -2 1167.9 277.429 1
2 -12 -3 4030.7 506.418 1
-2 -12 3 3769.22 497.9 1
-2 -12 4 6777.02 653.188 1
2 -12 -4 9021.97 743.326 1
-2 -12 5 1636.32 351.936 1
2 -12 -5 1914.44 376.027 1
2 -12 -6 2314.51 420.168 1
-2 -12 6 1706.97 356.119 1
2 -12 -7 1872.05 382.345 1
-2 -12 7 1556.94 342.592 1
2 12 7 1349.05 328.227 2
2 -12 -8 1425.77 344.768 1
-2 -12 8 1699.86 342.098 1
2 12 8 1479.34 330.152 2
2 12 9 1224.68 319.586 2
-2 -12 9 1435.46 334.1 1
-2 -12 10 802.98 266.148 1
2 12 10 901.833 283.943 2
-2 -12 11 554.627 235.438 1
2 12 11 554.126 261.908 2
-2 -12 12 1890.54 390.962 1
2 12 12 1662.4 371.497 2
-2 -12 13 444.613 260.405 1
2 12 13 86.48 199.168 2
2 12 14 625.105 277.97 2
-2 -12 14 969.404 305.186 1
2 12 15 -21.343 185.194 2
-2 -12 15 271.563 239.598 1
-2 12 -16 524.129 244.337 4
2 12 16 537.184 295.853 2
-2 12 -17 1141.61 291.669 4
-2 12 -18 766.197 275.684 4
-2 -13 -14 957.972 311.604 1
-2 -13 -13 1545.36 366.137 1
-2 -13 -12 524.347 270.158 1
-2 -13 -11 1249.58 331.533 1
-2 -13 -10 268.328 219.95 1
-2 -13 -9 3166.4 512.445 1
-2 -13 -8 365.586 235.838 1
-2 -13 -7 1953.27 393.216 1
-2 -13 -6 1040.73 319.084 1
2 -13 6 1142.02 265.176 1
2 -13 5 4268.04 485.241 1
-2 -13 -5 3505.66 502.499 1
2 -13 4 178.545 192.659 1
-2 -13 -4 404.063 257.391 1
2 -13 3 4308.59 491.755 1
-2 -13 -3 4448.9 558.573 1
2 -13 2 1356.61 294.993 1
-2 -13 -2 1459.07 349.032 1
-2 -13 -1 2304.92 417.044 1
2 -13 1 2153.36 352.101 1
-2 -13 0 203.23 172.531 1
2 -13 0 18.6916 156.195 1
-2 -13 1 2884.61 450.685 1
2 -13 -1 2637.1 425.432 1
-2 -13 2 1369.35 353.89 1
2 -13 -2 1082.65 312.04 1
-2 -13 3 4760.66 576.209 1
2 -13 -3 4567.07 551.703 1
-2 -13 4 270.009 215.773 1
2 -13 -4 233.564 204.75 1
2 -13 -5 4088.73 533.298 1
-2 -13 5 3978.62 517.511 1
2 -13 -6 784.422 278.128 1
-2 -13 6 980.138 294.307 1
2 -13 -7 1835.17 376.906 1
-2 -13 7 1551.81 354.507 1
2 -13 -8 474.468 265.238 1
-2 -13 8 659.145 265.652 1
-2 -13 9 3086.44 477.447 1
-2 -13 10 -99.0204 164.481 1
2 13 10 173.173 187.978 2
-2 -13 11 1619.2 382.014 1
2 13 11 1228.25 320.464 2
-2 -13 12 464.44 258.43 1
2 13 12 177.274 221.353 2
-2 -13 13 1441.51 387.829 1
2 13 13 1339.77 350.56 2
-2 -13 14 1085.06 321.813 1
2 13 14 742.022 291.544 2
2 13 15 1085.14 322.069 2
-2 13 -17 464.391 223.696 4
-2 -14 -11 39.4051 192.967 1
-2 -14 -10 762.384 305.018 1
-2 -14 -9 450.023 262.134 1
-2 -14 -8 1182.17 354.034 1
-2 -14 -7 583.075 260.433 1
-2 -14 -6 3175.85 505.794 1
2 -14 5 929.925 272.817 1
-2 -14 -5 946.873 337.522 1
2 -14 4 1576.99 339.21 1
-2 -14 -4 1402.77 393.276 1
2 -14 3 1628.66 343.942 1
-2 -14 -3 1602.89 373.659 1
2 -14 2 3392.47 474.599 1
-2 -14 -2 2697.83 475.958 1
-2 -14 -1 398.592 250.506 1
2 -14 1 372.883 212.51 1
-2 -14 0 398.862 259.286 1
2 -14 0 284.95 242.505 1
-2 -14 1 517.89 263.417 1
2 -14 -1 674.481 284.196 1
2 -14 -2 2801.46 446.372 1
-2 -14 2 2365.26 422.587 1
-2 -14 3 1741.66 381.722 1
2 -14 -3 1363.47 331.576 1
-2 -14 4 943.744 305.619 1
2 -14 -4 1270.87 348.097 1
2 -14 -5 777.299 303.28 1
-2 -14 5 848.286 299.567 1
-2 -14 6 2918.42 470.15 1
2 -14 -6 2783.72 449.428 1
-2 -14 7 480.182 291.673 1
2 -14 -7 329.189 242.402 1
2 -14 -8 1113.58 329.279 1
-2 -14 8 1351.78 352.339 1
-2 -14 9 349.601 230.269 1
-2 -14 10 638.073 244.251 1
-2 -14 11 946.797 311.876 1
-2 -14 12 234.707 172.703 1
-2 -14 13 130.505 196.114 1
-2 -15 -6 491.455 263.91 1
-2 -15 -5 2958.96 517.637 1
2 -15 4 60.2671 180.289 1
-2 -15 -4 484.156 300.408 1
2 -15 3 1071.24 304.237 1
-2 -15 -3 677.659 289.528 1
2 -15 2 1827.52 384.135 1
-2 -15 -2 1077.52 328.518 1
-2 -15 -1 2103.55 450.32 1
2 -15 1 2416.52 426.827 1
-2 -15 0 339.919 235.242 1
2 -15 0 293.086 265.216 1
2 -15 -1 1887.64 411.405 1
-2 -15 1 2657.05 468.775 1
2 -15 -2 1497.39 348.541 1
-2 -15 2 1525.65 396.553 1
-2 -15 3 849.261 293.589 1
2 -15 -3 805.263 339.153 1
-2 -15 4 398.013 272.685 1
2 -15 -4 205.93 222.533 1
-2 -15 5 3065.46 517.08 1
2 -15 -5 2566.94 454.31 1
-2 -15 6 902.651 325.021 1
2 -15 -6 625.787 255.183 1
-2 -15 7 614.997 299.235 1
2 -15 -7 492.3 281.034 1
-2 -15 8 543.953 249.998 1
-2 -15 9 1283.14 362.679 1
-2 -15 10 1131.57 366.562 1
-2 -15 11 257.988 263.965 1
-2 -15 12 324.461 261.547 1
2 -16 3 1178.71 351.194 1
2 -16 2 590.397 275.142 1
2 -16 1 278.581 238.9 1
2 -16 0 183.47 232.878 1
2 -16 -1 609.073 262.819 1
2 -16 -2 535.864 250.312 1
2 -16 -3 1010.2 331.838 1
3 0 0 107.877 93.9215 2
3 0 0 37.1041 42.084 4
3 0 -1 33978.4 837.668 4
3 0 1 31861.8 734.793 4
3 0 1 36230.9 1046.96 2
3 0 -1 34340.8 970.757 2
3 0 -2 5000.69 269.047 4
3 0 2 5796.03 364.133 2
3 0 -2 5074.96 299.908 2
3 0 -3 31169.7 876.444 2
3 0 -3 31044 871.777 4
-3 0 3 29341.1 853.134 2
3 0 3 30400.3 1005.19 2
3 0 -4 16490.7 564.664 2
3 0 -4 17056.7 615.314 4
3 0 -4 16604.8 487.952 3
-3 0 4 15915.5 547.426 2
3 0 4 17424.6 724.084 2
3 0 5 304.884 122.071 2
-3 0 5 239.28 68.5341 2
-3 0 5 331.828 122.118 4
3 0 -5 223.071 95.1086 4
-3 0 -5 408.828 94.8473 3
3 0 -5 280.384 75.1276 3
3 0 -5 209.097 66.1984 2
3 0 -6 88043.1 1896.26 2
3 0 -6 91142.4 2127.89 4
-3 0 -6 85959.5 1937.42 3
3 0 -6 88295.2 1948.6 3
3 0 6 90826 2263.19 2
-3 0 6 88548 1889.21 2
3 0 -7 7297.35 442.726 4
-3 0 -7 6405.96 350.27 3
3 0 -7 7370.86 377.708 3
3 0 7 7355.2 491.44 2
-3 0 7 7174.32 306.59 2
-3 0 -8 40523.1 1010.98 1
-3 0 -8 38806.1 1134.22 3
3 0 8 41031.1 1365.25 2
3 0 -8 42244 1294.7 4
3 0 -8 41122.2 1157.33 3
-3 0 8 41124.5 978.979 2
3 0 -9 12678.2 548.598 3
-3 0 -9 13052.1 406.747 1
3 0 9 11275.9 379.094 4
3 0 -9 13588.4 651.727 4
3 0 9 12527.5 669.13 2
-3 0 9 12719 387.475 2
3 0 -10 1082.13 209.889 4
-3 0 10 1079.72 116.292 2
-3 0 -10 1218.28 125.047 1
3 0 10 1326.32 147.422 4
3 0 -10 1028.15 168.203 3
3 0 10 1273.71 226.913 2
-3 0 -11 30.2848 49.399 1
3 0 11 112.803 69.4976 4
3 0 -11 -32.3953 101.305 4
-3 0 11 47.5313 56.7969 2
3 0 -11 60.49 92.7878 3
-3 0 12 7427.08 328.039 2
3 0 12 7553.78 402.618 4
-3 0 -12 7927.45 305.101 1
-3 0 -12 8123.56 515.254 3
3 0 -12 8483.43 525.569 3
3 0 -12 9023.51 606.312 4
3 0 -13 2950.98 369.624 4
-3 0 -13 2942.64 320.892 3
3 0 -13 2631.9 310.584 3
3 0 13 2947.61 370.506 2
-3 0 -14 17.7919 94.8206 3
3 0 -14 -223.225 167.231 4
3 0 -14 227.333 141.909 3
3 0 14 -261.265 185.042 2
3 0 -15 7966.86 625.003 4
-3 0 -15 7101.9 542.108 3
3 0 -15 7671.14 569.316 3
3 0 15 7915.93 621.727 2
3 0 -16 685.096 223.831 4
-3 0 -16 204.895 143.407 3
3 0 -16 548.148 196.904 3
3 0 16 336.167 179.324 2
3 0 -17 8610.41 691.227 4
-3 0 -17 8213.31 630.461 3
3 0 -17 8617.53 652.29 3
3 0 17 8583.13 684.5 2
3 0 18 86.0648 171.202 2
3 0 -18 517.645 216.02 4
-3 0 -18 107.651 144.117 3
3 0 -18 56.3019 129.51 3
3 0 19 -122.524 134.644 2
-3 0 -19 195.848 153.142 3
3 0 -19 462.555 201.528 3
3 0 20 328.53 210.03 2
-3 0 -20 295.298 217.178 3
3 0 -20 370.556 189.52 3
3 0 21 230.121 191.219 2
-3 0 -21 161.711 180.646 3
3 0 -21 300.582 226.258 3
3 0 22 2828.19 444.189 2
-3 0 -22 2796.09 442.848 3
3 0 -22 2361.51 398.628 3
3 0 23 136.408 163.062 2
3 0 -23 199.022 244.83 3
3 0 -24 251.464 203.639 3
3 0 24 168.117 140.623 2
3 -1 24 363.411 225.026 2
3 1 -24 409.44 216.751 3
3 -1 23 777.487 267.129 2
3 1 -23 565.798 234.955 3
3 -1 22 1495.06 363.902 2
3 1 -22 1674.66 357.917 3
3 1 -21 3095.17 473.848 4
3 1 -21 3460.31 483.772 3
3 -1 21 3194.43 465.76 2
3 1 -20 2243.7 401.591 4
3 1 -20 2002.22 367.587 3
3 1 -19 751.648 255.466 4
3 1 -19 998.895 274.234 3
3 1 -18 678.698 217.636 4
-3 -1 -18 838.799 224.452 3
3 1 -18 630.979 206.448 3
-3 -1 -17 2746.72 386.492 3
3 1 -17 2308.84 334.879 3
3 1 -17 2248.87 358.06 4
3 1 -16 688.003 217.755 4
-3 -1 -16 761.509 198.488 3
3 1 -16 454.227 169.839 3
3 1 -15 860.193 218.497 4
-3 -1 -15 1203.44 230.115 3
3 1 -15 1122.2 233.556 3
3 1 -14 4515.38 469.929 4
-3 -1 -14 4260.8 416.282 3
-3 -1 -14 4167.11 266.876 1
3 1 -14 3967.14 390.258 3
3 1 -13 2441.01 327.449 4
-3 -1 -13 2399.2 196.625 1
-3 -1 -13 1938.55 273.571 3
3 1 -13 1730.59 252.426 3
3 1 -12 2334.72 307.453 4
-3 -1 -12 2857.59 215.878 1
-3 -1 -12 2604.04 302.139 3
3 1 -12 2040.73 260.425 3
3 1 -11 3812.07 386.032 4
-3 -1 -11 3776.46 251.668 1
3 1 -11 3567.45 338.376 3
-3 -1 -10 8395.13 388.166 1
3 1 -10 7684.04 524.538 4
3 1 -10 7561.2 464.534 3
-3 -1 -9 1627.94 173.158 1
3 1 -9 1496.99 232.716 4
3 1 -9 1223.45 177.569 3
-3 -1 -8 3781.59 256.847 1
3 1 -8 3554.68 332.68 4
3 1 -8 3589.05 276.732 3
3 1 -7 37172.6 1169.3 4
3 1 -7 36881.4 1041.87 3
3 1 -6 5875.1 325.137 2
3 1 -6 6288.91 399.993 4
3 1 -6 5814.44 313.433 3
3 1 -5 5780.38 322.236 2
3 1 -5 5371.25 346.386 4
-3 1 5 5458.3 346.966 4
3 1 -4 13546.8 538.672 2
3 1 -4 13361.7 545.182 4
-3 1 4 12466 520.336 4
3 1 -3 34588.5 982.785 2
3 1 -3 33925.2 943.988 4
-3 1 3 31239.5 899.658 4
3 1 -2 76251.1 1776.25 2
3 1 -2 74382.1 1669 4
-3 1 2 70638.3 1623.57 4
3 -1 2 74341 1834.05 2
-3 1 1 26240.2 709.921 4
3 -1 1 28497.6 897.799 2
3 1 -1 27709.4 750.366 4
3 1 -1 27818.2 880.165 2
3 1 0 7591.39 305.497 4
-3 -1 0 7372.25 413.264 2
3 -1 0 7494.5 389.763 2
3 1 0 7682.14 422.487 2
-3 -1 1 27813 885.245 2
3 -1 -1 28522.4 847.358 2
3 1 1 28167.5 931.608 2
-3 1 -2 64603.2 1340.52 3
-3 -1 2 71817.2 1668.46 2
3 -1 -2 73366.5 1598.28 2
3 1 2 74118.9 1779.85 2
-3 1 -3 32917.4 762.558 3
-3 -1 3 33283.4 963.244 2
3 1 3 33450.3 1079.25 2
3 -1 -3 33285 888.018 2
-3 1 -4 13605.4 430.076 3
3 1 4 14563 665.796 2
-3 -1 4 13226.8 524.51 2
3 -1 -4 13379.8 460.822 2
3 -1 -5 5743.54 260.883 2
3 -1 -5 5925.89 365.481 4
-3 1 -5 5545.79 275.622 3
3 1 5 5855.32 415.723 2
-3 -1 5 5965.42 325.896 2
3 -1 -6 5354.1 234.017 2
3 1 6 5068.25 222.61 4
3 -1 -6 6137.88 386.858 4
-3 1 -6 5581.33 301.947 3
3 1 6 5601.31 427.725 2
-3 -1 6 5939.71 319.905 2
3 -1 -7 37971.6 1162.79 4
3 1 7 34384.8 856.841 4
-3 1 -7 35722.1 1013.19 3
3 1 7 38342.2 1265.71 2
-3 -1 7 37190.8 988.748 2
3 1 8 3393.97 204.71 4
3 -1 -8 3538.65 324.813 4
-3 1 -8 3169.72 263.709 3
3 1 8 3534.94 352.901 2
-3 1 -8 3198.21 177.857 1
-3 -1 8 3667.35 248.601 2
-3 1 -9 1026.57 89.3042 1
3 1 9 1402.82 235.114 2
3 -1 -9 1058.59 202.58 4
-3 -1 9 1591.43 171.327 2
3 1 9 1228.56 135.01 4
3 -1 -9 1560.04 197.205 3
-3 1 -9 53.9359 80.3989 3
-3 -1 10 8007.13 371.9 2
3 1 10 7351.91 348.843 4
3 -1 -10 7840.57 515.403 4
-3 1 -10 4268.97 164.447 1
3 -1 -10 7666.55 460.408 3
3 1 10 7452.19 533.878 2
-3 -1 11 3912.65 273.857 2
3 1 11 3510.94 262.242 4
3 -1 -11 3767.59 347.983 3
3 1 11 3652.13 384.754 2
3 -1 -11 3608.82 381.616 4
-3 -1 12 2679.47 229.446 2
3 1 12 2603.27 338.781 2
-3 1 -12 2519.01 290.784 3
3 -1 -12 2498.31 302.931 3
3 1 13 1967.6 316.75 2
3 -1 -13 2046.3 283.752 3
-3 1 -13 1985.85 260.725 3
3 -1 -14 4524.91 436.257 3
-3 1 -14 4033.25 386.944 3
3 1 14 4453.63 455.892 2
3 -1 -15 1016.92 232.973 3
3 1 15 1034.79 225.408 2
-3 1 -15 1008.7 221.744 3
3 1 16 388.631 193.523 2
-3 1 -16 834.291 208.794 3
3 -1 -16 615.608 190.397 3
3 1 17 2604.34 393.491 2
3 -1 -17 2750.12 385.409 3
-3 1 -17 2314.2 335.216 3
3 1 18 702.022 221.919 2
3 -1 -18 622.006 192.281 3
-3 1 -18 588.13 193.532 3
3 1 19 359.091 190.362 2
3 -1 -19 618.508 222.045 3
-3 1 -19 688.692 217.188 3
3 1 20 2163.49 388.108 2
-3 1 -20 1905.51 341.584 3
3 1 21 3444.09 484.609 2
-3 1 -21 3306.2 460.899 3
3 1 22 1710.24 347.263 2
-3 1 -22 1388.62 324.009 3
3 1 23 342.99 250.861 2
-3 1 -23 626.742 268.723 3
3 1 24 313.226 228.458 2
-3 1 -24 26.0848 160.302 3
3 1 25 442.251 251.409 2
3 2 -24 513.107 250.943 3
3 -2 24 392.602 251.202 2
3 2 -23 1239.4 345.37 4
3 2 -23 652.979 252.566 3
3 2 -22 1798.44 387.78 4
3 2 -22 1791.74 367.011 3
3 2 -21 583.232 238.128 4
3 2 -21 561.834 230.983 3
3 2 -20 -37.5026 179.215 4
3 2 -20 -10.9037 141.05 3
3 2 -19 1056.04 278.059 4
3 2 -19 315.785 141.35 3
3 2 -18 474.207 218.939 4
3 2 -18 689.945 243.133 3
3 2 -17 2564.71 381.072 4
3 2 -17 2425.3 345.849 3
3 2 -16 2802.38 399.03 4
3 2 -16 3160.81 388.037 3
3 2 -15 3854.16 438.227 4
-3 -2 -15 3937.64 303.274 1
3 2 -15 3645.96 391.847 3
3 2 -14 1599.84 281.713 4
3 2 -14 1800.46 284.106 3
-3 -2 -14 2021.44 218.148 1
3 2 -13 13324.9 782.908 4
-3 -2 -13 14439.7 592.489 1
3 2 -13 13176.3 714.818 3
3 2 -12 18091.4 894.574 4
-3 -2 -12 18587.1 695.519 1
3 2 -12 17045 797.7 3
-3 -2 -11 4445.78 310.341 1
3 2 -11 3890.47 392.81 4
3 2 -10 546.219 162.118 4
-3 -2 -10 468.689 117.019 1
-3 -2 -9 19503.8 713.108 1
3 2 -9 19019.6 844.187 4
-3 -2 -8 17864.6 674.399 1
3 2 -8 17587.6 774.527 4
-3 -2 -7 4962.45 337.027 1
3 2 -7 4902.15 376.189 4
3 2 -6 11680.1 563.427 4
-3 2 6 11219.7 471.375 3
3 2 -5 959.882 161.075 4
-3 2 5 884.333 123.749 3
3 2 -5 862.003 147.585 2
3 2 -4 17206.4 666.609 2
-3 2 4 16589.1 625.318 4
3 2 -4 17590.4 660.257 4
-3 2 4 16522.5 528.356 3
-3 2 3 2037.86 186.835 4
3 2 -3 2148.86 227.556 2
3 2 -3 1966.37 199.381 4
-3 2 3 1924.56 142.943 3
3 2 -2 338.27 141.272 2
-3 2 2 276.05 60.9306 3
-3 2 2 259.662 76.366 4
3 2 -1 51465.9 1384.72 2
-3 2 1 48595.8 1151.5 4
3 2 0 30877.7 987.358 2
-3 2 0 28361.8 719.836 4
-3 2 -1 47550.8 1029.1 4
3 2 1 49197.3 1376.34 2
3 -2 -2 306.339 86.8021 2
-3 -2 2 359.095 117.521 2
3 2 2 279.622 120.711 2
-3 2 -2 238.762 41.6399 4
3 2 3 1924.05 237.996 2
3 2 3 1772.01 145.523 3
3 -2 -3 1967.92 163.787 2
-3 -2 3 2178.92 227.432 2
3 2 4 16248.5 536.961 3
3 -2 -4 16439.2 503.653 2
3 2 4 18267.3 762.322 2
-3 -2 4 17315.3 654.667 2
3 2 5 987.142 181.161 2
-3 -2 5 814.121 137.91 2
3 2 5 691.783 114.316 3
3 -2 -5 643.389 79.7542 2
3 -2 -6 7706.3 261.177 2
3 2 6 10930.3 461.078 3
3 2 6 11745.6 624.115 2
-3 -2 6 11522.4 500.129 2
-3 -2 7 4640.97 316.334 2
-3 2 -7 3592.46 168.062 4
3 2 7 5076.77 411.891 2
-3 -2 8 18248.6 665.847 2
-3 2 -8 15174.7 463.443 4
3 2 8 17464.4 824.512 2
-3 -2 9 20047.1 725.106 2
3 2 9 18368.5 640.371 4
3 2 9 19294.6 899.49 2
-3 -2 10 555.772 133.878 2
3 2 10 354.899 181.632 2
3 2 10 329.455 101.02 4
-3 -2 11 3996.11 313.093 2
3 2 11 3737.98 287.58 4
3 2 11 4439.62 434.355 2
-3 2 -12 16748.7 778.247 3
3 2 12 17512.9 905.622 2
-3 2 -13 13457 720.204 3
3 2 13 14373.3 831.035 2
3 2 14 1780.27 310.412 2
-3 2 -14 1880.92 279.195 3
3 2 15 3549.6 427.235 2
-3 2 -15 3363.99 383.857 3
3 2 16 3644.74 443.612 2
-3 2 -16 3078.94 377.817 3
3 2 17 2804.31 409.727 2
-3 2 -17 2078.39 314.137 3
3 2 18 511.068 216.738 2
-3 2 -18 531.798 219.649 3
3 2 19 288.218 200.273 2
-3 2 -19 552.631 203.654 3
3 2 20 320.278 202.982 2
-3 2 -20 159.817 141.233 3
3 2 21 779.747 273.14 2
-3 2 -21 645.911 223.384 3
3 2 22 2158.61 397.929 2
-3 2 -22 2313.27 435.667 3
3 2 23 1282.54 331.298 2
-3 2 -23 1438.88 346.411 3
3 2 24 295.182 195.365 2
-3 2 -24 173.3 176.433 3
3 2 25 2.71531 164.028 2
3 3 -23 84.5149 158.25 3
3 3 -22 1325.51 344.188 4
3 3 -22 1054.31 293.143 3
3 3 -21 973.922 293.415 4
3 3 -21 597.575 250.003 3
3 3 -20 3184.76 469.886 4
3 3 -20 2154.53 362.161 3
3 3 -19 367.756 206.266 4
3 3 -19 501.061 208.466 3
3 3 -18 1277.06 311.744 4
3 3 -18 1505.05 303.295 3
3 3 -17 3740.65 460.796 4
3 3 -17 3640.75 436.893 3
-3 -3 -16 186.688 119.703 1
3 3 -16 86.7273 123.264 4
3 3 -16 286.919 162.183 3
-3 -3 -15 997.564 183.082 1
3 3 -15 923.907 261.858 4
3 3 -14 14133 842.408 4
-3 -3 -14 14866.7 671.936 1
-3 -3 -13 367.768 139.641 1
3 3 -13 404.768 169.908 4
-3 -3 -12 9739.13 524.811 1
3 3 -12 8758.39 616.889 4
-3 -3 -11 944.447 177.096 1
3 3 -11 845.704 204.919 4
-3 -3 -10 2679.67 269.539 1
3 3 -10 1922.24 261.426 4
-3 -3 -9 1811.18 235.136 1
3 3 -9 1604.13 255.419 4
-3 -3 -8 7531.73 446.229 1
3 3 -8 6927.52 474.471 4
-3 -3 -7 12450.4 584.499 1
3 3 -7 11824.4 616.805 4
3 3 -6 3266.99 302.841 4
-3 3 6 3004.44 242.333 3
3 3 -5 7705.32 448.499 2
3 3 -5 7554.87 448.09 4
-3 3 5 6913.26 359.586 3
3 3 -4 14854.6 653.263 2
-3 3 4 14281.3 596.877 4
-3 3 4 14243.7 522.64 3
3 3 -3 4627.72 356.599 2
-3 3 3 4470.17 298.229 4
3 3 -2 34836.4 1130.89 2
-3 3 2 35564 980.178 4
3 3 -1 13305.9 640.427 2
-3 3 1 12195.4 464.085 4
3 3 0 24878 914.468 2
3 3 1 13408.6 644.894 2
3 3 2 35235 1177.44 2
3 3 3 4584.53 370.444 2
3 3 4 13639.3 516.319 3
3 -3 -4 13552.3 444.956 2
3 3 4 14376.8 696.22 2
3 3 5 6915.71 362.662 3
-3 3 -5 6352.21 305.673 1
3 -3 -5 6304.87 249.226 2
3 3 5 7146.43 481.435 2
-3 3 -6 3233.77 164.581 4
3 3 6 3420.06 339.821 2
-3 3 -6 2990.25 182.476 1
3 3 6 2995.85 247.72 3
3 -3 -6 1702.51 95.3499 2
-3 3 -7 11475.9 364.249 4
-3 3 -7 8810.72 308.568 1
3 3 7 12347.2 669.332 2
-3 3 -8 7251.1 304.044 4
3 3 8 7563.05 539.518 2
3 3 9 2177.7 303.492 2
-3 3 -9 1430.48 141.349 4
-3 3 -10 2009.1 177.254 4
3 3 10 1924.77 291.608 2
3 3 11 829.371 213.344 2
-3 3 -11 913.747 131.22 4
-3 3 -12 8843.1 438.07 4
3 3 12 9676.18 665.095 2
3 3 13 288.25 154.323 2
-3 3 -13 43.1169 68.3043 4
3 3 14 14829.6 866.828 2
3 3 15 1146.28 264.523 2
-3 3 -15 700.63 201.229 3
-3 3 -16 56.9016 84.9213 4
3 3 16 258.983 163.295 2
-3 3 -16 40.5118 131.493 3
3 3 17 3884.32 469.922 2
-3 3 -17 4119.99 453.763 3
3 3 18 1411.51 298.832 2
-3 3 -18 1006.51 267.214 3
3 3 19 997.62 291.984 2
-3 3 -19 633.997 211.518 3
3 3 20 2653.4 421.249 2
-3 3 -20 2797.06 404.855 3
3 3 21 1065.84 299.645 2
-3 3 -21 770.63 242.551 3
-3 3 -22 1228.99 323.797 3
3 3 22 1703.36 380.441 2
3 3 23 518.959 252.591 2
-3 3 -23 226.162 172.187 3
3 3 24 507.374 244.886 2
3 3 25 240.542 250.544 2
3 4 -23 1745.88 362.546 3
3 4 -22 1147.16 337.189 4
3 4 -22 941.555 310.089 3
3 4 -21 934.69 288.232 4
3 4 -21 648.81 245.784 3
3 4 -20 653.971 253.123 4
3 4 -20 401.138 210.765 3
3 4 -19 523.178 242.141 4
3 4 -19 253.83 208.5 3
3 4 -18 495.966 203.624 4
3 4 -18 209.824 182.649 3
-3 -4 -17 1984.24 269.132 1
3 4 -17 2056.73 362.859 4
-3 -4 -16 2903.78 319.856 1
3 4 -16 3152.43 421.661 4
3 4 -15 6903.34 612.148 4
-3 -4 -15 7293.34 505.355 1
3 4 -14 3861.36 453.25 4
-3 -4 -14 4183.16 377.275 1
3 4 -13 10944.5 727.346 4
-3 -4 -13 12666.8 658.734 1
3 4 -12 927.56 214.536 4
-3 -4 -12 1230.39 218.638 1
-3 -4 -11 7239.93 478.255 1
3 4 -11 6011.02 505.44 4
-3 -4 -10 9973.11 564.762 1
3 4 -10 8529.29 597.897 4
-3 -4 -9 26692.6 991.219 1
3 4 -9 26897.2 1064.79 4
-3 -4 -8 7795.15 490.765 1
3 4 -8 6479.7 487.473 4
-3 -4 -7 19169.4 800.253 1
3 4 -7 17250.5 791.53 4
-3 -4 -6 8208.25 499.959 1
3 4 -5 9980.51 552.562 2
3 4 -4 13946.7 664.58 2
3 4 -3 3729.65 339.511 2
3 4 -2 24397.8 946.22 2
3 4 -1 10734.2 591.012 2
3 4 0 701.831 184.405 2
3 4 1 11531.6 635.655 2
3 4 2 24912.6 966.984 2
-3 4 -2 22237.7 780.993 1
3 4 3 3614.43 355.229 2
-3 4 -3 2988.55 241.708 1
3 4 4 13722.1 708.327 2
-3 4 -4 12736.4 502.174 1
-3 4 -5 8315.97 368.196 1
3 4 5 9855.55 595.566 2
-3 4 -6 7637.11 319.552 1
3 -4 -6 5889.25 214.921 2
3 4 6 7702.26 537.278 2
-3 4 -7 14080.9 432.065 1
3 4 7 17697 833.291 2
-3 4 -8 7173.37 315.322 4
3 4 8 7109.67 522.952 2
-3 4 -9 25098.4 758.267 4
3 4 9 25462.8 1091.55 2
-3 4 -10 9109.46 421.991 4
3 4 10 8882.93 627.838 2
-3 4 -11 6116.09 355.571 4
3 4 11 7115.06 566.797 2
3 4 12 1442.5 280.443 2
-3 4 -12 50.7559 59.6469 4
3 4 13 11388.4 750.425 2
3 4 14 4466.74 484.142 2
3 4 15 7258.56 618.736 2
3 4 16 3211.82 415.226 2
-3 4 -16 2604.23 294.22 4
3 4 17 2393.9 377.306 2
-3 4 -17 1871.69 261.792 4
-3 4 -18 304.174 125.292 4
3 4 18 711.266 253.638 2
-3 4 -18 65.1534 138.28 3
3 4 19 722.916 221.755 2
-3 4 -19 183.885 164.731 3
3 4 20 600.12 230.995 2
-3 4 -20 242.197 160.375 3
3 4 21 1354.95 354.748 2
-3 4 -21 602.645 256.387 3
3 4 22 1151.35 334.087 2
-3 4 -22 1346.51 317.105 3
3 4 23 2175.36 430.396 2
-3 4 -23 1905.72 394.556 3
3 4 24 70.9056 187.229 2
3 5 -23 362.544 226.361 3
3 5 -22 150.594 188.063 3
3 5 -21 2145.69 404.297 4
3 5 -21 1889.91 387.156 3
3 5 -20 733.449 272.956 4
3 5 -20 857.249 279.879 3
3 5 -19 1780.23 359.03 4
3 5 -18 4507.58 547.724 4
3 5 -17 2250.93 389.673 4
-3 -5 -17 2339.41 318.526 1
3 5 -16 1034.52 276.841 4
-3 -5 -16 1403.71 258.419 1
-3 -5 -15 4773.94 432.09 1
3 5 -15 3878.47 461.039 4
3 5 -14 6014.79 571.754 4
-3 -5 -14 6928.93 510.158 1
3 5 -13 1054.1 253.07 4
-3 -5 -13 1544.07 264.324 1
3 5 -12 1601.03 278.85 4
-3 -5 -12 2089.82 297.102 1
-3 -5 -11 8447.11 551.026 1
3 5 -11 6638.61 545.222 4
-3 -5 -10 3840.02 377.107 1
3 5 -10 3729.88 392.905 4
-3 -5 -9 7039.17 502.112 1
3 5 -9 5373.14 465.982 4
-3 -5 -8 18699.1 846.581 1
-3 -5 -7 1670.78 253.61 1
-3 -5 -6 6906.54 485.611 1
-3 -5 -5 1272.67 223.271 1
3 5 -4 22996.4 955.618 2
3 5 -3 23131.6 946.99 2
3 5 -2 9717.66 588.991 2
3 5 -1 13762.3 711.897 2
3 5 0 2118.91 298.083 2
3 5 1 13769.2 728.306 2
3 5 2 10234.6 639.058 2
3 5 3 24976.2 1025.72 2
-3 5 -3 22436.8 784.549 1
3 5 4 23009.5 981.549 2
-3 5 -4 20912.1 731.57 1
3 5 5 1453.21 280.787 2
-3 5 -5 1124.63 144.782 1
3 5 6 6885.77 529.515 2
-3 5 -6 6379.99 317.686 1
3 -5 -7 637.988 61.8192 2
3 5 7 1414.38 263.057 2
-3 5 -7 1166.42 125.003 1
3 5 8 18980.5 930.555 2
-3 5 -9 6595.1 367.498 4
3 5 9 6481.98 537.746 2
-3 5 -10 1734.38 203.945 4
3 5 10 4011.87 423.987 2
-3 5 -11 134.678 86.2773 4
3 5 11 6822.82 549.671 2
3 5 12 1674.74 287.246 2
3 5 13 1398.43 290.274 2
3 5 14 6722.99 588.904 2
-3 5 -15 3968.27 354.026 4
3 5 15 3850.12 459.287 2
-3 5 -16 1133.92 209.994 4
3 5 16 727.617 215.215 2
3 5 17 2299.45 387.374 2
-3 5 -17 1894.18 263.078 4
3 5 18 4213.22 497.468 2
3 5 19 2263.93 391.755 2
3 5 20 860.285 259.785 2
-3 5 -20 597.45 198.399 3
3 5 21 1812.73 367.848 2
-3 5 -21 1825.34 355.998 3
3 5 22 83.6707 171.266 2
-3 5 -22 485.468 239.603 3
3 5 23 -9.63202 185.189 2
-3 5 -23 238.042 223.213 3
3 5 24 57.3741 165.314 2
3 6 -22 461.806 233.065 3
3 6 -21 972.701 336.868 4
3 6 -20 -50.1696 194.951 4
3 6 -19 541.862 251.761 4
3 6 -18 375.961 236.922 4
-3 -6 -18 344.053 171.863 1
-3 -6 -17 570.141 200.928 1
3 6 -17 363.63 200.908 4
3 6 -16 1511.92 313.685 4
-3 -6 -16 1183.97 259.092 1
3 6 -15 1572.66 314.082 4
-3 -6 -15 1361.49 272.027 1
3 6 -14 9844.09 727.176 4
-3 -6 -14 10921.4 691.346 1
3 6 -13 1466.93 295.456 4
-3 -6 -13 1378.28 263.656 1
3 6 -12 910.452 230.89 4
-3 -6 -12 1316.34 256.522 1
-3 -6 -11 3545.5 382.564 1
3 6 -11 3109.88 379.303 4
-3 -6 -10 13943.1 758.315 1
3 6 -10 11979.9 750.929 4
-3 -6 -9 31523.8 1213.86 1
-3 -6 -8 6665.62 520.296 1
-3 -6 -7 4011.22 404.566 1
-3 -6 -6 5364.13 459.929 1
-3 -6 -5 11535.3 670.213 1
-3 -6 -4 4765.6 435.287 1
3 6 -3 9815.5 638.551 2
3 6 -2 15213.9 787.646 2
3 6 -1 3456.69 393.287 2
3 6 0 4504.44 421.305 2
3 6 1 3452.61 383.274 2
3 6 2 14561.5 787.574 2
3 6 3 9828.08 646.324 2
3 6 4 5198.7 483.157 2
-3 6 -4 4280.23 318.187 1
3 6 5 12724 750.133 2
-3 6 -5 10768.7 498.914 1
3 6 6 5706.78 508.162 2
-3 6 -6 4453.4 295.086 1
3 -6 -6 4295.91 243.607 2
3 6 7 4266.34 447.149 2
-3 6 -7 3513.07 238.005 1
3 -6 -7 3219.4 186.373 2
3 6 8 6834.76 559.693 2
3 -6 -8 3275.77 148.032 2
3 6 9 32507.4 1334.43 2
3 6 10 13929.4 833.919 2
3 6 11 3238.52 421.204 2
3 6 12 1093.42 246.52 2
3 6 13 1690.63 323.045 2
-3 6 -13 1620.41 216.775 4
-3 6 -14 9661.18 559.336 4
3 6 14 10365.4 755.997 2
3 6 15 1590.25 328.057 2
-3 6 -15 1638.72 247.775 4
3 6 16 597.842 235.087 2
-3 6 -16 1239.09 227.948 4
-3 6 -17 333.558 144.234 4
3 6 17 248.654 141.772 2
3 6 18 344.012 186.669 2
3 6 19 199.371 151.467 2
3 6 20 108.273 182.612 2
3 6 21 1208.19 315.727 2
-3 6 -21 1174.19 297.464 3
3 6 22 757.713 271.586 2
-3 6 -22 1200.78 325.169 3
3 6 23 1793.56 398.827 2
3 7 -20 559.203 238.577 4
3 7 -19 209.979 204.332 4
3 7 -18 3256.68 469.004 4
-3 -7 -18 3453.28 433.266 1
3 7 -17 793.905 276.893 4
-3 -7 -17 761.962 250.88 1
3 7 -16 2222.56 389.656 4
-3 -7 -16 2412.02 374.093 1
-3 -7 -15 912.765 248.442 1
3 7 -15 927.423 261.64 4
-3 -7 -14 589.144 220.404 1
3 7 -14 342.01 187.148 4
3 7 -13 2905.98 389.703 4
-3 -7 -13 3657.04 425.235 1
-3 -7 -12 1537.12 298.2 1
3 7 -12 1586.98 299.951 4
-3 -7 -11 2984.82 390.681 1
3 7 -11 3549.18 417.518 4
-3 -7 -10 5940.48 522.858 1
-3 -7 -9 6244.68 541.368 1
-3 -7 -8 3421.81 390.983 1
-3 -7 -7 725.69 227.567 1
-3 -7 -6 4544.58 439.28 1
-3 -7 -5 2101.92 312.055 1
-3 -7 -4 3800.91 405.045 1
-3 -7 -3 13112.3 762.086 1
3 7 -3 14161.7 795.238 2
3 7 -2 3593.09 425.443 2
3 7 -1 3087.26 380.254 2
3 7 0 240.975 155.001 2
3 7 1 2248.44 332.194 2
3 7 2 3439.45 419.288 2
3 7 3 13241.5 785.183 2
3 7 4 3844.27 434.373 2
3 7 5 2619.88 357.031 2
3 7 6 4840.01 476.518 2
-3 7 -6 3469.53 285.778 1
3 -7 -6 3453.87 249.03 2
-3 7 -7 538.606 120.133 1
3 7 7 716.408 248.455 2
3 -7 -7 442.014 92.8003 2
3 7 8 4021.99 468.881 2
3 7 9 6637.92 594.133 2
3 7 10 5816.58 551.511 2
3 7 11 3808.25 468.478 2
3 7 12 1750.44 336.091 2
-3 7 -12 1617.86 236.673 4
-3 7 -13 3152.84 333.012 4
3 7 13 2816.06 399.034 2
3 7 14 118.994 179.608 2
-3 7 -14 209.71 119.073 4
-3 7 -15 554.893 160.748 4
3 7 15 705.925 241.444 2
-3 7 -16 2049.79 284.878 4
3 7 16 2098.04 384.493 2
3 7 17 790.817 273.017 2
3 7 18 3827.72 517.862 2
3 7 19 160.713 203.709 2
3 7 20 225.111 198.662 2
3 7 21 862.887 305.93 2
3 7 22 222.799 237.18 2
3 8 -19 337.865 227.584 4
3 8 -18 87.6964 149.017 4
-3 -8 -18 373.313 209.879 1
3 8 -17 954.64 296.361 4
-3 -8 -17 1241.52 288.216 1
-3 -8 -16 3137.15 419.61 1
3 8 -16 2820.63 429.73 4
-3 -8 -15 859.898 270.921 1
3 8 -15 1015.68 273.446 4
-3 -8 -14 1178.9 296.268 1
3 8 -14 1028.95 274.042 4
3 8 -13 3612.53 463.519 4
-3 -8 -13 4017.92 460.041 1
3 8 -12 1018.54 259.583 4
-3 -8 -12 1028.21 268.009 1
-3 -8 -11 791.462 218.492 1
-3 -8 -10 8957.97 667.637 1
-3 -8 -9 8806.3 668.492 1
-3 -8 -8 12998.7 807.658 1
-3 -8 -7 5288.03 516.159 1
-3 -8 -6 6239.29 537.569 1
-3 -8 -5 5241.61 497.873 1
-3 -8 -4 1803.35 305.861 1
-3 -8 -3 2813.1 371.093 1
-3 -8 -2 1132.94 260.027 1
3 8 -2 998.795 260.247 2
3 8 -1 9061.65 675.721 2
-3 -8 -1 8730.16 648.359 1
3 8 0 9433.88 683.814 2
3 8 1 8539 650.78 2
3 8 2 1156.82 259.095 2
3 8 3 3090.7 390.23 2
3 8 4 1617.41 298.774 2
3 8 5 6208.67 565.155 2
3 8 6 6555.88 584.224 2
3 8 7 5092.33 535.947 2
3 8 8 12968.5 851.635 2
3 8 9 8275.31 690.204 2
3 8 10 9115.45 716.042 2
3 8 11 757.926 266.333 2
3 8 12 1202.52 313.189 2
-3 8 -13 3632.77 365.264 4
3 8 13 4000.56 507.987 2
-3 8 -14 880.617 200.01 4
3 8 14 1152.64 307.763 2
-3 8 -15 622.465 193.14 4
3 8 15 1017.56 299.172 2
3 8 16 2313.72 411.265 2
3 8 17 1288.56 337.262 2
3 8 18 448.993 275.805 2
3 8 19 719.053 276.89 2
3 8 20 376.083 261.424 2
3 8 21 1115.01 337.882 2
3 8 22 778.552 321.902 2
-3 -9 -18 496.047 239.545 1
3 9 -18 716.949 258.437 4
3 9 -17 955.374 295.881 4
-3 -9 -17 896.213 265.291 1
-3 -9 -16 650.494 237.52 1
3 9 -16 166.971 159.607 4
-3 -9 -15 1223.45 311.066 1
3 9 -15 1564.01 344.583 4
-3 -9 -14 871.288 281.519 1
3 9 -14 558.759 216.423 4
3 9 -13 773.595 248.187 4
-3 -9 -13 586.767 205.804 1
-3 -9 -12 671.227 249.002 1
-3 -9 -11 6879.62 622.68 1
-3 -9 -10 624.539 220.67 1
-3 -9 -9 245.367 174.798 1
-3 -9 -8 2114.57 347.77 1
-3 -9 -7 1042.35 246.649 1
-3 -9 -6 7028.85 622.05 1
-3 -9 -5 4084.93 465.24 1
-3 -9 -4 4068.02 465.706 1
-3 -9 -3 4402.99 470.87 1
-3 -9 -2 894.642 267.983 1
-3 -9 -1 26141.5 1215.29 1
-3 -9 0 460.546 255.447 1
3 9 0 481.859 253.943 2
3 9 1 28043.9 1281.11 2
3 9 2 773.935 265.967 2
3 9 3 4067.38 493.068 2
3 9 4 3913.28 463.115 2
3 9 5 4200.57 506.505 2
3 9 6 7489.55 645.489 2
3 9 7 832.781 243.086 2
3 9 8 2285.25 386.879 2
3 9 9 247.798 200.785 2
3 9 10 519.594 239.832 2
3 9 11 7640.7 698.301 2
3 9 12 442.658 256.319 2
3 9 13 871.461 266.42 2
-3 9 -14 716.449 199.663 4
3 9 14 1070.59 318.356 2
-3 9 -15 1419.88 269.367 4
3 9 15 1239.88 339.576 2
3 9 16 461.816 243.866 2
3 9 17 656.496 277.086 2
3 9 18 1347.56 360.704 2
3 9 19 685.546 275.788 2
3 9 20 179.093 236.307 2
3 9 21 832.458 288.823 2
-3 -10 -19 543.21 240.779 1
-3 -10 -18 684.966 288.642 1
3 10 -17 1059.5 337.047 4
-3 -10 -17 463.095 257.384 1
-3 -10 -16 2251.46 398.284 1
3 10 -16 1794.21 373.506 4
-3 -10 -15 556.122 256.956 1
3 10 -15 975.345 297.098 4
-3 -10 -14 3723.06 509.338 1
3 10 -14 3415.68 485.528 4
-3 -10 -13 3364.18 478.877 1
-3 -10 -12 3154.2 470.266 1
-3 -10 -11 617.624 235.443 1
-3 -10 -10 5934.17 607.144 1
-3 -10 -9 389.77 182.292 1
-3 -10 -8 2525.3 388.673 1
-3 -10 -7 884.375 272.54 1
-3 -10 -6 477.768 268.022 1
-3 -10 -5 6682.23 631.242 1
-3 -10 -4 188.152 148.596 1
-3 -10 -3 948.365 272.838 1
-3 -10 -2 5113.49 537.361 1
-3 -10 -1 8526.32 698.534 1
-3 -10 0 19419.2 1082.02 1
-3 -10 1 8007.61 679.282 1
3 10 1 8893.5 733.462 2
-3 -10 2 4595.52 512.372 1
3 10 2 5751.13 590.148 2
3 10 3 846.779 273.619 2
3 10 4 95.1308 145.898 2
3 10 5 7146 657.96 2
3 10 6 780.934 252.362 2
3 10 7 536.951 230.892 2
3 10 8 2386.43 393.636 2
3 10 9 479.875 238.677 2
3 10 10 5994.92 614.724 2
3 10 11 684.52 278.755 2
3 10 12 2580.9 443.497 2
3 10 13 3493.18 506.546 2
-3 10 -14 4000.44 434.42 4
3 10 14 3244.96 492.574 2
3 10 15 517.23 255.008 2
3 10 16 1409.85 370.926 2
3 10 17 842.264 318.942 2
3 10 18 890.358 312.202 2
3 10 19 32.3775 176.216 2
3 10 20 -57.2986 181.697 2
-3 -11 -19 308.259 240.239 1
-3 -11 -18 267.577 229.432 1
-3 -11 -17 1449 376.383 1
-3 -11 -16 229.406 242.421 1
-3 -11 -15 203.084 224.41 1
3 11 -15 355.723 273.742 4
-3 -11 -14 415.252 207.608 1
3 11 -14 586.785 248.641 4
-3 -11 -13 1965.06 396.372 1
-3 -11 -12 540.258 257.303 1
-3 -11 -11 993.829 288.157 1
-3 -11 -10 617.812 251.898 1
-3 -11 -9 360.43 237.355 1
-3 -11 -8 635.685 251.325 1
-3 -11 -7 1828.57 356.917 1
-3 -11 -6 196.432 192.899 1
-3 -11 -5 2525.04 413.385 1
-3 -11 -4 1047.92 298.616 1
-3 -11 -3 7307.05 672.066 1
-3 -11 -2 1487.41 324.276 1
-3 -11 -1 1512.59 309.162 1
-3 -11 0 1012.68 302.161 1
-3 -11 1 1007.4 297.66 1
-3 -11 2 1318.08 313.167 1
3 11 2 1715.49 356.205 2
-3 -11 3 6774.47 654.647 1
3 11 3 6282.7 628.832 2
-3 -11 4 1196.56 320.757 1
3 11 4 1036.42 302.085 2
3 11 5 2520.08 425.174 2
-3 -11 5 1714.89 354.513 1
3 11 6 802.299 283.488 2
3 11 7 1873.55 366.621 2
3 11 8 952.535 295.954 2
3 11 9 560.781 245.924 2
3 11 10 662.455 273.988 2
3 11 11 1413.54 349.002 2
3 11 12 705.081 293.086 2
3 11 13 1464.03 340.409 2
3 11 14 221.18 207.111 2
3 11 15 365.741 262.931 2
3 11 16 189.48 195.463 2
3 11 17 1457.81 365.589 2
3 11 18 -126.571 178.869 2
3 11 19 388.409 236.077 2
-3 -12 -16 856.854 310.082 1
-3 -12 -15 939.478 315.888 1
-3 -12 -14 3044.12 503.955 1
-3 -12 -13 2766.77 479.445 1
-3 -12 -12 2598.89 463.194 1
-3 -12 -11 301.945 237.207 1
-3 -12 -10 813.517 295.054 1
-3 -12 -9 763.536 311.513 1
-3 -12 -8 2665.62 470.486 1
-3 -12 -7 337.835 243.803 1
-3 -12 -6 734.413 255.43 1
-3 -12 -5 462.293 235.824 1
-3 -12 -4 1082.7 287.561 1
-3 -12 -3 906.688 281.652 1
-3 -12 -2 6917.71 687.7 1
-3 -12 -1 339.279 188.752 1
-3 -12 0 2421.93 437.094 1
-3 -12 1 732.787 288.204 1
-3 -12 2 6746.87 676.347 1
-3 -12 3 879.992 296.329 1
-3 -12 4 1125.7 305.142 1
3 12 4 1424.37 363.513 2
-3 -12 5 631.576 263.835 1
3 12 5 301.312 183.331 2
-3 -12 6 280.248 217.156 1
3 12 6 568.087 258.093 2
-3 -12 7 319.16 207.042 1
3 12 7 458.004 255.176 2
3 12 8 2914.26 480.672 2
-3 -12 8 2134.78 411.078 1
3 12 9 454.893 211.871 2
3 12 10 1264.33 315.42 2
3 12 11 691.741 314.58 2
3 12 12 2470.29 476.873 2
3 12 13 2301.16 447.966 2
3 12 14 2831.92 490.654 2
3 12 15 938.101 364.725 2
3 12 16 1058.67 352.401 2
3 12 17 -66.0375 184.216 2
-3 -13 -13 2974.29 516.916 1
-3 -13 -12 286.283 215.124 1
-3 -13 -11 226.346 256.448 1
-3 -13 -10 382.523 231.44 1
-3 -13 -9 -5.01286 201.054 1
-3 -13 -8 885.674 309.056 1
-3 -13 -7 2669.52 451.71 1
-3 -13 -6 175.123 192.987 1
-3 -13 -5 1696.71 378.68 1
-3 -13 -4 1834.66 405.125 1
-3 -13 -3 2081.1 412.092 1
-3 -13 -2 1302.62 345.657 1
-3 -13 -1 1099.38 314.384 1
-3 -13 0 1250.55 341.75 1
-3 -13 1 538.5 250.248 1
-3 -13 2 1211.44 325.919 1
-3 -13 3 2121.93 401.701 1
-3 -13 4 1421.62 365.967 1
-3 -13 5 1909.86 408.528 1
-3 -13 6 261.671 233.765 1
-3 -13 7 2516.23 449.929 1
3 13 7 2684.14 478.345 2
-3 -13 8 842.587 279.657 1
3 13 8 663.953 291.871 2
-3 -13 9 284.126 206.124 1
3 13 9 1095.88 348.168 2
-3 -13 10 272.893 226.264 1
3 13 10 556.137 252.811 2
-3 -13 11 474.615 235.128 1
3 13 11 647.741 345.886 2
-3 -13 12 239.691 238.681 1
3 13 12 257.536 220.97 2
3 13 13 2563.66 492.654 2
-3 -13 13 2531.91 487.663 1
3 13 14 470.004 298.637 2
-3 -13 14 326.23 250.675 1
-3 -14 -8 1857.81 430.487 1
-3 -14 -7 413.487 262.625 1
-3 -14 -6 888.093 304.423 1
-3 -14 -5 1077.62 313.227 1
-3 -14 -4 539.096 279.78 1
-3 -14 -3 873.431 307.517 1
-3 -14 -2 3629.88 548.772 1
-3 -14 -1 1127.66 344.235 1
-3 -14 0 3529.94 541.964 1
-3 -14 1 1232.98 354.504 1
-3 -14 2 3884 573.132 1
-3 -14 3 421.785 249.837 1
-3 -14 4 627.11 273.85 1
-3 -14 5 1135.14 366.542 1
-3 -14 6 398.233 217.353 1
-3 -14 7 -257.81 173.716 1
-3 -14 8 1507.76 393.808 1
-3 -14 9 197.191 227.556 1
-3 -14 10 485.86 264.772 1
3 14 10 992.904 342.192 2
-3 -14 11 268.299 261.868 1
-3 -14 12 1317.95 362.421 1
4 0 0 6315.89 424.52 2
4 0 -1 7296.86 332.688 4
4 0 1 7590.8 477.698 2
4 0 -1 7089.03 430.061 2
4 0 -2 16996.1 604.798 4
4 0 2 18581.8 798.95 2
4 0 -2 17475.3 695.867 2
4 0 -3 3046.59 272.112 2
4 0 3 3154.4 329.787 2
4 0 -3 2933.55 236.838 4
4 0 -4 22285.2 776.763 2
4 0 -4 21432.2 778.459 4
4 0 4 23163.7 947.015 2
4 0 5 154.36 125.649 2
4 0 -5 113.864 83.7902 4
4 0 -5 211.27 98.3724 2
4 0 -6 29130.6 890.53 2
4 0 -6 29156.4 1016.15 4
4 0 6 30783.7 1168.75 2
4 0 7 176.639 146.274 2
4 0 -7 317.369 114.112 4
4 0 -7 400.556 106.058 2
4 0 -8 36964.2 1246.93 4
4 0 -8 35861.4 1043.22 3
-4 0 8 34557.8 954.557 2
4 0 8 38675.7 1383.83 2
4 0 9 23.4186 144.613 2
4 0 -9 122.51 133.864 4
4 0 -9 125.714 102.701 3
-4 0 9 37.9718 60.5639 2
-4 0 -10 17520 600.53 1
4 0 -10 16840.9 845.599 4
4 0 -10 17494 732.136 3
4 0 10 16947 914.999 2
-4 0 -11 11050.7 433.656 1
4 0 -11 9807.95 647.713 4
4 0 -11 10205.4 568.379 3
4 0 11 9868.6 704.799 2
4 0 12 468.472 170.727 2
4 0 -12 616.75 213.138 4
-4 0 -12 528.032 94.1965 1
-4 0 -12 353.233 123.605 3
4 0 -12 493.669 144.212 3
4 0 13 158.487 142.822 2
4 0 -13 85.404 118.512 4
-4 0 -13 203.53 108.375 3
4 0 -13 75.7297 107.524 3
4 0 14 149.027 165.991 2
4 0 -14 -6.86638 134.506 4
-4 0 -14 268.328 133.091 3
4 0 -14 -63.2964 111.85 3
4 0 -15 109.865 137.619 4
4 0 15 -62.4157 135.417 2
-4 0 -15 213.917 145.795 3
4 0 -15 -111.785 133.999 3
4 0 16 3622.4 484.135 2
4 0 -16 3612.77 450.141 4
-4 0 -16 3257.66 397.697 3
4 0 -16 3417.1 402.109 3
4 0 17 -19.2265 132.9 2
-4 0 -17 114.498 157.447 3
4 0 -17 139.209 121.87 3
4 0 18 4423.69 555.699 2
-4 0 -18 3679.75 444.878 3
4 0 -18 4480.79 489.97 3
4 0 19 811.968 253.931 2
4 0 -19 826.669 248.176 3
4 0 20 1025.85 313.08 2
4 0 -20 1213.88 307.299 3
4 0 21 35.8834 184.723 2
4 0 22 2524.26 465.216 2
4 1 -23 208.166 198.429 3
4 -1 22 199.048 218.195 2
4 1 -22 316.043 219.299 3
4 -1 21 1432.6 360.774 2
4 1 -21 1499.36 337.342 3
4 -1 20 1028.06 287.724 2
4 1 -20 1398.09 356.509 4
4 1 -20 952.45 251.448 3
4 -1 19 448.709 193.977 2
4 1 -19 364.889 240.846 4
4 1 -19 180.184 152.239 3
4 -1 18 394.956 224.587 2
4 1 -18 -51.6315 171.121 4
4 1 -18 27.1883 156.973 3
4 -1 17 2281.42 388.593 2
4 1 -17 2408.73 399.764 4
4 1 -17 1951.94 321.139 3
4 1 -16 723.243 232.11 4
4 1 -16 751.614 195.646 3
4 -1 16 829.757 266.984 2
4 1 -15 499.732 199.723 4
4 1 -15 411.444 163.532 3
4 -1 15 275.393 166.829 2
4 1 -14 307.057 155.236 4
4 1 -14 336.544 162.005 3
4 -1 14 416.983 184.831 2
4 1 -13 9813.51 684.223 4
4 1 -13 9648.8 600.275 3
4 -1 13 10203.5 737.815 2
-4 -1 -12 7373.38 382.83 1
4 1 -12 6821.25 479.743 3
4 1 -12 6595.6 544.283 4
4 -1 12 6694.23 589.711 2
-4 -1 -11 14243.2 568.241 1
4 1 -11 12639.3 737.158 4
4 1 -11 12733.2 639.96 3
4 -1 11 13153.2 818.256 2
-4 -1 -10 2319.19 230.384 1
4 1 -10 1622.49 252.861 4
4 1 -10 2111.94 240.596 3
4 -1 10 1912.82 312.874 2
-4 -1 -9 5497.92 351.218 1
4 1 -9 4736.38 408.555 4
4 1 -9 5011.65 347.771 3
4 -1 9 5669.11 500.527 2
4 1 -8 3223.69 322.414 4
4 1 -8 2810.29 241.931 3
4 -1 8 3508.77 390.418 2
4 1 -7 5101.11 341.595 2
4 1 -7 5520.49 408.464 4
4 1 -7 4860.06 301.463 3
4 -1 7 5205.68 456.848 2
4 1 -6 4416 322.598 2
4 1 -6 4107.14 338.34 4
4 1 -6 4273.53 256.843 3
4 -1 6 4414.08 409.482 2
4 -1 5 1488.25 241.169 2
4 1 -5 1318.79 197.064 4
4 1 -5 1458.38 198.538 2
4 1 -5 1274.82 125.835 3
4 -1 4 1256.11 211.01 2
4 1 -4 1246.22 173.761 4
4 1 -4 1092.24 103.942 3
4 1 -4 1148.29 192.414 2
4 1 -3 22200.1 828.072 2
4 1 -3 21463.4 748.571 4
4 -1 3 21961.3 899.783 2
4 1 -2 41617.4 1245.04 2
4 1 -2 39214.1 1082.55 4
4 -1 2 40361.2 1284.16 2
4 1 -1 7766.51 362.004 4
4 -1 1 7821.3 477.941 2
4 1 -1 7942.68 484.426 2
4 1 0 44746.7 1086.18 4
4 -1 0 45266.3 1324.82 2
4 1 0 44720.5 1361.24 2
4 1 1 8125.12 315.426 4
4 -1 -1 8433.97 466.379 2
4 1 1 8452.89 519.119 2
4 1 2 38870.4 886.622 4
4 -1 -2 39354.9 1147.73 2
4 1 2 41191.7 1308.6 2
4 1 3 18381.4 460.882 4
4 1 3 21821.5 895.242 2
4 -1 -3 20845.4 714.949 2
4 1 4 1263.32 239.365 2
4 -1 -4 1179.58 156.598 2
4 1 5 1365.88 245.716 2
4 -1 -5 1428.9 165.085 2
-4 1 -5 1260.65 121.042 3
4 -1 -6 4226.53 261.669 2
-4 1 -6 4059.19 242.935 3
-4 -1 6 4284.94 304.126 2
4 1 6 4527.39 421.354 2
4 -1 -7 4701.43 259.681 2
-4 1 -7 4663.56 288.187 3
-4 -1 7 4794.5 322.374 2
4 1 7 5033.15 466.284 2
4 1 8 3626.84 394.765 2
4 1 8 1893.25 113.328 4
-4 1 -8 2722.55 234.26 3
-4 -1 8 3235.61 254.467 2
4 1 9 3766.54 182.084 4
4 1 9 5286.8 481.575 2
-4 -1 9 4922.48 304.001 2
-4 1 -10 1787.27 146.517 1
4 1 10 2482.45 359.328 2
-4 1 -11 9221.11 321.108 1
4 1 11 13100.8 802.46 2
-4 1 -12 6219.39 445.916 3
4 1 12 7169.88 606.932 2
-4 1 -13 9471.55 584.568 3
4 1 13 10744.2 755.566 2
4 1 14 407.873 216.843 2
-4 1 -14 312.379 159.266 3
4 1 15 627.851 241.836 2
-4 1 -15 378.627 147.97 3
4 1 16 972.686 274.181 2
-4 1 -16 812.129 210.428 3
4 1 17 2326.51 396.768 2
-4 1 -17 1623.81 286.581 3
4 1 18 248.6 189.322 2
-4 1 -18 198.348 144.138 3
4 1 19 352.193 237.945 2
-4 1 -19 247.593 151.84 3
4 1 20 1433.98 355.462 2
-4 1 -20 1155.64 292.851 3
4 1 21 1311.95 344.202 2
-4 1 -21 1352.29 319.204 3
4 1 22 76.6507 236.108 2
-4 1 -22 221.754 170.739 3
-4 1 -23 240.856 211.363 3
4 2 -23 69.2744 166.841 3
4 2 -22 1801.35 379.648 3
4 2 -21 1147.75 341.888 4
4 2 -21 1369.73 317.302 3
4 -2 21 1012.55 306.187 2
4 2 -20 1396.65 343.857 4
4 2 -20 822.914 246.566 3
4 -2 20 819.577 248.633 2
4 2 -19 498.681 260.055 4
4 2 -19 435.863 203.598 3
4 2 -18 3966.83 525.168 4
4 2 -18 4219.65 476.747 3
4 2 -17 683.903 242.32 4
4 2 -17 862.218 244.248 3
4 2 -16 2288.56 358.232 4
4 2 -16 1879.17 307.914 3
4 2 -15 201.086 169.25 4
4 2 -15 97.3402 143.333 3
4 2 -14 556.67 201.862 4
4 2 -14 396.033 156.91 3
-4 -2 -13 4900.02 343.788 1
4 2 -13 4310.82 468.425 4
4 2 -13 3987.71 385.774 3
-4 -2 -12 1753.2 216.37 1
4 2 -12 1169.99 232.896 4
4 2 -12 1626.06 253.359 3
-4 -2 -11 6885.34 419.096 1
4 2 -11 5999.22 510.379 4
4 2 -11 6340.13 444.379 3
-4 -2 -10 4457.06 344.023 1
4 2 -10 4162.41 412.938 4
4 2 -10 4038.73 334.492 3
-4 -2 -9 7374.67 445.183 1
4 2 -9 6871.73 510.518 4
4 2 -9 6693.48 417.56 3
4 2 -8 13649.1 701.398 4
4 2 -8 13466.4 583.915 3
4 2 -7 5865.11 396.617 2
4 2 -7 5278.91 416.736 4
4 2 -6 21979.2 830.67 2
4 2 -6 21833.7 867.814 4
4 2 -5 6958.64 444.783 2
4 2 -5 6768.37 431.682 4
4 2 -4 13629.3 640.202 2
4 2 -4 12860.2 588.489 4
4 2 -3 17238.3 742.854 2
4 2 -3 16753.6 654.205 4
-4 2 3 15304.7 596.168 4
4 -2 3 16018.7 753.625 2
4 2 -2 4355.83 363.675 2
4 2 -2 3646.45 273.978 4
-4 2 2 3490.52 242.87 4
4 -2 2 3696.53 333.238 2
4 2 -1 6572.62 461.432 2
-4 2 1 5382.34 279.807 4
4 2 -1 5810.29 333.173 4
4 -2 1 6007.38 411.491 2
4 -2 0 31.7759 102.268 2
4 2 0 75.1479 103.946 2
4 2 0 40.9701 69.4704 4
-4 2 0 90.841 40.831 4
4 2 1 3875.38 162.428 3
4 -2 -1 5911.89 370.897 2
4 2 1 6051.82 439.795 2
4 -2 -2 3777.64 292.846 2
4 2 2 3815.36 365.273 2
4 -2 -3 16295.1 616.121 2
4 2 3 16817 798.676 2
4 2 4 13189.8 720.721 2
4 -2 -4 12538.3 502.782 2
4 2 5 6620.78 514.272 2
4 -2 -5 6305.52 320.326 2
4 -2 -6 19476.7 611.749 2
-4 2 -6 21280.7 669.254 3
4 2 6 23082.1 995.673 2
4 -2 -7 4058.53 211.362 2
-4 2 -7 4939.86 304.085 3
4 2 7 5410.99 480.294 2
4 2 8 13195.7 433.77 4
-4 2 -8 8632.26 468.253 3
4 2 8 14641.7 807.679 2
4 2 9 7069.23 571.235 2
-4 2 -10 2092.65 116.002 1
4 2 10 4107.34 451.366 2
4 2 11 7294.06 615.931 2
4 2 12 1767.2 338.947 2
-4 2 -12 1603.08 238.141 3
4 2 13 4636.3 503.083 2
-4 2 -13 3989.29 377.639 3
4 2 14 569.036 248.035 2
-4 2 -14 266.159 132.721 3
4 2 15 397.368 223.001 2
-4 2 -15 266.417 156.447 3
4 2 16 3008.3 446.693 2
-4 2 -16 2497.69 340.661 3
4 2 17 1613.8 366.838 2
-4 2 -17 740.831 220.989 3
4 2 18 4074.24 525.869 2
-4 2 -18 4175.23 465.758 3
4 2 19 584.459 243.716 2
-4 2 -19 514.073 201.595 3
4 2 20 1293.5 348.933 2
-4 2 -20 848.164 245.966 3
4 2 21 1406.36 350.354 2
-4 2 -21 815.243 263.485 3
4 2 22 2100.38 426.56 2
-4 2 -22 1218.23 310.283 3
-4 2 -23 2.67279 166.248 3
4 3 -23 247.631 175.731 3
4 3 -22 594.753 273.049 3
4 3 -21 402.007 222.498 4
4 3 -21 302.409 187.206 3
4 3 -20 79.8226 189.36 4
4 3 -20 -69.8693 161.658 3
4 3 -19 584.99 214.097 3
4 3 -19 658.268 234.393 4
4 3 -18 577.219 247.568 4
4 3 -18 401.165 193.817 3
4 3 -17 2095.16 358.845 4
4 3 -17 2585.89 362.696 3
4 3 -16 107.36 140.2 4
4 3 -16 418.695 184.737 3
4 3 -15 -137.058 151.378 4
4 3 -15 277.247 163.041 3
4 3 -14 7018.47 609.062 4
-4 -3 -14 7325.41 468.704 1
4 3 -14 6233.49 511.792 3
-4 -3 -13 8632.07 509.33 1
4 3 -13 7771.56 624.796 4
4 3 -13 7582.35 548.713 3
-4 -3 -12 8110.62 491.41 1
4 3 -12 7253.4 596.089 4
-4 -3 -11 16670.1 737.268 1
4 3 -11 14516.5 831.785 4
4 3 -10 223.755 123.534 4
-4 -3 -10 637.547 156.915 1
-4 -3 -9 4917.32 382.07 1
4 3 -9 3623.76 377.324 4
-4 -3 -8 5202.51 400.857 1
4 3 -8 4151.36 389.652 4
4 3 -7 402.207 154.853 4
4 3 -6 22451.6 877.998 2
4 3 -6 21280.2 870.668 4
-4 3 6 20054.7 700.56 3
4 3 -5 9451.58 555.696 2
4 3 -5 9148.85 522.283 4
-4 3 5 8383.02 390.727 3
4 3 -4 7504.95 498.847 2
4 3 -4 6671.98 431.627 4
-4 3 4 6657.62 317.302 3
4 3 -3 19202.8 822.311 2
-4 3 3 15959.3 629.469 4
4 3 -3 16779.6 684.93 4
-4 3 3 16535.4 523.959 3
4 3 -2 6929.44 489.931 2
-4 3 2 5645.79 327.664 4
4 3 -2 6432.78 388.495 4
-4 3 2 5902.61 268.764 3
4 3 -1 26276.8 1015.34 2
-4 3 1 23397.7 721.303 4
4 3 0 21092.4 898.875 2
-4 3 0 18685.7 580.309 4
4 3 1 26690.6 1040.18 2
-4 3 -1 23585.5 636.552 4
4 -3 -1 23818 847.884 2
-4 3 -2 5241.38 214.462 4
4 -3 -2 6353.51 370.101 2
4 3 2 6263.16 488.19 2
4 3 3 16927.4 547.281 3
4 -3 -3 17120.4 631.088 2
4 3 3 18723.6 866.587 2
4 3 4 6563.14 324.483 3
4 -3 -4 6910.5 353.739 2
4 3 4 7011.09 527.106 2
4 3 5 7892.64 383.541 3
4 -3 -5 8030.96 354.054 2
4 3 5 8792.91 602.048 2
4 3 6 19591.7 682.236 3
4 3 6 22523.3 1000.63 2
4 -3 -6 16522.3 525.221 2
4 3 7 547.805 190.33 2
4 -3 -7 285.715 51.8952 2
-4 3 -8 3377.53 206.011 1
4 3 8 5198.97 478.802 2
-4 3 -9 2445.83 137.686 1
4 3 9 4825.84 475.754 2
4 3 10 804.161 248.562 2
4 3 11 15102.8 896.192 2
-4 3 -12 7076.99 496.249 3
4 3 12 8424.14 675.11 2
-4 3 -13 7673.01 539.892 3
4 3 13 7786.18 665.753 2
-4 3 -14 7194.87 542.085 3
4 3 14 8022.72 679.346 2
4 3 15 546.821 235.342 2
-4 3 -15 257.2 149.822 3
4 3 16 443.484 251.194 2
-4 3 -16 279.236 154.793 3
4 3 17 3132.13 449.42 2
-4 3 -17 2439.98 359.516 3
4 3 18 543.557 232.658 2
-4 3 -18 131.862 126.292 3
4 3 19 776.66 252.033 2
-4 3 -19 337.185 157.047 3
4 3 20 -64.6701 185.611 2
-4 3 -20 500 196.42 3
4 3 21 709.452 277.883 2
-4 3 -21 611.612 242.72 3
4 3 22 984.159 334.105 2
-4 3 -22 277.783 206.89 3
-4 3 -23 203.13 155.383 3
4 4 -23 223.117 170.171 3
4 4 -22 544.635 243.105 3
4 4 -21 1006.61 281.06 3
4 4 -20 248.957 211.133 4
4 4 -20 13.6591 147.672 3
4 4 -19 -136.468 142.965 4
4 4 -19 32.9613 132.524 3
4 4 -18 1976.59 371.163 4
4 4 -18 1789.37 337.644 3
4 4 -17 3278.21 471.644 4
4 4 -17 3374.05 415.174 3
4 4 -16 4781.47 531.993 4
4 4 -16 4788.76 488.924 3
4 4 -15 701.693 241.967 4
4 4 -14 1581.97 313.193 4
-4 -4 -14 1944.23 271.705 1
-4 -4 -13 4867.16 412.531 1
4 4 -13 4785.05 504.958 4
-4 -4 -12 3952.96 371.789 1
4 4 -12 3734.11 426.458 4
-4 -4 -11 1003.36 209.982 1
4 4 -11 983.006 237.614 4
-4 -4 -10 606.264 168.992 1
4 4 -10 655.764 194.894 4
4 4 -9 1861.57 280.201 4
-4 -4 -9 2306.33 294.028 1
-4 -4 -8 8586 551.245 1
4 4 -8 8257 571.181 4
4 4 -7 49215.1 1577.42 4
-4 -4 -7 52560 1590.42 1
4 4 -6 16764.7 790.419 2
4 4 -6 15549.9 752.359 4
4 4 -5 2140.17 263.652 4
-4 4 5 1683.45 184.59 3
4 4 -5 2475.77 302.915 2
4 4 -4 10802.2 632.931 2
-4 4 4 10000.9 450.963 3
4 4 -3 10555.4 624.905 2
4 4 -2 8994.32 578.351 2
-4 4 2 8168.52 424.92 4
-4 4 1 320.766 94.3499 4
4 4 -1 450.997 169.605 2
-4 4 0 94.9826 71.9359 4
4 4 0 -37.8935 147.359 2
-4 4 -1 326.692 78.3436 4
4 4 1 638.702 188.555 2
4 4 2 9282.75 609.471 2
-4 4 -2 8394.64 345.49 4
4 4 3 10661.3 672.311 2
4 -4 -3 8699.31 432.681 2
4 4 4 10284.2 666.896 2
4 4 4 9545.45 448.35 3
4 -4 -4 9865.63 431.457 2
4 4 5 2290.62 317.914 2
4 4 5 1840.44 197.671 3
-4 4 -5 1782.18 199.366 1
4 -4 -5 1803.24 163.218 2
-4 4 -6 13065.9 354.083 4
-4 4 -6 12624.4 515.263 1
4 -4 -6 11773.6 411.612 2
4 4 6 17046 877.321 2
-4 4 -7 39092.8 906.305 1
-4 4 -7 39263 713.746 4
-4 4 -8 6479.12 239.163 4
-4 4 -8 5753.21 278.944 1
4 4 8 8681.83 638.298 2
-4 4 -9 1592.8 120.595 4
4 4 9 1835.48 315.952 2
-4 4 -10 598.485 85.4984 4
4 4 10 513.48 221.156 2
4 4 11 881.758 256.134 2
4 4 12 4109.99 484.48 2
4 4 13 4236.33 501.42 2
4 4 14 1833.15 356.758 2
4 4 15 1279.28 324.156 2
-4 4 -15 523.922 172.778 3
-4 4 -16 5470.37 510.965 3
4 4 16 6540.76 658.729 2
4 4 17 4728.09 565.509 2
-4 4 -17 2983.79 390.954 3
4 4 18 2561.88 445.796 2
-4 4 -18 1807.9 323.951 3
4 4 19 535.288 246.95 2
-4 4 -19 56.0889 128.103 3
4 4 20 300.072 181.578 2
-4 4 -20 107.055 159.244 3
4 4 21 1415.93 375.898 2
-4 4 -21 1280.54 316.599 3
4 4 22 488.491 279.881 2
-4 4 -22 419.872 195.509 3
-4 4 -23 407.903 239.891 3
4 5 -22 1475.16 370.468 3
4 5 -21 181.699 172.982 3
4 5 -20 -32.3408 176.356 4
4 5 -20 82.4614 167.314 3
4 5 -19 432.848 264.279 4
4 5 -19 240.027 183.113 3
4 5 -18 801.795 274.057 4
4 5 -18 391.263 194.917 3
4 5 -17 1425.18 331.468 4
4 5 -16 785.62 302.348 4
-4 -5 -15 287.733 162.626 1
4 5 -15 -35.8599 166.427 4
4 5 -14 791.366 225.443 4
-4 -5 -14 845.377 212.204 1
-4 -5 -13 7178.62 533.804 1
4 5 -13 6652.68 596.115 4
-4 -5 -12 14785.1 778.263 1
4 5 -12 13764.5 845.798 4
-4 -5 -11 302.761 162.152 1
4 5 -11 -74.0943 154.266 4
-4 -5 -10 2060.04 299.912 1
4 5 -10 2266.84 323.397 4
4 5 -9 519.942 173.018 4
-4 -5 -9 748.474 205.395 1
-4 -5 -8 5178.24 452.434 1
4 5 -8 4801.28 444.144 4
4 5 -7 3234.46 375.388 4
-4 -5 -7 3668.57 387.579 1
4 5 -5 22874.6 1001.64 2
4 5 -4 17797.8 868.202 2
4 5 -3 10827.7 668.589 2
4 5 -2 17090.8 871.747 2
4 5 -1 4296.32 424.299 2
4 5 0 33.3482 142.792 2
4 5 1 5075.74 486.142 2
4 5 2 17930.3 922.007 2
4 5 3 10667.1 709.781 2
4 5 4 17059.6 905.572 2
4 5 5 22761.9 1047.25 2
-4 5 -5 17077.4 678.293 1
4 -5 -5 17781.9 600.766 2
4 5 6 12228.9 762.646 2
-4 5 -6 8747.85 433.113 1
4 -5 -6 8648.35 347.368 2
4 5 7 3341.99 414.649 2
4 -5 -7 1399.8 99.153 2
-4 5 -8 5226.73 265.034 4
4 5 8 5790.2 545.221 2
4 5 9 453.988 198.738 2
-4 5 -9 561.946 96.0012 4
-4 5 -10 2005.89 172.246 4
4 5 10 2112.48 359.672 2
4 5 11 695.676 225.912 2
4 5 12 14058.2 905.624 2
4 5 13 6506.02 623.88 2
4 5 14 828.841 229.381 2
4 5 15 -56.8097 168.009 2
4 5 16 881.221 274.236 2
4 5 17 1481.95 336.948 2
4 5 18 548.941 236.857 2
-4 5 -18 693.756 213.206 3
4 5 19 371.138 180.377 2
-4 5 -19 -41.5565 130.703 3
4 5 20 155.599 201.999 2
-4 5 -20 14.01 140.565 3
4 5 21 504.189 222.694 2
-4 5 -21 171.617 179.496 3
-4 5 -22 1409.72 330.659 3
4 6 -22 -18.951 183.925 3
4 6 -21 113.512 145.371 3
4 6 -20 257.713 190.498 3
4 6 -19 1092.31 288.559 4
4 6 -18 1465.33 349.642 4
4 6 -17 7342.22 706.202 4
4 6 -16 1325.96 327.236 4
4 6 -15 156.019 146.244 4
-4 -6 -15 624.755 216.51 1
4 6 -14 137.255 181.259 4
-4 -6 -14 249.022 172.462 1
4 6 -13 137.249 161.234 4
-4 -6 -13 261.785 171.254 1
-4 -6 -12 548.828 203.393 1
4 6 -12 205.788 153.509 4
-4 -6 -11 3221.9 385.765 1
4 6 -11 3241.1 404.896 4
-4 -6 -10 1914.07 304.275 1
4 6 -10 1466.78 278.343 4
-4 -6 -9 294.274 171.319 1
4 6 -9 273.825 157.49 4
-4 -6 -8 6552.4 533.845 1
4 6 -8 5757.84 503.681 4
-4 -6 -7 19613.4 962.628 1
-4 -6 -6 804.806 224.192 1
4 6 -5 611.548 209.137 2
4 6 -4 3174.14 389.023 2
4 6 -3 18926.4 955.876 2
4 6 -2 4355.42 443.021 2
4 6 -1 2894.82 375.165 2
4 6 0 4274.56 449.574 2
4 6 1 2459.51 366.092 2
4 6 2 4784.47 488.906 2
4 6 3 18303.1 982.476 2
4 6 4 2623.87 381.253 2
4 6 5 153.057 161.611 2
4 6 6 486.213 221.792 2
4 6 7 19524.2 1036.17 2
4 6 8 6194.54 583.189 2
4 6 9 249.07 150.853 2
-4 6 -9 250.986 90.3558 4
4 6 10 1730.42 332.617 2
4 6 11 3438.01 461.413 2
4 6 12 269.868 161.542 2
4 6 13 -50.2884 132.821 2
4 6 14 290.82 207.074 2
4 6 15 193.693 214.603 2
4 6 16 1411.51 326.529 2
4 6 17 7600.8 724.549 2
4 6 18 1096.25 290.684 2
4 6 19 867.164 288.304 2
-4 6 -19 667.877 246.898 3
4 6 20 30.341 160.958 2
-4 6 -20 -98.0924 137.828 3
4 6 21 321.054 252.935 2
-4 6 -21 213.663 204.172 3
-4 6 -22 213.061 213.336 3
4 7 -18 980.768 300.258 4
4 7 -17 575.517 262.051 4
-4 -7 -16 1337.81 284.377 1
4 7 -16 1519.42 347.309 4
4 7 -15 1185.52 321.234 4
-4 -7 -15 1423.47 304.688 1
4 7 -14 1918.49 358.413 4
-4 -7 -14 1926.41 334.162 1
4 7 -13 753.743 282.624 4
-4 -7 -13 1507.41 299.93 1
-4 -7 -12 4923.84 497.186 1
4 7 -12 3531.18 458.636 4
-4 -7 -11 1374.51 275.596 1
4 7 -11 1567.86 299.887 4
-4 -7 -10 2763.59 376.298 1
4 7 -10 2306.46 366.913 4
-4 -7 -9 1862.6 316.224 1
4 7 -9 1202.62 271.915 4
-4 -7 -8 4728.15 478.893 1
-4 -7 -7 8838.75 658.14 1
-4 -7 -6 156.607 151.925 1
-4 -7 -5 6314.4 555.747 1
4 7 -4 13632 823.608 2
4 7 -3 12422 792.66 2
4 7 -2 11389.6 755.843 2
4 7 -1 1819.64 329.861 2
4 7 0 9419.87 690.393 2
4 7 1 1347.5 291.239 2
4 7 2 11544.4 784.673 2
4 7 3 12061.8 810.062 2
4 7 4 13000.7 840.023 2
4 7 5 7553.65 662.458 2
4 7 6 683.967 273.385 2
4 7 7 9458.83 743.188 2
4 7 8 5101.31 551.39 2
4 7 9 2009.97 359.909 2
4 7 10 2350.2 413.424 2
4 7 11 1345.51 322.776 2
4 7 12 4703.47 551.529 2
4 7 13 1808.1 365.458 2
4 7 14 2341.19 415.42 2
4 7 15 1445.9 327.888 2
4 7 16 2098.72 400.284 2
4 7 17 686.679 260.712 2
4 7 18 1509.2 382.848 2
4 7 19 604.461 300.562 2
4 7 20 64.1198 199.065 2
-4 7 -21 41.4836 148.57 3
4 8 -17 2183.72 410.013 4
-4 -8 -16 -210.296 154.834 1
4 8 -16 337.538 211.943 4
4 8 -15 356.529 191.784 4
-4 -8 -15 863.369 244.834 1
4 8 -14 7.08516 154.969 4
-4 -8 -14 634.966 237.489 1
4 8 -13 472.066 197.691 4
-4 -8 -13 748.625 246.235 1
-4 -8 -12 1065.5 270.082 1
4 8 -12 1132.22 287.988 4
-4 -8 -11 561.133 223.146 1
4 8 -11 194.745 195.182 4
-4 -8 -10 2902.83 400.23 1
4 8 -10 2461.62 377.009 4
-4 -8 -9 2901.17 395.927 1
-4 -8 -8 808.725 242.772 1
-4 -8 -7 16173.2 939.857 1
-4 -8 -6 3398.33 428.522 1
-4 -8 -5 3338.94 426.659 1
-4 -8 -4 1508.09 320.499 1
4 8 -3 7388.97 621.441 2
-4 -8 -3 7129.93 612.724 1
4 8 -2 4652.17 503.017 2
4 8 -1 2847.18 415.528 2
4 8 0 7687.91 654.388 2
4 8 1 3255.87 444.728 2
4 8 2 4332.4 498.919 2
4 8 3 7497.91 650.232 2
4 8 4 1103.21 282.72 2
4 8 5 3614.35 461.618 2
4 8 6 3415.48 472.171 2
4 8 7 16930.1 1035.63 2
4 8 8 1021.86 298.189 2
4 8 9 2404.85 399.364 2
4 8 10 3039.27 448.718 2
4 8 11 289.522 255.508 2
4 8 12 888.468 283.456 2
4 8 13 965.094 287.074 2
4 8 14 509.637 228.922 2
4 8 15 733.553 256.415 2
4 8 16 339.453 243.299 2
4 8 17 2669.71 461.411 2
4 8 18 182.982 225.122 2
4 8 19 372.37 215.988 2
-4 -9 -16 1449.27 317.671 1
4 9 -16 845.431 277.448 4
-4 -9 -15 896.416 264.763 1
4 9 -15 1398.04 336.449 4
4 9 -14 1743.87 367.449 4
-4 -9 -14 2219.21 398.558 1
4 9 -13 2129.66 382.426 4
-4 -9 -13 2354.65 410.026 1
-4 -9 -12 3854.33 480.794 1
4 9 -12 3607.54 503.972 4
-4 -9 -11 287.692 176.781 1
4 9 -11 200.945 172.72 4
-4 -9 -10 1542.69 326.932 1
-4 -9 -9 874.768 252.568 1
-4 -9 -8 490.716 201.253 1
-4 -9 -7 1142.31 285.569 1
-4 -9 -6 521.214 242.76 1
-4 -9 -5 2176.07 375.212 1
-4 -9 -4 1551.75 326.383 1
-4 -9 -3 889.099 278.525 1
-4 -9 -2 13355.6 886.587 1
4 9 -2 13054.5 879.561 2
4 9 -1 8210.61 707.89 2
4 9 0 7156.6 655.477 2
4 9 1 8465.16 713.266 2
4 9 2 13437.8 912.314 2
4 9 3 957.273 261.49 2
4 9 4 1977.68 381.954 2
4 9 5 2246.04 388.231 2
4 9 6 899.785 318.776 2
4 9 7 928.574 298.748 2
4 9 8 540.53 264.113 2
4 9 9 1179.13 318.639 2
4 9 10 1519.12 342.829 2
4 9 11 193.452 202.251 2
4 9 12 4190.58 563.698 2
4 9 13 1480.59 387.161 2
4 9 14 1729.06 387.696 2
4 9 15 1613.64 399.916 2
4 9 16 1676.04 422.829 2
4 9 17 428.025 294.834 2
4 9 18 1147.66 354.743 2
-4 -10 -16 387.352 215.66 1
-4 -10 -15 942.201 290.467 1
4 10 -15 420.744 236.818 4
4 10 -14 970.076 283.568 4
-4 -10 -14 779.724 291.617 1
4 10 -13 868.845 279.093 4
-4 -10 -13 841.411 291.776 1
-4 -10 -12 1030.77 294.664 1
4 10 -12 1097.8 301.084 4
-4 -10 -11 375.376 227.453 1
-4 -10 -10 1379.86 313.097 1
-4 -10 -9 569.519 221.468 1
-4 -10 -8 1591.65 342.168 1
-4 -10 -7 2579.26 430.123 1
-4 -10 -6 447.683 224.77 1
-4 -10 -5 178.501 200.35 1
-4 -10 -4 385.954 229.835 1
-4 -10 -3 4171.89 531.647 1
-4 -10 -2 1896.83 366.617 1
-4 -10 -1 3064.01 461.757 1
4 10 -1 2978.32 443.069 2
4 10 0 4336.2 546.828 2
-4 -10 0 4529.99 545.784 1
4 10 1 3097.3 478.935 2
4 10 2 1677.73 375.495 2
4 10 3 4613.6 567.618 2
4 10 4 329.829 226.647 2
4 10 5 196.326 194.111 2
4 10 6 461.791 246.199 2
4 10 7 2879.42 456.675 2
4 10 8 1468.03 373.333 2
4 10 9 631.42 280.337 2
4 10 10 1418.09 363.939 2
4 10 11 495.548 297.976 2
4 10 12 1666.12 364.902 2
4 10 13 1011.28 333.385 2
4 10 14 594.296 285.236 2
4 10 15 977.357 333.665 2
4 10 16 668.009 284.801 2
-4 -11 -17 485.596 221.329 1
-4 -11 -16 479.385 260.526 1
-4 -11 -15 1114.08 324.406 1
-4 -11 -14 765.812 291.348 1
4 11 -13 892.579 316.856 4
-4 -11 -13 644.327 261.71 1
-4 -11 -12 3614.63 517.462 1
-4 -11 -11 1215.15 321.948 1
-4 -11 -10 596.276 263.642 1
-4 -11 -9 989.273 292.752 1
-4 -11 -8 670.615 261.594 1
-4 -11 -7 1184.13 315.163 1
-4 -11 -6 458.16 248.039 1
-4 -11 -5 828.814 298.685 1
-4 -11 -4 2455.13 414.988 1
-4 -11 -3 1734.58 367.671 1
-4 -11 -2 2784.4 454.176 1
-4 -11 -1 6433.51 658.292 1
-4 -11 0 3035.68 473.622 1
-4 -11 1 6279.34 657.356 1
4 11 1 5905.88 641.783 2
-4 -11 2 2918.46 465.808 1
4 11 2 2550.72 435.485 2
4 11 3 952.205 297.943 2
4 11 4 2363.45 445.779 2
4 11 5 864.943 302.962 2
4 11 6 321.516 252.694 2
4 11 7 426.849 259.619 2
4 11 8 876.048 313.217 2
4 11 9 1019.2 338.98 2
4 11 10 346.501 262.262 2
4 11 11 998.453 347.57 2
4 11 12 3130.74 512.392 2
4 11 13 888.581 384.331 2
4 11 14 387.639 245.323 2
-4 -12 -14 1798.84 413.218 1
-4 -12 -13 618.234 280.35 1
-4 -12 -12 528.489 289.087 1
-4 -12 -11 344.236 271.356 1
-4 -12 -10 309.823 256.532 1
-4 -12 -9 1228.82 344.085 1
-4 -12 -8 1314.76 331.844 1
-4 -12 -7 343.261 233.675 1
-4 -12 -6 1468.57 363.783 1
-4 -12 -5 2043.99 429.079 1
-4 -12 -4 1469.16 344.953 1
-4 -12 -3 337.132 228.027 1
-4 -12 -2 807.655 268.533 1
-4 -12 -1 1390.29 377.042 1
-4 -12 0 545.379 279.693 1
-4 -12 1 915.573 289.023 1
-4 -12 2 805.537 283.96 1
-4 -12 3 379.977 241.368 1
4 12 3 365.06 238.934 2
-4 -12 4 1719.94 399.734 1
4 12 4 1857.52 409.76 2
4 12 5 2012.61 479.758 2
-4 -12 5 2043.67 413.18 1
4 12 6 1945.79 410.769 2
4 12 7 1172.74 340.231 2
4 12 8 964.469 370.34 2
4 12 9 1114.38 363.571 2
4 12 10 639.442 307.491 2
4 12 11 499.712 291.164 2
4 12 12 100.215 295.747 2
-4 -13 -9 821.699 318.921 1
-4 -13 -8 373.07 274.617 1
-4 -13 -7 430.223 257.856 1
-4 -13 -6 282.567 215.893 1
-4 -13 -5 341.459 265.228 1
-4 -13 -4 1228.46 348.022 1
-4 -13 -3 1861.43 429.946 1
-4 -13 -2 873.718 327.898 1
-4 -13 -1 4883.21 618.375 1
-4 -13 0 608.067 298.436 1
-4 -13 1 5166.6 636.226 1
-4 -13 2 1204.11 354.258 1
-4 -13 3 1830.34 427.115 1
-4 -13 4 1765.86 403.299 1
-4 -13 5 280.03 255.819 1
4 13 5 228.422 234.144 2
-4 -13 6 897.414 323.415 1
4 13 6 859.875 349.435 2
-4 -13 7 853.206 306.46 1
4 13 7 -3.69115 192.15 2
4 13 8 1044.7 343.578 2
-4 -13 8 491.503 302.966 1
-4 -13 9 932.797 369.815 1
5 0 0 -154.528 125.25 2
5 0 1 1096.76 216.512 2
5 0 -1 475.214 165.322 2
5 0 2 34640 1280.15 2
5 0 -2 36082.4 1208.44 2
5 0 3 2760.69 348.367 2
5 0 -3 2392.95 283.575 2
5 0 -4 5179.37 397.301 2
5 0 4 5357.6 485.895 2
5 0 -5 1180.36 194.709 4
5 0 5 1195.4 249.535 2
5 0 -5 1323.63 199.638 2
5 0 6 2504.45 353.005 2
5 0 -6 2138 258.468 4
5 0 -6 2296.45 248.219 2
5 0 -7 5134.51 357.094 2
5 0 -7 4820.09 403.857 4
5 0 7 4888.55 490.9 2
5 0 8 570.142 209.624 2
5 0 -8 379.479 142.857 4
5 0 -8 166.597 105.942 2
5 0 9 1357.08 290.001 2
5 0 -9 1345.51 236.963 4
5 0 -10 5164.19 470.074 4
5 0 10 5689.91 557.689 2
-5 0 -10 5433.27 354.562 1
5 0 11 1584.18 336.022 2
5 0 -11 994.727 225.699 4
5 0 12 3886.76 478.347 2
5 0 -12 3588.69 423.051 4
5 0 13 2847.54 433.532 2
5 0 14 1153.31 279.611 2
5 0 15 1319.3 324.968 2
5 0 16 2966.34 474.392 2
5 0 17 379.534 239.754 2
5 0 18 111.096 220.672 2
5 0 19 232.995 241.8 2
5 -1 19 815.599 310.863 2
5 -1 18 1061.22 303.551 2
5 1 -18 1170.46 311.394 4
5 -1 17 3642.37 513.999 2
5 1 -17 4011.66 514.198 4
5 -1 16 246.214 201.641 2
5 1 -16 369.378 180.952 4
5 -1 15 379.532 192.93 2
5 1 -15 401.604 186.949 4
5 -1 14 356.737 204.061 2
5 1 -14 154.52 129.596 4
5 -1 13 225.792 148.192 2
5 1 -13 112.215 159.06 4
5 -1 12 3530.19 443.956 2
5 1 -12 2786.33 380.257 4
5 1 -11 6186.74 540.451 4
5 1 -11 6084.76 422.249 3
5 -1 11 7288 642.084 2
5 -1 10 203.552 154.891 2
5 1 -10 249.538 154.274 4
5 1 -10 379.425 128.932 3
-5 -1 -10 360.204 129.941 1
5 1 -9 8392.44 586.059 4
5 -1 9 8603.9 671.222 2
5 -1 8 2805.13 374.659 2
5 1 -8 3038.7 331.795 4
5 1 -7 19748.8 792.403 2
5 1 -7 18020.6 839.42 4
5 -1 7 19566.6 1005.54 2
5 -1 6 903.754 229.929 2
5 1 -6 836.474 175.913 4
5 1 -6 820.061 180.721 2
5 -1 5 2241.56 310.934 2
5 1 -5 1808.37 235.722 4
5 1 -5 2060.87 258.076 2
5 -1 4 1633.94 269.324 2
5 1 -4 1584.87 208.151 4
5 1 -4 1844.05 258.327 2
5 1 -3 16080.2 757.486 2
5 1 -3 14502.3 622.476 4
5 -1 3 16236.7 823.569 2
5 -1 2 3118.46 346.597 2
5 1 -2 2587.19 233.269 4
5 1 -2 3194.07 344.857 2
5 -1 1 352.489 155.39 2
5 1 -1 434.2 107.118 4
5 1 -1 324.665 122.039 2
5 -1 0 599.93 190.034 2
5 1 0 290.835 82.2463 4
5 1 0 204.181 123.449 2
5 -1 -1 303.878 113.711 2
5 1 1 411.554 77.9474 4
5 1 1 67.9951 120.109 2
5 1 2 2862.3 346.432 2
5 -1 -2 2862.82 295.899 2
5 1 3 16418.4 857.737 2
5 -1 -3 15336.3 690.196 2
5 1 4 1734.01 303.853 2
5 -1 -4 1500.68 214.096 2
5 1 5 2594.19 346.421 2
5 -1 -5 2287.54 242.407 2
5 1 6 1232.45 265.786 2
5 -1 -6 877.838 155.216 2
5 -1 -7 18303 675.226 2
5 1 7 20023.1 1015.09 2
5 -1 -8 2865.22 230.351 2
5 1 8 3660.31 443.392 2
5 1 9 8970.92 698.35 2
5 1 10 193.663 168.666 2
5 1 11 6550.55 624.648 2
5 1 12 3370.29 463.914 2
5 1 13 302.816 209.05 2
-5 1 -13 353.662 135.514 3
5 1 14 715.527 264.97 2
-5 1 -14 315.135 150.506 3
5 1 15 724.112 269.768 2
-5 1 -15 684.892 207.647 3
5 1 16 575.957 270.274 2
5 1 17 4753.63 598.07 2
5 1 18 1092.51 342.722 2
5 1 19 744.506 301.456 2
5 2 -20 137.107 179.393 4
5 -2 19 133.761 153.552 2
5 2 -19 99.8829 165.8 4
5 -2 18 697.892 258.963 2
5 2 -18 760.498 267.96 4
5 -2 17 441.012 236.485 2
5 2 -17 523.674 235.357 4
5 -2 16 1205.22 303.277 2
5 2 -16 1505.27 330.01 4
5 -2 15 424.227 218.578 2
5 2 -15 61.5253 149.115 4
5 -2 14 227.484 204.653 2
5 2 -14 -368.591 177.522 4
5 -2 13 421.549 194.199 2
5 2 -13 434.859 181.495 4
5 2 -12 6207.66 553.019 4
5 -2 12 5596.34 581.873 2
5 -2 11 1514.85 313.326 2
5 2 -11 1228.8 262.31 4
5 2 -11 1550.76 222.648 3
-5 -2 -11 1899.39 251.764 1
-5 -2 -10 12433.4 632.119 1
5 2 -10 10506.8 685.79 4
5 2 -10 11303 566.927 3
5 -2 10 11567.7 813.445 2
5 2 -9 8308.61 588.417 4
5 2 -9 8416.18 451.316 3
5 -2 9 8698.01 677.129 2
5 -2 8 1017.4 251.554 2
5 2 -8 801.185 194.62 4
5 2 -8 795.392 144.081 3
5 -2 7 1240.75 260.216 2
5 2 -7 1014.18 193.934 4
5 2 -7 943.713 145.585 3
5 2 -7 1550.67 238.109 2
5 2 -6 6316.43 455.801 2
5 2 -6 5363.15 423.078 4
5 -2 6 5491.13 514.425 2
5 2 -5 11435.4 635.882 2
5 2 -5 10540.1 578.752 4
5 -2 5 10409.3 686.753 2
5 2 -4 6862.92 496.49 2
5 2 -4 6380.46 427.701 4
5 -2 4 6772.63 529.273 2
5 2 -3 8000.32 545.235 2
5 2 -3 7297.1 439.24 4
5 -2 3 7106.63 541.533 2
5 2 -2 24796.8 1029.31 2
5 2 -2 22971.6 813.877 4
5 -2 2 23441.6 999.475 2
5 -2 1 1715.85 265.835 2
5 2 -1 1784.57 198.799 4
5 2 -1 2115.59 308.205 2
5 -2 0 338.964 147.523 2
5 2 0 80.6923 75.6853 4
5 2 0 288.309 157.752 2
5 -2 -1 1606.39 248.29 2
5 2 1 1843.98 303.797 2
5 2 1 1689.89 161.188 4
5 2 2 23077.9 658.401 4
5 -2 -2 22321.6 867.446 2
5 2 2 23656.6 1042.17 2
5 2 3 6194.3 267.445 4
5 -2 -3 6480.85 414.354 2
5 2 3 7349.24 562.486 2
5 2 4 6760.33 560.11 2
5 -2 -4 6017.18 384.199 2
5 -2 -5 10392.5 499.209 2
5 2 5 11092 723.49 2
5 -2 -6 4822.33 316.138 2
-5 2 -6 4488.02 242.198 3
5 2 6 5126.27 505.076 2
5 2 7 1690.15 333.85 2
-5 2 -7 961.691 124.792 3
5 -2 -7 937.241 132.264 2
5 2 8 1424.8 315.404 2
-5 2 -8 708.067 125.118 3
-5 2 -9 166.393 79.5567 3
5 2 9 9411.51 699.353 2
5 2 10 13012.4 860.398 2
5 2 11 1908.98 353.53 2
-5 2 -12 5873.15 436.659 3
5 2 12 6293.37 636.685 2
5 2 13 525.953 228.619 2
-5 2 -13 850.972 182.027 3
5 2 14 196.581 181.716 2
-5 2 -14 50.8586 135.728 3
5 2 15 417.351 245.914 2
-5 2 -15 201.574 149.79 3
5 2 16 1657.33 378.939 2
5 2 17 399.568 236.819 2
5 2 18 1671.65 375.563 2
5 2 19 607.032 259.577 2
5 3 -19 370.336 247.363 4
5 3 -18 2228.75 422.452 4
5 -3 18 2136.4 412.622 2
5 3 -17 3115.35 468.422 4
5 3 -16 866.155 264.057 4
5 3 -15 273.61 222.722 4
5 3 -14 816.733 234.977 4
5 3 -13 655.703 219.538 4
5 3 -12 978.004 246.943 4
5 3 -11 -287.686 160.494 4
5 3 -11 89.3199 102.117 3
-5 -3 -11 305.503 138.775 1
-5 -3 -10 4534.11 393.067 1
5 3 -10 4125.41 437.001 4
5 3 -10 3667.62 325.784 3
5 3 -9 2313.79 318.397 4
-5 -3 -9 2583.69 314.015 1
5 3 -9 2096.78 237.28 3
5 3 -8 13593.3 755.269 4
5 3 -8 12617.1 563.944 3
5 3 -7 16001.6 780.713 2
5 3 -7 15721.3 792.721 4
5 3 -7 14358.9 576.616 3
5 3 -6 4771.89 425.637 2
5 3 -6 4301.89 388.728 4
5 3 -5 2235.03 268.203 4
5 3 -5 2259.99 320.2 2
5 -3 5 2186.11 316.503 2
5 3 -4 12008.7 693.647 2
5 3 -4 10777 584.007 4
5 -3 4 10962.7 683.514 2
5 3 -3 10546 652.161 2
5 3 -3 10022.3 540.622 4
5 -3 3 9362.95 620.692 2
5 -3 2 1553.73 258.207 2
5 3 -2 1932.63 224.411 4
5 3 -2 2415.51 327.607 2
5 -3 1 358.982 137.455 2
5 3 -1 675.703 142.227 4
5 3 -1 767.685 217.335 2
5 -3 0 510.181 151.657 2
5 3 0 539.355 132.016 4
5 3 0 360.024 196.854 2
5 -3 -1 486.974 152.041 2
5 3 1 352.716 167.267 2
5 3 1 399.366 109.108 4
5 -3 -2 1820.52 241.733 2
5 3 2 1955.45 190.526 4
5 3 2 2292.38 340.45 2
-5 3 -3 6255.42 229.643 3
5 -3 -3 9902.11 502.378 2
5 3 3 10288.6 680.999 2
-5 3 -4 8803.63 324.22 3
5 -3 -4 9786.78 490.158 2
5 3 4 11470.4 743.532 2
5 -3 -5 2042.95 206.991 2
5 3 5 2126.67 343.506 2
-5 3 -5 1990.91 161.49 3
5 -3 -6 3528.87 250.476 2
5 3 6 4523.65 472.635 2
-5 3 -6 3719.12 238.327 3
-5 3 -7 13758.9 541.735 3
5 3 7 15779.9 917.705 2
-5 3 -8 425.475 137.985 3
5 3 8 14006.8 849.49 2
5 3 9 2741.11 396.352 2
5 3 10 4485 524.073 2
5 3 11 322.858 220.677 2
-5 3 -11 -5.09168 89.7449 3
5 3 12 1553.99 334.425 2
-5 3 -12 1170.3 207.227 3
5 3 13 651.131 287.101 2
-5 3 -13 568.854 165.98 3
5 3 14 1033.74 283.957 2
-5 3 -14 832.1 202.543 3
5 3 15 412.4 233.154 2
-5 3 -15 270.045 151.752 3
5 3 16 1436.56 373.874 2
5 3 17 3270.75 505.725 2
5 3 18 2525.31 462.325 2
5 3 19 135.286 188.44 2
5 4 -19 236.175 241.363 4
5 4 -18 989.51 316.036 4
5 4 -17 482.807 230.316 4
5 4 -16 309.335 205.585 4
5 4 -15 693.345 237.049 4
5 4 -14 961.789 276.654 4
5 4 -13 1926.55 347.616 4
-5 -4 -12 7579.96 546.889 1
5 4 -12 6967.97 615.3 4
-5 -4 -11 4605.29 427.075 1
5 4 -11 3815.5 440.442 4
5 4 -10 1135.44 259.017 4
-5 -4 -10 881.749 198.627 1
5 4 -9 25.9424 118.457 4
-5 -4 -9 310.606 150.761 1
5 4 -8 5470.72 481.182 4
-5 -4 -8 6324.83 509.869 1
5 4 -7 84.7722 104.603 4
5 4 -6 40.4061 99.6636 4
5 4 -6 178.933 168.77 2
5 4 -5 5667.98 487.134 2
5 4 -5 4118.1 386.502 4
5 4 -4 18388.5 910.479 2
5 4 -4 17408.5 806.47 4
5 4 -3 8944.22 626.878 2
5 4 -3 7443.53 485.065 4
5 4 -2 10311.6 679.161 2
5 4 -2 9242.26 521.251 4
5 4 -1 12029 742.906 2
5 4 -1 11688.1 586.276 4
5 -4 1 11041.3 647.703 2
5 4 0 7005.47 572.826 2
5 -4 0 5441.12 437.882 2
5 4 1 12934.9 791.296 2
5 -4 -1 11417.3 611.447 2
5 4 2 9473.16 687.938 2
5 -4 -2 8724.93 508.34 2
5 4 3 8313.62 646.791 2
5 -4 -3 7171.35 440.398 2
5 4 4 19156.6 1005.65 2
5 -4 -4 15725.1 647.591 2
5 4 5 4193.18 474.421 2
5 -4 -5 3624.23 270.059 2
5 4 6 182.549 168.98 2
5 4 7 -58.5219 142.125 2
5 4 8 6141.29 589.771 2
5 4 9 -146.925 153.47 2
5 4 10 1335.71 310.789 2
5 4 11 3586.05 469.171 2
-5 4 -11 3293.23 325.952 3
-5 4 -12 7119.44 503.386 3
5 4 12 7738.08 716.375 2
5 4 13 2466.28 407.182 2
-5 4 -13 1631.73 259.269 3
5 4 14 598.765 221.815 2
-5 4 -14 1298.15 254.171 3
5 4 15 1323.39 332.892 2
5 4 16 791.832 297.945 2
5 4 17 0.18337 158.812 2
5 4 18 658.966 285.076 2
5 5 -18 1939.46 398.961 4
5 5 -17 615.039 266.81 4
5 5 -16 820.998 259.107 4
5 5 -15 680.664 235.464 4
5 5 -14 909.074 282.133 4
-5 -5 -13 1609.55 269.966 1
5 5 -13 1331.47 297.969 4
-5 -5 -12 370.122 178.717 1
5 5 -12 522.014 212.994 4
-5 -5 -11 1216.62 268.444 1
5 5 -11 595.644 215.17 4
5 5 -10 497.845 194.877 4
-5 -5 -10 373.836 162.211 1
5 5 -9 1874.49 309.151 4
-5 -5 -9 2044.68 319.889 1
-5 -5 -8 9052.5 640.802 1
5 5 -8 7788.06 596.572 4
5 5 -7 7421.13 565.511 4
5 5 -6 11261.8 716.342 2
5 5 -6 9161.37 617.079 4
5 5 -5 185.742 131.311 4
5 5 -5 431.606 225.805 2
5 5 -4 8710.35 650.164 2
5 5 -4 8331.96 553.538 4
5 5 -3 6004.77 542.283 2
5 5 -2 3922.39 453.258 2
5 5 -1 3184.55 379.073 2
5 5 0 133.57 154.122 2
5 5 1 3490.36 437.612 2
5 5 2 4114.56 463.463 2
5 -5 -2 3579.68 326.676 2
5 5 3 6359.32 577.321 2
5 -5 -3 4156.7 333.322 2
5 5 4 9707.16 726.103 2
5 -5 -4 7378.81 423.416 2
5 -5 -5 161.558 97.9864 2
5 5 5 136.822 141.27 2
5 5 6 10438.1 781.081 2
5 5 7 7930.98 684.788 2
5 5 8 8684.44 733.853 2
5 5 9 2055.3 376.312 2
5 5 10 316.975 207.347 2
5 5 11 656.587 250.178 2
5 5 12 405.258 207.42 2
5 5 13 1950.77 382.17 2
5 5 14 1036.81 301.866 2
5 5 15 750.184 260.628 2
5 5 16 744.1 302.658 2
5 5 17 477.516 219.709 2
5 5 18 1544.15 365.346 2
5 6 -18 759.005 311.563 4
5 6 -17 887.917 280.832 4
5 6 -16 431.79 225.445 4
5 6 -15 317.212 224.415 4
5 6 -14 1461.02 346.656 4
-5 -6 -13 3285.37 392.832 1
5 6 -13 2608.46 397.915 4
-5 -6 -12 3562.81 416.688 1
5 6 -12 2043.69 356.199 4
-5 -6 -11 4992.44 492.889 1
5 6 -11 3861.96 466.516 4
5 6 -10 1723.53 312.181 4
-5 -6 -10 1996.53 332.661 1
5 6 -9 -35.6393 137.086 4
-5 -6 -9 438.506 190.209 1
5 6 -8 130.182 166.332 4
-5 -6 -8 126.865 159.868 1
5 6 -7 2105.5 313.738 4
-5 -6 -7 2238.09 334.074 1
5 6 -6 290.991 118.373 4
5 6 -5 5381.01 509.222 2
5 6 -5 4834.64 452.225 4
5 6 -4 7439.31 622.615 2
5 6 -3 12654 828.371 2
5 6 -2 10545.9 749.476 2
5 6 -1 7375.05 622.999 2
5 6 0 8137.2 663.725 2
5 6 1 7481.75 653.352 2
5 6 2 10113.8 760.456 2
5 6 3 13466.4 887.438 2
5 6 4 7495.41 661.109 2
5 -6 -4 5557.06 375.896 2
5 6 5 5207.59 574.834 2
5 6 6 808.349 274.152 2
5 6 7 2360.8 397.361 2
5 6 8 74.4968 161.411 2
5 6 9 629.294 239.344 2
5 6 10 1777.24 370.174 2
5 6 11 4585.24 575.698 2
5 6 12 3481.09 510.025 2
5 6 13 3445.46 523.875 2
5 6 14 1234.45 358.157 2
5 6 15 460.406 236.77 2
5 6 16 126.026 217.318 2
5 6 17 651.246 232.467 2
5 7 -17 1165.82 337.32 4
5 7 -16 1477.19 353.907 4
5 7 -15 327.249 238.418 4
5 7 -14 568.234 240.552 4
-5 -7 -13 732.381 236.069 1
5 7 -13 563.315 251.531 4
-5 -7 -12 306.798 177.45 1
5 7 -12 315.016 181.271 4
-5 -7 -11 3743.03 457.779 1
5 7 -11 3407.47 446.43 4
-5 -7 -10 251.679 173.708 1
5 7 -10 356.651 186.513 4
5 7 -9 3763.34 452.855 4
-5 -7 -9 3195.54 410.95 1
-5 -7 -8 5879.01 558.167 1
5 7 -8 5494.73 542.174 4
5 7 -7 714.116 252.594 4
-5 -7 -7 1054.33 281.385 1
-5 -7 -6 5730.13 558.788 1
5 7 -5 1096.39 280.14 2
5 7 -4 2731.25 406.775 2
5 7 -3 510.938 209.59 2
5 7 -2 4387.24 505.421 2
5 7 -1 4678.24 527.313 2
5 7 0 3133.9 446.188 2
5 7 1 4357.37 519.939 2
5 7 2 4700.38 531.875 2
5 7 3 321.503 185.007 2
5 7 4 2807.76 430.753 2
5 7 5 1582.59 368.23 2
5 7 6 6044.34 627.476 2
5 7 7 1448.63 398.035 2
5 7 8 6735.22 676.643 2
5 7 9 3177.78 474.403 2
5 7 10 261.126 188.27 2
5 7 11 3478.87 514.528 2
5 7 12 918.357 305.972 2
5 7 13 523.399 260.262 2
5 7 14 618.822 295.912 2
5 7 15 404.292 269.544 2
5 7 16 1652 384.103 2
5 8 -16 343.546 229.319 4
5 8 -15 565.755 248.244 4
5 8 -14 538.773 246.488 4
-5 -8 -14 264.728 215.048 1
-5 -8 -13 2054.84 369.527 1
5 8 -13 2203.23 401.885 4
-5 -8 -12 421.206 213.056 1
5 8 -12 -37.0533 139.984 4
-5 -8 -11 2910.92 416.476 1
5 8 -11 2624.72 420.889 4
-5 -8 -10 456.524 211.826 1
5 8 -10 389.925 204.396 4
-5 -8 -9 1543.37 299.563 1
5 8 -9 1055.06 261.802 4
5 8 -8 220.546 148.457 4
-5 -8 -8 492.576 253.813 1
-5 -8 -7 24.5484 139.055 1
-5 -8 -6 1864.34 341.728 1
-5 -8 -5 896.848 269.601 1
5 8 -4 3987.47 499.08 2
-5 -8 -4 3574.51 472.941 1
5 8 -3 7882.49 695.2 2
5 8 -2 1860.25 360.826 2
5 8 -1 8909.13 754.885 2
5 8 0 7268.51 687.253 2
5 8 1 7932.54 713.685 2
5 8 2 1853.43 377.269 2
5 8 3 7503.21 708.847 2
5 8 4 3694.74 500.518 2
5 8 5 1451.43 347.947 2
5 8 6 1555.89 366.557 2
5 8 7 686.484 290.146 2
5 8 8 474.362 246.435 2
5 8 9 957.517 300.069 2
5 8 10 601.817 243.736 2
5 8 11 3738.36 553.007 2
5 8 12 615.457 257.917 2
5 8 13 2108.26 441.232 2
5 8 14 769.984 317.118 2
5 8 15 1157.19 371.945 2
5 9 -14 465.506 227.607 4
-5 -9 -14 64.4946 160.223 1
-5 -9 -13 1744.19 350.268 1
5 9 -13 1558.9 345.468 4
-5 -9 -12 852.745 287.799 1
5 9 -12 611.325 253.444 4
-5 -9 -11 625.407 264.574 1
5 9 -11 510.225 217.238 4
-5 -9 -10 260.742 186.037 1
5 9 -10 -16.433 151.587 4
-5 -9 -9 -38.9065 142.408 1
5 9 -9 403.005 227.221 4
-5 -9 -8 4031.92 506.93 1
-5 -9 -7 1369.38 333.863 1
-5 -9 -6 1616.34 344.501 1
-5 -9 -5 513.374 245.253 1
-5 -9 -4 1525.81 317.545 1
-5 -9 -3 668.224 270.11 1
5 9 -3 249.298 190.832 2
5 9 -2 1794.72 357.611 2
5 9 -1 2435.6 412.84 2
5 9 0 -60.4036 170.092 2
5 9 1 2951.58 472.042 2
5 9 2 1106.59 328.093 2
5 9 3 284.878 223.112 2
5 9 4 1165.6 329.015 2
5 9 5 795.678 285.816 2
5 9 6 1374.46 335.334 2
5 9 7 1346.96 342.875 2
5 9 8 3081.72 480.149 2
5 9 9 16.8909 159.956 2
5 9 10 339.563 212.949 2
5 9 11 937.123 342.245 2
5 9 12 1301.69 359.388 2
5 9 13 2233.56 474.016 2
5 9 14 592.404 307.435 2
-5 -10 -14 652.675 270.169 1
-5 -10 -13 1978.21 397.626 1
5 10 -13 1558.5 367.905 4
-5 -10 -12 362.244 207.647 1
5 10 -12 61.0215 170.322 4
-5 -10 -11 2129.49 405.042 1
5 10 -11 1513.75 345.651 4
-5 -10 -10 253.874 236.345 1
5 10 -10 656.526 248.7 4
-5 -10 -9 154.56 162.832 1
-5 -10 -8 1894.79 383.226 1
-5 -10 -7 268.158 199.049 1
-5 -10 -6 971.288 272.297 1
-5 -10 -5 1482.5 328.927 1
-5 -10 -4 433.804 274.459 1
-5 -10 -3 6563.73 671.863 1
-5 -10 -2 820.481 273.485 1
5 10 -1 4018.54 532.968 2
-5 -10 -1 4252.69 543.161 1
5 10 0 483.039 276.856 2
5 10 1 3979.89 555.203 2
5 10 2 1121.72 322.381 2
5 10 3 6143.17 675.83 2
5 10 4 97.8815 260.055 2
5 10 5 1703.06 387.869 2
5 10 6 1193.03 339.436 2
5 10 7 130.315 201.985 2
5 10 8 1910.04 412.9 2
5 10 9 733.377 323.461 2
5 10 10 640.951 344.145 2
5 10 11 1758.13 406.203 2
5 10 12 448.212 238.035 2
-5 -11 -14 -83.0669 213.799 1
-5 -11 -13 167.036 184.919 1
-5 -11 -12 803.611 293.527 1
-5 -11 -11 426.785 262.121 1
5 11 -11 563.843 264.605 4
-5 -11 -10 733.079 270.739 1
-5 -11 -9 169.643 213.037 1
-5 -11 -8 892.852 286.038 1
-5 -11 -7 1195.17 340.502 1
-5 -11 -6 1431.78 364.536 1
-5 -11 -5 505.546 255.787 1
-5 -11 -4 1045.6 331.074 1
-5 -11 -3 1196.64 311.518 1
-5 -11 -2 441.452 249.559 1
-5 -11 -1 300.311 271.237 1
-5 -11 0 289.555 246.159 1
5 11 0 66.2858 226.482 2
5 11 1 497.224 269.076 2
-5 -11 1 528.634 271.141 1
5 11 2 589.198 279.885 2
5 11 3 1259.36 341.075 2
5 11 4 1458.72 375.827 2
5 11 5 640.095 302.41 2
5 11 6 1392 369.204 2
5 11 7 1376.33 383.939 2
5 11 8 523.295 262.867 2
5 11 9 654.176 283.865 2
-5 -12 -9 370.476 232.634 1
-5 -12 -8 1825.17 414.22 1
-5 -12 -7 419.666 255.624 1
-5 -12 -6 916.148 303.679 1
-5 -12 -5 1408.08 361.737 1
-5 -12 -4 1034.67 347.756 1
-5 -12 -3 2787.69 491.095 1
-5 -12 -2 1921.79 402.629 1
-5 -12 -1 1023.15 335.929 1
-5 -12 0 685.243 282.703 1
-5 -12 1 1067.51 350.458 1
-5 -12 2 2045.05 439.124 1
5 12 2 2805.47 528.447 2
5 12 3 3012.7 535.815 2
-5 -12 3 2999.97 515.663 1
5 12 4 360 283.699 2
5 12 5 1271.19 375.522 2
6 0 0 4967.84 466.902 2
6 0 1 4925.95 480.569 2
6 0 -1 4977.37 457.218 2
6 0 2 -46.0262 131.27 2
6 0 -2 45.9518 126.976 2
6 0 3 150.323 152.315 2
6 0 -3 193.727 133.98 2
6 0 4 104.417 162.819 2
6 0 -4 332.94 148.017 2
6 0 5 1135.14 285.957 2
6 0 -5 1018.44 201.85 2
6 0 6 1445.88 297.993 2
6 0 -6 1509.11 225.193 2
6 0 7 324.642 188.898 2
6 0 8 468.549 195.324 2
6 0 9 159.661 182.641 2
6 0 10 141.826 200.222 2
6 0 11 445.23 226.911 2
6 0 12 3190.2 488.166 2
6 0 13 3654.19 518.166 2
6 0 14 1555.7 377.388 2
6 0 15 230.529 223.882 2
6 0 16 728.544 275.586 2
6 -1 16 827.726 279.093 2
6 -1 15 1110.85 316.642 2
6 -1 14 2366.78 422.913 2
6 -1 13 1198.01 309.357 2
6 1 -13 639.521 219.954 4
6 -1 12 408.645 250.716 2
6 1 -12 215.19 182.611 4
6 -1 11 3955.58 515.064 2
6 1 -11 3612.3 426.538 4
6 -1 10 2954.31 440.362 2
6 1 -10 2224.04 336.553 4
6 -1 9 2671.29 419.575 2
6 1 -9 2814.16 367.985 4
6 -1 8 4161.82 509.844 2
6 1 -8 4081.95 412.921 4
6 -1 7 920.006 254.006 2
6 1 -7 1200.75 220.181 4
6 1 -7 1338.6 223.964 2
6 1 -6 3879.45 369.074 2
6 -1 6 3423.59 442.98 2
6 1 -6 3140.71 332.894 4
6 -1 5 1126.75 297.328 2
6 1 -5 721.379 183.349 4
6 1 -5 899.08 207.236 2
6 -1 4 1603.08 302.585 2
6 1 -4 979.346 220.092 2
6 -1 3 259.038 191.87 2
6 1 -3 601.388 198.182 2
6 -1 2 443.241 194.159 2
6 1 -2 268.004 156.759 2
6 -1 1 3332.88 385.517 2
6 1 -1 3078.86 363.084 2
6 1 0 6576.34 547.423 2
6 -1 0 5822.48 491.968 2
6 1 1 3308.82 390.47 2
6 -1 -1 3582.98 381.226 2
6 1 2 14.0131 123.852 2
6 -1 -2 257.207 137.48 2
6 1 3 305.046 146.086 2
6 -1 -3 423.503 142.354 2
6 1 4 686.828 193.734 2
6 -1 -4 1176.92 214.236 2
6 1 5 513.389 201.16 2
6 -1 -5 697.165 173.049 2
6 1 6 3723.79 458.023 2
6 1 7 1098.83 298.546 2
6 1 8 4231.75 515.044 2
6 1 9 3516.75 492.012 2
6 1 10 3492.13 491.905 2
6 1 11 3676.72 506.624 2
6 1 12 156.434 239.07 2
6 1 13 1975.69 392.561 2
6 1 14 2473.96 447.4 2
6 1 15 1355.36 367.283 2
6 1 16 1293.81 373.007 2
6 2 -18 1053.49 325.728 4
6 2 -17 1634.9 369.677 4
6 -2 16 734.815 306.874 2
6 2 -16 241.574 155.561 4
6 -2 15 787.978 293.183 2
6 2 -15 480.344 219.731 4
6 -2 14 532.085 277.037 2
6 2 -14 259.793 176.591 4
6 -2 13 1014.65 308.24 2
6 2 -13 1080.3 276.494 4
6 -2 12 970.725 280.851 2
6 2 -12 1241.95 266.746 4
6 -2 11 2356.35 405.646 2
6 2 -11 2281.36 356.538 4
6 -2 10 1209.24 310.967 2
6 2 -10 1137.29 243.798 4
6 -2 9 384.692 242.572 2
6 2 -9 358.295 154.728 4
6 -2 8 688.452 258.973 2
6 2 -8 563.261 184.794 4
6 -2 7 869.712 264.202 2
6 2 -7 891.535 204.83 4
6 2 -7 1066.98 229.777 2
6 -2 6 1162.06 288.558 2
6 2 -6 1040.78 214.778 4
6 2 -6 1141.32 234.632 2
6 -2 5 217.253 179.058 2
6 2 -5 -119.544 105.926 4
6 2 -5 411.45 188.622 2
6 -2 4 3205.62 410.615 2
6 2 -4 3113.28 314.622 4
6 2 -4 3394.93 384.825 2
6 2 -3 5205.78 486.739 2
6 -2 3 5069.48 505.173 2
6 -2 2 2645.9 354.707 2
6 2 -2 2497.21 335.519 2
6 -2 1 366.787 171.276 2
6 2 -1 501.626 182.823 2
6 -2 0 1149.92 237.783 2
6 2 0 1279.31 281.383 2
6 -2 -1 219.198 160.194 2
6 2 1 373.465 176.757 2
6 -2 -2 2247.54 287.761 2
6 2 2 2310.68 358.83 2
6 -2 -3 4731.05 401.885 2
6 2 3 4726.56 504.417 2
6 2 4 3529.75 440.817 2
6 -2 -4 2852.79 308.198 2
6 2 5 3.94726 132.41 2
6 2 6 1020.25 263.016 2
6 2 7 855.837 240.082 2
6 2 8 544.49 235.504 2
6 2 9 314.522 203.422 2
6 2 10 1866.65 407.136 2
6 2 11 2922.4 458.511 2
6 2 12 1674.88 376.378 2
6 2 13 1147.38 320.438 2
6 2 14 846.009 336.444 2
6 2 15 758.755 320.477 2
6 2 16 587.127 264.78 2
6 3 -17 458.316 228.901 4
6 3 -16 788.111 250.229 4
6 -3 15 1407.73 374.128 2
6 3 -15 1074.32 284.35 4
6 -3 14 1472.08 358.25 2
6 3 -14 1321.89 320.559 4
6 -3 13 2736.3 471.912 2
6 3 -13 2185.05 377.317 4
6 -3 12 1601.04 363.753 2
6 3 -12 1453.01 295.077 4
6 -3 11 2547.79 425.693 2
6 3 -11 2230.91 354.566 4
6 -3 10 1019.14 265.413 2
6 3 -10 1359.72 288.658 4
6 -3 9 2356.98 397.869 2
6 3 -9 1952.29 315.167 4
6 3 -8 6288.38 518.149 4
6 -3 8 5716.05 584.064 2
6 -3 7 1106.38 262.593 2
6 3 -7 1407.84 245.729 4
6 3 -7 1534.39 273.944 2
6 -3 6 403.118 175.853 2
6 3 -6 553.62 176.555 4
6 3 -6 412.734 170.077 2
6 -3 5 1535.81 296.702 2
6 3 -5 1087.96 227.012 4
6 3 -5 1517.17 287.843 2
6 -3 4 555.986 193.166 2
6 3 -4 699.799 180.823 4
6 3 -4 444.411 206.19 2
6 -3 3 2401.28 350.445 2
6 3 -3 2621.22 370.811 2
6 3 -2 6713.06 578.797 2
6 -3 2 5929.16 527.629 2
6 -3 1 887.285 211.953 2
6 3 -1 735.19 236.893 2
6 -3 0 1599.49 274.042 2
6 3 0 2289.76 367.925 2
6 -3 -1 599.958 179.194 2
6 3 1 817.843 243.292 2
6 3 2 6045.65 581.459 2
6 -3 -2 6156.01 465.546 2
6 -3 -3 2124.68 264.948 2
6 3 3 2694.14 400.61 2
6 3 4 802.649 257.085 2
6 3 5 1274.56 291.385 2
6 3 6 151.131 147.923 2
6 3 7 1895.54 376.542 2
6 3 8 6209.7 631.699 2
6 3 9 1944.77 367.539 2
6 3 10 1813.8 364.995 2
6 3 11 2032.09 406.599 2
6 3 12 1583.54 363.161 2
6 3 13 2373.98 437.798 2
6 3 14 1567.46 368.057 2
6 3 15 846.634 301.947 2
6 4 -17 1247.48 322.326 4
6 4 -16 404.331 255.926 4
6 -4 15 715.218 310.851 2
6 4 -15 393.067 201.692 4
6 -4 14 2638.18 493.581 2
6 4 -14 1987.3 371.143 4
6 -4 13 980.307 314.284 2
6 4 -13 822.74 265.004 4
6 4 -12 567.885 231.716 4
6 -4 12 577.529 216.199 2
6 4 -11 509.608 204.072 4
6 -4 11 436.254 263.281 2
6 -4 10 325.72 210.152 2
6 4 -10 -143.036 142.535 4
-6 -4 -10 614.993 200.234 1
6 -4 9 194.851 187.895 2
6 4 -9 -3.60135 144.608 4
-6 -4 -9 13.5162 133.315 1
6 -4 8 965.888 279.745 2
6 4 -8 1498.86 284.759 4
6 -4 7 817.331 253.209 2
6 4 -7 966.574 228.055 4
6 4 -7 1334.97 266.637 2
6 -4 6 1217.9 263.349 2
6 4 -6 1058.64 237.286 4
6 4 -6 1223.22 279.021 2
6 -4 5 279.134 140.775 2
6 4 -5 209.733 128.938 4
6 4 -5 320.724 168.344 2
6 -4 4 213.235 142.564 2
6 4 -4 285.003 140.633 4
6 4 -4 259.085 194.904 2
6 4 -3 4681.98 492.778 2
6 -4 3 4296.67 452.292 2
6 -4 2 2480.84 352.911 2
6 4 -2 2493.43 390.814 2
6 -4 1 301.187 153.667 2
6 4 -1 304.364 210.322 2
6 -4 0 69.557 114.087 2
6 4 0 256.544 197.724 2
6 -4 -1 137.173 144.218 2
6 4 1 104.176 181.062 2
6 -4 -2 2405.15 298.678 2
6 4 2 3067.61 448.718 2
6 4 3 5373.44 568.716 2
6 -4 -3 5003.48 399.251 2
6 4 4 629.05 266.503 2
6 4 5 335.774 226.429 2
6 4 6 893.225 268.209 2
6 4 7 935.739 278.106 2
6 4 8 1384.33 337.44 2
6 4 9 98.3797 185.046 2
6 4 10 104.931 171.051 2
6 4 11 477.927 219.815 2
6 4 12 712.604 269.305 2
6 4 13 612.3 249.302 2
6 4 14 1837.74 390.115 2
6 4 15 146.251 174.089 2
6 5 -16 1133.56 309.585 4
6 5 -15 1369.4 327.088 4
6 5 -14 566.254 236.833 4
6 5 -13 2417.14 405.149 4
6 5 -12 2595.58 411.397 4
6 5 -11 1625.91 329.39 4
6 5 -10 248.042 197.786 4
-6 -5 -10 324.482 183.309 1
6 5 -9 1916.73 344.253 4
-6 -5 -9 2522.78 370.063 1
-6 -5 -8 3633.36 435.837 1
6 5 -8 3059.39 390.319 4
6 5 -7 279.2 183.633 4
6 5 -6 893.764 214.821 4
6 5 -6 826.03 234.494 2
6 5 -5 52.2251 117.047 4
6 -5 5 20.7521 158.582 2
6 5 -5 266.763 188.232 2
6 5 -4 1788.45 277.045 4
6 5 -4 1798.14 322.853 2
6 -5 4 1434.16 286.099 2
6 -5 3 1563.23 280.787 2
6 5 -3 1391.93 247.823 4
6 5 -3 1607.71 333.639 2
6 -5 2 1140.27 255.27 2
6 5 -2 1413.58 316.596 2
6 5 -1 6415.52 612.752 2
6 -5 1 6259.81 528.797 2
6 5 0 9296.56 740.091 2
6 -5 0 7931.9 580.649 2
6 5 1 6370.65 619.585 2
6 -5 -1 5227.75 446.161 2
6 -5 -2 1143.11 218.352 2
6 5 2 1709.94 341.65 2
6 5 3 1381.62 331.691 2
6 5 4 2014.62 384.564 2
6 5 5 50.5703 174.056 2
6 5 6 1064.01 293.791 2
6 5 7 160.601 221.089 2
6 5 8 3736.16 521.259 2
6 5 9 1811.09 411.222 2
6 5 10 387.96 268.358 2
6 5 11 1482.28 362.435 2
6 5 12 2683.15 463.019 2
6 5 13 2842.76 476.514 2
6 5 14 842.754 325.348 2
6 6 -16 -38.4105 163.717 4
6 6 -15 74.1053 196.831 4
6 6 -14 193.329 209.727 4
6 6 -13 1391.76 332.972 4
6 6 -12 1316.14 311.735 4
6 6 -11 338.403 189.248 4
6 6 -10 665.146 217.063 4
-6 -6 -10 836.853 233.017 1
6 6 -9 112.205 163.31 4
-6 -6 -9 338.123 173.767 1
6 6 -8 966.664 226.48 4
-6 -6 -8 1005.61 275.806 1
6 6 -7 987.953 247.126 4
-6 -6 -7 1823.66 322.046 1
6 6 -6 227.143 162.279 4
6 6 -6 234.07 187.664 2
6 6 -5 1406.62 275.571 4
6 6 -5 2144.43 378.551 2
6 6 -4 1099.09 238.417 4
6 6 -4 1514.78 321.869 2
6 6 -3 2360.94 317.882 4
6 6 -3 2765.88 413.207 2
6 6 -2 1023.7 285.714 2
6 6 -1 2596.17 424.551 2
6 -6 1 1444.46 259.964 2
6 6 0 4602.51 546.684 2
6 -6 0 3999.61 408.283 2
6 -6 -1 1545.92 248.068 2
6 6 1 1925.82 371.883 2
6 6 2 876.694 256.62 2
6 6 3 2910.31 472.34 2
6 6 4 1456.75 331.414 2
6 6 5 1913.29 405.842 2
6 6 6 437.624 235.246 2
6 6 7 1746.08 394.543 2
6 6 8 891.403 284.975 2
6 6 9 303.207 250.338 2
6 6 10 1097.48 298.237 2
6 6 11 559.257 268.413 2
6 6 12 1469.2 400.657 2
6 6 13 1525.6 398.016 2
6 7 -15 483.205 255.968 4
6 7 -14 21.5369 211.604 4
6 7 -13 1704.13 357.598 4
6 7 -12 2854.79 444.568 4
-6 -7 -11 327.979 186.685 1
6 7 -11 356.692 192.321 4
6 7 -10 337.532 166.215 4
-6 -7 -10 502.071 199.584 1
6 7 -9 968.149 274.14 4
-6 -7 -9 1075.85 296.769 1
6 7 -8 1107.78 290.078 4
-6 -7 -8 1110.4 283.48 1
6 7 -7 878.489 252.453 4
-6 -7 -7 794.831 259.579 1
6 7 -6 1528.32 304.899 4
-6 -7 -6 1394.68 317.485 1
6 7 -5 825.51 232.939 4
6 7 -5 1384.52 317.598 2
6 7 -4 1585.71 291.513 4
6 7 -4 1740.93 368.364 2
6 7 -3 1923.84 322.141 4
6 7 -3 1993.17 396.453 2
6 7 -2 3322.61 480.303 2
6 7 -1 5430.92 597.153 2
6 7 0 224.943 306.017 2
6 7 1 4557.09 573.6 2
6 7 2 3104.57 482.001 2
6 7 3 1726.15 372.075 2
6 7 4 1995.88 409.262 2
6 7 5 1168.05 305.798 2
6 7 6 1670.04 408.405 2
6 7 7 825.86 316.026 2
6 7 8 1645.48 392.652 2
6 7 9 1040.25 312.55 2
6 7 10 651.469 300.499 2
6 7 11 778.91 290.907 2
6 7 12 3720.03 586.004 2
6 8 -13 332.189 218.394 4
6 8 -12 932.052 281.374 4
-6 -8 -11 295.367 207.075 1
6 8 -11 355.063 219.431 4
-6 -8 -10 457.435 211.365 1
6 8 -10 545.734 217.612 4
6 8 -9 267.802 193.551 4
-6 -8 -9 100.924 189.051 1
6 8 -8 179.233 188.179 4
-6 -8 -8 243.295 232.567 1
6 8 -7 882.834 262.697 4
-6 -8 -7 1143.52 313.146 1
6 8 -6 418.67 187.393 4
-6 -8 -6 530.168 242.531 1
-6 -8 -5 725.736 270.137 1
6 8 -5 417.784 174.964 4
6 8 -4 1278.4 327.108 2
6 8 -3 1190.46 314.015 2
6 8 -2 1015.51 309.604 2
6 8 -1 1065.66 305.036 2
6 8 0 3291.31 483.129 2
6 8 1 848.127 323.439 2
6 8 2 1014.8 306.175 2
6 8 3 1628.93 377.375 2
6 8 4 1413.17 386.448 2
6 8 5 620.923 286.787 2
6 8 6 558.713 296.046 2
6 8 7 1088.68 334.53 2
6 8 8 418.232 295.607 2
6 8 9 549.061 298.84 2
6 8 10 590.684 271.506 2
6 9 -12 1357.18 345.394 4
-6 -9 -11 332.775 239.192 1
6 9 -11 146.361 193.113 4
-6 -9 -10 266.556 227.584 1
6 9 -10 102.903 168.582 4
-6 -9 -9 1930.35 379.763 1
6 9 -9 1142.72 301.421 4
6 9 -8 1274.41 306.706 4
-6 -9 -8 828.555 269.401 1
6 9 -7 2099.63 362.981 4
-6 -9 -7 2113.65 404.145 1
6 9 -6 588.754 238.065 4
-6 -9 -6 448.379 228.781 1
-6 -9 -5 2084.51 412.22 1
-6 -9 -4 479.99 249.594 1
6 9 -3 528.673 275.236 2
6 9 -2 2310.65 435.01 2
6 9 -1 1360.42 361.341 2
6 9 0 951.8 317.952 2
6 9 1 1505.39 380.887 2
6 9 2 2535.24 456.577 2
6 9 3 826.86 325.108 2
6 9 4 1167.47 353.928 2
6 9 5 1675.38 405.884 2
6 9 6 509.288 277.059 2
6 9 7 1892.39 457.322 2
6 9 8 1274.39 363.476 2
-6 -10 -12 570.468 277.746 1
-6 -10 -11 149.85 165.345 1
-6 -10 -10 1016.62 334.622 1
6 10 -10 331.972 243.714 4
-6 -10 -9 274.994 228.804 1
6 10 -9 277.973 208.926 4
-6 -10 -8 446.944 267.368 1
6 10 -8 241.332 189.104 4
6 10 -7 372.143 189.569 4
-6 -10 -7 836.792 289.575 1
-6 -10 -6 303.284 241.533 1
-6 -10 -5 -33.794 160.2 1
-6 -10 -4 1086.48 324.014 1
-6 -10 -3 172.279 215.744 1
6 10 -2 1005.65 335.527 2
-6 -10 -2 1290.65 360.457 1
6 10 -1 494.989 259.896 2
6 10 0 777.736 292.353 2
6 10 1 1080.68 354.069 2
6 10 2 1104.01 368.197 2
6 10 3 649.257 320.399 2
6 10 4 1014.85 347.413 2
6 10 5 221.565 287.022 2
6 11 -8 190.077 192.645 4
6 11 -1 1549.4 395.294 2
7 0 0 395.563 195.087 2
7 0 1 2315.11 380.442 2
7 0 -1 2666.01 371.493 2
7 0 2 3512.53 450.508 2
7 0 -2 3676.7 423.553 2
7 0 3 -236.936 184.023 2
7 0 4 1641.08 323.191 2
7 0 5 -85.4777 139.15 2
7 0 6 551.475 244.324 2
7 0 7 2613.89 439.584 2
7 0 8 1130.78 320.16 2
7 0 9 1901.81 397.709 2
7 0 10 807.992 295.501 2
7 0 11 625.257 287.657 2
7 0 12 507.102 289.911 2
7 -1 12 864.214 287.304 2
7 -1 11 2151.75 422.083 2
7 -1 10 645.188 303.881 2
7 -1 9 743.937 310.791 2
7 -1 8 815.009 312.516 2
7 -1 7 1385.56 349.567 2
7 -1 6 358.288 221.341 2
7 -1 5 513.964 239.894 2
7 -1 4 713.172 249.892 2
7 -1 3 174.003 174.958 2
7 1 -3 697.074 236.958 2
7 -1 2 910.47 232.791 2
7 1 -2 1318.24 276.639 2
7 -1 1 356.873 172.13 2
7 1 -1 749.146 233.438 2
7 -1 0 85.4748 144.571 2
7 1 0 -218.501 183.13 2
7 -1 -1 641.855 201.991 2
7 1 1 651.242 243.153 2
7 1 2 994.773 284.543 2
7 -1 -2 1068.62 243.326 2
7 1 3 363.003 179.922 2
7 1 4 39.6943 158.236 2
7 1 5 287.272 195.049 2
7 1 6 63.2238 213.169 2
7 1 7 1141.82 310.829 2
7 1 8 365.339 229.013 2
7 1 9 103.11 185.822 2
7 1 10 298.836 212.947 2
7 1 11 2013.73 406.708 2
7 1 12 1727.42 393.774 2
7 -2 12 794.708 308.628 2
7 -2 11 246.612 197.867 2
7 -2 10 681.347 281.717 2
7 -2 9 1616.7 354.162 2
7 -2 8 564.652 255.365 2
7 -2 7 1392.01 336.468 2
7 -2 6 946.402 283.012 2
7 -2 5 502.404 227.704 2
7 -2 4 681.854 277.651 2
7 2 -4 675.951 223.216 2
7 -2 3 582.683 227.763 2
7 2 -3 595.305 217.634 2
7 -2 2 1381.29 312.109 2
7 2 -2 1243.5 293.341 2
7 -2 1 1231.44 257.847 2
7 2 -1 1241.89 294.955 2
7 -2 0 680.425 203.584 2
7 2 0 894.391 250.488 2
7 -2 -1 1318.2 257.036 2
7 2 1 1548.88 332.519 2
7 2 2 1699.9 353.824 2
7 2 3 455.251 237.284 2
7 2 4 266.203 216.082 2
7 2 5 574.965 234.375 2
7 2 6 1105.39 292.397 2
7 2 7 1062.12 286.27 2
7 2 8 824.006 257.109 2
7 2 9 1342.99 335.044 2
7 2 10 1060.5 333.116 2
7 2 11 313.419 226.092 2
7 -3 12 916.181 321.81 2
7 -3 11 430.611 219.286 2
7 -3 10 945.056 310.071 2
7 -3 9 535.062 261.948 2
7 -3 8 761.747 274.244 2
7 -3 7 1154.05 328.548 2
7 -3 6 414.509 268.109 2
7 -3 5 488.585 250.716 2
7 3 -5 262.865 167.18 2
7 -3 4 2540.66 390.12 2
7 3 -4 2591.1 388.838 2
7 -3 3 1184.55 297.471 2
7 3 -3 1487.43 318.005 2
7 -3 2 319.234 191.317 2
7 3 -2 438.07 219.525 2
7 -3 1 518.82 188.131 2
7 3 -1 265.685 212.475 2
7 -3 0 87.0129 125.718 2
7 3 0 189.274 186.646 2
7 3 1 643.794 265.186 2
7 3 2 609.712 237.773 2
7 3 3 938.653 300.011 2
7 3 4 2934.67 472.388 2
7 3 5 266.772 196.86 2
7 3 6 282.14 242.704 2
7 3 7 1280.85 324.716 2
7 3 8 454.258 237.902 2
7 3 9 176.843 176.005 2
7 3 10 312.649 198.822 2
7 3 11 363.861 229.441 2
7 -4 11 207.525 199.532 2
7 -4 10 137.085 138.696 2
7 -4 9 1200.09 320.321 2
7 -4 8 691.102 269.04 2
7 -4 7 1512.07 350.035 2
7 -4 6 1402.5 315.585 2
7 -4 5 376.264 211.421 2
7 4 -5 710.224 246.164 2
7 -4 4 154.933 173.062 2
7 4 -4 493.111 220.639 2
7 -4 3 1186.25 290.65 2
7 4 -3 1086.49 297.666 2
7 -4 2 575.329 239.25 2
7 4 -2 612.864 232.756 2
7 -4 1 1621.32 309.762 2
7 4 -1 1403.94 342.44 2
7 4 0 2955.99 446.602 2
7 4 1 1746.12 380.144 2
7 4 2 652.822 263.971 2
7 4 3 849.215 289.431 2
7 4 4 607.979 277.149 2
7 4 5 379.817 227.77 2
7 4 6 1361.14 342.645 2
7 4 7 1463.87 363.231 2
7 4 8 782.097 296.835 2
7 4 9 1285.84 339.825 2
7 4 10 188.27 262.816 2
7 -5 11 674.146 264.432 2
7 -5 10 178.139 214.839 2
7 -5 9 416.005 230.956 2
7 -5 8 644.18 255.968 2
7 -5 7 157.328 174.32 2
7 -5 6 1384.21 324.203 2
7 5 -6 1857.53 364.046 2
7 -5 5 837.011 260.533 2
7 5 -5 1142.38 300.008 2
7 -5 4 1445.64 321.082 2
7 5 -4 942.213 282.659 2
7 -5 3 430.722 190.634 2
7 5 -3 283.326 225.891 2
7 -5 2 493.311 206.864 2
7 5 -2 471.466 248.081 2
7 5 -1 578.953 275.656 2
7 5 0 1711.45 379.478 2
7 5 1 644.1 270.603 2
7 5 2 482.401 238.112 2
7 5 3 692.537 304.452 2
7 5 4 1479.21 399.857 2
7 5 5 1481.8 363.681 2
7 5 6 1329.24 346.047 2
7 5 7 749.835 297.087 2
7 5 8 1093.25 328.833 2
7 5 9 662.096 309.125 2
7 -6 10 966.994 303.469 2
7 -6 9 513.765 236.8 2
7 -6 8 791.277 286.32 2
-7 -6 -8 1138.96 296.114 1
7 -6 7 1167.22 313.055 2
-7 -6 -7 1615.76 350.523 1
7 -6 6 1046.39 287.286 2
7 6 -6 1503.83 344.314 2
7 -6 5 1393.84 322.21 2
7 6 -5 1554.19 357.621 2
7 -6 4 298.806 222.627 2
7 6 -4 147.952 213.088 2
7 -6 3 1000.65 273.888 2
7 6 -3 582.274 263.722 2
7 6 -2 403.684 216.616 2
7 6 -1 846.639 279.291 2
7 6 0 694.166 297.118 2
7 6 1 815.927 276.732 2
7 6 2 579.362 249.944 2
7 6 3 863.136 303.371 2
7 6 4 843.266 344.736 2
7 6 5 1906.84 443.73 2
7 6 6 1651.62 420.499 2
7 6 7 1760.72 405.242 2
7 6 8 1211.74 371.693 2
7 -7 9 361.767 233.959 2
-7 -7 -8 341.448 208.126 1
7 -7 8 328.189 226.288 2
-7 -7 -7 335.718 242.444 1
7 -7 7 99.7386 233.258 2
7 -7 6 162.071 197.287 2
-7 -7 -6 371.29 271.145 1
7 -7 5 1293.77 317.35 2
7 7 -5 1898.62 403.298 2
7 -7 4 1327.31 319.377 2
7 7 -4 1276.34 325.484 2
7 7 -3 735.044 318.869 2
7 7 -2 350.801 283.04 2
7 7 -1 445.72 257.129 2
7 7 0 701.734 283.38 2
7 7 1 649.565 292.581 2
7 7 2 207.798 239.724 2
7 7 3 1002.05 322.482 2
7 7 4 1295.24 360.89 2
7 7 5 1044.81 358.859 2
7 7 6 682.349 311.041 2
-7 -8 -8 744.751 302.481 1
-7 -8 -7 309.952 228.034 1
-7 -8 -6 830.19 298.99 1
-7 -8 -5 1727.71 397.818 1
7 8 -4 396.082 264.588 2
7 8 -3 950.264 327.93 2
7 8 -2 1107.53 334.949 2
7 8 -1 901.407 354.333 2
7 8 0 500.635 298.968 2
7 8 1 857.922 304.04 2
7 8 2 950.121 349.1 2
7 8 3 1118.57 341.899 2
7 9 -3 842.18 365.114 2
7 9 -2 529.786 303.492 2
7 9 -1 587.609 293.748 2
8 0 2 478.318 226.197 2
8 0 3 1328.57 340.704 2
8 0 4 425.33 233.857 2
8 0 5 -45.3368 179.818 2
8 0 6 -9.05159 170.9 2
8 0 7 -111.6 195.317 2
8 -1 7 -59.3061 190.568 2
8 -1 6 687.081 252.901 2
8 -1 5 2019.37 397.533 2
8 -1 4 309.969 209.401 2
8 -1 3 562.196 265.57 2
8 1 1 750.179 298.07 2
8 1 2 793.387 252.449 2
8 1 3 789.241 282.981 2
8 1 4 552.465 262.054 2
8 1 5 2260.75 435.403 2
8 1 6 282.812 157.22 2
8 1 7 200.885 176.697 2
8 -2 8 352.952 249.064 2
8 -2 7 292.548 244.322 2
8 -2 6 339.272 219.824 2
8 -2 5 390.008 225.872 2
8 -2 4 45.9377 174.839 2
8 -2 3 1101.7 325.504 2
8 2 0 537.092 242.428 2
8 2 1 55.5327 200.784 2
8 2 2 129.808 208.244 2
8 2 3 1498.66 364.603 2
8 2 4 45.5033 214.459 2
8 2 5 896.12 318.272 2
8 2 6 -11.6271 171.95 2
8 -3 7 520.882 254.743 2
8 -3 6 733.244 309.871 2
8 -3 5 953.894 334.793 2
8 -3 4 529.356 259.849 2
8 3 -1 549.499 256.153 2
8 3 0 190.069 220.022 2
8 3 1 1212.45 346.812 2
8 3 2 611.789 277.736 2
8 3 3 755.634 285.566 2
8 3 4 255.463 228.736 2
8 3 5 1207.78 357.225 2
8 -4 7 330.282 182.107 2
8 -4 6 667.347 250.307 2
8 4 -1 42.4506 189.716 2
8 4 0 760.279 262.853 2
8 4 1 724.317 260.154 2
8 4 2 478.279 274.414 2
8 4 3 1460.1 415.394 2
8 4 4 1597.6 402.135 2
8 -5 7 287.366 255.974 2
8 5 -2 -26.0415 177.74 2
8 5 -1 367.548 279.106 2
8 5 0 441.855 273.683 2
8 5 1 -154.961 198.676 2
8 5 2 229.239 226.883 2
8 6 -2 981.783 342.756 2
8 6 -1 449.606 250.511 2
8 6 0 75.4185 233.056 2
