#------------------------------------------------------------------------------
#$Date: 2017-06-29 11:07:52 +0300 (Thu, 29 Jun 2017) $
#$Revision: 198234 $
#$URL: file:///home/coder/svn-repositories/cod/cif/1/54/64/1546427.cif $
#------------------------------------------------------------------------------
#
# This file is available in the Crystallography Open Database (COD),
# http://www.crystallography.net/
#
# All data on this site have been placed in the public domain by the
# contributors.
#
data_1546427
loop_
_publ_author_name
'Nicolay N. Golovnev'
'Maxim S. Molokeev'
'Irina V. Sterkhova'
'Maxim K. Lesnikov'
'Victor V. Atuchin'
_publ_section_title
;
 Coordination effects in hydrated manganese(II)
 1,3-diethyl-2-thiobarbiturates and their thermal stability
;
_journal_issue                   0
_journal_name_full               Polyhedron
_journal_page_first              120
_journal_page_last               125
_journal_paper_doi               10.1016/j.poly.2017.06.002
_journal_volume                  134
_journal_year                    2017
_chemical_formula_moiety
;
C16 H26 Mn N4 O6 S2
;
_chemical_formula_sum            'C16 H26 Mn N4 O6 S2'
_chemical_formula_weight         489.47
_space_group_crystal_system      orthorhombic
_space_group_IT_number           61
_space_group_name_Hall           '-P 2ac 2ab'
_space_group_name_H-M_alt        'P b c a'
_symmetry_space_group_name_Hall  '-P 2ac 2ab'
_symmetry_space_group_name_H-M   'P b c a'
_atom_sites_solution_hydrogens   mixed
_audit_creation_method           SHELXL-2014/7
_cell_angle_alpha                90
_cell_angle_beta                 90
_cell_angle_gamma                90
_cell_formula_units_Z            4
_cell_length_a                   9.1341(6)
_cell_length_b                   13.5068(9)
_cell_length_c                   16.5730(11)
_cell_measurement_reflns_used    21106
_cell_measurement_temperature    296(2)
_cell_measurement_theta_max      30.022
_cell_measurement_theta_min      2.458
_cell_volume                     2044.7(2)
_computing_cell_refinement       'APEX2 (Bruker, 2003-2008)'
_computing_data_collection       'APEX2 (Bruker, 2003-2008)'
_computing_data_reduction        'SAINT (Bruker, 2009)'
_computing_molecular_graphics    'DIAMOND (Brandenburg, 2005)'
_computing_publication_material  'publCIF (Westrip, 2009)'
_computing_structure_refinement  'SHELXL-2014/7 (Sheldrick, 2014)'
_computing_structure_solution    'SHELXS-97 (Sheldrick, 2008)'
_diffrn_ambient_temperature      296(2)
_diffrn_measured_fraction_theta_full 0.998
_diffrn_measured_fraction_theta_max 0.999
_diffrn_measurement_device_type  'Bruker APEX-II CCD'
_diffrn_measurement_method       '\f and \w scans'
_diffrn_radiation_type           MoK\a
_diffrn_radiation_wavelength     0.71073
_diffrn_reflns_av_R_equivalents  0.0384
_diffrn_reflns_av_unetI/netI     0.0248
_diffrn_reflns_Laue_measured_fraction_full 0.998
_diffrn_reflns_Laue_measured_fraction_max 0.999
_diffrn_reflns_limit_h_max       12
_diffrn_reflns_limit_h_min       -11
_diffrn_reflns_limit_k_max       16
_diffrn_reflns_limit_k_min       -19
_diffrn_reflns_limit_l_max       23
_diffrn_reflns_limit_l_min       -23
_diffrn_reflns_number            21106
_diffrn_reflns_point_group_measured_fraction_full 0.998
_diffrn_reflns_point_group_measured_fraction_max 0.999
_diffrn_reflns_theta_full        25.000
_diffrn_reflns_theta_max         30.022
_diffrn_reflns_theta_min         2.458
_exptl_absorpt_coefficient_mu    0.892
_exptl_absorpt_correction_T_max  0.7456
_exptl_absorpt_correction_T_min  0.6465
_exptl_absorpt_correction_type   multi-scan
_exptl_absorpt_process_details
;
SADABS (Bruker, 2004)
;
_exptl_crystal_colour            colorless
_exptl_crystal_density_diffrn    1.590
_exptl_crystal_description       needle
_exptl_crystal_F_000             1020
_exptl_crystal_size_max          0.450
_exptl_crystal_size_mid          0.450
_exptl_crystal_size_min          0.100
_refine_diff_density_max         0.449
_refine_diff_density_min         -0.285
_refine_diff_density_rms         0.063
_refine_ls_extinction_coef       .
_refine_ls_extinction_method     none
_refine_ls_goodness_of_fit_ref   1.033
_refine_ls_hydrogen_treatment    mixed
_refine_ls_matrix_type           full
_refine_ls_number_parameters     140
_refine_ls_number_reflns         2984
_refine_ls_number_restraints     2
_refine_ls_restrained_S_all      1.034
_refine_ls_R_factor_all          0.0355
_refine_ls_R_factor_gt           0.0266
_refine_ls_shift/su_max          0.001
_refine_ls_shift/su_mean         0.000
_refine_ls_structure_factor_coef Fsqd
_refine_ls_weighting_details
'w=1/[\s^2^(Fo^2^)+(0.0245P)^2^+1.5441P] where P=(Fo^2^+2Fc^2^)/3'
_refine_ls_weighting_scheme      calc
_refine_ls_wR_factor_gt          0.0598
_refine_ls_wR_factor_ref         0.0637
_reflns_Friedel_coverage         0.000
_reflns_Friedel_fraction_full    .
_reflns_Friedel_fraction_max     .
_reflns_number_gt                2562
_reflns_number_total             2984
_reflns_threshold_expression     'I > 2\s(I)'
_cod_data_source_file            MnH2O2Detba2.cif
_cod_data_source_block           a
_cod_database_code               1546427
_shelx_shelxl_version_number     2014/7
_shelx_space_group_comment
;
The symmetry employed for this shelxl refinement is uniquely defined
by the following loop, which should always be used as a source of
symmetry information in preference to the above space-group names.
They are only intended as comments.
;
_shelx_estimated_absorpt_t_min   0.690
_shelx_estimated_absorpt_t_max   0.916
_shelx_res_file
;

    a.res created by SHELXL-2014/7


TITL anew in Pbca
CELL 0.71073 9.1341 13.5068 16.5730 90.000 90.000 90.000
ZERR 4.00 0.0006 0.0009 0.0011 0.000 0.000 0.000
LATT  1
SYMM 0.5-X, -Y, 0.5+Z
SYMM -X, 0.5+Y, 0.5-Z
SYMM 0.5+X, 0.5-Y, -Z
SFAC C H N O S MN
UNIT 64 104 16 24 8 4
TEMP 23.000
SIZE 0.45 0.45 0.10

DFIX 0.9 0.03 O H1 O H2

L.S. 4
BOND
FMAP 2
PLAN 20

CONF
HTAB
BOND $H

ACTA 50

WGHT    0.024500    1.544100
FVAR       0.16220   0.06190
MN    6    0.500000    0.000000    0.500000    10.50000    0.00711    0.00551 =
         0.00801    0.00019    0.00117   -0.00013
S     5    0.599062    0.414154    0.731599    11.00000    0.00995    0.01198 =
         0.01025   -0.00283   -0.00335   -0.00063
N1    3    0.379884    0.411119    0.623598    11.00000    0.00765    0.00543 =
         0.00858   -0.00159   -0.00078    0.00057
N3    3    0.489453    0.259150    0.651410    11.00000    0.00888    0.00668 =
         0.00844    0.00060   -0.00093    0.00072
O1    4    0.437493    0.121426    0.577078    11.00000    0.01329    0.00633 =
         0.01320   -0.00083    0.00229    0.00039
O2    4    0.200350    0.425527    0.528207    11.00000    0.01017    0.01211 =
         0.01474   -0.00057   -0.00411    0.00363
C2    1    0.481572    0.358380    0.665475    11.00000    0.00705    0.00833 =
         0.00719   -0.00056    0.00084   -0.00035
C4    1    0.411959    0.211834    0.587902    11.00000    0.00773    0.00870 =
         0.00770   -0.00123    0.00223   -0.00195
C5    1    0.312601    0.269449    0.544937    11.00000    0.01062    0.00851 =
         0.00979   -0.00181   -0.00220   -0.00162
AFIX  43
H5    2    0.259864    0.240658    0.503062    11.00000   -1.20000
AFIX   0
C6    1    0.289896    0.369010    0.562869    11.00000    0.00650    0.01055 =
         0.00782   -0.00016   -0.00020   -0.00056
C7    1    0.359609    0.518063    0.639581    11.00000    0.01204    0.00616 =
         0.01169   -0.00270   -0.00097    0.00223
AFIX  23
H7A   2    0.390377    0.532605    0.694331    11.00000   -1.20000
H7B   2    0.256494    0.534327    0.635088    11.00000   -1.20000
AFIX   0
C8    1    0.446306    0.581996    0.581302    11.00000    0.01557    0.00862 =
         0.01748    0.00038   -0.00054   -0.00078
AFIX  33
H8A   2    0.430235    0.650580    0.593658    11.00000   -1.20000
H8B   2    0.548655    0.567054    0.586308    11.00000   -1.20000
H8C   2    0.414839    0.568775    0.527094    11.00000   -1.20000
AFIX   0
C9    1    0.579488    0.194621    0.703945    11.00000    0.01142    0.01019 =
         0.00943    0.00309   -0.00168    0.00167
AFIX  23
H9A   2    0.532156    0.130605    0.708761    11.00000   -1.20000
H9B   2    0.584435    0.223609    0.757424    11.00000   -1.20000
AFIX   0
C10   1    0.733880    0.179854    0.672307    11.00000    0.01085    0.01445 =
         0.01718    0.00288   -0.00048    0.00350
AFIX  33
H10A  2    0.787169    0.137648    0.708495    11.00000   -1.20000
H10B  2    0.729918    0.149775    0.619870    11.00000   -1.20000
H10C  2    0.782209    0.242800    0.668545    11.00000   -1.20000
AFIX   0
O     4    0.396756    0.071285    0.393901    11.00000    0.01204    0.01943 =
         0.01251    0.00403   -0.00081    0.00160
H1    2    0.452113    0.081851    0.354748    11.00000   -1.20000
H2    2    0.312965    0.062434    0.375371    11.00000   -1.20000
HKLF 4

REM  anew in Pbca
REM R1 =  0.0266 for    2562 Fo > 4sig(Fo)  and  0.0355 for all    2984 data
REM    140 parameters refined using      2 restraints

END

WGHT      0.0225      1.6466

REM Instructions for potential hydrogen bonds
EQIV $1 -x+1/2, y+1/2, z
HTAB C7 O1_$1
EQIV $2 x, -y+1/2, z-1/2
HTAB O S_$2
EQIV $3 x-1/2, -y+1/2, -z+1
HTAB O S_$3

REM Highest difference peak  0.449,  deepest hole -0.285,  1-sigma level  0.063
Q1    1   0.3173  0.3211  0.5530  11.00000  0.05    0.45
Q2    1   0.4065  0.5447  0.6085  11.00000  0.05    0.41
Q3    1   0.4914  0.3066  0.6515  11.00000  0.05    0.40
Q4    1   0.4548  0.2379  0.6211  11.00000  0.05    0.38
Q5    1   0.3562  0.2448  0.5660  11.00000  0.05    0.36
Q6    1   0.5321  0.3814  0.6974  11.00000  0.05    0.35
Q7    1   0.5387  0.2304  0.6720  11.00000  0.05    0.31
Q8    1   0.4335  0.3848  0.6369  11.00000  0.05    0.31
Q9    1   0.3384  0.3849  0.5977  11.00000  0.05    0.30
Q10   1   0.3767  0.4553  0.6325  11.00000  0.05    0.30
Q11   1   0.6568  0.1928  0.6845  11.00000  0.05    0.29
Q12   1   0.2496  0.4013  0.5360  11.00000  0.05    0.21
Q13   1   0.5228  0.1568  0.6984  11.00000  0.05    0.21
Q14   1   0.5258  0.2588  0.6290  11.00000  0.05    0.21
Q15   1   0.4382  0.1757  0.5706  11.00000  0.05    0.20
Q16   1   0.7973  0.3108  0.7558  11.00000  0.05    0.20
Q17   1   0.4460  0.0775  0.6798  11.00000  0.05    0.20
Q18   1   0.6100  0.4840  0.7203  11.00000  0.05    0.19
Q19   1   0.3901  0.6008  0.5242  11.00000  0.05    0.19
Q20   1   0.5378  0.2017  0.7614  11.00000  0.05    0.19
;
_shelx_res_checksum              70285
_shelx_hkl_file
;
   1   0   0    0.05    0.04
   3   0   0   -0.05    0.06
   3   0   0   -0.02    0.15
  -3   0   0   -0.03    0.12
  -3   0   0   -0.09    0.08
   4   0   0    4.17    0.23
   4   0   0    4.85    0.46
  -4   0   0    4.25    0.31
  -4   0   0    4.13    0.36
   5   0   0   -0.58    0.11
  -5   0   0   -0.31    0.15
  -5   0   0   -0.55    0.18
   5   0   0   -0.23    0.24
  -6   0   0   50.83    1.84
   6   0   0   48.85    1.59
   6   0   0   46.46    2.07
  -6   0   0   51.64    1.80
   7   0   0    0.01    0.39
   7   0   0    0.48    0.20
   9   0   0   -0.09    0.48
  10   0   0  354.32   11.34
  11   0   0    0.57    0.72
  12   0   0   35.21    2.42
   1   1   0   -0.18    0.04
  -1   1   0   -0.18    0.06
   1  -1   0   -0.14    0.06
  -2  -1   0   33.24    1.07
   2  -1   0   35.46    1.32
   2   1   0   34.26    1.08
  -2   1   0   33.82    1.30
   3   1   0   -0.19    0.08
   3  -1   0   -0.09    0.16
   4   1   0    2.13    0.22
   4  -1   0    2.61    0.42
   4   1   0    2.04    0.29
  -4   1   0    1.82    0.32
   5   1   0    0.14    0.16
  -5   1   0   -0.13    0.24
   5   1   0   -0.43    0.24
   5  -1   0   -0.18    0.09
   5  -1   0   -0.46    0.25
  -6   1   0   17.38    0.86
   6  -1   0   18.01    1.10
  -6   1   0   18.42    1.00
   6   1   0   17.88    0.74
   6   1   0   18.15    1.02
   7   1   0    0.24    0.24
  -7   1   0    0.17    0.34
   7   1   0   -0.17    0.35
  -7   1   0    0.66    0.25
  -8   1   0   22.12    1.15
   8   1   0   22.85    0.96
   8   1   0   23.57    1.38
  -8   1   0   23.27    1.05
   9   1   0    0.71    0.35
   9  -1   0   -0.44    0.47
   9   1   0   -0.62    0.49
  10  -1   0    2.00    0.68
  10   1   0    4.26    0.79
  11  -1   0    0.23    0.74
  11   1   0    0.62    0.81
  12   1   0    7.57    1.32
  12  -1   0    5.70    1.17
   0   2   0  321.30    9.20
   0  -2   0  308.62    9.24
   0  -2   0  318.92    9.19
  -1  -2   0   -0.09    0.06
  -1   2   0   -0.01    0.09
  -1   2   0    0.07    0.07
   1   2   0   -0.21    0.05
   1   2   0   -0.01    0.06
  -2  -2   0  148.51    4.38
   2   2   0  146.45    4.40
   2  -2   0  149.16    4.35
  -2   2   0  150.04    5.04
   2   2   0  143.17    4.47
  -3  -2   0   -0.71    0.09
  -3   2   0   -0.54    0.19
   3   2   0   -0.80    0.10
   3  -2   0   -0.65    0.17
   4  -2   0   47.17    1.90
   4   2   0   44.84    1.66
   4   2   0   44.95    1.61
   4   2   0   45.54    1.53
  -4   2   0   46.52    1.88
   5  -2   0    0.00    0.26
  -5   2   0    0.12    0.29
   5   2   0   -0.08    0.18
  -6   2   0   22.20    1.22
   6   2   0   20.80    1.14
   6   2   0   21.72    0.91
   6   2   0   21.83    1.10
   7   2   0   -0.49    0.25
   7   2   0   -0.17    0.32
   7   2   0    0.13    0.36
  -7   2   0   -0.36    0.41
   8   2   0   87.18    3.35
  -8   2   0   89.27    3.31
   8   2   0   91.50    2.93
  -8   2   0   92.04    3.47
   9   2   0   -0.38    0.49
   9   2   0   -0.42    0.39
  -9   2   0   -0.28    0.53
  -9   2   0   -0.11    0.34
  10   2   0   35.24    1.46
  10   2   0   35.10    2.04
  10  -2   0   34.89    2.00
  11   2   0    0.60    0.74
  11  -2   0   -0.73    0.76
  12  -2   0    0.36    0.94
  12   2   0   -1.86    0.97
   0   3   0   -0.72    0.11
   0  -3   0   -0.49    0.12
   0  -3   0   -0.66    0.06
   1   3   0    0.04    0.09
  -1  -3   0   -0.01    0.07
  -1   3   0    0.04    0.13
   1  -3   0   -0.17    0.10
  -1   3   0   -0.08    0.11
   1   3   0   -0.04    0.11
  -1  -3   0    0.08    0.11
  -2   3   0   94.56    3.37
   2   3   0   92.65    2.92
   2   3   0   93.96    2.93
   2  -3   0   92.91    2.86
   3   3   0   -0.54    0.15
  -3   3   0   -0.47    0.20
   3  -3   0   -0.53    0.11
   3   3   0   -0.26    0.15
  -3  -3   0   -0.43    0.13
   4   3   0   16.64    0.81
  -4  -3   0   15.89    0.68
   4   3   0   16.26    0.73
   4  -3   0   16.43    0.62
  -4   3   0   15.82    0.96
   5  -3   0    0.05    0.14
   5   3   0   -0.34    0.20
   5   3   0   -0.24    0.23
  -5   3   0   -0.25    0.31
   5   3   0   -0.06    0.15
   6   3   0    8.40    0.69
   6   3   0    9.64    0.61
   6   3   0    9.45    0.78
   7   3   0   -0.32    0.31
  -7   3   0   -0.75    0.46
   7   3   0   -0.01    0.34
  -8   3   0   21.90    1.49
   8   3   0   23.33    1.10
   8   3   0   22.84    1.39
  -9   3   0    1.67    0.72
  -9   3   0    0.38    0.42
   9   3   0    1.31    0.56
  10  -3   0    9.26    1.21
  10   3   0    9.28    1.26
 -10   3   0   10.38    0.95
  11  -3   0   -1.14    0.70
  11   3   0   -0.44    0.77
  12   3   0   43.42    2.72
  12  -3   0   41.30    2.64
   0   4   0   34.09    1.07
   0  -4   0   35.08    1.08
   0   4   0   32.17    1.21
  -1   4   0   -0.22    0.14
   1  -4   0   -0.29    0.14
  -1  -4   0   -0.25    0.14
   1   4   0   -0.51    0.12
  -1   4   0   -0.05    0.15
   1   4   0   -0.16    0.09
  -1  -4   0   -0.26    0.07
  -2   4   0   45.14    1.52
   2  -4   0   46.73    1.51
   2   4   0   44.04    1.56
   2   4   0   43.81    1.50
  -2  -4   0   41.32    1.52
  -2   4   0   45.46    1.82
  -3  -4   0   -0.34    0.15
   3   4   0   -0.54    0.15
  -3   4   0   -0.79    0.24
   3   4   0   -0.65    0.17
   3  -4   0   -0.54    0.14
   4   4   0  176.16    5.34
  -4  -4   0  163.61    5.25
   4  -4   0  181.92    5.20
   4   4   0  169.12    5.43
  -4   4   0  180.05    6.19
   5  -4   0    0.13    0.17
   5   4   0   -0.22    0.22
  -5   4   0   -0.37    0.37
   5   4   0   -0.36    0.20
  -6   4   0  362.56   12.25
   6   4   0  354.01   10.65
   6   4   0  358.21   10.96
   6   4   0  353.65   11.79
   7   4   0   -0.30    0.35
   7   4   0    0.60    0.35
  -7   4   0    0.43    0.58
   7   4   0    0.62    0.39
   8   4   0   80.77    3.14
  -8   4   0   79.08    3.45
   8   4   0   83.23    2.84
   9   4   0    0.47    0.55
  -9   4   0    0.00    0.77
  -9   4   0   -0.27    0.44
   9   4   0   -0.59    0.52
 -10   4   0    4.92    1.09
 -10   4   0    5.89    0.75
  10   4   0    8.16    0.84
  10  -4   0    6.01    0.95
  10   4   0    5.86    0.91
  11  -4   0   -0.59    0.76
  11   4   0   -0.67    0.82
 -11   4   0    1.55    0.64
  12   4   0   59.98    3.24
  12  -4   0   61.22    3.18
   0   5   0   -0.07    0.09
   0  -5   0   -0.44    0.14
   0   5   0   -0.08    0.18
   0  -5   0   -0.24    0.09
   1  -5   0   -0.22    0.10
   1  -5   0   -0.35    0.16
  -1  -5   0   -0.15    0.09
  -1  -5   0   -0.18    0.15
  -1   5   0   -0.56    0.16
   1   5   0   -0.29    0.16
   1   5   0   -0.16    0.10
  -1   5   0   -0.16    0.19
   2   5   0   20.41    0.90
  -2   5   0   19.60    1.05
   2   5   0   19.98    0.80
  -2   5   0   20.58    0.86
   2  -5   0   19.59    0.83
  -2  -5   0   20.33    0.87
  -3   5   0   -0.04    0.26
   3  -5   0   -0.14    0.18
   3   5   0    0.12    0.21
  -3  -5   0   -0.16    0.16
   3   5   0   -0.05    0.18
  -4   5   0    2.81    0.54
   4   5   0    2.95    0.38
  -4  -5   0    1.74    0.29
   4   5   0    1.99    0.34
   5   5   0   -0.47    0.24
   5   5   0    0.07    0.28
  -5  -5   0   -0.03    0.20
  -5   5   0    0.04    0.40
   5  -5   0    0.06    0.20
   6   5   0   19.68    1.09
  -6   5   0   17.85    1.38
   6  -5   0   18.05    0.75
   6   5   0   18.83    1.01
   7   5   0    0.00    0.33
   7   5   0   -0.52    0.41
   7   5   0    0.14    0.41
  -7   5   0   -1.24    0.58
   8   5   0    0.94    0.54
  -8   5   0    1.05    0.79
   8   5   0    2.49    0.55
   9   5   0   -0.16    0.55
   9   5   0   -0.73    0.62
  -9   5   0   -1.62    0.91
  10   5   0   -0.57    0.76
  10  -5   0    1.49    0.66
 -10   5   0   -0.27    0.55
 -10   5   0    0.01    1.14
  10   5   0    0.06    0.72
  11   5   0    0.20    0.89
 -11   5   0   -0.60    0.70
  11  -5   0   -0.15    0.79
  12   5   0   -1.07    1.11
  12  -5   0    0.84    1.02
   0  -6   0  478.43   14.12
   0   6   0  488.89   14.17
   0  -6   0  471.44   14.07
  -1   6   0   -0.30    0.20
  -1  -6   0    0.11    0.11
  -1   6   0   -0.17    0.23
   1  -6   0    0.06    0.18
   1  -6   0   -0.03    0.11
   1   6   0   -0.39    0.12
  -1  -6   0    0.01    0.19
   1   6   0   -0.09    0.21
   2   6   0    5.66    0.42
  -2   6   0    5.29    0.49
   2  -6   0    5.36    0.45
  -2   6   0    4.95    0.58
  -2  -6   0    5.63    0.46
   2   6   0    5.70    0.50
   3   6   0   -0.04    0.24
   3   6   0    0.21    0.22
   3  -6   0   -0.13    0.19
  -3  -6   0   -0.02    0.19
  -3   6   0   -0.47    0.31
  -4   6   0  480.03   16.08
   4  -6   0  464.79   13.95
   4   6   0  489.21   14.15
   4   6   0  463.59   14.23
  -4  -6   0  483.01   14.06
   5  -6   0   -0.08    0.23
  -5   6   0   -0.43    0.45
   5   6   0   -0.01    0.32
   6   6   0  224.12    6.92
   6  -6   0  210.17    6.60
   6   6   0  222.29    7.06
  -6   6   0  232.37    8.06
   7   6   0   -0.41    0.46
  -7   6   0   -0.37    0.70
   7   6   0    0.05    0.41
   8   6   0   48.62    2.09
   8   6   0   49.70    2.24
  -8   6   0   47.91    2.70
  -9   6   0   -1.13    1.07
   9   6   0   -0.37    0.58
   9   6   0   -0.32    0.70
  10  -6   0   42.35    2.25
  10   6   0   39.03    2.31
 -10   6   0   41.10    2.91
  10   6   0   44.69    2.19
 -11   6   0   -1.76    0.77
  11  -6   0   -0.10    0.84
  11   6   0    0.75    0.99
  12  -6   0   26.12    2.23
  12   6   0   20.23    2.38
   0  -7   0   -0.11    0.20
   0  -7   0    0.01    0.13
  -1   7   0   -0.33    0.22
   1   7   0   -0.26    0.27
  -1   7   0   -0.17    0.27
   1  -7   0   -0.27    0.13
  -1  -7   0   -0.02    0.20
   1   7   0    0.06    0.13
   1  -7   0   -0.02    0.20
  -1  -7   0    0.08    0.12
  -2   7   0   52.55    1.85
   2   7   0   49.35    1.88
   2   7   0   48.27    1.68
   2  -7   0   48.42    1.77
  -2  -7   0   47.10    1.80
  -3  -7   0   -0.17    0.22
   3   7   0   -0.12    0.30
   3  -7   0   -0.42    0.21
   3   7   0   -0.12    0.24
  -3   7   0   -0.09    0.36
   4  -7   0    7.79    0.57
  -4   7   0    7.63    0.96
  -4  -7   0    8.14    0.60
   4   7   0    7.12    0.64
   4   7   0    8.00    0.74
   5  -7   0    0.05    0.24
   5   7   0    0.23    0.33
  -5   7   0    0.12    0.53
  -5  -7   0    0.12    0.28
   5   7   0   -0.27    0.37
  -6   7   0   24.31    1.82
   6   7   0   26.55    1.35
   6  -7   0   25.52    1.05
   6   7   0   26.90    1.40
   7   7   0    0.66    0.55
   7   7   0   -0.57    0.44
  -7   7   0   -1.65    0.75
   7  -7   0   -0.38    0.25
   8   7   0    6.19    0.88
   8   7   0    6.54    0.84
  -8   7   0    3.88    1.17
   9   7   0    0.29    0.84
   9   7   0   -0.63    0.66
  10   7   0    3.90    0.94
  10  -7   0    4.10    0.86
  10   7   0    6.96    1.19
  11   7   0    0.25    0.99
  11  -7   0    0.36    0.85
 -11   7   0    0.39    0.85
   0  -8   0   43.98    1.44
   0   8   0   43.86    1.89
   0   8   0   46.82    1.82
   0  -8   0   45.36    1.73
   1  -8   0    0.17    0.25
  -1  -8   0   -0.12    0.12
  -1   8   0    0.03    0.30
  -1  -8   0   -0.37    0.21
   1  -8   0   -0.12    0.15
   1   8   0    0.09    0.13
   1   8   0   -0.19    0.29
   2  -8   0  186.69    5.99
  -2   8   0  206.14    6.96
   2   8   0  192.21    6.15
   2  -8   0  206.94    5.92
   2   8   0  186.63    5.90
  -2  -8   0  187.04    6.05
  -2   8   0  194.93    6.09
  -3   8   0    0.88    0.44
   3   8   0    0.09    0.34
   3   8   0    0.16    0.27
   3  -8   0    0.23    0.24
  -3  -8   0   -0.39    0.25
   4   8   0  331.65    9.92
  -4   8   0  336.82   11.31
   4   8   0  313.33    9.81
  -4  -8   0  313.45    9.75
   4  -8   0  320.56    9.66
   5  -8   0   -0.37    0.25
   5   8   0    0.34    0.48
  -5  -8   0    0.38    0.34
   5   8   0   -0.27    0.33
  -5   8   0    0.19    0.63
   6   8   0  333.52   10.18
  -6   8   0  326.87   11.65
   6  -8   0  327.72    9.76
   6   8   0  332.27   10.15
  -6  -8   0  320.98    9.92
   7   8   0    0.48    0.66
   7   8   0   -0.18    0.48
   7  -8   0    0.30    0.28
  -7   8   0   -0.57    0.91
   8   8   0   30.77    1.87
   8   8   0   29.98    1.75
   9   8   0   -0.25    1.01
   9   8   0    0.15    0.74
  10  -8   0    3.60    0.90
  10   8   0    3.81    1.00
  11   8   0   -1.71    1.07
  11  -8   0    1.34    0.97
   0   9   0   -0.56    0.33
   0  -9   0    0.01    0.26
  -1   9   0   -0.12    0.38
   1  -9   0   -0.37    0.27
  -1  -9   0    0.05    0.14
  -1   9   0    0.56    0.38
   1   9   0    0.16    0.38
  -1  -9   0   -0.24    0.27
   1  -9   0    0.18    0.18
   2  -9   0  104.78    3.30
  -2   9   0  108.08    3.60
   2  -9   0  102.00    3.47
   2   9   0  105.02    3.30
   2   9   0  105.87    3.65
  -2  -9   0  101.79    3.52
  -2   9   0  104.39    4.09
  -3  -9   0   -0.35    0.29
   3  -9   0   -0.58    0.27
   3   9   0   -0.55    0.41
   3  -9   0   -0.14    0.25
  -3   9   0   -0.45    0.50
   3   9   0    0.49    0.32
   4  -9   0   19.68    1.00
  -4   9   0   19.97    1.56
  -4  -9   0   19.91    1.09
   4   9   0   20.32    1.30
   4   9   0   19.00    1.03
  -5   9   0   -0.44    0.69
   5   9   0    0.51    0.41
   5   9   0    0.37    0.56
   5  -9   0    0.51    0.30
  -5  -9   0    0.13    0.34
   6  -9   0  115.11    3.79
  -6  -9   0  121.11    3.98
  -6   9   0  116.14    4.97
   6   9   0  118.17    4.10
   6   9   0  122.08    4.23
   7   9   0    0.09    0.53
   7  -9   0    0.00    0.31
   8   9   0   38.87    2.06
   8   9   0   37.97    2.26
   8  -9   0   40.25    1.42
  10   9   0    1.35    0.97
  10  -9   0    0.97    0.81
  11  -9   0   -0.28    0.97
  11   9   0   -0.24    1.22
   0  10   0  249.14    7.87
   0  10   0  256.16    8.73
   0 -10   0  246.36    7.75
   1 -10   0   -0.46    0.20
  -1  10   0   -0.91    0.39
   1  10   0    0.38    0.40
  -1 -10   0    0.07    0.32
  -1  10   0   -0.13    0.49
   1 -10   0    0.04    0.29
   1  10   0    0.02    0.46
  -2 -10   0   94.83    3.35
   2  10   0   95.65    3.50
   2  10   0   92.70    3.05
  -2  10   0  102.09    3.96
  -2  10   0   96.50    3.44
   2 -10   0  100.47    3.09
   2 -10   0   96.63    3.31
   3 -10   0   -0.46    0.29
  -3  10   0   -0.64    0.62
   3  10   0    0.10    0.31
   3 -10   0    0.19    0.28
   3  10   0   -0.61    0.46
  -3 -10   0   -0.12    0.31
   4 -10   0   20.51    1.10
  -4  10   0   20.43    1.73
   4  10   0   21.80    1.12
   4  10   0   21.81    1.44
  -4 -10   0   22.64    1.21
   5 -10   0    0.22    0.32
  -5 -10   0   -0.09    0.37
   5  10   0   -0.25    0.40
   5  10   0    0.32    0.68
  -6 -10   0   17.29    1.12
   6  10   0   17.27    1.20
   6  10   0   15.31    1.53
   6 -10   0   16.63    0.96
   7  10   0    0.38    0.59
   7 -10   0    0.52    0.38
   8  10   0   22.25    1.67
   8 -10   0   22.28    1.02
  10  10   0   27.25    2.29
  10 -10   0   28.40    2.02
   0  11   0    0.44    0.51
   0  11   0    0.94    0.55
   0 -11   0   -0.02    0.33
   1  11   0   -0.27    0.47
   1  11   0    0.29    0.51
  -1  11   0    0.16    0.54
  -1 -11   0   -0.13    0.34
   1 -11   0   -0.15    0.35
  -1  11   0   -0.07    0.55
   2 -11   0    2.87    0.35
  -2  11   0    2.22    0.64
  -2  11   0    2.70    0.76
   2 -11   0    2.85    0.50
   2  11   0    2.88    0.66
  -2 -11   0    2.23    0.50
   2  11   0    3.29    0.42
  -3 -11   0    0.42    0.36
   3  11   0    0.44    0.62
   3 -11   0    0.18    0.34
   3 -11   0    0.66    0.32
   3  11   0   -0.29    0.42
  -3  11   0   -0.02    0.75
   3  11   0   -0.15    0.31
  -4  11   0    2.01    0.85
   4  11   0    2.23    0.75
   4  11   0    1.44    0.44
   4 -11   0    1.76    0.45
  -4 -11   0    1.63    0.49
   4 -11   0    2.00    0.44
   4  11   0    0.95    0.44
   5  11   0   -0.10    0.38
   5 -11   0   -0.07    0.38
  -5 -11   0   -0.44    0.43
   5  11   0   -0.74    0.47
   6 -11   0   27.34    1.28
   6  11   0   27.76    1.51
  -6 -11   0   24.79    1.44
   7  11   0   -0.74    0.63
   7 -11   0    0.24    0.39
   8 -11   0   22.91    1.10
   8  11   0   21.52    1.71
   9 -11   0   -0.44    0.74
  10  11   0    6.49    1.41
  10 -11   0    6.05    1.15
   0 -12   0  347.34   10.83
   0  12   0  356.83   11.04
   0  12   0  356.62   12.25
   1  12   0    0.14    0.58
   1  12   0   -0.09    0.71
  -1  12   0    0.71    0.63
   1 -12   0    0.29    0.39
  -1 -12   0    0.34    0.39
  -1  12   0   -0.01    0.70
  -2  12   0   66.54    3.16
   2  12   0   65.86    2.78
  -2 -12   0   62.50    2.52
   2 -12   0   65.68    2.15
   2 -12   0   63.08    2.48
  -2  12   0   66.00    2.74
   3 -12   0    0.36    0.36
   3 -12   0   -0.16    0.38
  -3 -12   0    0.50    0.42
  -3  12   0    1.24    0.89
   3  12   0    0.19    0.32
   4  12   0    0.41    0.41
   4  12   0    0.70    0.51
   4 -12   0    0.13    0.40
  -4 -12   0    0.36    0.50
   4 -12   0    0.94    0.44
   5 -12   0    0.11    0.49
   5 -12   0    0.54    0.43
   5  12   0    0.04    0.51
  -5 -12   0    0.16    0.51
   5  12   0    0.45    0.50
   6 -12   0   14.53    1.01
  -6 -12   0   12.76    1.21
   6  12   0   13.16    1.23
   7  12   0    0.96    0.74
   7 -12   0    0.39    0.47
   8 -12   0  112.94    3.66
   8  12   0  110.82    4.25
   9  12   0   -1.09    1.03
   9 -12   0    1.02    0.81
   0 -13   0    0.16    0.47
   0  13   0    0.23    0.76
   1 -13   0    0.27    0.44
  -1  13   0    0.75    0.84
   1  13   0    1.21    0.74
  -1 -13   0   -0.06    0.44
  -1  13   0   -0.95    0.75
   2 -13   0   88.23    3.26
  -2 -13   0   91.05    3.32
  -2  13   0   87.64    4.06
   2  13   0   90.98    3.67
  -2  13   0   88.35    3.56
   3 -13   0    0.72    0.40
  -3 -13   0   -0.69    0.51
   3  13   0   -0.10    0.63
   3 -13   0   -0.01    0.43
   4  13   0   15.13    0.94
   4  13   0   16.81    1.31
   4 -13   0   12.74    1.01
   4 -13   0   14.36    1.07
   5 -13   0    0.26    0.61
   5 -13   0   -0.15    0.49
   5  13   0    0.64    0.55
   5  13   0   -0.50    0.65
  -5 -13   0    1.04    0.58
   6 -13   0   -1.53    0.74
   6 -13   0    1.03    0.49
  -6 -13   0    1.02    0.64
   6  13   0   -0.24    0.65
   7 -13   0    0.49    0.51
   7  13   0   -0.07    0.77
   8 -13   0   25.69    1.35
   8  13   0   27.43    2.05
   9  13   0   -0.63    1.19
   9 -13   0   -1.41    0.90
   0 -14   0  190.21    6.34
   0  14   0  196.06    7.34
   1  14   0   -0.45    0.87
   1 -14   0    0.55    0.51
  -1  14   0    0.10    1.04
   2 -14   0   57.71    2.40
  -2 -14   0   57.44    2.45
   2  14   0   54.35    2.78
   3 -14   0    0.54    0.53
   3  14   0   -1.21    0.79
   3 -14   0    0.02    0.42
  -3 -14   0   -0.68    0.53
  -4 -14   0    4.37    0.73
   4  14   0    4.23    0.52
   4  14   0    3.55    0.89
   4 -14   0    4.74    0.75
   5 -14   0    1.20    0.71
   5 -14   0   -0.45    0.54
   5  14   0   -0.40    0.52
  -5 -14   0   -0.63    0.61
   5  14   0   -1.15    0.85
   6  14   0    8.82    0.95
  -6 -14   0    9.59    1.30
   6 -14   0    8.45    1.01
   7 -14   0   -0.19    0.66
   7  14   0    0.97    0.89
   7 -14   0    0.20    0.61
   8 -14   0    7.42    1.10
   8  14   0    5.66    1.23
   0 -15   0   -0.34    0.54
   0  15   0   -1.72    1.26
   1 -15   0    0.11    0.57
  -1 -15   0   -0.07    0.55
   1  15   0    1.14    1.11
   2  15   0   43.13    2.63
   2 -15   0   37.97    2.04
  -2 -15   0   42.20    2.06
   3  15   0    0.41    1.08
  -3 -15   0   -0.11    0.64
  -4 -15   0   10.05    1.27
   4  15   0    7.18    1.27
   4 -15   0    9.43    0.78
   5 -15   0    0.62    0.67
   5 -15   0   -0.95    0.50
   5  15   0    0.38    0.56
  -5 -15   0   -1.38    0.69
  -6 -15   0    1.18    0.85
   6 -15   0    0.41    0.69
   6 -15   0    1.10    0.66
   7 -15   0    0.58    0.73
   7 -15   0    1.72    0.81
   0 -16   0   23.07    1.56
   1 -16   0   -0.11    0.61
  -1 -16   0    0.70    0.67
   2 -16   0   15.00    1.30
  -2 -16   0   15.20    1.44
   2  16   0   16.05    1.88
   3 -16   0    1.33    0.68
   3  16   0   -0.63    1.42
  -3 -16   0    0.38    0.71
   4 -16   0  154.01    5.21
  -4 -16   0  150.26    5.35
  -5 -16   0   -1.57    0.81
   5 -16   0    0.40    0.71
   6 -16   0   34.82    1.92
   0 -17   0    2.67    0.79
  -1 -17   0    0.66    0.80
   1 -17   0   -0.30    0.72
   2 -17   0   14.89    1.46
  -2 -17   0   15.72    1.61
   3 -17   0   -0.37    0.75
  -3 -17   0    0.39    0.83
  -4 -17   0   -0.03    0.89
   4 -17   0   -0.91    0.78
   5 -17   0   -0.48    0.85
  -5 -17   0   -0.22    0.94
   0 -18   0   50.57    2.57
  -1 -18   0    1.88    0.92
   1 -18   0    0.44    0.85
   2 -18   0   -0.79    0.87
  -2 -18   0    1.02    0.90
   3 -18   0   -0.59    0.88
  -3 -18   0    0.04    1.00
   4 -18   0   54.24    2.68
  -4 -18   0   56.54    2.90
   0 -19   0    0.68    1.00
  -1   0   1    0.02    0.04
   1   0   1    0.17    0.06
  -2   0  -1   -0.72    0.09
   2   0   1   -0.63    0.10
  -2   0   1   -0.50    0.04
   2   0  -1   -0.44    0.09
  -2   0   1   -0.41    0.08
   2   0  -1   -0.71    0.05
  -2   0   1   -0.54    0.09
  -3   0   1   -0.38    0.13
  -3   0  -1   -0.49    0.12
   3   0  -1   -0.22    0.07
   3   0   1   -0.30    0.14
  -3   0   1   -0.40    0.09
  -4   0   1   -0.16    0.16
  -4   0   1   -0.29    0.13
  -4   0  -1   -0.09    0.15
   4   0   1   -0.29    0.21
   4   0  -1   -0.24    0.08
   5   0  -1    0.32    0.12
   5   0   1    0.09    0.27
  -5   0  -1   -0.14    0.12
  -5   0  -1    0.18    0.18
  -5   0   1   -0.03    0.21
   5   0   1    0.20    0.13
   6   0  -1   -0.06    0.28
  -6   0  -1   -0.02    0.19
   6   0   1    0.42    0.34
   6   0   1   -0.01    0.15
  -6   0   1   -0.34    0.24
   7   0   1   -0.39    0.38
   7   0  -1    0.25    0.31
   7   0   1    0.03    0.20
   8   0  -1   -0.93    0.37
   8   0   1   -0.99    0.42
   8   0   1   -0.26    0.23
   9   0   1    0.40    0.31
   9   0  -1   -0.54    0.46
  10   0  -1   -0.13    0.64
  10   0   1   -0.33    0.57
  11   0  -1    1.88    0.83
  11   0   1   -0.57    0.72
  12   0  -1   -0.11    0.91
  12   0   1   -1.20    0.93
   1  -1   1  179.14    5.43
  -1   1   1  155.85    4.71
   1   1  -1  155.34    5.33
   1   1  -1  162.11    4.85
   1   1  -1  157.15    4.77
  -1  -1   1  168.03    4.85
  -1   1  -1  165.16    5.42
   1  -1  -1  162.26    4.83
  -1  -1   1  158.65    4.77
   2  -1   1   11.31    0.60
   2   1  -1   11.02    0.46
   2   1  -1   11.43    0.48
   2   1  -1   10.76    0.52
  -2   1   1   12.30    0.60
  -2  -1   1   10.78    0.44
  -2   1  -1   11.97    0.59
   3   1  -1  126.52    3.82
   3   1  -1  125.62    4.34
   3  -1   1  133.76    4.48
   3   1  -1  123.08    4.01
  -3   1   1  132.14    4.45
   3   1  -1  133.10    4.32
   3   1   1  128.71    4.33
  -3  -1   1  130.72    3.80
  -3   1  -1  129.48    4.44
   3   1   1  124.27    3.83
   4   1  -1   18.93    0.71
   4   1  -1   21.21    0.92
   4  -1   1   19.55    1.00
  -4   1   1   19.31    0.95
   4   1   1   20.06    0.90
   4   1   1   18.29    0.71
  -4   1  -1   19.87    0.95
   5   1  -1  125.61    4.12
   5  -1   1  120.71    4.54
  -5   1   1  129.98    4.47
  -5   1   1  128.79    4.37
   5   1  -1  127.76    3.80
  -5   1  -1  120.58    4.43
   5   1   1  124.51    4.43
   5   1   1  131.74    3.83
  -6   1   1    1.56    0.38
  -6   1   1    1.50    0.29
   6   1  -1    1.87    0.26
   6   1  -1    1.52    0.36
   6  -1   1    2.12    0.46
   6   1   1    1.95    0.26
   6   1   1    1.59    0.40
  -6   1  -1    2.17    0.39
   7  -1   1    6.45    0.84
   7   1  -1    5.80    0.49
  -7   1   1    6.51    0.57
   7   1  -1    5.43    0.73
  -7   1   1    5.15    0.69
  -7   1  -1    6.31    0.67
   7   1   1    6.74    0.49
   7   1   1    6.55    0.76
  -7   1  -1    5.87    0.51
   7  -1  -1    5.01    0.69
  -8   1   1   40.29    1.76
   8   1  -1   39.63    1.93
   8  -1   1   42.59    2.10
  -8   1   1   40.79    1.66
   8   1  -1   41.67    1.44
   8  -1   1   42.59    1.40
   8   1   1   43.43    2.03
   8  -1  -1   41.92    1.94
   8   1   1   40.46    1.50
  -8   1  -1   41.12    1.66
  -8   1  -1   42.50    1.61
   9   1  -1   31.51    1.80
   9   1   1   32.91    1.80
   9  -1  -1   33.75    1.82
   9   1   1   34.17    1.31
  10   1  -1   16.28    1.48
  10  -1   1   15.76    1.42
  10   1   1   15.91    0.95
  10   1   1   17.75    1.43
  10  -1  -1   18.29    1.51
  11  -1   1   57.99    2.86
  11   1  -1   59.41    2.89
  11   1   1   58.82    2.87
  11  -1  -1   57.73    2.88
  12   1  -1   14.92    1.92
  12  -1   1   14.49    1.60
  12  -1  -1   15.97    1.92
  12   1   1   17.74    1.94
   0   2  -1  210.38    6.90
   0   2   1  211.66    6.12
   0  -2  -1  208.55    6.11
   0   2  -1  211.75    6.18
   0  -2   1  206.59    6.15
   0   2  -1  213.50    6.16
   0  -2   1  202.16    6.18
   0  -2   1  208.00    6.89
   1  -2   1   89.04    3.02
  -1   2   1   86.18    2.60
   1   2  -1   88.14    2.87
  -1  -2  -1   84.25    2.62
   1   2  -1   85.53    2.67
   1   2  -1   83.40    2.65
  -1   2  -1   93.23    3.04
  -1  -2   1   88.72    2.66
   1  -2  -1   86.41    2.59
  -1  -2   1   85.76    2.65
   1   2   1   86.06    2.63
  -2   2   1   31.61    0.92
   2   2  -1   27.67    1.03
   2   2  -1   26.63    0.99
  -2   2   1   33.67    1.21
  -2   2  -1   29.04    1.20
   2  -2  -1   29.60    0.90
  -2  -2   1   27.72    1.01
   2   2   1   25.98    0.97
  -2  -2   1   26.38    0.97
   3  -2   1  501.40   16.49
   3   2  -1  496.83   14.79
   3   2  -1  501.89   16.24
  -3   2   1  532.52   16.49
   3   2  -1  502.45   14.51
   3   2  -1  490.78   16.24
   3   2   1  480.52   14.50
  -3   2  -1  501.93   16.48
  -3  -2   1  483.10   14.48
   4   2  -1  140.43    4.26
   4   2  -1  139.17    4.76
  -4   2   1  148.18    4.99
   4   2  -1  139.92    4.47
   4   2  -1  137.03    4.73
   4  -2   1  137.90    4.99
  -4   2  -1  144.23    4.98
   4   2   1  146.53    4.74
   4   2   1  143.89    4.27
  -4  -2   1  133.36    4.21
   5   2  -1   25.83    1.14
  -5   2   1   24.69    1.27
   5   2  -1   26.61    0.98
   5  -2   1   24.42    1.30
   5   2  -1   25.04    1.17
   5   2   1   24.12    0.97
  -5   2  -1   26.76    1.29
   6  -2   1    0.83    0.40
   6   2  -1    1.14    0.34
  -6   2   1    0.61    0.39
   6   2  -1    0.62    0.25
  -6   2  -1    0.62    0.39
   6   2   1    0.55    0.24
   6   2   1    1.10    0.35
   7   2  -1    6.75    0.54
  -7   2   1    8.98    0.88
  -7   2   1    6.41    0.62
   7   2  -1    6.35    0.76
   7  -2   1    7.51    0.91
  -7   2  -1    7.07    0.82
   7   2   1    6.99    0.56
   7   2   1    6.31    0.75
   8   2  -1   37.30    1.85
  -8   2   1   38.99    1.83
  -8   2   1   39.79    1.68
   8   2  -1   37.94    1.44
  -8   2  -1   38.35    1.77
   8  -2  -1   36.83    1.82
  -8   2  -1   37.02    1.60
   8   2   1   37.52    1.86
   8   2   1   38.36    1.84
   8   2   1   39.45    1.48
   9   2  -1    0.29    0.40
   9   2  -1    0.30    0.54
  -9   2   1    1.00    0.39
  -9   2   1   -0.20    0.57
  -9   2  -1   -0.23    0.48
  -9   2  -1    0.65    0.36
   9  -2  -1    0.76    0.51
   9   2   1    0.40    0.41
   9   2   1   -0.41    0.51
  10   2  -1  107.15    4.19
  10   2   1  110.99    3.55
  10  -2  -1  106.17    4.17
  10   2   1  110.60    4.20
  11  -2   1   29.54    1.97
  11   2  -1   27.74    1.98
  11   2   1   26.09    1.97
  11  -2  -1   28.57    2.01
  12   2  -1    0.12    0.99
  12  -2   1   -1.95    0.88
  12  -2  -1   -0.22    0.97
  12   2   1    0.73    0.94
   0  -3  -1    0.01    0.09
   0   3  -1    0.01    0.14
   0   3   1   -0.16    0.10
   0   3  -1   -0.10    0.10
   0   3  -1   -0.02    0.08
   0  -3   1   -0.16    0.12
  -1  -3  -1   92.77    2.86
   1   3  -1   96.02    2.90
  -1   3   1   92.75    2.84
   1  -3   1   93.06    2.88
   1   3  -1   91.27    3.11
   1   3  -1   93.85    2.87
  -1  -3   1   93.92    2.86
   1  -3  -1   94.07    2.82
  -1  -3   1   90.12    2.88
  -1   3  -1   91.52    3.27
   1   3   1   92.74    2.87
   1   3   1   92.09    2.80
  -2   3   1    3.45    0.24
   2  -3   1    2.48    0.37
   2   3  -1    2.51    0.29
   2  -3   1    3.25    0.29
   2   3  -1    2.83    0.28
  -2   3  -1    2.62    0.37
  -2  -3   1    2.87    0.26
   2  -3  -1    3.72    0.22
   2   3   1    3.03    0.27
   3   3  -1  118.83    3.70
   3   3  -1  118.93    3.62
  -3   3   1  117.74    4.18
   3  -3   1  118.88    4.19
   3  -3  -1  116.47    3.47
  -3   3  -1  116.89    4.19
   3   3   1  119.34    3.61
  -3  -3   1  110.49    3.57
   4  -3   1   -0.04    0.25
   4   3  -1   -0.33    0.12
  -4   3   1   -0.11    0.27
   4   3  -1   -0.28    0.17
   4   3  -1   -0.19    0.19
   4   3  -1   -0.32    0.10
   4   3   1   -0.03    0.17
  -4  -3   1   -0.26    0.16
  -4   3  -1   -0.13    0.26
   5   3  -1  317.31   10.82
  -5   3   1  329.89   11.14
   5  -3   1  339.64   11.20
   5   3  -1  315.20   10.78
   5   3  -1  332.38   10.02
   5   3  -1  327.29    9.71
  -5  -3   1  320.91    9.63
  -5   3  -1  348.09   11.17
   5   3   1  322.44    9.71
   5   3   1  323.87   10.79
   6   3  -1   34.73    1.56
   6  -3   1   34.74    1.77
   6   3  -1   33.23    1.33
   6   3   1   35.25    1.35
   6   3   1   36.06    1.49
   7   3  -1   79.51    3.04
   7   3  -1   81.95    2.73
  -7   3   1   78.28    3.30
   7   3   1   80.77    3.08
   7   3   1   83.07    2.74
  -7   3  -1   89.07    3.35
   7   3   1   81.78    3.03
   8   3  -1    0.34    0.45
   8   3  -1    1.58    0.41
  -8   3   1    0.61    0.38
  -8   3   1    1.00    0.62
  -8   3  -1    0.49    0.57
   8  -3  -1    0.67    0.41
   8   3   1    0.60    0.46
   8   3   1    1.50    0.48
  -9   3   1   73.34    3.00
   9   3  -1   81.43    2.66
   9   3  -1   78.96    3.17
  -9   3   1   77.47    3.25
   9   3   1   77.57    3.13
   9   3   1   74.41    3.15
   9   3   1   78.64    2.69
  -9   3  -1   73.06    2.94
  -9   3  -1   80.11    3.21
   9  -3  -1   77.24    3.12
  10   3  -1    3.19    0.60
 -10   3   1    2.29    0.54
  10   3  -1    2.72    0.77
  10   3   1    2.26    0.75
 -10   3  -1    2.06    0.85
  10   3   1    3.35    0.68
 -10   3  -1    2.85    0.53
  10  -3  -1    1.64    0.70
  11  -3   1   38.03    2.28
  11   3  -1   39.76    2.37
  11   3   1   43.07    2.41
  11  -3  -1   39.96    2.37
  12   3  -1   -2.48    0.99
  12  -3   1   -0.46    0.93
  12   3   1    0.01    1.05
  12  -3  -1    1.86    1.06
   0  -4   1  720.69   21.15
   0   4   1  720.24   20.98
   0   4  -1  721.39   21.01
   0  -4   1  704.57   21.00
   0   4  -1  746.19   23.60
  -1  -4  -1   10.18    0.51
   1   4  -1   10.66    0.49
   1   4  -1   10.39    0.56
   1   4  -1   11.15    0.49
  -1   4   1   10.72    0.52
  -1   4  -1   10.73    0.56
  -1  -4   1   10.45    0.46
  -1  -4   1   10.11    0.55
  -1   4  -1   10.87    0.64
   1   4   1   10.05    0.53
   1  -4  -1   10.59    0.49
   1   4   1   10.17    0.40
  -2  -4  -1   -0.16    0.12
  -2   4   1   -0.17    0.13
   2   4  -1    0.06    0.15
   2  -4   1   -0.20    0.18
   2   4  -1   -0.25    0.15
  -2  -4   1   -0.01    0.15
   2   4   1   -0.08    0.10
  -2  -4   1   -0.03    0.11
  -2   4  -1   -0.27    0.20
   2   4   1    0.10    0.15
   2  -4  -1   -0.08    0.11
   3  -4   1   40.25    1.72
   3  -4   1   38.75    1.40
  -3  -4  -1   37.42    1.38
   3   4  -1   40.79    1.46
  -3   4   1   40.75    1.74
   3   4  -1   40.11    1.47
  -3   4  -1   39.97    1.74
   3  -4  -1   39.85    1.31
   3   4   1   41.11    1.43
   3   4   1   41.51    1.45
  -3  -4   1   39.26    1.42
  -4   4   1  191.58    6.48
   4   4  -1  180.39    5.71
   4  -4   1  187.15    6.47
   4  -4   1  179.31    5.51
   4   4  -1  185.32    5.60
   4   4   1  185.82    5.59
  -4  -4   1  175.66    5.52
   4  -4  -1  181.58    5.39
   4   4   1  178.30    5.68
  -4   4  -1  186.01    6.48
  -5   4   1   11.18    0.96
   5   4  -1   11.51    0.58
   5  -4   1    9.81    0.88
   5   4  -1   11.05    0.69
   5  -4   1   12.10    0.62
   5   4  -1   12.61    0.56
   5   4  -1   11.93    0.79
   5   4   1   11.41    0.69
  -5  -4   1   12.69    0.62
  -5   4  -1   13.34    1.00
   5   4   1   11.64    0.75
   6   4  -1  212.53    7.41
  -6   4   1  227.23    7.90
   6   4  -1  227.78    6.79
   6  -4   1  221.26    6.61
   6   4  -1  221.35    7.05
   6   4   1  218.65    7.02
   6   4   1  220.41    7.43
  -6   4  -1  229.68    7.91
   7   4  -1    1.38    0.47
  -7   4   1    1.17    0.62
   7   4   1    1.39    0.42
   7   4   1    1.72    0.42
   7   4   1    1.27    0.40
  -7   4  -1    0.16    0.59
   8   4  -1    6.81    0.92
   8   4  -1    7.75    0.79
  -8   4   1    7.90    1.01
   8   4   1    6.08    0.82
   8   4   1    6.91    0.82
   8   4   1    7.30    0.80
  -8   4  -1    6.70    0.95
   9   4  -1    2.20    0.68
  -9   4   1    2.68    0.56
  -9   4   1    2.87    0.87
   9   4  -1    3.82    0.61
   9  -4  -1    1.87    0.66
   9   4   1    3.02    0.65
  -9   4  -1    3.04    0.83
   9   4   1    3.24    0.68
   9   4   1    1.62    0.59
  10   4  -1   55.92    2.75
  10   4  -1   58.64    2.30
 -10   4   1   60.31    2.98
 -10   4   1   58.51    2.54
  10  -4  -1   59.79    2.72
 -10   4  -1   63.12    2.52
 -10   4  -1   55.38    2.86
  10   4   1   59.75    2.37
  10   4   1   55.70    2.71
  11   4  -1    1.84    0.94
 -11   4   1    1.79    0.68
  11  -4   1    2.66    0.85
  11  -4  -1    2.38    0.85
 -11   4  -1    0.90    0.62
  11   4   1    2.03    0.87
  12   4  -1    9.98    1.53
  12  -4   1    8.99    1.40
  12  -4  -1    9.90    1.43
  12   4   1    9.16    1.42
   0   5  -1    0.09    0.10
   0   5  -1    0.16    0.17
   0   5   1    0.06    0.15
   0  -5  -1   -0.18    0.12
   0  -5   1    0.13    0.16
   0  -5   1    0.13    0.12
   0   5  -1    0.06    0.18
   1  -5   1  159.24    4.87
  -1  -5  -1  156.30    4.84
   1  -5   1  163.50    4.80
  -1   5   1  161.52    4.85
   1   5  -1  161.07    4.91
   1   5  -1  159.32    5.34
   1   5  -1  160.11    4.81
   1  -5  -1  157.38    4.81
   1   5   1  161.71    4.88
   1   5   1  158.82    4.72
  -1  -5   1  149.59    4.86
  -1  -5   1  158.26    4.79
  -1   5  -1  153.02    5.50
  -1   5  -1  162.47    4.89
   2  -5   1  143.06    4.39
   2   5  -1  151.26    4.48
  -2   5   1  146.50    4.37
  -2  -5  -1  132.31    4.37
   2  -5  -1  143.81    4.34
   2   5   1  145.07    4.44
   2   5   1  138.13    4.33
  -2  -5   1  136.78    4.41
  -2   5  -1  143.37    5.07
  -2  -5   1  145.07    4.37
   3  -5   1  211.68    6.32
  -3   5   1  213.05    7.31
  -3  -5  -1  211.23    6.33
  -3   5   1  212.86    6.29
   3   5  -1  215.60    6.42
   3   5  -1  204.70    6.43
   3   5   1  208.91    6.39
   3   5   1  211.11    6.38
  -3  -5   1  198.42    6.35
  -3   5  -1  210.81    7.33
  -4   5   1   20.51    1.23
   4   5  -1   20.56    0.98
   4  -5   1   20.69    0.89
  -4  -5  -1   20.04    0.89
   4   5  -1   20.55    0.99
  -4  -5   1   20.61    0.91
   4   5   1   19.80    0.95
  -4   5  -1   22.58    1.30
   4  -5  -1   21.57    0.81
   5  -5   1   14.57    0.73
  -5   5   1   15.04    1.13
   5   5  -1   14.61    0.89
   5  -5  -1   14.73    0.61
   5   5   1   14.16    0.85
   5   5   1   15.53    0.85
  -5  -5   1   15.85    0.76
  -5   5  -1   15.56    1.15
   6   5  -1    3.18    0.47
   6   5  -1    2.59    0.35
  -6   5   1    2.51    0.65
   6   5  -1    3.18    0.51
   6  -5   1    2.94    0.37
  -6   5  -1    2.28    0.61
   6   5   1    2.69    0.48
  -6  -5   1    2.86    0.38
   6   5   1    2.80    0.46
   7   5  -1   44.90    1.99
   7   5  -1   45.26    1.83
   7   5  -1   43.31    1.72
  -7   5   1   44.22    2.33
   7   5   1   43.95    1.94
   7   5   1   44.04    1.81
  -7   5  -1   48.23    2.37
  -8   5   1   39.68    2.25
   8   5  -1   41.58    1.76
   8   5  -1   39.71    1.95
   8   5   1   37.90    1.73
  -8   5  -1   43.52    2.32
   8   5   1   39.72    1.76
   8   5   1   38.08    1.91
  -9   5   1   71.61    3.34
   9   5  -1   66.39    2.93
   9   5  -1   67.58    2.60
   9   5   1   64.98    2.61
   9  -5  -1   69.29    2.89
  -9   5  -1   71.97    3.31
   9   5   1   68.49    2.91
 -10   5   1    3.02    1.26
 -10   5   1    3.63    0.72
  10   5  -1    2.97    0.82
  10   5  -1    3.36    0.82
  10   5   1    2.30    0.79
 -10   5  -1    3.04    1.25
  10  -5  -1    2.34    0.75
  10   5   1    3.69    0.90
  11   5  -1   15.80    1.85
  11  -5   1   15.92    1.63
 -11   5   1   17.67    1.48
  11  -5  -1   16.16    1.69
  11   5   1   13.97    1.73
 -11   5  -1   14.57    1.38
  12   5  -1    3.59    1.28
  12  -5   1    1.13    1.03
  12  -5  -1    0.92    1.02
  12   5   1    1.71    1.13
   0  -6   1   76.53    2.34
   0   6  -1   77.66    2.53
   0   6   1   75.95    2.49
   0   6  -1   71.61    2.31
   0  -6   1   71.60    2.47
   0  -6  -1   75.08    2.45
   0   6  -1   70.10    2.72
   1   6  -1    3.11    0.30
   1   6  -1    3.00    0.40
   1   6  -1    2.48    0.31
   1  -6   1    2.77    0.28
   1  -6   1    2.48    0.34
  -1  -6  -1    2.16    0.30
  -1   6   1    2.99    0.39
  -1  -6   1    2.89    0.28
   1  -6  -1    2.70    0.34
   1   6   1    2.98    0.40
  -1  -6   1    2.90    0.38
   1  -6  -1    2.71    0.21
  -1   6  -1    2.90    0.41
   1   6   1    3.46    0.22
  -1   6  -1    2.86    0.41
  -2  -6  -1   -0.19    0.16
  -2   6   1   -0.01    0.21
   2  -6   1    0.04    0.23
   2   6  -1   -0.25    0.23
  -2   6   1    0.23    0.25
   2   6   1   -0.08    0.16
   2   6   1    0.11    0.24
  -2  -6   1    0.11    0.16
  -2  -6   1    0.16    0.23
  -2   6  -1    0.29    0.29
   2  -6  -1   -0.26    0.17
  -3   6   1   -0.06    0.23
   3  -6   1    0.15    0.23
   3   6  -1    0.01    0.23
  -3  -6  -1    0.13    0.21
  -3   6  -1    0.37    0.33
   3  -6  -1    0.42    0.22
   3   6   1    0.27    0.21
   3   6   1    0.14    0.27
  -3  -6   1    0.00    0.21
   4   6  -1    2.97    0.42
   4   6  -1    4.31    0.55
  -4  -6  -1    3.15    0.43
   4  -6   1    3.71    0.42
  -4   6   1    3.85    0.58
  -4   6  -1    3.25    0.61
   4   6   1    4.03    0.51
   4  -6  -1    3.41    0.40
   4   6   1    3.89    0.45
  -4  -6   1    3.70    0.45
  -5   6   1    8.35    1.01
   5  -6   1    8.10    0.58
   5   6  -1    8.79    0.74
   5   6  -1    8.77    0.74
   5  -6  -1    7.85    0.50
  -5  -6   1    8.19    0.60
  -5   6  -1    6.85    1.00
   5   6   1    8.86    0.68
   5   6   1    8.31    0.73
   6   6  -1    6.81    0.77
  -6   6   1    7.27    1.09
   6  -6   1    5.99    0.53
   6   6  -1    5.35    0.75
  -6   6  -1    8.01    1.11
   6   6   1    5.68    0.70
   6  -6  -1    5.57    0.42
  -6  -6   1    6.52    0.57
   6   6   1    5.81    0.75
   7  -6   1   15.29    0.78
   7   6  -1   13.84    1.08
  -7   6   1   17.45    1.58
   7   6  -1   14.54    1.12
   7   6  -1   15.11    0.80
   7   6   1   17.98    1.13
   7   6   1   19.22    1.16
  -7   6  -1   15.85    1.56
   8   6  -1    2.52    0.66
   8   6  -1    2.62    0.67
  -8   6   1    2.05    0.96
   8   6   1    1.92    0.62
   8   6   1    3.55    0.67
  -8   6  -1    3.96    0.99
   8   6   1    1.27    0.48
   9   6  -1    1.52    0.71
   9   6  -1    1.74    0.74
  -9   6   1   -0.28    1.09
  -9   6  -1    0.72    1.05
   9   6   1    0.00    0.75
   9   6   1    0.68    0.67
  10   6  -1   -0.82    0.75
 -10   6   1    0.17    0.67
 -10   6   1   -1.80    1.33
  10   6  -1   -0.95    0.92
  10   6   1    0.53    0.75
  10   6   1    0.54    0.93
 -10   6  -1    0.69    1.35
  10  -6  -1   -0.09    0.64
  11   6  -1    6.81    1.23
  11  -6   1    8.08    1.16
 -11   6   1    6.74    1.02
  11   6   1    8.30    1.28
 -11   6  -1    8.64    1.32
  11  -6  -1    7.43    1.09
  12   6  -1    2.28    1.30
  12  -6   1    0.21    1.04
  12   6   1    1.43    1.24
  12  -6  -1    1.95    1.13
   0   7  -1    0.08    0.25
   0  -7   1   -0.26    0.19
   0   7  -1    0.19    0.14
   0  -7  -1   -0.32    0.18
   1  -7   1   94.88    2.97
   1   7  -1   95.46    2.97
   1   7  -1   96.24    3.20
  -1   7   1   96.07    3.14
   1   7  -1   95.83    3.39
  -1  -7  -1   87.80    3.07
   1  -7   1   93.08    3.11
  -1  -7   1   93.07    2.94
  -1   7  -1   95.65    3.55
   1   7   1   94.25    3.16
   1  -7  -1   92.73    3.07
  -1  -7   1   92.21    3.13
  -1   7  -1   97.24    3.21
   1  -7  -1   98.87    2.88
   2   7  -1   14.43    0.71
  -2  -7  -1   14.39    0.76
   2   7  -1   12.79    0.71
   2  -7   1   13.55    0.77
   2   7  -1   13.49    0.83
  -2   7   1   14.84    0.79
   2  -7   1   12.41    0.65
  -2  -7   1   13.04    0.77
  -2  -7   1   13.53    0.63
   2   7   1   14.29    0.62
  -2   7  -1   14.42    1.01
   2   7   1   13.19    0.82
   2  -7  -1   13.28    0.71
  -3  -7  -1  251.73    7.97
  -3   7   1  273.42    7.99
   3   7  -1  262.53    8.03
   3  -7   1  268.38    7.97
  -3   7   1  281.04    9.22
   3   7  -1  271.78    8.12
  -3  -7   1  255.55    8.01
  -3   7  -1  248.14    9.17
   3   7   1  267.88    8.09
   3   7   1  260.38    7.96
   3  -7  -1  261.65    7.90
   4   7  -1    0.20    0.28
   4  -7   1    0.08    0.26
  -4  -7  -1   -0.03    0.24
   4   7  -1    0.07    0.35
  -4   7   1   -0.08    0.42
  -4  -7   1   -0.05    0.26
   4  -7  -1   -0.05    0.21
   4   7   1    0.66    0.35
   4   7   1    0.01    0.25
  -5  -7  -1   37.98    1.54
   5  -7   1   38.09    1.49
   5   7  -1   40.55    1.71
  -5   7   1   38.78    2.08
   5   7  -1   38.11    1.66
   5   7   1   39.44    1.61
   5   7   1   41.48    1.72
  -5   7  -1   36.63    2.07
  -5  -7   1   39.52    1.56
   5  -7  -1   40.00    1.41
   6   7  -1    4.79    0.68
   6   7  -1    4.56    0.62
  -6   7   1    3.01    0.83
   6  -7   1    4.08    0.52
  -6   7  -1    3.77    0.84
   6  -7  -1    3.58    0.43
  -6  -7   1    5.35    0.58
   6   7   1    5.12    0.70
   6   7   1    4.52    0.63
   7  -7   1   80.81    2.66
   7   7  -1   82.86    3.13
  -7   7   1   79.22    3.69
   7   7  -1   83.73    3.21
  -7   7  -1   78.33    3.69
   7   7   1   83.89    3.04
   7   7   1   82.79    3.08
   8   7  -1   14.57    0.83
   8   7  -1   15.03    1.28
   8   7  -1   12.38    1.30
  -8   7   1   10.50    1.42
   8  -7   1   13.35    0.73
  -8   7  -1   13.20    1.91
   8   7   1   14.18    1.22
   8   7   1   14.74    1.30
   9   7  -1    3.44    0.92
   9   7   1    1.83    0.88
   9   7   1    1.14    0.69
  10   7  -1    2.90    1.17
  10   7  -1    1.28    0.88
  10  -7  -1    1.59    0.72
  10   7   1    1.53    0.81
  10   7   1    3.42    1.15
 -11   7   1   10.12    1.52
  11   7  -1    8.21    1.32
  11  -7   1    9.47    1.24
  11   7   1    9.70    1.38
  11  -7  -1   10.59    1.34
   0  -8   1  202.73    6.33
   0   8  -1  209.79    7.09
   0   8  -1  203.94    6.40
   0   8   1  205.65    6.38
   0  -8   1  199.36    6.13
   0  -8  -1  201.91    6.29
   1  -8   1    8.14    0.49
  -1  -8  -1    7.13    0.59
  -1   8   1    6.75    0.66
   1  -8   1    7.17    0.62
   1   8  -1    9.08    0.49
   1   8  -1    7.52    0.65
   1   8  -1    8.21    0.73
   1  -8  -1    7.76    0.59
  -1  -8   1    8.04    0.45
  -1  -8   1    6.64    0.61
   1   8   1    7.98    0.69
  -1   8  -1    7.23    0.73
  -2  -8  -1    1.33    0.30
   2   8  -1    1.44    0.31
  -2   8   1    1.63    0.39
   2   8  -1    2.14    0.34
  -2   8   1    2.37    0.51
   2  -8   1    1.59    0.37
   2  -8   1    1.67    0.28
   2   8  -1    1.68    0.41
   2   8   1    1.61    0.40
   2   8   1    1.53    0.25
   2  -8  -1    1.73    0.24
   2  -8  -1    1.55    0.33
  -2  -8   1    1.61    0.24
  -2  -8   1    1.31    0.34
  -2   8  -1    1.05    0.46
   3   8  -1   26.07    1.31
   3   8  -1   24.87    1.13
   3  -8   1   25.46    1.15
  -3  -8  -1   24.37    1.15
  -3   8   1   24.98    1.49
   3   8  -1   24.57    1.06
  -3   8  -1   25.99    1.52
   3   8   1   25.24    1.27
   3  -8  -1   26.52    1.10
   3   8   1   24.64    1.06
  -3  -8   1   24.78    1.19
   4  -8   1   92.25    3.03
  -4   8   1   88.61    3.71
   4   8  -1   94.62    3.24
  -4  -8  -1   89.24    3.06
   4   8  -1   91.66    3.10
   4  -8  -1   89.81    2.95
   4   8   1   90.96    3.21
   4   8   1   90.71    3.03
  -4  -8   1   92.46    3.10
  -4   8  -1   82.16    3.69
   5   8  -1   36.26    1.66
  -5  -8  -1   41.28    1.61
   5   8  -1   36.87    1.76
   5  -8   1   38.88    1.53
  -5   8   1   38.99    2.17
   5  -8  -1   39.76    1.45
  -5   8  -1   38.94    2.20
  -5  -8   1   38.71    1.60
   5   8   1   37.52    1.61
   5   8   1   39.48    1.77
   6   8  -1   19.53    1.25
  -6   8   1   20.76    1.76
   6  -8   1   20.90    1.00
   6   8  -1   20.69    1.35
   6   8   1   20.55    1.21
   6   8   1   19.86    1.35
  -6  -8   1   20.54    1.10
   6  -8  -1   21.88    0.92
  -6   8  -1   18.66    1.80
  -7   8   1    4.31    1.09
   7   8  -1    4.32    0.73
   7  -8   1    5.84    0.59
   7   8   1    5.50    0.75
   7   8   1    4.47    0.84
   7  -8  -1    5.07    0.45
  -7   8  -1    4.86    1.09
   8   8  -1   27.26    1.26
   8  -8   1   27.23    1.14
   8   8  -1   29.16    1.79
   8   8  -1   28.68    1.73
   8   8   1   29.55    1.82
   8   8   1   27.80    1.68
   9   8  -1    1.43    1.02
   9   8   1    1.43    0.79
   9   8   1    2.35    1.07
   9  -8  -1    0.19    0.62
  10   8  -1   32.45    2.20
  10  -8  -1   29.79    1.98
  10   8   1   31.13    2.13
 -11   8   1    2.54    1.00
  11   8  -1    0.70    1.11
  11  -8   1    1.76    0.92
  11   8   1    3.74    1.20
  11  -8  -1    3.62    0.99
   0   9  -1    1.00    0.42
   0  -9   1    2.33    0.41
   1   9  -1   92.92    3.30
  -1   9   1   92.35    3.42
   1  -9   1   88.92    2.77
   1  -9   1   82.20    2.97
  -1  -9  -1   85.20    2.97
   1   9  -1   81.57    2.74
   1   9  -1   88.88    3.12
  -1   9   1   86.89    3.05
  -1   9  -1   83.90    3.43
   1   9   1   85.30    3.08
  -1   9  -1   87.75    3.10
  -1  -9   1   87.07    2.73
  -1  -9   1   82.72    3.00
   1  -9  -1   84.47    2.94
  -2  -9  -1    6.11    0.61
   2  -9   1    6.37    0.64
   2   9  -1    5.88    0.80
   2  -9   1    7.05    0.52
  -2   9   1    6.39    0.71
  -2   9   1    7.42    0.88
   2   9  -1    6.01    0.66
   2   9  -1    5.97    0.55
  -2  -9   1    6.60    0.47
  -2   9  -1    7.28    0.88
   2   9   1    6.60    0.76
   2   9   1    6.34    0.44
   2  -9  -1    6.39    0.59
   2  -9  -1    7.20    0.43
  -2  -9   1    6.75    0.67
  -3  -9  -1  232.15    7.15
   3  -9   1  227.61    7.07
  -3   9   1  230.71    8.26
   3   9  -1  230.63    7.78
   3   9  -1  236.35    7.33
   3  -9   1  242.57    7.15
  -3   9   1  231.29    7.18
   3   9  -1  229.79    7.10
   3   9   1  226.33    7.01
  -3   9  -1  218.15    8.25
   3   9   1  235.36    7.30
  -3  -9   1  228.20    7.19
   3  -9  -1  230.78    7.06
   4   9  -1   14.00    0.76
   4   9  -1   13.45    0.91
  -4   9   1   14.38    1.39
  -4  -9  -1   12.91    0.87
   4   9  -1   15.94    1.14
   4  -9   1   15.47    0.91
  -4   9  -1   12.95    1.38
   4  -9  -1   14.94    0.82
  -4  -9   1   12.83    0.90
   4   9   1   14.46    1.10
   4   9   1   13.81    0.86
  -5  -9  -1    5.20    0.66
  -5   9   1    4.59    0.92
   5  -9   1    4.69    0.62
   5   9  -1    4.48    0.74
   5   9  -1    5.06    0.63
   5  -9  -1    6.10    0.57
   5   9   1    4.66    0.58
  -5  -9   1    5.12    0.70
   5   9   1    4.65    0.76
  -5   9  -1    6.51    1.05
   6   9  -1    0.30    0.50
  -6   9   1    0.61    0.90
   6  -9   1    0.75    0.36
   6   9  -1    0.68    0.65
  -6  -9   1   -0.08    0.38
   6   9   1    0.07    0.47
  -6   9  -1    1.49    0.93
   6   9   1   -0.38    0.62
   6  -9  -1    0.36    0.29
   7  -9   1   27.07    1.20
   7   9  -1   24.80    1.58
  -7  -9   1   25.22    1.34
   7  -9  -1   26.36    1.07
   7   9   1   28.09    1.54
   7   9   1   28.44    1.76
   8   9  -1    7.75    1.20
   8  -9   1   10.38    0.74
   8   9  -1    9.54    1.29
   8  -9  -1    7.71    1.07
   8   9   1    9.28    1.22
   9   9   1    2.85    0.91
   9  -9  -1    3.36    0.80
  10   9  -1    0.57    1.02
  10  -9  -1   -0.68    0.78
  10   9   1    0.42    0.93
  11   9  -1   21.99    2.44
  11  -9   1   20.16    1.99
  11   9   1   16.30    1.82
  11  -9  -1   19.54    2.01
   0  10  -1   85.88    3.44
   0 -10  -1   87.02    3.01
   0 -10   1   86.08    3.05
   0  10  -1   86.74    3.18
   0 -10   1   85.46    2.72
   0  10   1   85.87    3.13
  -1  10   1    5.32    0.71
   1  10  -1    5.57    0.75
  -1  10   1    4.19    0.67
  -1 -10  -1    3.70    0.52
   1 -10   1    4.77    0.63
   1 -10   1    4.21    0.45
   1  10   1    4.17    0.61
   1 -10  -1    4.40    0.58
  -1 -10   1    4.39    0.59
  -1 -10   1    3.83    0.39
  -1  10  -1    4.16    0.68
  -1  10  -1    4.19    0.69
   2  10  -1    9.64    0.82
   2  10  -1    9.15    0.99
  -2  10   1    9.30    0.91
   2  10  -1    8.89    0.61
   2 -10   1    9.22    0.62
   2 -10   1    9.21    0.79
  -2 -10  -1    8.56    0.74
  -2  10   1    7.86    1.05
   2  10   1    9.09    0.47
  -2  10  -1    8.59    1.10
   2  10   1    9.84    0.99
  -2 -10   1    8.94    0.79
   2 -10  -1    9.46    0.74
   2 -10  -1    8.72    0.51
  -3  10   1    1.05    0.64
  -3 -10  -1    0.09    0.31
   3 -10   1    0.03    0.32
   3  10  -1   -0.39    0.30
   3 -10   1   -0.18    0.27
   3  10  -1    0.05    0.53
  -3  10   1   -0.51    0.42
  -3  10  -1    0.04    0.62
  -3 -10   1   -0.62    0.32
   3  10   1    0.10    0.30
   3 -10  -1   -0.11    0.28
   3  10   1   -0.38    0.47
   3 -10  -1    0.28    0.26
   4  10  -1  178.28    5.74
   4  10  -1  167.62    5.84
  -4  10   1  170.66    6.52
   4  10  -1  167.82    5.44
  -4 -10  -1  161.10    5.44
   4 -10   1  172.24    5.43
   4 -10   1  169.32    5.42
   4 -10  -1  172.61    5.37
  -4  10  -1  168.15    6.54
  -4 -10   1  175.56    5.52
   4  10   1  168.01    5.35
   4  10   1  173.08    5.70
  -5 -10  -1    0.18    0.37
   5 -10   1   -0.07    0.34
   5  10  -1   -0.78    0.42
   5  10  -1    0.17    0.67
  -5 -10   1    0.31    0.41
   5  10   1   -0.68    0.64
   5  10   1   -0.05    0.39
   5 -10  -1   -0.23    0.31
   6 -10   1   43.33    1.76
   6  10  -1   45.63    2.01
   6  10  -1   46.41    2.28
   6 -10  -1   40.93    1.64
   6  10   1   44.88    1.95
   6  10   1   43.41    2.23
  -6 -10   1   44.30    1.89
   7 -10   1    2.25    0.47
   7  10  -1    0.60    0.61
  -7 -10   1    2.89    0.61
   7  10   1    1.73    0.63
   7 -10  -1    1.70    0.38
   8 -10   1    3.11    0.52
   8  10  -1    2.45    0.84
   8 -10  -1    2.32    0.68
   8 -10  -1    3.50    0.40
   8  10   1    1.18    0.77
   9  10  -1    0.53    0.90
   9 -10   1    0.50    0.41
   9 -10  -1    0.26    0.72
   9  10   1    0.44    0.96
  10  10  -1   15.98    2.05
  10  10   1   17.35    2.02
  10 -10  -1   19.91    1.74
   0 -11   1    0.27    0.24
   0  11   1    0.18    0.51
   0  11  -1    0.67    0.55
   0 -11   1    0.00    0.34
   0  11   1    0.42    0.50
   0 -11  -1   -0.07    0.34
   0  11  -1   -0.35    0.51
  -1  11   1   37.05    2.06
   1  11  -1   39.01    1.95
   1 -11   1   38.61    1.73
  -1 -11  -1   37.15    1.67
  -1  11   1   40.60    1.89
   1  11  -1   40.56    1.95
   1 -11   1   39.86    1.43
  -1 -11   1   40.29    1.36
   1 -11  -1   39.28    1.69
  -1 -11   1   40.58    1.77
   1  11   1   39.45    1.90
  -1  11  -1   40.46    1.92
  -1  11  -1   39.55    2.11
  -2  11   1   12.61    1.11
  -2 -11  -1   10.66    0.87
   2 -11   1   11.05    0.91
   2  11  -1   11.36    0.69
   2  11  -1   11.58    1.17
  -2  11   1   10.61    1.32
   2 -11   1   12.10    0.70
   2 -11  -1   11.48    0.84
  -2 -11   1   11.69    0.94
   2 -11  -1   10.78    0.58
  -2  11  -1   11.49    1.35
   2  11   1   11.35    1.08
   3 -11   1   29.61    1.43
  -3 -11  -1   29.93    1.45
   3  11  -1   30.89    1.28
  -3  11   1   33.79    2.03
   3 -11   1   27.80    1.24
   3  11  -1   31.33    1.50
   3  11  -1   29.59    1.73
  -3  11   1   26.66    1.56
  -3  11  -1   29.90    2.02
   3 -11  -1   28.81    1.17
  -3 -11   1   28.13    1.46
   3 -11  -1   28.94    1.36
   3  11   1   29.33    1.70
   4  11  -1    4.61    0.90
  -4 -11  -1    3.93    0.58
   4  11  -1    5.21    0.61
   4  11  -1    4.54    0.59
   4 -11   1    4.89    0.65
  -4  11   1    3.86    0.95
   4 -11   1    5.30    0.72
  -4 -11   1    3.91    0.64
  -4  11  -1    4.82    1.04
   4  11   1    2.95    0.84
   4 -11  -1    4.44    0.59
   4  11   1    4.22    0.53
   5 -11   1  243.68    7.49
   5  11  -1  231.16    8.14
  -5 -11  -1  254.93    7.60
   5  11  -1  231.51    7.57
   5  11  -1  245.73    8.05
   5 -11   1  250.90    7.61
   5  11   1  233.81    7.49
   5 -11  -1  239.56    7.39
  -5 -11   1  234.94    7.59
   6 -11   1    2.24    0.52
   6  11  -1    1.52    0.60
  -6 -11   1    2.41    0.58
   6 -11  -1    1.91    0.43
   6  11   1    1.59    0.58
   7  11  -1   22.42    1.55
   7 -11   1   20.29    1.16
   7  11   1   20.77    1.50
  -7 -11   1   22.79    1.44
   7 -11  -1   20.60    1.33
   7 -11  -1   22.25    1.08
   8  11  -1    9.56    1.17
   8 -11   1    8.60    0.84
   8  11   1    8.75    1.08
   8 -11  -1    7.77    0.69
   8 -11  -1    8.53    1.16
   9  11  -1   46.10    2.65
   9 -11  -1   49.33    2.40
  10 -11   1    0.28    0.91
  10  11  -1   -1.34    1.17
  10 -11  -1    0.36    0.97
  10  11   1   -0.77    1.15
   0  12  -1   51.16    2.39
   0 -12   1   52.99    2.17
   0  12   1   51.39    2.33
   0 -12   1   50.97    1.69
   0  12   1   52.44    2.52
   0 -12  -1   50.73    2.10
   0  12  -1   50.65    2.55
   1 -12   1    8.09    0.84
  -1  12   1    7.10    1.02
  -1 -12  -1    8.21    0.80
   1  12  -1    6.92    0.89
  -1  12   1    8.78    1.12
  -1  12  -1    8.64    1.11
  -1 -12   1    7.56    0.46
   1  12   1    6.60    0.87
  -1 -12   1    7.15    0.82
   1 -12  -1    7.60    0.79
  -1  12  -1    7.78    1.03
   1  12   1    8.70    1.05
   2 -12   1    1.55    0.37
   2 -12   1    0.68    0.41
  -2  12   1    0.62    0.74
   2  12  -1    0.61    0.30
   2  12  -1    1.07    0.60
  -2  12   1    1.01    0.67
  -2 -12  -1    1.11    0.45
   2  12   1    1.04    0.57
   2 -12  -1    0.33    0.40
  -2 -12   1    0.17    0.43
  -2  12  -1    1.61    0.82
  -3  12   1   11.28    1.65
   3  12  -1    7.67    0.68
   3 -12   1    8.58    0.74
   3 -12   1    7.06    0.83
  -3 -12  -1    6.28    0.76
   3  12  -1    8.46    1.02
  -3  12   1    8.05    0.98
   3 -12  -1    7.35    0.62
   3 -12  -1    8.64    0.80
  -3  12  -1    6.92    1.20
  -3 -12   1    7.61    0.91
   4 -12   1    6.39    0.82
   4  12  -1    6.62    0.81
  -4 -12  -1    9.73    0.94
   4  12  -1    8.77    0.99
   4 -12   1    7.53    0.84
   4  12   1    7.07    0.73
  -4 -12   1    7.93    0.94
   4 -12  -1    7.26    0.79
   5  12  -1   -0.14    0.55
   5 -12   1   -0.15    0.43
   5 -12   1    0.45    0.57
  -5 -12  -1    0.76    0.53
   5  12  -1    0.78    0.55
  -5 -12   1    1.05    0.55
   5  12   1    0.27    0.47
   5 -12  -1    0.30    0.40
   5 -12  -1    0.40    0.52
   6 -12   1    1.44    0.73
   6  12  -1    2.31    0.64
   6 -12   1    1.91    0.56
   6  12  -1    1.22    0.65
   6  12   1    2.16    0.63
   6 -12  -1    1.44    0.46
  -6 -12   1    2.21    0.66
   6 -12  -1    1.87    0.50
   7  12  -1   27.71    1.75
   7 -12   1   25.99    1.36
  -7 -12   1   26.71    1.60
   7  12   1   27.78    1.66
   7 -12  -1   23.99    1.48
   7 -12  -1   24.99    1.24
   8 -12   1    1.56    0.55
   8  12  -1    3.14    0.96
   8 -12  -1    2.09    0.73
   8 -12  -1    1.11    0.47
   8  12   1    0.68    0.87
   9  12  -1    0.91    1.08
   9 -12  -1    0.94    0.83
   0  13  -1    0.59    0.79
   0 -13   1   -0.42    0.42
   0  13   1    1.28    0.78
   0 -13  -1   -0.11    0.43
  -1  13   1    2.45    0.85
   1 -13   1    3.40    0.69
  -1  13   1    2.84    0.87
  -1 -13  -1    3.27    0.59
   1  13  -1    3.74    0.86
  -1  13  -1    2.74    0.92
   1  13   1    2.68    0.77
  -1  13  -1    2.30    0.87
  -1 -13   1    2.86    0.59
   1 -13  -1    3.14    0.59
  -2  13   1   11.67    1.46
   2 -13   1    9.72    0.95
  -2  13   1    9.21    1.32
   2  13  -1   11.18    1.34
   2 -13   1    9.62    0.74
  -2 -13  -1   10.51    1.00
  -2  13  -1    8.79    1.33
  -2 -13   1   10.97    1.06
   2 -13  -1   10.58    0.90
   2  13   1    7.90    1.23
   3 -13   1   12.34    0.87
  -3 -13  -1   10.31    1.05
   3  13  -1   11.49    0.75
   3  13  -1   10.75    1.31
   3 -13   1   11.45    0.99
   3 -13  -1   10.64    0.65
   3 -13  -1   10.15    0.71
   3  13   1   11.19    1.24
  -3 -13   1   11.42    1.07
   3 -13  -1    8.47    0.88
  -4 -13  -1    1.22    0.61
   4  13  -1    2.32    0.74
   4 -13   1    0.76    0.53
   4  13  -1    1.83    0.48
   4 -13   1    1.88    0.55
   4 -13  -1    1.17    0.36
   4  13   1    2.13    0.44
   4 -13  -1    1.74    0.47
   4 -13  -1    1.93    0.49
  -5 -13  -1   44.85    2.08
   5 -13   1   44.30    1.99
   5 -13   1   41.91    1.94
   5  13  -1   46.15    1.95
   5 -13  -1   44.47    1.88
   5 -13  -1   44.61    1.79
  -5 -13   1   45.07    2.12
   5  13   1   45.46    1.87
   5 -13  -1   47.44    1.92
   5  13   1   42.57    2.03
   6  13  -1    7.89    0.93
   6  13  -1    5.76    0.88
   6 -13   1    9.35    1.03
   6 -13   1    6.00    0.80
   6  13   1    7.04    0.84
  -6 -13   1    9.50    1.15
   6 -13  -1    6.85    0.86
   6 -13  -1    6.93    0.91
   6 -13  -1    6.67    0.89
   7 -13   1   27.62    1.47
   7  13  -1   23.14    1.79
  -7 -13   1   29.13    1.74
   7 -13  -1   27.03    1.33
   7  13   1   26.45    1.75
   7 -13  -1   26.67    1.57
   8  13  -1   32.18    2.31
   8 -13   1   38.07    1.67
   8  13   1   35.36    2.18
   8 -13  -1   34.15    2.02
   9  13  -1   48.03    2.84
   9 -13   1   48.50    2.49
   9 -13  -1   43.70    2.48
   0 -14   1   97.44    3.65
   0  14  -1  103.48    4.61
   0 -14  -1   95.98    3.58
   0  14   1   96.42    4.26
  -1  14   1    0.85    1.05
   1  14  -1    1.31    0.96
   1 -14   1    0.24    0.53
   1  14   1    1.03    0.87
   1 -14  -1   -0.29    0.44
  -1  14  -1    1.09    1.04
   2  14  -1   22.53    1.84
   2 -14   1   21.98    1.41
  -2 -14  -1   21.27    1.39
   2  14   1   19.61    1.77
   2 -14  -1   22.73    1.34
  -2 -14   1   22.31    1.45
   3  14  -1    0.75    0.38
   3  14  -1    0.03    0.88
  -3 -14  -1    0.20    0.55
   3 -14   1    0.39    0.50
   3 -14   1    0.51    0.52
   3 -14  -1    0.91    0.51
   3  14   1    1.48    0.85
  -3 -14   1    0.80    0.58
   4  14  -1   25.75    1.24
   4 -14   1   23.78    1.48
   4  14  -1   25.36    1.86
   4 -14   1   25.51    1.40
  -4 -14  -1   26.21    1.55
   4 -14  -1   25.22    1.14
   4 -14  -1   25.03    1.25
  -4 -14   1   26.19    1.60
   4  14   1   22.46    1.73
   4 -14  -1   24.78    1.41
  -5 -14  -1    0.59    0.67
   5  14  -1    0.76    0.90
   5 -14   1    0.66    0.56
   5  14  -1    0.38    0.59
   5 -14   1    0.83    0.75
   5 -14  -1    0.18    0.53
   5  14   1   -0.28    0.50
   5 -14  -1   -0.12    0.66
  -5 -14   1    0.88    0.68
   5  14   1    0.56    0.80
   5 -14  -1    0.64    0.46
   6 -14   1   42.29    1.94
   6  14  -1   40.85    2.01
  -6 -14   1   38.27    2.10
   6 -14  -1   39.81    1.82
   6  14   1   40.83    1.92
   6 -14  -1   39.33    1.81
   7  14  -1    1.04    0.89
   7 -14   1    2.50    0.71
   7 -14  -1    2.92    0.75
   7 -14  -1    2.22    0.62
   7  14   1    1.35    0.87
  -7 -14   1    2.74    0.86
   8  14  -1    0.27    1.11
   0 -15  -1   -0.23    0.56
   0  15   1   -2.28    1.16
   0 -15   1    0.10    0.58
   1 -15   1   96.80    3.62
   1  15  -1   96.08    4.36
  -1 -15  -1   96.29    3.59
   1 -15  -1   94.31    3.54
  -1 -15   1   93.37    3.61
   1  15   1   96.09    4.28
   2  15  -1    2.98    1.19
  -2 -15  -1    3.53    0.72
   2 -15   1    3.07    0.76
   2  15   1    3.21    1.14
  -2 -15   1    1.83    0.67
   3 -15   1   11.59    1.27
   3  15  -1   11.27    1.39
  -3 -15  -1   10.34    1.19
   3 -15   1    9.87    0.97
  -3 -15   1   11.56    1.30
   3  15   1   11.82    1.81
   4  15  -1    4.99    0.59
  -4 -15  -1    4.73    0.88
   4  15  -1    5.61    1.21
   4  15   1    4.96    1.16
  -4 -15   1    5.56    0.92
   4 -15  -1    5.13    0.85
  -5 -15  -1   13.65    1.42
   5  15  -1   13.36    1.14
   5 -15  -1   14.20    1.03
  -5 -15   1   14.12    1.45
   5 -15  -1   15.26    1.25
   6  15  -1    1.15    0.78
   6 -15   1    0.49    0.76
   6 -15  -1    1.25    0.66
   6 -15  -1    0.31    0.63
  -6 -15   1   -0.08    0.84
   7 -15   1   14.37    1.40
   7 -15   1   13.56    1.47
   7 -15  -1   15.13    1.27
   0 -16  -1   14.07    1.32
   0 -16   1   13.30    1.33
  -1 -16  -1    1.90    0.73
   1 -16   1    1.69    0.69
   1 -16  -1    2.14    0.69
  -1 -16   1    0.45    0.67
   2 -16   1   -0.41    0.63
  -2 -16  -1    1.11    0.72
   2  16  -1   -0.43    1.44
   2  16   1    0.36    1.36
   2 -16  -1    0.59    0.64
  -2 -16   1    0.24    0.74
   3  16  -1    6.93    1.53
   3 -16   1    8.28    0.99
  -3 -16  -1    7.06    1.02
   3  16   1    7.18    1.48
  -3 -16   1    7.33    1.04
   3 -16  -1    9.73    1.12
   4 -16   1    1.82    0.75
  -4 -16   1    3.24    0.91
   4 -16  -1    2.67    0.74
  -5 -16  -1   -0.65    0.82
   5 -16   1    1.52    0.75
  -5 -16   1    1.75    0.85
   5 -16  -1    0.96    0.73
   6 -16   1   11.75    1.38
  -6 -16   1   13.65    1.70
   6 -16  -1   12.30    1.34
   0 -17  -1    0.06    0.75
   0 -17   1    0.50    0.75
  -1 -17  -1   58.72    2.69
   1 -17   1   62.00    2.72
   1 -17  -1   56.93    2.65
  -1 -17   1   58.32    2.76
  -2 -17  -1   10.81    1.41
   2 -17   1    9.91    1.36
   2 -17  -1    8.25    1.08
  -2 -17   1   11.85    1.32
   3 -17   1   31.28    1.92
  -3 -17  -1   34.15    2.07
   3 -17  -1   34.67    1.92
  -3 -17   1   30.68    2.12
   4 -17   1    0.00    0.78
  -4 -17  -1    0.92    0.88
   4 -17  -1    0.41    0.75
  -4 -17   1    0.33    0.86
   5 -17   1    3.21    0.92
  -5 -17   1    2.53    1.09
   5 -17  -1    2.88    0.90
   0 -18   1    3.89    1.04
   0 -18  -1    3.78    0.99
   1 -18   1    3.88    1.00
  -1 -18  -1    5.73    1.03
   1 -18  -1    4.64    0.96
  -1 -18   1    5.83    1.09
  -2 -18  -1    1.62    0.93
   2 -18   1    0.10    0.89
   2 -18  -1    0.42    0.83
  -2 -18   1    0.38    0.94
   3 -18   1   19.65    1.77
  -3 -18  -1   19.53    1.86
  -3 -18   1   16.37    1.86
   3 -18  -1   15.40    1.63
  -4 -18  -1    4.55    1.20
   4 -18   1    1.81    0.98
   4 -18  -1    4.95    1.10
  -4 -18   1    0.84    1.06
   0 -19   1    0.99    1.05
   0 -19  -1   -0.44    0.96
   0   0   2  148.21    4.94
   0   0   2  155.11    4.42
   0   0  -2  141.33    4.90
  -1   0  -2  187.42    6.23
   1   0   2  190.68    6.25
   1   0  -2  184.93    6.23
  -1   0   2  193.84    5.64
   1   0  -2  193.89    5.64
  -1   0   2  183.07    6.24
   2   0   2    7.58    0.45
  -2   0  -2    9.16    0.43
   2   0  -2    8.92    0.43
   2   0  -2    8.60    0.45
  -2   0   2    8.57    0.44
  -2   0   2    7.83    0.33
  -2   0   2    8.73    0.44
  -3   0   2  125.34    4.24
  -3   0   2  123.05    4.26
   3   0   2  125.03    4.30
  -3   0  -2  126.92    4.22
   3   0  -2  124.32    3.92
  -4   0  -2  409.02   12.53
   4   0   2  390.89   12.68
  -4   0   2  383.04   12.59
   4   0  -2  375.44   11.46
  -4   0   2  347.49   12.60
  -5   0   2    2.16    0.34
  -5   0  -2    1.99    0.31
   5   0   2    1.83    0.39
   5   0  -2    1.93    0.35
  -5   0   2    2.77    0.37
   6   0   2  289.89    9.70
   6   0  -2  278.04    8.80
  -6   0   2  276.85    9.47
  -6   0   2  288.02    9.43
   7   0  -2   92.16    3.33
  -7   0   2   88.84    3.25
   7   0   2   94.27    2.89
   7   0   2   92.68    3.61
   8   0   2    9.47    1.04
   8   0   2    9.16    0.59
   8   0  -2    8.96    0.96
   9   0   2    4.39    0.84
   9   0  -2    3.93    0.76
  10   0   2    4.04    0.51
  10   0  -2    3.62    0.81
  11   0   2    5.47    1.02
  11   0  -2    6.12    1.08
  12   0  -2   -1.15    0.98
  12   0   2    0.93    1.01
   0  -1   2   -0.34    0.06
   0  -1   2   -0.27    0.05
   0  -1  -2   -0.32    0.04
   0   1  -2   -0.28    0.06
   0   1   2   -0.35    0.04
   0   1  -2   -0.27    0.06
   1  -1   2  577.74   19.33
  -1   1  -2  611.66   19.33
  -1  -1   2  585.78   17.37
   2  -1   2  403.20   12.60
   2   1  -2  395.45   11.32
   2   1  -2  387.75   12.48
   2  -1  -2  382.48   11.29
  -2  -1   2  379.58   11.07
   2   1   2  359.09   12.43
  -2  -1   2  391.94   11.31
  -2  -1   2  363.13   12.45
  -2   1  -2  366.29   12.56
   3   1  -2   19.38    0.70
   3   1  -2   20.28    0.86
   3  -1   2   18.81    0.95
  -3   1   2   18.14    0.89
   3   1  -2   19.71    0.81
  -3  -1   2   18.54    0.77
  -3  -1   2   19.50    0.68
  -3   1  -2   18.29    0.89
  -3  -1   2   20.58    0.78
   3   1   2   20.52    0.82
   3  -1  -2   19.37    0.83
   4   1  -2   44.88    1.43
  -4   1   2   45.27    1.71
   4   1  -2   44.24    1.67
   4  -1   2   46.75    1.86
  -4   1   2   44.42    1.78
   4   1   2   41.97    1.71
  -4   1  -2   46.57    1.77
  -4  -1   2   41.50    1.59
  -4  -1   2   45.43    1.59
   4  -1  -2   43.38    1.64
  -4  -1   2   43.52    1.39
   5   1  -2   13.15    0.56
   5   1  -2   12.53    0.80
   5  -1   2   13.04    0.89
  -5   1   2   12.94    0.73
  -5   1   2   12.34    0.80
   5  -1  -2   12.37    0.77
   5   1   2   13.39    0.82
   5   1   2   12.31    0.58
  -5   1  -2   12.58    0.77
  -6   1   2    2.45    0.45
  -6   1   2    2.96    0.45
   6  -1   2    4.67    0.70
   6  -1  -2    2.86    0.45
  -6   1  -2    2.85    0.42
  -7   1   2    1.91    0.46
   7  -1   2    2.55    0.56
  -7   1   2    2.40    0.40
   7   1  -2    2.65    0.50
   7   1   2    3.32    0.41
   7  -1  -2    2.12    0.48
  -7   1  -2    2.38    0.42
  -7   1  -2    2.08    0.31
  -8   1   2   63.97    2.58
  -8   1   2   71.38    2.70
   8  -1   2   70.99    3.05
   8  -1   2   71.55    2.24
   8   1  -2   69.15    2.80
  -8   1  -2   70.71    2.53
   8   1   2   66.70    2.91
   8   1   2   71.44    2.33
   8  -1  -2   70.40    2.79
   9   1  -2   17.87    1.35
   9  -1   2   16.72    0.80
   9  -1   2   17.76    1.48
   9  -1  -2   17.54    1.35
   9   1   2   16.66    1.41
   9   1   2   17.67    0.92
  10   1  -2    7.99    1.02
  10  -1  -2   10.38    1.29
  10   1   2    9.42    1.24
  10   1   2    8.27    0.83
  11  -1   2    7.10    1.12
  11   1  -2    7.85    1.16
  11  -1  -2    5.66    1.02
  11   1   2    6.60    1.10
  12  -1   2    1.52    0.99
  12   1  -2    1.60    1.04
  12  -1  -2    0.90    1.02
   0  -2   2  239.80    7.91
   0   2  -2  233.98    7.10
   0   2   2  242.19    7.02
   0  -2  -2  237.82    7.01
   0   2   2  238.59    6.98
   0   2  -2  238.68    7.92
   0  -2   2  243.10    7.11
   1   2  -2   23.08    0.86
  -1   2   2   23.76    0.79
  -1   2   2   22.54    0.76
   1   2  -2   23.44    0.91
   1  -2   2   24.71    1.00
   1  -2  -2   23.00    0.80
  -1  -2   2   22.45    0.87
  -1  -2   2   24.39    0.86
   1   2   2   23.21    0.81
  -1  -2   2   22.16    0.85
   2   2  -2  247.66    7.14
  -2   2   2  238.13    7.02
   2  -2   2  247.71    8.14
   2   2  -2  234.61    7.96
   2   2   2  245.71    7.11
  -2  -2   2  241.54    7.12
  -2  -2   2  236.58    7.25
   2  -2  -2  241.96    7.23
   3   2  -2   42.37    1.52
   3   2  -2   41.17    1.51
   3   2  -2   40.66    1.39
   3  -2   2   42.62    1.72
  -3  -2   2   43.05    1.50
  -3  -2   2   40.23    1.37
   3  -2  -2   42.78    1.49
   3   2   2   40.11    1.38
  -3   2  -2   41.14    1.70
   4   2  -2  390.46   11.23
   4  -2   2  394.11   12.88
   4   2  -2  356.27   12.60
  -4   2   2  397.34   12.83
   4   2  -2  378.01   11.54
   4   2   2  397.42   12.59
  -4  -2   2  383.08   11.19
  -4   2  -2  383.31   12.82
   4  -2  -2  376.98   11.52
   4   2   2  379.56   11.23
   5   2  -2    3.68    0.37
   5  -2   2    3.49    0.53
  -5   2   2    3.15    0.48
   5   2  -2    3.60    0.36
   5   2  -2    2.46    0.38
   5   2   2    2.73    0.33
  -5   2  -2    4.00    0.57
   5  -2  -2    3.50    0.46
   6   2  -2  117.61    3.62
   6  -2   2  123.73    4.44
  -6   2   2  114.47    4.17
  -6   2   2  118.49    4.32
   6   2  -2  116.03    3.97
   6  -2  -2  116.28    3.95
   6   2   2  119.46    3.66
   6   2   2  109.56    4.17
  -6   2  -2  116.89    4.28
  -7   2   2    0.57    0.31
   7   2  -2    0.80    0.37
   7  -2   2    0.03    0.46
  -7   2   2    0.18    0.43
   7  -2  -2    0.70    0.36
   7   2   2    0.16    0.38
   7   2   2    0.79    0.30
  -7   2  -2    0.05    0.41
  -8   2   2   40.42    1.96
   8  -2   2   43.99    2.18
   8   2  -2   42.01    1.48
   8   2  -2   40.12    1.93
   8  -2   2   42.34    1.37
  -8   2   2   39.09    1.76
  -8   2  -2   36.34    1.81
   8  -2  -2   39.18    1.89
   8   2   2   38.10    1.92
  -9   2   2   12.16    1.19
   9   2  -2   13.26    1.23
  -9   2   2   13.64    0.97
  -9   2  -2   13.44    0.83
   9  -2  -2   14.70    1.26
   9   2   2   13.16    1.27
  -9   2  -2   12.73    1.01
   9   2   2   14.34    0.92
 -10   2   2    6.80    0.81
  10   2  -2    7.89    1.04
 -10   2   2    6.66    0.79
  10   2   2    7.03    1.00
  10   2   2    8.44    1.06
  10  -2  -2    8.07    1.08
  10   2   2    7.72    0.90
  11   2  -2    9.67    1.33
  11   2   2    7.85    1.14
  11  -2  -2   11.62    1.53
  12   2  -2   13.24    1.54
  12  -2   2   15.84    1.90
  12  -2  -2   13.57    1.82
  12   2   2   12.63    1.53
   0  -3   2   -0.13    0.16
   0  -3   2    0.00    0.13
   0   3  -2    0.08    0.11
   0  -3  -2   -0.12    0.07
   0   3  -2   -0.02    0.12
   0   3   2   -0.17    0.08
  -1   3   2  133.60    3.94
   1  -3   2  128.67    4.02
   1   3  -2  132.19    4.04
   1   3  -2  137.02    4.04
   1  -3   2  127.67    4.56
   1   3  -2  131.99    4.44
  -1  -3   2  129.80    4.03
   1  -3  -2  133.98    3.92
   1   3   2  129.49    3.98
  -1   3  -2  127.74    4.55
   1  -3  -2  133.47    3.94
  -1  -3   2  127.12    4.02
  -1  -3   2  136.30    4.38
   2   3  -2   42.49    1.50
   2   3  -2   41.98    1.55
  -2   3   2   43.53    1.38
   2  -3   2   44.80    1.76
   2   3   2   43.58    1.46
   2  -3  -2   42.66    1.45
  -2   3  -2   43.86    1.76
   2  -3  -2   45.77    1.36
  -2  -3   2   41.82    1.49
   3   3  -2    3.13    0.34
   3  -3   2    2.79    0.46
   3   3  -2    3.73    0.28
  -3   3   2    3.03    0.22
   3   3  -2    3.51    0.39
   3   3   2    3.41    0.31
  -3   3  -2    3.00    0.43
   3  -3  -2    3.32    0.18
  -3  -3   2    3.13    0.32
  -3  -3   2    2.89    0.35
   4   3  -2  167.99    5.79
   4  -3   2  168.84    6.10
   4   3  -2  177.68    5.27
   4   3  -2  172.88    5.45
  -4   3   2  178.71    6.09
  -4   3  -2  183.06    6.12
   4   3   2  166.60    5.24
  -4  -3   2  170.17    5.21
   5  -3   2   11.57    0.90
   5   3  -2   11.87    0.77
  -5   3   2   11.61    0.90
   5   3  -2   11.90    0.64
   5   3  -2   10.94    0.61
  -5   3  -2   10.78    0.88
  -5  -3   2   11.24    0.57
   5   3   2   12.02    0.62
   5   3   2   10.40    0.61
   6   3  -2  100.79    3.48
  -6   3   2  101.82    3.83
   6   3  -2   98.23    3.18
   6  -3   2   96.04    3.87
   6   3   2  100.10    3.21
   6   3   2   98.87    3.55
   6  -3  -2   98.55    3.44
   7   3  -2    1.09    0.43
  -7   3   2    0.55    0.34
   7  -3   2    0.74    0.49
  -7   3   2    1.08    0.56
   7  -3  -2    1.08    0.42
  -7   3  -2    0.43    0.52
   7   3   2    0.86    0.34
   7   3   2    0.96    0.41
  -8   3   2   36.63    1.94
   8   3  -2   34.98    1.80
   8   3  -2   39.10    1.48
  -8   3   2   36.13    1.70
   8  -3   2   34.92    2.01
   8  -3  -2   37.16    1.79
   8   3   2   35.07    1.76
   8   3   2   36.24    1.51
  -8   3  -2   35.28    1.85
  -9   3   2    0.64    0.72
  -9   3   2    0.12    0.44
   9   3  -2   -0.09    0.53
  -9   3  -2    0.01    0.38
   9   3   2    0.01    0.52
   9  -3  -2   -0.32    0.49
   9   3   2   -0.16    0.49
   9   3   2    0.40    0.58
  10   3  -2    1.76    0.78
 -10   3   2    2.04    0.57
 -10   3   2    1.72    0.90
  10  -3  -2    2.56    0.72
 -10   3  -2    3.80    0.75
  10   3   2    2.11    0.74
 -10   3  -2    2.06    0.50
  10   3   2    3.02    0.68
  10   3   2    2.99    0.79
 -11   3   2    9.03    1.03
  11   3  -2   10.03    1.32
  11   3   2    8.98    1.22
  11  -3  -2    9.09    1.18
  12  -3   2   11.62    1.45
  12   3  -2    9.39    1.33
  12  -3  -2    9.59    1.42
  12   3   2    7.11    1.30
   0   4   2  195.27    5.79
   0   4  -2  199.23    6.54
   0   4  -2  197.52    5.82
   0  -4  -2  180.93    5.74
   0  -4   2  194.33    6.49
   0  -4   2  193.23    5.82
   0  -4   2  193.93    5.84
   1  -4   2    0.40    0.20
   1  -4   2    0.57    0.16
  -1  -4  -2    0.84    0.16
   1  -4   2    0.71    0.23
   1   4  -2    0.52    0.18
   1   4  -2    0.78    0.22
   1   4  -2    0.54    0.16
  -1   4   2    0.62    0.16
  -1  -4   2    0.40    0.15
   1  -4  -2    0.68    0.15
  -1  -4   2    0.15    0.20
   1  -4  -2    0.64    0.10
   1   4   2    0.50    0.16
  -1   4  -2    0.63    0.21
  -2  -4  -2  129.74    4.34
   2   4  -2  142.76    4.43
   2   4  -2  145.21    4.80
   2   4  -2  141.20    4.45
  -2   4   2  149.73    4.32
   2  -4   2  147.06    5.05
   2  -4   2  147.18    4.42
  -2  -4   2  141.17    4.41
   2   4   2  139.83    4.39
  -2   4  -2  152.90    5.09
  -2  -4   2  143.17    4.42
   2  -4  -2  143.17    4.28
   3   4  -2    6.21    0.35
   3   4  -2    5.21    0.47
   3  -4   2    5.47    0.58
   3   4  -2    5.48    0.46
  -3   4   2    5.53    0.34
   3   4   2    5.98    0.44
  -3  -4   2    5.55    0.43
   3  -4  -2    5.71    0.30
  -3   4  -2    5.87    0.61
  -3  -4   2    5.97    0.44
   4   4  -2   35.52    1.33
   4   4  -2   34.49    1.43
   4  -4   2   33.14    1.65
   4   4  -2   35.56    1.37
  -4   4   2   40.74    1.72
   4  -4  -2   36.19    1.13
  -4   4  -2   33.81    1.67
  -4  -4   2   34.63    1.31
   4   4   2   36.07    1.35
   5   4  -2   33.45    1.46
   5   4  -2   33.28    1.34
   5  -4   2   34.16    1.70
  -5   4   2   33.16    1.68
   5   4  -2   33.82    1.32
  -5  -4   2   33.56    1.27
  -5   4  -2   35.47    1.72
   6  -4   2   48.46    2.29
   6   4  -2   48.64    1.86
   6   4  -2   50.15    1.81
  -6   4   2   49.61    2.27
   6   4  -2   47.78    2.00
   6   4   2   48.41    1.82
   6  -4  -2   52.61    1.99
   6   4   2   45.44    1.84
  -6   4  -2   45.48    2.26
  -6  -4   2   51.72    1.71
   7   4  -2    9.94    0.92
   7  -4   2    8.46    1.05
  -7   4   2    9.13    1.18
  -7   4  -2    9.03    1.13
   7   4   2   11.06    0.79
   7   4   2    9.33    0.80
   7  -4  -2    8.20    0.82
  -8   4   2   88.48    3.58
   8  -4   2   88.88    2.99
  -8   4   2   90.61    3.83
   8   4  -2   98.83    3.57
   8   4   2   94.43    3.54
   8  -4  -2   96.94    3.49
   8   4   2   92.18    3.46
   8   4   2   95.83    3.20
  -8   4  -2   91.55    3.81
  -9   4   2    0.19    0.48
  -9   4   2   -0.18    0.83
   9   4  -2    0.01    0.60
   9   4  -2    0.77    0.56
   9   4   2    0.53    0.53
  -9   4  -2   -0.27    0.76
   9  -4  -2   -0.22    0.51
   9   4   2   -0.53    0.56
   9   4   2   -0.27    0.54
  10   4  -2   90.13    3.65
 -10   4   2   83.69    3.82
 -10   4   2   91.12    3.53
  10   4   2   88.14    3.59
  10   4   2   91.17    3.65
 -10   4  -2   84.25    3.74
  10   4   2   88.39    3.19
 -10   4  -2   85.48    3.36
  10  -4  -2   87.64    3.59
 -11   4   2   -0.56    0.67
  11   4  -2   -0.25    0.83
  11   4   2    0.30    0.81
 -11   4  -2    0.35    0.58
  11  -4  -2    0.53    0.76
  12  -4   2   44.66    2.75
  12   4  -2   42.23    2.84
  12  -4  -2   49.20    2.79
  12   4   2   44.64    2.82
   0   5   2   -0.02    0.16
   0  -5   2   -0.21    0.18
   0  -5  -2   -0.01    0.14
   0   5  -2   -0.44    0.17
   0  -5   2   -0.01    0.14
   0   5  -2   -0.09    0.18
  -1   5   2   67.11    2.18
   1   5  -2   63.45    2.39
   1  -5   2   65.68    2.15
   1  -5   2   64.29    2.48
   1   5  -2   68.83    2.28
  -1  -5  -2   63.04    2.16
   1   5  -2   63.32    2.16
   1  -5   2   64.88    2.23
  -1   5  -2   68.26    2.55
  -1  -5   2   64.39    2.23
   1  -5  -2   69.51    2.14
   1  -5  -2   68.65    2.03
  -1  -5   2   66.25    2.15
   1   5   2   68.12    2.22
   2   5  -2   10.98    0.62
   2   5  -2   11.09    0.65
  -2   5   2   11.01    0.56
  -2  -5  -2    9.47    0.54
   2  -5   2    9.70    0.72
   2  -5   2   11.06    0.63
   2   5  -2   10.51    0.54
  -2  -5   2   10.15    0.61
   2   5   2   10.52    0.60
   2   5   2   10.58    0.47
  -2  -5   2   10.52    0.55
   2  -5  -2   10.26    0.51
  -2   5  -2   10.88    0.78
   3  -5   2   10.00    0.63
  -3  -5  -2    9.96    0.57
  -3   5   2   10.30    0.54
   3   5  -2    9.95    0.65
   3   5  -2   12.09    0.68
   3  -5   2   10.20    0.82
   3   5  -2   10.71    0.51
   3   5   2    9.58    0.62
  -3   5  -2   10.09    0.83
  -3  -5   2   10.26    0.63
  -3  -5   2   11.51    0.61
   4   5  -2   16.83    0.87
  -4   5   2   15.18    1.06
   4  -5   2   15.79    1.07
   4  -5   2   17.03    0.82
   4   5  -2   17.46    0.92
  -4  -5   2   16.07    0.80
  -4   5  -2   15.81    1.12
   4   5   2   15.96    0.88
   4  -5  -2   16.89    0.64
  -5   5   2    0.04    0.42
   5   5  -2    0.22    0.30
   5   5  -2   -0.36    0.17
   5  -5   2   -0.31    0.35
   5  -5   2   -0.14    0.25
   5   5   2    0.20    0.32
  -5  -5   2   -0.05    0.22
   5  -5  -2    0.14    0.13
  -5   5  -2    0.12    0.41
   6  -5   2   51.48    1.82
   6   5  -2   51.86    1.95
   6  -5   2   51.03    2.42
   6   5  -2   51.96    2.11
  -6   5   2   50.89    2.42
   6   5  -2   47.68    1.91
  -6  -5   2   51.46    1.82
  -6   5  -2   53.96    2.64
   6   5   2   50.61    2.03
   6   5   2   51.55    1.95
   7   5  -2   21.62    1.33
   7  -5   2   21.70    0.99
  -7   5   2   21.44    1.59
   7   5  -2   21.45    1.06
  -7   5  -2   21.61    1.64
   7  -5  -2   24.70    1.30
   7   5   2   21.57    1.18
   7   5   2   22.93    1.27
   8   5  -2   -0.18    0.50
  -8   5   2    1.42    0.80
   8  -5   2    1.06    0.36
   8   5  -2    0.55    0.54
   8   5   2    1.08    0.49
   8  -5  -2    0.68    0.48
  -8   5  -2    0.03    0.76
   8   5   2    0.24    0.53
   8   5   2    1.81    0.49
   9   5  -2   -1.17    0.60
  -9   5   2    1.12    0.99
  -9   5   2    0.84    0.50
   9   5  -2    0.59    0.66
   9   5   2   -1.05    0.55
   9  -5  -2    0.00    0.54
  -9   5  -2    1.76    0.92
   9   5   2   -0.12    0.64
   9   5   2   -1.21    0.53
 -10   5   2    1.56    0.66
  10   5  -2    1.53    0.80
 -10   5   2    1.30    1.25
  10   5   2    0.52    0.67
  10   5   2    1.36    0.74
 -10   5  -2   -1.09    1.15
  10   5   2    1.20    0.89
  10  -5  -2    0.44    0.64
  11   5  -2   12.60    1.46
 -11   5   2   10.73    1.38
  11  -5  -2   11.93    1.32
 -11   5  -2   10.32    1.27
  11   5   2   12.57    1.64
  12  -5   2   15.61    1.97
  12   5  -2   19.27    2.26
  12  -5  -2   18.62    2.06
  12   5   2   15.41    1.77
   0   6  -2   51.36    2.10
   0   6  -2   52.67    1.78
   0  -6   2   52.58    1.92
   0   6  -2   55.88    1.97
   0  -6   2   57.29    1.81
   0  -6  -2   50.22    1.82
   0   6   2   54.30    1.89
  -1  -6  -2   11.91    0.63
   1   6  -2   14.38    0.73
   1  -6   2   13.04    0.61
   1  -6   2   11.08    0.69
   1   6  -2   13.50    0.76
  -1   6   2   11.77    0.66
  -1  -6   2   11.79    0.70
  -1  -6   2   11.42    0.59
  -1   6  -2   12.80    0.83
   1  -6  -2   11.95    0.61
   1   6   2   11.67    0.67
   2  -6   2  358.53   11.20
   2   6  -2  375.67   11.25
   2  -6   2  375.37   11.17
   2   6  -2  380.85   11.27
  -2   6   2  393.51   11.13
  -2  -6  -2  350.92   11.10
   2   6  -2  373.52   12.39
  -2  -6   2  367.60   11.19
   2  -6  -2  390.66   11.06
  -2   6  -2  384.69   12.71
  -2  -6   2  381.32   11.20
   2   6   2  377.84   11.09
   3   6  -2   14.67    0.69
  -3   6   2   15.13    0.73
  -3  -6  -2   13.94    0.73
   3  -6   2   16.58    1.00
   3   6  -2   15.02    0.81
   3  -6   2   15.12    0.80
  -3   6   2   15.63    1.00
   3   6  -2   14.09    0.88
  -3   6  -2   15.56    1.07
  -3  -6   2   14.13    0.79
  -3  -6   2   15.20    0.74
   3   6   2   14.40    0.69
   3  -6  -2   14.61    0.67
   3   6   2   14.50    0.82
   4   6  -2    1.27    0.35
   4   6  -2    2.57    0.45
   4  -6   2    1.81    0.46
   4  -6   2    1.11    0.31
   4   6   2    1.42    0.30
  -4  -6   2    1.30    0.31
  -4   6  -2    1.03    0.46
   4  -6  -2    1.42    0.24
   4   6   2    1.70    0.39
   5   6  -2   17.19    0.98
   5   6  -2   16.27    0.75
  -5   6   2   15.10    1.23
   5   6  -2   17.21    1.01
   5  -6   2   15.82    0.84
   5   6   2   14.77    0.88
  -5   6  -2   15.23    1.27
  -5  -6   2   16.01    0.84
   5   6   2   16.29    0.94
  -6   6   2    4.47    0.82
   6  -6   2    4.06    0.53
   6   6  -2    3.96    0.60
   6   6  -2    4.95    0.61
   6   6  -2    4.21    0.45
  -6   6  -2    5.57    0.87
   6   6   2    4.91    0.62
  -6  -6   2    4.09    0.53
   6   6   2    4.96    0.65
   7   6  -2   11.99    1.05
   7  -6   2   10.40    0.71
  -7   6   2   12.29    1.46
   7   6  -2   11.18    0.72
  -7  -6   2   11.73    0.76
   7  -6  -2   11.73    0.92
   7   6   2   10.32    0.97
  -7   6  -2   10.33    1.41
   7   6   2   11.38    0.96
   8   6  -2  135.90    4.51
  -8   6   2  134.30    5.42
   8  -6   2  136.24    4.18
   8   6  -2  133.51    4.77
  -8   6  -2  134.98    5.40
   8   6   2  133.56    4.53
   8  -6  -2  132.37    4.67
   8   6   2  137.39    4.73
   8   6   2  131.71    4.73
   9   6  -2   -1.34    0.72
  -9   6   2   -1.61    1.07
   9   6  -2    0.51    0.71
   9  -6  -2   -0.11    0.58
   9   6   2    0.72    0.76
  -9   6  -2    0.33    1.08
   9   6   2   -0.08    0.55
   9   6   2    1.08    0.64
 -10   6   2  101.81    4.71
  10   6  -2  102.56    4.08
  10   6  -2   92.98    3.64
 -10   6   2   97.53    4.02
  10   6   2  102.27    3.99
  10  -6  -2  103.67    3.99
  10   6   2  102.44    3.77
 -10   6  -2   93.64    4.50
  11   6  -2    0.49    0.97
 -11   6   2    0.27    0.84
  11  -6  -2   -1.22    0.79
 -11   6  -2   -1.12    0.74
  11   6   2    0.28    0.94
  12   6  -2   44.78    3.05
  12  -6   2   41.94    2.74
  12  -6  -2   50.42    2.91
  12   6   2   43.89    2.89
   0   7  -2    0.12    0.28
   0  -7   2    0.07    0.19
   0  -7  -2   -0.04    0.17
   0  -7   2    0.04    0.23
   0   7  -2    0.01    0.26
   1  -7   2  128.19    4.13
   1   7  -2  128.13    4.52
  -1   7   2  132.89    4.11
   1   7  -2  131.27    4.20
  -1  -7  -2  125.17    4.05
   1   7  -2  126.74    4.02
   1  -7   2  127.83    4.00
  -1  -7   2  128.38    4.14
   1   7   2  127.17    4.13
  -1   7  -2  132.61    4.69
  -1  -7   2  126.87    3.98
   1  -7  -2  125.93    4.02
   2   7  -2   32.58    1.37
  -2  -7  -2   32.44    1.32
   2   7  -2   33.88    1.45
   2   7  -2   33.66    1.32
   2  -7   2   31.98    1.36
  -2   7   2   33.25    1.33
   2  -7   2   34.76    1.29
  -2  -7   2   33.55    1.25
   2   7   2   33.22    1.40
   2   7   2   31.22    1.13
  -2  -7   2   33.43    1.39
   2  -7  -2   33.98    1.27
   3   7  -2    0.20    0.35
  -3   7   2    0.13    0.27
   3  -7   2    0.12    0.27
  -3   7   2    0.25    0.37
   3   7  -2    0.17    0.22
  -3  -7  -2    0.30    0.23
   3   7  -2    0.47    0.29
  -3  -7   2    0.08    0.22
   3   7   2    0.30    0.22
  -3  -7   2    0.46    0.26
  -3   7  -2    0.87    0.45
   3  -7  -2    0.30    0.21
   3   7   2    0.08    0.30
   4   7  -2    3.41    0.54
  -4  -7  -2    5.49    0.51
   4  -7   2    4.74    0.56
   4   7  -2    4.74    0.43
   4   7  -2    4.75    0.60
  -4   7   2    4.54    0.69
   4   7   2    4.87    0.63
   4  -7  -2    3.74    0.39
   4   7   2    3.84    0.49
  -4  -7   2    4.82    0.55
  -4   7  -2    4.75    0.75
   5   7  -2    0.24    0.42
   5  -7   2    0.39    0.30
   5   7  -2    0.08    0.36
  -5   7   2    0.78    0.57
   5   7   2    0.96    0.40
  -5  -7   2    0.65    0.30
   5  -7  -2    0.32    0.23
  -5   7  -2    0.48    0.56
   5   7   2    0.15    0.28
   6   7  -2    3.23    0.49
   6  -7   2    4.43    0.53
   6   7  -2    5.13    0.71
  -6   7   2    4.28    0.84
   6   7  -2    4.20    0.64
   6   7   2    4.47    0.67
  -6  -7   2    4.40    0.59
  -6   7  -2    4.33    0.89
   6   7   2    4.68    0.59
  -7   7   2   13.42    1.65
   7   7  -2   15.75    0.84
   7   7  -2   12.82    1.15
   7  -7   2   14.08    0.84
   7   7   2   13.41    1.06
  -7   7  -2   14.47    1.68
   7  -7  -2   13.70    1.03
   7   7   2   13.40    1.17
  -7  -7   2   13.63    0.89
   8   7  -2   14.95    1.36
   8   7  -2   11.07    1.26
  -8   7   2   14.65    1.96
   8  -7   2   14.20    0.80
   8   7  -2   14.35    0.89
  -8   7  -2   13.40    1.92
   8   7   2   12.00    1.16
   8   7   2   13.27    1.32
   8  -7  -2   12.76    1.13
   9   7  -2    4.01    0.97
   9   7   2    3.12    0.78
   9   7   2    3.57    0.94
   9   7   2    3.92    0.65
  10   7  -2    1.06    0.86
 -10   7   2    0.58    0.73
  10  -7  -2    1.37    0.73
  10   7   2   -0.67    1.09
  10   7   2   -0.46    0.81
 -11   7   2    1.54    0.91
  11   7  -2   -0.43    1.01
  11  -7  -2   -1.22    0.86
  11   7   2    1.06    1.04
   0   8   2  216.18    6.58
   0  -8   2  214.59    6.42
   0   8  -2  221.40    6.66
   0   8  -2  199.67    6.38
   0   8  -2  216.28    7.36
   0  -8   2  206.28    6.56
   0  -8  -2  206.32    6.47
   1   8  -2   85.47    2.78
   1   8  -2   82.87    3.20
   1  -8   2   85.68    2.95
   1  -8   2   91.78    2.80
   1   8  -2   87.91    3.04
  -1  -8  -2   82.07    2.87
  -1   8   2   87.94    2.96
   1   8   2   87.23    2.98
   1  -8  -2   86.85    2.86
  -1  -8   2   83.48    2.76
  -1  -8   2   83.21    2.96
  -1   8  -2   86.98    3.38
   2  -8   2   84.35    2.80
  -2   8   2   87.11    2.92
  -2  -8  -2   80.98    2.86
   2   8  -2   84.80    3.12
   2  -8   2   84.82    2.93
   2   8  -2   82.20    2.82
   2   8  -2   87.87    3.04
  -2  -8   2   83.33    2.94
   2  -8  -2   86.17    2.82
  -2  -8   2   87.17    2.77
  -2   8  -2   89.48    3.45
   2   8   2   80.37    2.63
   2   8   2   88.36    3.00
  -3   8   2   35.01    1.81
   3   8  -2   32.67    1.40
   3   8  -2   32.66    1.41
   3  -8   2   34.04    1.44
   3  -8   2   34.42    1.37
   3   8  -2   35.48    1.58
  -3  -8  -2   31.81    1.38
   3   8   2   34.57    1.53
  -3   8  -2   31.26    1.80
  -3  -8   2   34.49    1.32
  -3  -8   2   33.83    1.46
   3  -8  -2   34.60    1.32
   3   8   2   32.93    1.28
   4   8  -2   26.15    1.26
   4   8  -2   26.66    1.14
   4   8  -2   25.81    1.38
   4  -8   2   25.91    1.22
  -4   8   2   26.97    1.65
  -4  -8  -2   25.05    1.20
  -4   8  -2   24.49    1.66
   4   8   2   27.26    1.16
   4  -8  -2   25.85    1.07
   4   8   2   27.32    1.36
  -4  -8   2   26.83    1.26
   5   8  -2   14.52    1.00
   5   8  -2   13.31    0.75
  -5   8   2   13.83    1.37
   5  -8   2   13.78    0.87
   5   8  -2   13.85    1.08
  -5   8  -2   14.87    1.47
   5  -8  -2   13.34    0.69
   5   8   2   14.07    0.88
  -5  -8   2   13.35    0.88
   5   8   2   14.23    1.05
   6  -8   2    1.22    0.38
   6   8  -2    0.86    0.48
  -6   8   2   -0.56    0.74
   6   8  -2    0.89    0.60
   6  -8  -2    0.59    0.24
  -6  -8   2    0.78    0.40
  -6   8  -2   -1.06    0.73
   6   8   2    0.50    0.41
   6   8   2    0.15    0.55
   7   8  -2    0.24    0.35
   7   8  -2    1.65    0.59
   7   8  -2    1.30    0.71
   7  -8   2    0.81    0.37
  -7   8   2    0.91    0.96
  -7   8  -2    1.64    0.94
  -7  -8   2    1.02    0.42
   7   8   2    0.96    0.70
   7   8   2    1.17    0.49
   7  -8  -2    0.71    0.43
   8  -8   2   20.47    1.04
   8   8  -2   22.42    1.14
   8   8  -2   18.51    1.66
   8   8  -2   21.21    1.55
   8   8   2   21.26    1.66
   8   8   2   19.37    1.43
   8  -8  -2   22.76    1.41
   9  -8   2    0.72    0.39
   9   8  -2    2.11    1.07
   9   8   2   -0.48    0.70
   9  -8  -2   -0.54    0.61
  10   8  -2   32.25    2.26
  10   8   2   29.38    2.09
  10  -8  -2   35.11    2.08
 -11   8   2    1.23    0.97
  11   8  -2    1.27    1.17
  11  -8  -2    0.13    0.92
  11   8   2    1.26    1.13
   0  -9   2    0.63    0.30
   0  -9   2   -0.25    0.23
   0   9  -2   -0.57    0.37
   0   9  -2   -0.34    0.37
   0  -9  -2    0.07    0.22
   0   9   2   -0.03    0.33
   1  -9   2   19.86    1.08
   1   9  -2   20.39    1.18
   1   9  -2   20.44    0.90
  -1  -9  -2   18.87    1.01
  -1   9   2   20.01    1.12
   1   9  -2   21.83    1.22
   1  -9   2   19.95    0.91
  -1  -9   2   20.65    1.10
  -1  -9   2   23.18    0.91
   1   9   2   19.32    1.13
  -1   9  -2   19.63    1.31
   1  -9  -2   20.06    0.99
  -2  -9  -2   41.13    1.68
   2  -9   2   39.21    1.55
   2  -9   2   42.00    1.72
   2   9  -2   41.65    1.58
   2   9  -2   40.62    1.80
  -2   9   2   43.01    1.75
   2   9  -2   42.21    1.86
   2  -9  -2   40.59    1.61
   2   9   2   40.29    1.78
  -2  -9   2   41.95    1.76
  -2   9  -2   44.15    2.13
  -2  -9   2   42.55    1.53
   2  -9  -2   43.06    1.40
   2  -9  -2   45.41    1.41
  -3  -9  -2   62.34    2.27
  -3   9   2   63.52    2.83
   3   9  -2   59.88    2.39
   3   9  -2   61.79    2.25
  -3   9   2   63.26    2.33
   3  -9   2   60.36    2.29
   3  -9   2   61.20    2.21
   3   9  -2   64.44    2.50
  -3  -9   2   62.14    2.15
  -3   9  -2   64.63    2.88
   3  -9  -2   61.84    2.18
  -3  -9   2   62.88    2.36
   3   9   2   59.43    2.40
  -4   9   2  104.26    4.27
   4   9  -2  103.04    3.70
  -4  -9  -2  100.73    3.48
   4   9  -2  106.22    3.77
   4  -9   2  110.89    3.55
   4   9  -2   99.99    3.53
   4  -9   2  102.00    3.49
   4  -9  -2  102.57    3.35
   4   9   2  105.25    3.69
  -4  -9   2  103.77    3.57
  -4   9  -2  103.48    4.30
   4   9   2  104.03    3.41
   5   9  -2   80.26    3.07
   5   9  -2   85.34    3.10
   5  -9   2   85.35    2.97
   5   9  -2   83.09    3.21
   5  -9  -2   84.88    2.80
  -5   9  -2   77.06    3.76
   5   9   2   96.45    3.02
   5   9   2   91.15    3.25
  -5  -9   2   87.90    3.05
   6  -9   2   64.95    2.34
   6   9  -2   67.67    2.73
   6   9  -2   62.77    2.57
  -6  -9   2   63.08    2.43
   6   9   2   65.20    2.47
   6  -9  -2   68.42    2.47
   6  -9  -2   62.86    2.15
   6   9   2   66.04    2.68
  -6   9  -2   57.34    3.22
   7   9  -2    1.66    0.86
   7   9  -2    2.13    0.44
   7  -9   2    2.53    0.50
   7   9  -2    1.60    0.63
   7   9   2    0.99    0.83
   7  -9  -2    2.20    0.50
   7   9   2    1.52    0.56
  -7  -9   2    1.72    0.52
   8  -9   2   37.37    1.50
   8   9  -2   36.16    1.60
   8   9  -2   33.23    2.22
   8   9  -2   35.73    2.04
   8  -9  -2   34.93    1.84
   8   9   2   36.59    1.94
   9   9  -2    0.63    0.82
   9  -9   2    2.52    0.49
   9  -9  -2    3.13    0.77
   9   9   2    0.97    0.82
  10   9  -2   -1.05    1.01
  10   9   2   -1.65    0.89
  10  -9  -2   -0.29    0.82
  11   9  -2    0.74    1.27
 -11   9   2   -0.23    1.08
  11   9   2    0.63    1.21
  11  -9  -2    1.90    1.04
   0  10   2    7.11    0.79
   0 -10  -2    4.64    0.60
   0 -10   2    5.21    0.51
   0 -10   2    5.54    0.67
   0  10  -2    7.04    0.82
   0  10  -2    6.32    0.91
   1  10  -2    1.26    0.30
   1  10  -2    1.46    0.47
  -1 -10  -2    1.60    0.39
   1  10  -2    2.51    0.59
  -1  10   2    2.22    0.51
   1 -10   2    1.66    0.44
   1 -10   2    1.05    0.31
  -1 -10   2    1.99    0.30
   1 -10  -2    1.54    0.35
  -1  10  -2    0.97    0.55
   1  10   2    1.41    0.47
  -1 -10   2    1.24    0.41
  -2 -10  -2   94.64    3.26
   2  10  -2   91.62    3.45
   2 -10   2   92.11    3.29
   2  10  -2   92.25    3.56
   2 -10   2   91.39    3.10
   2  10  -2   95.04    3.10
  -2  10   2  100.17    3.36
  -2  10   2   98.00    3.84
   2  10   2   96.30    3.42
  -2 -10   2   94.84    3.04
  -2 -10   2   93.45    3.32
   2 -10  -2   92.95    3.17
   2 -10  -2   97.41    2.90
  -2  10  -2   88.82    3.85
  -3  10   2    7.86    0.88
  -3 -10  -2    6.87    0.68
  -3  10   2    8.31    1.03
   3 -10   2    7.82    0.78
   3  10  -2    8.16    0.73
   3  10  -2    7.29    0.91
   3 -10  -2    7.18    0.62
  -3  10  -2    7.54    1.02
   3  10   2    7.63    0.87
  -3 -10   2    7.48    0.78
   3 -10  -2    6.95    0.53
   4  10  -2  169.18    5.86
  -4  10   2  162.20    6.41
   4 -10   2  165.87    5.40
   4  10  -2  170.55    5.45
  -4 -10  -2  168.30    5.41
   4  10  -2  173.07    5.69
   4 -10   2  178.16    5.43
   4  10   2  161.01    5.26
   4  10   2  166.61    5.62
   4 -10  -2  166.05    5.26
   4 -10  -2  176.77    5.28
  -4  10  -2  162.70    6.47
  -4 -10   2  169.36    5.48
   5  10  -2    7.50    0.79
   5  10  -2    8.87    1.07
   5 -10   2    9.35    0.91
   5 -10   2    6.85    0.77
   5  10  -2    7.41    0.89
  -5 -10   2    7.63    0.84
   5  10   2    7.86    0.96
   5 -10  -2    6.85    0.62
   5 -10  -2    6.15    0.65
   5  10   2    8.31    0.82
   6  10  -2  136.23    4.80
   6 -10   2  148.03    4.61
   6  10  -2  142.76    5.01
   6 -10  -2  135.68    4.38
   6  10   2  137.82    4.69
  -6 -10   2  143.43    4.71
   6  10   2  141.92    4.98
   6 -10  -2  140.12    4.66
   7  10  -2    5.72    0.81
   7 -10   2    6.47    0.77
   7  10  -2    6.05    0.86
   7  10   2    5.62    0.81
   7 -10  -2    5.74    0.73
   7 -10  -2    5.27    0.55
  -7 -10   2    4.99    0.71
   8 -10   2   31.30    1.41
   8  10  -2   30.90    1.94
   8  10  -2   30.01    1.49
   8 -10  -2   31.29    1.73
   8  10   2   29.86    1.84
   9 -10   2    0.64    0.47
   9  10  -2    0.40    0.88
   9 -10  -2    0.70    0.73
   9  10   2    0.47    0.90
  10  10  -2    0.14    1.10
  10  10   2    0.68    1.08
  10 -10  -2    0.41    0.92
   0 -11   2   -0.10    0.34
   0 -11  -2    0.02    0.31
   0 -11   2   -0.36    0.27
   0  11  -2   -0.88    0.51
   0  11  -2   -0.42    0.51
   0  11   2   -1.12    0.47
   1 -11   2   14.66    1.00
  -1  11   2   12.88    1.11
   1  11  -2   12.83    0.69
   1 -11   2   10.77    0.73
   1  11  -2   11.18    1.13
  -1 -11  -2   12.70    0.89
   1  11  -2   13.12    1.22
  -1  11  -2   11.26    1.25
  -1 -11   2   12.12    0.96
  -1 -11   2   12.80    0.69
   1  11   2   11.56    1.12
   1 -11  -2   11.75    0.85
  -2  11   2    4.44    0.89
   2  11  -2    8.20    0.98
   2 -11   2    5.68    0.75
   2  11  -2    6.36    0.77
  -2  11   2    6.90    0.84
   2 -11   2    6.32    0.61
  -2 -11  -2    5.95    0.71
   2  11  -2    6.21    0.59
  -2  11  -2    6.08    0.95
   2  11   2    3.35    0.68
  -2 -11   2    4.70    0.53
  -2 -11   2    6.18    0.80
   2 -11  -2    6.16    0.63
   3 -11   2    0.42    0.39
  -3  11   2    1.28    0.71
  -3 -11  -2    0.26    0.37
  -3  11   2    0.10    0.52
   3  11  -2   -0.16    0.32
   3  11  -2    0.30    0.49
   3  11  -2    0.86    0.68
   3 -11  -2    0.60    0.26
   3 -11  -2    0.07    0.30
  -3  11  -2   -0.31    0.75
   3  11   2    1.59    0.62
  -3 -11   2   -0.10    0.38
   3 -11  -2    0.34    0.26
   4 -11   2    0.31    0.42
  -4  11   2    0.99    0.82
   4  11  -2   -0.33    0.41
   4 -11   2    0.14    0.41
   4  11  -2    0.94    0.49
   4  11  -2    0.92    0.78
  -4 -11  -2    0.02    0.37
   4 -11  -2   -0.60    0.27
   4 -11  -2    0.03    0.33
   4  11   2   -0.62    0.68
  -4 -11   2    0.13    0.45
   4  11   2    0.16    0.37
   5 -11   2   21.45    1.28
   5  11  -2   19.69    1.29
   5 -11   2   21.50    1.21
   5  11  -2   20.21    1.24
  -5 -11   2   20.92    1.29
   5 -11  -2   20.34    1.08
   5  11   2   18.76    1.13
   5 -11  -2   20.33    1.05
   6 -11   2   26.47    1.60
   6  11  -2   24.81    1.37
   6 -11   2   26.35    1.34
   6  11  -2   22.03    1.49
   6 -11  -2   24.61    1.14
  -6 -11   2   25.88    1.48
   6  11   2   25.11    1.41
   6 -11  -2   25.64    1.32
   7 -11   2   59.74    2.29
   7  11  -2   58.75    2.62
   7  11  -2   58.32    2.41
   7  11   2   59.09    2.52
   7 -11  -2   61.02    2.45
  -7 -11   2   57.40    2.46
   7 -11  -2   60.96    2.08
   8  11  -2    1.50    0.86
   8 -11   2    0.51    0.50
   8 -11  -2    0.65    0.64
   8  11   2    0.89    0.79
   9  11  -2    4.94    1.14
   9  11   2    1.93    1.10
   9 -11  -2    1.52    0.83
  10  11  -2    0.81    1.23
  10  11   2    2.25    1.21
  10 -11  -2   -0.43    0.92
   0 -12   2    0.34    0.42
   0  12  -2    0.22    0.71
   0 -12  -2    0.28    0.39
   0 -12   2    0.72    0.32
   0  12   2   -0.36    0.60
   0  12  -2    0.75    0.70
   1  12  -2    5.40    0.87
  -1  12   2    8.08    0.94
  -1 -12  -2    7.23    0.77
   1 -12   2    6.85    0.64
  -1  12   2    6.64    0.98
   1 -12   2    7.36    0.85
   1  12   2    6.74    0.94
  -1  12  -2    6.12    0.97
   1 -12  -2    6.05    0.72
  -1 -12   2    6.22    0.86
  -1 -12   2    7.44    0.58
   2 -12   2   16.93    0.94
   2  12  -2   18.34    0.89
   2 -12   2   15.61    1.11
   2  12  -2   17.38    1.42
  -2  12   2   17.62    1.65
  -2  12   2   17.11    1.38
  -2 -12  -2   16.02    1.08
  -2 -12   2   18.45    1.21
  -2  12  -2   19.35    1.72
  -2 -12   2   17.92    0.85
   2 -12  -2   17.32    1.05
  -3  12   2    3.62    0.75
   3 -12   2    2.07    0.53
  -3 -12  -2    2.49    0.52
   3 -12   2    2.69    0.49
  -3  12   2    2.53    0.98
   3  12  -2    2.24    0.66
   3  12  -2    2.57    0.46
   3 -12  -2    2.83    0.36
   3 -12  -2    2.10    0.32
  -3 -12   2    2.72    0.60
   3 -12  -2    1.82    0.45
  -3  12  -2    1.69    0.97
   4 -12   2  128.20    4.20
  -4 -12  -2  122.71    4.29
   4 -12   2  122.77    4.27
   4  12  -2  123.83    4.18
   4 -12  -2  127.41    4.03
   4  12   2  128.06    4.00
  -4 -12   2  123.30    4.37
   4 -12  -2  124.00    4.14
   4 -12  -2  129.18    4.02
   5  12  -2    7.79    1.09
   5 -12   2    8.16    0.90
   5 -12   2    8.63    1.07
   5  12  -2    9.00    1.00
   5  12   2    8.28    0.90
   5 -12  -2   10.03    0.80
   5 -12  -2    8.60    0.77
  -5 -12   2    9.27    1.07
   6 -12   2  143.07    4.81
   6  12  -2  147.31    5.00
   6 -12   2  146.83    5.01
   6  12  -2  138.78    5.20
   6  12   2  142.09    4.80
   6 -12  -2  147.74    4.80
   6 -12  -2  145.42    4.62
  -6 -12   2  148.51    5.10
   7  12  -2    8.46    1.02
   7  12  -2    8.22    1.17
   7 -12   2    8.52    0.95
   7 -12  -2    7.62    0.87
  -7 -12   2    9.29    1.17
   7 -12  -2    9.22    0.77
   7  12   2    7.59    0.96
   8  12  -2    7.81    1.17
   8 -12   2    7.30    0.97
   8 -12  -2    7.05    0.96
   8  12   2    6.50    1.01
   9  12  -2   11.33    1.43
   9 -12  -2   16.26    1.59
   0  13   2    0.19    0.76
   0  13  -2   -0.57    0.85
   0 -13   2   -0.19    0.49
   0 -13   2    0.26    0.32
   0 -13  -2   -0.05    0.40
   1 -13   2    1.29    0.53
  -1  13   2   -0.05    0.74
   1  13  -2    0.81    0.81
   1 -13   2    0.85    0.38
  -1  13   2    1.21    0.85
  -1 -13  -2    1.38    0.51
  -1 -13   2    0.73    0.32
   1 -13  -2    1.81    0.50
   1  13   2    0.56    0.68
  -1  13  -2    0.56    0.87
  -1 -13   2    1.61    0.57
  -2  13   2    8.84    1.15
   2  13  -2    8.03    0.66
   2 -13   2    9.14    0.96
  -2  13   2    9.52    1.35
  -2 -13  -2    9.88    0.95
   2  13  -2    9.77    1.34
   2 -13   2    9.32    0.81
  -2  13  -2    6.85    1.26
  -2 -13   2    7.29    1.01
   2 -13  -2    8.34    0.85
  -3 -13  -2   -0.17    0.51
   3 -13   2    0.82    0.53
  -3  13   2    0.54    0.81
   3 -13   2    0.18    0.48
   3  13  -2   -0.68    0.72
   3  13  -2    0.57    0.39
   3 -13  -2   -0.20    0.42
  -3 -13   2   -0.45    0.55
   4 -13   2    1.61    0.59
   4 -13   2    1.36    0.56
  -4 -13  -2    0.77    0.55
   4  13  -2    1.14    0.77
   4  13  -2    1.59    0.50
   4 -13  -2    0.99    0.43
   4 -13  -2    1.46    0.48
   4 -13  -2    1.54    0.38
  -4 -13   2   -0.22    0.60
   5  13  -2   -0.52    0.75
   5 -13   2    1.61    0.57
   5 -13   2   -0.39    0.68
   5  13  -2    0.22    0.59
   5  13   2    0.11    0.50
   5 -13  -2   -0.20    0.43
   5 -13  -2    0.47    0.42
  -5 -13   2    1.78    0.64
   5 -13  -2   -0.27    0.55
   6 -13   2   10.32    1.09
   6  13  -2    8.37    0.99
   6 -13   2    9.06    1.00
   6 -13  -2    7.71    0.95
   6 -13  -2    9.58    0.87
   6  13   2    9.19    1.14
  -6 -13   2    8.70    1.17
   7  13  -2    3.98    0.97
   7 -13   2    3.22    0.73
  -7 -13   2    3.88    0.85
   7  13   2    3.02    0.84
   7 -13  -2    3.61    0.71
   7 -13  -2    2.76    0.56
   8 -13   2    3.79    0.77
   8  13  -2    6.08    1.19
   8  13   2    3.97    1.00
   8 -13  -2    3.25    0.88
   9  13  -2    8.53    1.48
   9 -13  -2   12.50    1.67
   0 -14   2   76.54    3.20
   0  14   2   86.79    3.73
   0 -14  -2   77.17    3.03
   1 -14   2    3.31    0.72
  -1  14   2    4.52    1.13
   1 -14   2    3.22    0.46
   1  14  -2    4.09    1.07
   1 -14  -2    4.60    0.69
   1  14   2    4.14    0.99
  -1  14  -2    3.51    1.20
   2  14  -2    7.27    1.18
  -2 -14  -2    8.17    0.96
   2 -14   2    7.53    0.83
   2 -14   2    7.24    0.95
   2  14   2    6.43    1.05
   2 -14  -2    7.51    0.93
  -2 -14   2    8.78    1.09
  -3 -14  -2    4.28    0.72
   3  14  -2    4.41    0.55
   3 -14   2    5.34    0.80
   3  14  -2    4.46    0.99
   3 -14   2    5.43    0.68
   3 -14  -2    5.06    0.72
   3  14   2    5.19    0.91
  -3 -14   2    4.09    0.78
   4 -14   2   55.83    2.44
  -4 -14  -2   58.58    2.49
   4 -14   2   58.09    2.33
   4  14  -2   57.24    2.19
   4  14  -2   56.77    2.84
   4 -14  -2   57.61    2.00
  -4 -14   2   59.67    2.56
   4 -14  -2   56.83    2.31
   4 -14  -2   57.89    2.04
   4  14   2   56.36    2.64
   5  14  -2    5.53    1.06
   5 -14   2    6.00    0.94
   5 -14   2    6.52    0.84
   5  14  -2    5.75    0.78
   5 -14  -2    6.07    0.81
   5  14   2    5.45    0.89
  -5 -14   2    8.26    0.95
   5 -14  -2    6.44    0.76
   6  14  -2   27.09    1.74
   6 -14   2   26.78    1.61
   6 -14  -2   28.29    1.47
   6 -14  -2   27.93    1.43
   6  14   2   24.92    1.54
  -6 -14   2   28.49    1.79
   7 -14   2    2.62    0.76
   7  14  -2    1.66    0.93
   7 -14  -2    2.79    0.75
  -7 -14   2    2.26    0.89
   7  14   2    1.99    0.86
   8  14  -2    9.74    1.44
   8 -14   2    9.64    1.09
   8 -14  -2    8.01    1.12
   0 -15  -2    0.64    0.54
   0 -15   2   -0.42    0.60
   0  15   2   -1.09    1.26
   1 -15   2    4.12    0.78
   1  15  -2    3.79    1.27
  -1 -15  -2    4.01    0.72
   1  15   2    2.31    1.17
  -1 -15   2    3.00    0.75
   1 -15  -2    4.45    0.73
  -2 -15  -2   15.00    1.27
   2 -15   2   15.95    1.04
   2 -15   2   15.42    1.34
   2  15  -2   16.77    2.09
   2  15   2   18.20    1.99
  -2 -15   2   18.27    1.44
   3  15  -2    0.26    0.40
  -3 -15  -2    0.00    0.57
   3  15  -2   -0.26    1.16
   3 -15   2    0.91    0.64
  -3 -15   2   -0.34    0.63
   3  15   2    2.32    1.08
   4  15  -2    6.19    1.34
  -4 -15  -2   10.14    1.26
   4  15  -2    8.52    0.91
   4 -15   2    7.62    1.00
  -4 -15   2    7.47    1.01
   4  15   2    6.01    1.18
   4 -15  -2    5.90    0.81
   5 -15   2    8.93    1.10
   5  15  -2    9.28    1.15
   5 -15  -2    8.75    0.94
   5 -15  -2    9.49    0.89
  -5 -15   2    7.90    1.09
   6  15  -2   40.03    2.02
   6 -15  -2   39.17    1.84
  -6 -15   2   36.48    2.18
  -7 -15   2    0.79    0.98
   0 -16   2   93.00    3.58
   0 -16  -2   86.78    3.41
  -1 -16  -2    3.18    0.75
   1 -16   2    4.58    0.85
  -1 -16   2    2.99    0.81
   1 -16  -2    2.39    0.67
  -2 -16  -2   34.96    1.90
   2 -16   2   33.23    1.88
   2  16   2   29.28    2.74
   2 -16  -2   30.96    1.72
  -2 -16   2   31.55    1.93
   3  16  -2    6.42    1.56
   3 -16   2    4.83    0.90
  -3 -16  -2    4.95    0.87
  -3 -16   2    4.04    0.94
   3 -16  -2    3.69    0.73
  -4 -16  -2    7.75    1.06
   4 -16   2    8.06    1.04
  -4 -16   2    5.80    1.08
   4 -16  -2    5.22    0.82
   5 -16   2    3.28    0.85
  -5 -16   2    3.12    0.91
   5 -16  -2    0.64    0.68
   6 -16   2    5.77    1.02
   6 -16  -2    5.58    0.86
  -6 -16   2    5.82    1.12
   0 -17  -2   -0.03    0.71
   0 -17   2   -0.34    0.79
   1 -17   2   -0.43    0.76
  -1 -17  -2    0.74    0.73
  -1 -17   2   -1.35    0.80
   1 -17  -2   -0.30    0.71
   2 -17   2    2.08    0.90
  -2 -17  -2    2.10    0.85
  -2 -17   2    2.14    0.94
   2 -17  -2    0.21    0.73
  -3 -17  -2    9.41    1.15
   3 -17   2   10.96    1.27
   3 -17  -2   10.77    1.18
  -3 -17   2   11.55    1.37
   4 -17   2    4.23    0.99
  -4 -17   2    4.71    1.09
   4 -17  -2    5.48    0.90
   5 -17   2    7.92    1.12
  -5 -17   2    9.42    1.29
   5 -17  -2    7.13    0.99
   0 -18  -2  111.98    4.34
   0 -18   2  119.99    4.49
  -1 -18  -2    0.10    0.82
   1 -18   2    1.25    0.93
   1 -18  -2   -0.30    0.81
  -1 -18   2   -0.79    0.91
   2 -18   2   66.19    3.04
  -2 -18  -2   67.99    3.07
   2 -18  -2   64.44    2.90
  -2 -18   2   67.24    3.16
   3 -18   2   -0.11    0.90
  -3 -18  -2    2.03    1.04
  -3 -18   2   -1.59    0.97
   3 -18  -2   -0.39    0.87
   4 -18   2    0.63    0.94
  -4 -18   2    0.65    1.14
   4 -18  -2    1.26    0.90
   0   0   3   -0.07    0.08
   0   0  -3   -0.01    0.06
   0   0   3    0.04    0.08
   0   0  -3    0.00    0.07
   1   0   3    0.13    0.09
   1   0  -3    0.12    0.08
   1   0   3    0.15    0.09
  -1   0   3    0.08    0.09
  -1   0  -3   -0.06    0.08
   1   0  -3   -0.18    0.10
  -1   0   3    0.14    0.11
   2   0  -3   -1.26    0.09
  -2   0   3   -1.23    0.11
  -2   0  -3   -1.21    0.09
   2   0   3   -1.10    0.13
  -2   0   3   -1.17    0.13
  -3   0   3   -0.94    0.08
   3   0  -3   -0.94    0.15
  -3   0  -3   -1.09    0.11
  -3   0   3   -0.89    0.14
  -3   0   3   -0.87    0.14
  -4   0   3    0.00    0.20
   4   0   3   -0.77    0.23
  -4   0   3   -0.25    0.15
  -4   0  -3   -0.32    0.15
   4   0  -3   -0.16    0.21
  -5   0  -3    0.07    0.18
   5   0   3    0.17    0.29
  -5   0   3   -0.03    0.26
  -5   0   3    0.09    0.20
   5   0  -3    0.67    0.25
  -6   0  -3    0.30    0.14
   6   0  -3    0.33    0.31
   6   0   3    0.13    0.34
  -6   0   3    0.08    0.30
  -6   0   3    0.73    0.24
   7   0  -3    0.42    0.34
   7   0   3    0.04    0.44
  -7   0   3    0.29    0.27
  -7   0   3    0.46    0.34
   8   0   3    0.06    0.50
   8   0   3    0.08    0.27
   8   0  -3    0.08    0.43
   9   0  -3    0.36    0.49
   9   0   3    0.35    0.65
   9   0   3   -0.53    0.34
  10   0  -3   -0.81    0.65
  10   0   3    0.40    0.44
  10   0   3   -0.02    0.78
  11   0  -3   -0.97    0.75
  12   0  -3   -1.67    0.91
  12   0   3    1.98    0.96
   0   1   3    0.02    0.07
   0   1  -3    0.17    0.09
   0   1   3    0.07    0.08
   0  -1  -3   -0.05    0.07
   0  -1  -3    0.02    0.07
   0   1  -3    0.18    0.10
   0  -1   3    0.03    0.09
   0  -1   3   -0.05    0.09
   1  -1   3  651.64   20.60
   1  -1   3  639.30   18.49
  -1  -1  -3  577.90   20.44
   1   1  -3  648.81   18.51
   1   1  -3  604.28   20.53
  -1   1   3  624.88   18.47
   1   1   3  626.41   18.45
  -1  -1   3  595.62   20.53
  -1  -1   3  667.64   18.51
  -1   1  -3  621.12   20.57
   1  -1  -3  666.22   18.48
  -2   1   3  491.51   15.19
   2   1  -3  483.23   15.25
  -2   1   3  521.35   16.90
   2   1  -3  506.20   16.86
  -2   1  -3  558.61   16.95
   2   1   3  558.21   16.83
  -2  -1   3  516.40   15.22
  -2  -1   3  486.24   16.85
   3   1  -3   33.89    1.33
   3   1  -3   35.82    1.37
  -3   1   3   35.88    1.41
   3  -1   3   34.34    1.49
   3   1   3   33.44    1.35
  -3  -1   3   35.25    1.34
  -3   1  -3   36.73    1.44
  -3  -1   3   34.02    1.15
   3  -1  -3   34.59    1.32
  -3  -1   3   35.41    1.32
  -4   1   3   29.37    1.34
   4   1  -3   31.38    1.25
   4  -1   3   30.18    1.40
  -4   1   3   31.32    1.31
   4   1  -3   29.51    1.27
  -4  -1   3   31.62    1.22
   4  -1  -3   29.59    1.25
  -4  -1   3   30.78    1.21
  -4  -1   3   29.82    1.01
  -4   1  -3   31.71    1.33
   5  -1   3  118.31    4.15
  -5   1   3  112.09    4.04
   5   1  -3  107.25    3.73
  -5   1   3  118.44    3.99
  -5  -1   3  106.57    3.32
   5  -1  -3  105.52    3.70
  -5  -1   3  114.54    3.83
  -5   1  -3  117.63    3.98
  -5  -1   3  108.90    3.83
   5   1   3  107.31    4.00
   6  -1   3   95.79    3.74
  -6   1   3   92.00    3.58
  -6   1   3  104.68    3.56
   6   1  -3   96.03    3.40
   6   1   3   93.90    3.62
  -6   1  -3   96.00    3.50
   6   1   3   99.17    3.06
   6  -1  -3   97.98    3.40
  -7   1   3  114.33    4.29
   7   1  -3  121.50    4.21
   7  -1   3  126.00    4.64
  -7   1   3  117.50    4.38
   7   1   3  119.92    3.76
  -7   1  -3  126.14    4.25
   7  -1  -3  116.61    4.17
   7   1   3  123.99    4.52
   8  -1   3   55.47    2.60
  -8   1   3   55.32    2.19
   8  -1   3   55.14    1.86
  -8   1   3   57.40    2.30
   8   1  -3   56.40    2.41
   8  -1  -3   52.04    2.33
   8   1   3   55.08    2.49
   9  -1   3   80.81    2.59
   9  -1   3   83.10    3.54
  -9   1   3   81.26    2.93
   9   1  -3   79.23    3.25
  -9   1   3   78.16    2.99
   9   1   3   78.26    3.40
   9  -1  -3   75.82    3.19
   9   1   3   79.80    2.69
  10  -1   3   11.49    0.81
  10  -1   3   12.41    1.59
  10   1  -3    9.73    1.34
  10   1   3   13.12    0.95
  10   1   3   10.91    1.49
  10  -1  -3   11.26    1.30
  11   1  -3   31.73    2.15
  11  -1  -3   29.32    2.07
  11   1   3   31.75    2.05
  12   1  -3   21.20    2.19
  12  -1   3   27.11    2.11
  12  -1  -3   21.86    2.18
  12   1   3   24.37    2.13
   0  -2  -3   63.51    1.95
   0  -2   3   60.64    2.04
   0   2  -3   60.55    2.03
   0   2   3   64.67    1.96
   0  -2   3   62.50    2.28
   0   2  -3   59.69    2.27
   1  -2   3   14.16    0.62
   1   2  -3   13.97    0.67
   1   2  -3   14.06    0.66
  -1   2   3   14.49    0.57
  -1  -2   3   14.48    0.65
   1  -2  -3   13.40    0.57
   1   2   3   14.29    0.55
  -1   2  -3   12.50    0.71
   2   2  -3  378.51   10.98
   2   2  -3  374.72   12.10
  -2   2   3  361.86   10.89
  -2   2   3  358.91   10.63
   2  -2   3  388.99   12.25
   2  -2  -3  366.84   10.91
   2   2   3  337.04   11.97
  -2  -2   3  370.02   10.76
  -2   2  -3  357.11   12.21
  -2  -2   3  373.34   12.05
  -2  -2   3  375.34   10.95
   3   2  -3    3.00    0.39
   3  -2   3    2.83    0.43
   3   2  -3    2.08    0.27
  -3  -2   3    1.83    0.21
  -3   2  -3    1.94    0.32
  -3  -2   3    1.71    0.27
   3   2   3    2.59    0.22
  -3  -2   3    1.94    0.24
   3  -2  -3    2.31    0.31
  -3  -2   3    2.13    0.24
  -4   2   3   18.03    1.03
   4   2  -3   20.26    0.89
   4  -2   3   18.42    1.09
   4   2  -3   19.24    0.95
   4  -2  -3   20.50    0.94
  -4   2  -3   20.14    1.06
  -4  -2   3   19.70    0.77
  -5   2   3   19.67    1.14
   5  -2   3   20.79    1.22
   5   2  -3   21.69    1.09
  -5   2   3   21.34    1.06
   5   2  -3   23.98    1.01
   5   2   3   21.51    1.04
  -5   2  -3   19.87    1.12
   5  -2  -3   20.70    1.05
   5   2   3   19.94    0.86
   6  -2   3   89.14    3.56
  -6   2   3   89.92    3.35
   6   2  -3   88.61    3.21
  -6   2   3   94.97    3.48
   6   2   3   87.54    3.35
   6  -2  -3   85.43    3.16
  -6   2  -3   92.10    3.42
   6   2   3   92.71    2.90
   7  -2   3    0.57    0.47
  -7   2   3    0.88    0.34
   7   2  -3    0.24    0.35
   7  -2  -3    0.61    0.37
  -7   2  -3    0.18    0.41
   7   2   3    0.24    0.42
   8  -2   3    4.03    0.81
   8   2  -3    7.12    0.90
  -8   2   3    5.26    0.70
   8   2   3    4.78    0.62
  -8   2  -3    4.93    0.63
   8   2   3    5.45    0.75
   8  -2  -3    5.67    0.76
   9   2  -3   33.76    1.93
   9  -2   3   35.76    1.27
  -9   2   3   34.27    1.64
   9  -2   3   37.22    2.18
   9   2   3   33.79    1.92
  -9   2  -3   34.94    1.45
  -9   2  -3   32.69    1.57
   9  -2  -3   34.57    1.88
   9   2   3   34.60    1.49
 -10   2   3   -0.24    0.70
  10   2  -3   -0.84    0.60
 -10   2   3    0.67    0.47
  10  -2   3    0.78    0.39
  10  -2  -3    1.52    0.71
  10   2   3    0.48    0.76
  10   2   3    0.17    0.57
  11   2  -3    3.10    0.92
  11   2   3    3.46    0.90
  11  -2  -3    2.21    0.91
  12  -2   3   14.50    1.87
  12   2  -3   15.58    2.05
  12   2   3   14.99    1.94
  12  -2  -3   15.43    1.99
   0   3  -3   -0.92    0.14
   0   3   3   -0.85    0.09
   0  -3   3   -1.22    0.11
   0   3  -3   -1.05    0.14
  -1   3   3  203.71    5.98
   1  -3   3  198.01    6.08
   1   3  -3  202.82    6.75
   1   3  -3  194.57    6.12
  -1   3   3  202.10    5.93
   1  -3   3  185.65    6.81
  -1   3  -3  208.21    6.85
  -1  -3   3  197.63    6.09
   1   3   3  196.18    5.96
   1  -3  -3  230.48    6.01
  -1  -3   3  190.30    6.06
  -1  -3   3  199.56    6.70
   2   3  -3   59.11    2.04
  -2   3   3   59.01    1.85
   2  -3   3   63.62    2.34
   2   3  -3   58.95    2.15
  -2   3  -3   66.55    2.35
   2   3   3   55.40    1.92
  -2  -3   3   57.68    2.00
   2  -3  -3   60.00    1.95
  -2  -3   3   60.34    2.04
  -2  -3   3   57.44    1.97
   3   3  -3    1.77    0.27
   3  -3   3    1.86    0.37
   3   3  -3    1.99    0.27
   3   3  -3    1.49    0.29
  -3   3   3    1.47    0.18
  -3   3  -3    1.59    0.33
   3  -3  -3    2.41    0.32
  -3  -3   3    1.54    0.25
  -3  -3   3    1.18    0.24
   3   3   3    1.59    0.23
   4   3  -3  122.17    3.75
  -4   3   3  121.10    4.35
   4   3  -3  119.58    4.13
   4  -3   3  121.82    4.42
   4   3  -3  118.51    3.92
   4   3   3  119.59    3.73
  -4   3  -3  117.03    4.38
  -4  -3   3  118.56    3.70
   4  -3  -3  120.97    3.87
   5   3  -3   74.34    2.74
   5   3  -3   74.83    2.52
   5   3  -3   77.78    2.78
   5  -3   3   77.41    3.11
  -5   3  -3   78.44    3.05
   5   3   3   77.15    2.73
  -5  -3   3   77.68    2.46
   5  -3  -3   75.61    2.69
   5   3   3   77.47    2.53
   6   3  -3    4.76    0.48
   6  -3   3    4.12    0.67
   6   3  -3    5.21    0.67
  -6   3   3    4.63    0.67
   6   3  -3    5.51    0.52
   6   3   3    4.28    0.61
   6  -3  -3    4.39    0.57
  -6  -3   3    5.09    0.41
   6   3   3    3.85    0.48
   7  -3   3   15.51    1.27
  -7   3   3   16.46    1.26
   7   3  -3   16.77    1.12
  -7   3   3   15.66    1.01
   7   3   3   15.30    1.03
  -7   3  -3   14.84    1.18
   7   3   3   16.39    0.89
   7  -3  -3   15.65    1.07
  -8   3   3    0.16    0.40
   8  -3   3   -0.33    0.55
   8   3  -3    0.49    0.47
  -8   3   3    0.39    0.62
  -8   3  -3    0.01    0.59
   8   3   3   -0.41    0.50
   8   3   3   -0.26    0.42
   8  -3  -3   -0.03    0.43
  -9   3   3   39.79    1.89
   9   3  -3   42.12    2.13
  -9   3   3   42.75    2.20
   9  -3   3   37.39    2.31
   9  -3  -3   37.60    2.01
   9   3   3   38.90    1.69
   9   3   3   39.48    2.04
 -10   3   3    6.61    1.07
 -10   3   3    6.94    0.99
  10   3  -3    6.79    1.07
  10   3   3    7.45    0.83
 -10   3  -3    4.86    0.79
 -10   3  -3    5.52    0.77
  10   3   3    7.36    0.99
  10  -3  -3    6.24    1.01
  10   3   3    6.55    0.92
  11   3  -3    8.49    1.25
 -11   3   3    7.13    1.10
  11  -3  -3    6.55    1.06
  11   3   3    6.84    1.12
  12  -3   3    1.92    1.01
  12   3  -3    2.22    1.13
  12   3   3    2.05    1.12
  12  -3  -3    1.24    1.05
   0  -4   3   47.95    1.61
   0   4   3   46.87    1.57
   0  -4   3   46.25    1.66
   0   4  -3   48.64    1.63
   0   4  -3   46.94    1.84
   0  -4   3   43.57    1.78
  -1   4   3  251.63    7.51
   1  -4   3  254.60    7.65
   1  -4   3  264.58    8.60
   1   4  -3  253.98    8.50
   1   4   3  253.81    7.55
  -1   4  -3  259.29    8.63
  -1  -4   3  253.09    7.65
   1  -4  -3  260.49    7.52
  -1  -4   3  249.62    7.62
   1   4   3  243.98    7.49
  -1  -4   3  249.04    8.41
   2   4  -3   45.35    1.68
   2   4  -3   43.48    1.60
   2   4  -3   43.62    1.61
  -2   4   3   45.81    1.47
   2  -4   3   45.42    1.58
   2  -4   3   45.46    1.86
  -2  -4   3   43.09    1.56
  -2   4  -3   41.20    1.84
   2   4   3   45.46    1.55
   2  -4  -3   45.83    1.50
  -2  -4   3   41.56    1.57
  -3   4   3    0.31    0.15
   3   4  -3    0.33    0.24
   3  -4   3    0.37    0.30
   3   4  -3    0.46    0.23
   3   4  -3    0.21    0.19
   3  -4  -3    0.35    0.18
   3   4   3    0.19    0.17
  -3  -4   3    0.20    0.20
  -3   4  -3    0.28    0.28
  -3  -4   3    0.06    0.19
   4  -4   3    0.24    0.34
   4   4  -3    0.33    0.24
   4   4  -3    0.12    0.25
   4   4  -3    0.19    0.18
  -4  -4   3   -0.04    0.21
  -4   4  -3   -0.09    0.30
   4  -4  -3    0.34    0.22
   4   4   3    0.15    0.21
   5   4  -3   27.71    1.15
   5   4  -3   26.26    1.27
   5  -4   3   24.34    1.45
  -5   4   3   26.63    1.47
   5   4  -3   24.49    1.11
   5  -4  -3   24.10    1.17
  -5  -4   3   26.43    1.06
   5   4   3   25.76    1.10
  -5   4  -3   27.33    1.48
  -6   4   3   13.34    1.21
   6   4  -3   18.27    0.93
   6   4  -3   16.92    0.86
   6   4  -3   16.58    1.06
   6  -4   3   16.97    1.25
   6   4   3   16.02    0.88
   6  -4  -3   16.82    0.99
  -6   4  -3   17.44    1.27
   6   4   3   14.96    0.85
  -6  -4   3   15.04    0.77
   7   4  -3    8.30    0.91
   7   4  -3    7.29    0.73
   7  -4   3    8.19    1.07
  -7   4   3    7.88    1.14
   7  -4  -3    8.47    0.81
   7   4   3    7.32    0.75
   7   4   3    7.61    0.77
  -7   4  -3   10.39    1.14
   8   4  -3    2.52    0.67
   8  -4   3    3.82    0.79
  -8   4   3    3.22    0.85
  -8   4   3    2.83    0.56
   8   4   3    3.89    0.59
  -8   4  -3    3.95    0.78
   8   4   3    3.38    0.61
   8  -4  -3    2.97    0.62
  -9   4   3    2.77    0.93
   9   4  -3    2.30    0.72
  -9   4   3    2.72    0.61
   9  -4  -3    3.07    0.70
  -9   4  -3    2.84    0.87
   9   4   3    2.52    0.67
   9   4   3    4.54    0.70
   9   4   3    3.01    0.71
  10   4  -3    1.09    0.70
 -10   4   3    0.54    1.14
 -10   4   3   -0.41    0.58
  10   4   3    1.03    0.68
  10   4   3   -0.51    0.76
  10  -4  -3   -0.24    0.61
  10   4   3   -0.18    0.73
 -10   4  -3    0.05    0.90
  11   4  -3    1.11    0.93
 -11   4   3    1.87    0.75
  11   4   3    0.87    0.86
  11  -4  -3    4.26    0.91
 -11   4  -3    1.79    0.61
  12   4  -3    4.85    1.28
  12   4   3    3.40    1.18
  12  -4  -3    4.08    1.14
   0   5   3    0.21    0.16
   0  -5  -3   -0.24    0.11
   0  -5   3    0.07    0.19
   0   5  -3   -0.01    0.15
   0  -5   3   -0.25    0.15
   0   5  -3    0.14    0.20
   0  -5   3   -0.05    0.19
  -1  -5  -3   29.56    1.08
   1   5  -3   28.75    1.12
   1  -5   3   28.54    1.18
   1  -5   3   28.41    1.10
   1   5  -3   28.39    1.24
  -1   5   3   30.04    1.09
   1  -5   3   27.91    1.29
   1   5   3   28.01    1.11
   1  -5  -3   28.93    0.95
  -1  -5   3   28.08    1.10
   1  -5  -3   28.41    1.04
  -1   5  -3   29.34    1.35
  -1  -5   3   28.58    1.18
   2   5  -3  347.56   10.50
   2  -5   3  333.98   10.46
  -2   5   3  348.68   10.35
   2  -5   3  349.83   11.85
   2   5  -3  348.54   10.57
   2   5  -3  378.68   11.67
   2  -5   3  348.57   10.54
  -2  -5   3  336.69   10.46
  -2  -5   3  349.71   10.53
   2   5   3  368.27   10.45
   2  -5  -3  352.73   10.43
  -2   5  -3  360.70   11.90
   2  -5  -3  348.83   10.30
   3  -5   3  242.22    8.73
   3   5  -3  260.89    7.71
  -3   5   3  253.62    7.52
   3   5  -3  260.25    8.46
   3   5  -3  255.56    7.79
  -3  -5   3  256.15    7.72
  -3  -5   3  245.89    7.64
   3  -5  -3  252.81    7.66
   4  -5   3  146.57    5.45
  -4   5   3  152.54    5.44
   4   5  -3  155.54    4.75
  -4   5   3  150.91    4.50
   4   5  -3  148.58    4.83
   4   5  -3  145.37    5.09
  -4   5  -3  144.59    5.48
   4  -5  -3  150.58    4.72
  -4  -5   3  149.31    4.67
   4   5   3  150.41    4.70
  -4  -5   3  149.65    4.78
  -5   5   3  114.34    4.31
   5   5  -3  109.62    3.89
   5  -5   3  104.58    4.29
   5   5  -3  115.43    3.83
  -5   5  -3  114.08    4.34
   5   5   3  110.42    3.65
   5  -5  -3  115.86    3.73
  -5  -5   3  109.04    3.57
   6   5  -3   68.27    2.37
   6   5  -3   61.65    2.38
   6  -5   3   62.10    2.85
  -6   5   3   60.99    2.82
   6   5  -3   64.00    2.50
   6   5   3   66.58    2.35
  -6  -5   3   62.78    2.20
   6  -5  -3   65.01    2.42
  -6   5  -3   64.28    2.89
   7   5  -3  164.59    5.65
   7   5  -3  162.05    5.41
   7   5  -3  183.14    5.85
   7  -5   3  167.79    6.38
  -7   5   3  163.47    6.29
   7  -5  -3  166.36    5.58
  -7  -5   3  174.99    5.21
  -7   5  -3  174.09    6.35
   7   5   3  171.80    5.39
   7   5   3  156.64    5.86
   8   5  -3  131.85    4.26
   8  -5   3  131.27    5.17
  -8   5   3  126.57    5.12
   8  -5   3  124.31    4.06
   8   5  -3  127.57    4.60
   8   5   3  126.52    4.62
   8  -5  -3  129.37    4.53
   8   5   3  123.41    4.49
   8   5   3  130.41    4.30
  -8   5  -3  131.30    5.09
  -9   5   3    9.62    1.34
   9  -5   3   11.21    0.77
  -9   5   3   11.26    1.10
   9   5  -3    9.99    1.36
   9   5   3    9.60    1.16
   9   5   3    8.04    1.00
  -9   5  -3    6.56    1.11
   9   5   3   10.52    1.20
   9  -5  -3   10.82    1.20
  10   5  -3    0.49    0.74
 -10   5   3   -0.09    0.64
 -10   5   3    0.91    1.23
 -10   5  -3    0.85    1.19
  10   5   3   -0.36    0.87
  10   5   3    1.17    0.73
  10   5   3    0.66    0.72
  10  -5  -3   -0.47    0.62
 -11   5   3    7.00    0.98
  11   5  -3    8.57    1.25
 -11   5  -3    6.03    0.85
  11   5   3    6.92    1.14
  11  -5  -3    5.86    1.03
  12   5  -3   18.94    2.38
  12  -5  -3   24.31    2.23
  12   5   3   23.86    2.23
   0  -6   3   40.45    1.46
   0   6  -3   38.18    1.71
   0  -6  -3   39.36    1.43
   0  -6   3   38.72    1.54
   0   6  -3   41.53    1.45
   0   6   3   41.89    1.50
   1   6  -3   12.10    0.77
   1  -6   3   12.93    0.82
  -1   6   3   12.94    0.67
   1  -6   3   12.15    0.74
  -1  -6  -3   12.70    0.63
   1   6  -3   12.83    0.76
   1  -6   3   12.02    0.64
   1   6  -3   14.10    0.70
   1  -6  -3   12.87    0.61
  -1  -6   3   11.85    0.65
  -1  -6   3   11.04    0.72
  -1   6  -3   12.05    0.83
   1   6   3   11.68    0.69
   2   6  -3   31.01    1.28
  -2  -6  -3   29.10    1.15
   2  -6   3   28.26    1.24
   2  -6   3   29.29    1.17
  -2   6   3   28.75    1.15
   2  -6   3   26.45    1.40
   2   6  -3   28.02    1.21
  -2  -6   3   28.80    1.24
   2  -6  -3   28.50    1.04
  -2  -6   3   30.04    1.17
   2  -6  -3   30.62    1.09
   2   6   3   28.35    1.00
   2   6   3   28.89    1.22
  -2   6  -3   28.01    1.52
   3   6  -3    4.55    0.45
   3  -6   3    3.74    0.58
  -3   6   3    4.02    0.42
   3  -6   3    3.72    0.51
   3   6  -3    3.94    0.51
   3   6  -3    3.94    0.53
  -3   6  -3    4.01    0.62
   3   6   3    3.34    0.46
  -3  -6   3    4.81    0.51
   3  -6  -3    3.84    0.39
   3  -6  -3    4.21    0.35
  -3  -6   3    4.39    0.46
  -4   6   3    1.55    0.29
   4  -6   3    1.26    0.42
  -4   6   3    1.08    0.45
   4  -6   3    1.19    0.34
   4   6  -3    1.15    0.29
   4   6  -3    1.37    0.37
   4   6  -3    1.80    0.42
   4  -6  -3    1.84    0.24
   4  -6  -3    1.40    0.30
  -4  -6   3    1.19    0.32
  -4  -6   3    1.22    0.30
   4   6   3    1.51    0.37
  -4   6  -3    1.19    0.46
  -5   6   3    7.32    0.99
   5   6  -3    7.80    0.57
   5   6  -3    5.91    0.73
   5  -6   3    8.20    0.93
   5  -6   3    6.67    0.64
   5   6  -3    7.37    0.76
   5   6   3    7.19    0.70
  -5  -6   3    5.53    0.58
  -5   6  -3    7.38    1.01
   5  -6  -3    6.94    0.62
   6   6  -3    3.80    0.52
   6   6  -3    3.74    0.61
   6  -6   3    4.22    0.73
   6  -6   3    4.30    0.53
   6   6  -3    4.17    0.62
  -6   6  -3    5.91    0.89
   6   6   3    4.80    0.63
  -6  -6   3    4.30    0.55
   6  -6  -3    4.57    0.59
   6   6   3    4.55    0.63
   7   6  -3    4.88    0.71
   7   6  -3    5.13    0.61
   7  -6   3    5.02    0.56
  -7   6   3    5.11    0.91
   7  -6   3    5.12    0.85
   7   6  -3    4.41    0.71
  -7  -6   3    5.52    0.59
  -7   6  -3    5.00    0.99
   7   6   3    4.94    0.66
   7  -6  -3    6.11    0.73
   7   6   3    4.38    0.70
  -8   6   3    7.10    1.20
   8   6  -3    7.98    0.88
   8  -6   3    6.94    0.71
   8   6  -3    6.64    0.92
   8   6   3    8.03    1.07
   8   6   3    7.75    0.97
  -8   6  -3    8.67    1.19
   8  -6  -3    6.70    0.84
   8   6   3    6.24    0.86
  -9   6   3    1.89    1.16
  -9   6   3    1.89    0.65
   9  -6   3    2.03    0.44
   9   6   3    1.78    0.81
  -9   6  -3    3.47    1.12
   9   6   3    1.08    0.66
   9   6   3    1.18    0.62
 -10   6   3   -0.45    0.69
  10   6  -3   -0.10    0.78
  10   6   3    1.41    0.78
  10   6   3    0.88    1.01
  10  -6  -3    0.86    0.71
  10   6   3   -0.77    0.74
 -10   6  -3   -0.56    1.32
  11   6  -3    2.33    1.07
  11  -6  -3    4.74    1.01
  11   6   3    2.29    0.97
  12   6  -3    0.61    1.26
  12  -6  -3    2.07    1.12
  12   6   3    1.48    1.22
   0  -7   3   -0.22    0.22
   0   7  -3    0.01    0.20
   0  -7   3   -0.01    0.21
   0   7   3   -0.09    0.23
   0   7  -3    0.24    0.30
   0  -7  -3   -0.04    0.17
   1   7  -3  164.52    5.25
   1  -7   3  166.70    5.10
  -1   7   3  165.56    5.12
   1   7  -3  160.05    5.08
   1  -7   3  159.65    5.17
  -1  -7  -3  170.95    5.09
   1   7  -3  165.26    5.74
  -1  -7   3  159.03    5.07
   1   7   3  166.40    5.17
  -1   7  -3  168.34    5.91
   1  -7  -3  160.35    5.03
  -1  -7   3  162.50    5.19
   2  -7   3  128.38    3.98
  -2   7   3  128.30    3.96
   2   7  -3  125.33    4.11
   2   7  -3  122.52    3.99
  -2  -7  -3  119.22    3.93
   2   7  -3  128.13    4.39
   2  -7   3  124.84    4.03
   2  -7   3  128.72    4.55
  -2   7  -3  120.91    4.64
  -2  -7   3  120.91    3.93
   2   7   3  124.55    4.03
   2   7   3  120.18    3.75
  -2  -7   3  119.76    4.03
   2  -7  -3  127.59    3.80
   2  -7  -3  120.94    3.86
   3   7  -3  173.31    5.60
  -3   7   3  181.81    5.47
   3   7  -3  184.13    5.68
   3  -7   3  169.72    5.54
   3   7  -3  176.12    6.07
   3  -7   3  174.95    6.36
   3  -7   3  180.57    5.61
   3   7   3  183.04    5.61
  -3  -7   3  167.25    5.55
  -3  -7   3  179.14    5.53
   3  -7  -3  183.69    5.45
   3  -7  -3  172.87    5.36
  -3   7  -3  182.60    6.47
   3   7   3  172.73    5.42
   4   7  -3  107.50    3.91
   4   7  -3  106.43    3.75
  -4   7   3  107.98    3.55
   4  -7   3  114.04    4.33
  -4   7   3  111.81    4.35
   4   7  -3  112.28    3.79
   4  -7   3  113.35    3.68
   4  -7  -3  115.62    3.45
  -4  -7   3  111.57    3.68
  -4  -7   3  109.32    3.68
  -4   7  -3  114.88    4.42
   4  -7  -3  112.71    3.62
   4   7   3  112.99    3.60
   4   7   3  111.77    3.74
  -5   7   3   47.72    2.40
   5   7  -3   47.38    2.00
   5   7  -3   48.73    2.02
   5  -7   3   50.68    1.88
   5  -7   3   50.84    2.36
   5   7  -3   49.42    1.92
   5  -7  -3   49.44    1.62
   5   7   3   46.37    1.97
  -5  -7   3   47.56    1.88
  -5   7  -3   49.85    2.48
   5  -7  -3   51.92    1.91
   5   7   3   48.49    1.87
   6   7  -3   31.86    1.59
   6   7  -3   33.68    1.64
  -6   7   3   29.79    1.99
   6  -7   3   29.39    1.36
   6   7  -3   34.98    1.42
   6  -7  -3   30.69    1.45
   6   7   3   31.28    1.47
  -6   7  -3   28.49    1.98
   6   7   3   31.66    1.57
  -6  -7   3   33.54    1.41
   7   7  -3   84.16    3.17
  -7   7   3   87.75    3.86
   7   7  -3   86.14    3.32
   7   7  -3   91.49    3.17
   7  -7   3   84.47    2.91
   7  -7  -3   84.48    3.16
   7   7   3   80.58    3.14
  -7  -7   3   85.40    2.94
  -7   7  -3   86.33    3.88
   7   7   3   85.28    3.16
   8  -7   3    7.54    0.74
   8   7  -3    7.60    0.78
   8   7  -3    7.02    0.95
   8   7  -3    8.29    0.98
   8  -7  -3    7.82    1.00
  -8   7  -3    5.79    1.29
   8   7   3    7.31    0.88
   8   7   3    7.93    0.95
   9  -7   3    5.26    0.57
   9   7   3    5.37    0.90
   9   7   3    5.07    1.01
   9   7   3    5.18    0.74
 -10   7   3    0.06    0.75
  10   7  -3   -1.16    0.81
  10  -7  -3   -0.59    0.71
  10   7   3   -0.28    0.78
  10   7   3   -0.09    0.74
 -11   7   3   19.76    1.86
  11   7  -3   17.70    2.14
  11  -7  -3   20.61    1.93
  11   7   3   16.76    1.93
   0   8  -3   27.30    1.10
   0  -8   3   28.18    1.13
   0  -8   3   27.42    1.28
   0   8   3   27.31    1.25
   0  -8  -3   25.68    1.14
   0   8  -3   26.10    1.42
   1  -8   3    5.73    0.63
   1  -8   3    5.17    0.52
   1   8  -3    5.60    0.51
   1   8  -3    7.66    0.75
   1   8  -3    6.68    0.69
  -1   8   3    6.35    0.62
  -1  -8  -3    6.51    0.53
  -1   8  -3    7.12    0.81
   1   8   3    6.26    0.65
  -1  -8   3    6.91    0.64
  -1  -8   3    5.40    0.52
   1  -8  -3    5.92    0.52
   2   8  -3   44.91    1.91
   2  -8   3   44.72    1.69
  -2  -8  -3   45.81    1.72
   2   8  -3   47.23    1.92
   2   8  -3   45.65    1.72
   2  -8   3   43.21    1.80
  -2   8   3   47.66    1.78
   2   8   3   44.91    1.82
   2  -8  -3   47.27    1.51
  -2   8  -3   44.60    2.15
  -2  -8   3   44.45    1.82
  -2  -8   3   45.14    1.67
   2  -8  -3   46.97    1.67
   3  -8   3    3.30    0.50
  -3  -8  -3    2.41    0.40
   3   8  -3    2.66    0.45
   3   8  -3    3.35    0.44
   3   8  -3    3.96    0.61
   3  -8  -3    3.08    0.38
  -3  -8   3    2.51    0.36
  -3   8  -3    2.95    0.64
   3   8   3    3.71    0.55
   3  -8  -3    3.13    0.40
  -3  -8   3    2.70    0.46
   4   8  -3   11.90    0.90
   4   8  -3   12.42    1.04
  -4   8   3   11.26    1.20
   4  -8   3   12.21    0.84
   4   8  -3   11.96    0.80
  -4   8   3   10.39    0.75
   4  -8   3   11.82    0.84
  -4   8  -3   10.74    1.25
   4   8   3   11.58    0.94
  -4  -8   3   12.16    0.80
   4  -8  -3   12.51    0.64
   4   8   3   11.01    0.71
   4  -8  -3   11.61    0.70
  -4  -8   3   11.35    0.83
   5   8  -3    7.52    0.97
   5   8  -3    6.74    0.67
  -5   8   3    8.56    1.21
   5  -8   3    7.92    0.72
   5   8  -3    7.19    0.84
   5  -8  -3    7.79    0.67
  -5  -8   3    7.20    0.73
   5  -8  -3    7.11    0.49
  -5   8  -3    6.96    1.08
   5   8   3    6.48    0.66
   5   8   3    9.30    0.94
   6   8  -3   75.36    2.97
   6   8  -3   77.62    2.89
   6   8  -3   82.05    3.03
   6  -8   3   78.62    2.74
  -6   8   3   74.82    3.54
   6  -8  -3   76.97    2.83
  -6   8  -3   76.17    3.60
   6   8   3   78.43    2.83
  -6  -8   3   80.30    2.79
   6   8   3   77.51    2.97
   7  -8   3    1.19    0.43
   7   8  -3    1.25    0.42
   7   8  -3    0.53    0.73
   7   8  -3    0.96    0.58
   7  -8  -3    1.55    0.49
  -7   8  -3    2.13    1.00
   7   8   3    1.15    0.52
   7   8   3    0.88    0.70
  -7  -8   3    0.79    0.44
   8   8  -3    0.90    0.47
   8   8  -3    2.03    0.72
   8   8  -3    2.10    0.88
   8  -8   3    1.06    0.45
  -8  -8   3    1.50    0.51
   8   8   3    1.95    0.65
   8  -8  -3    2.31    0.63
   8   8   3    1.50    0.88
   9   8  -3    9.80    1.30
   9   8  -3   12.22    1.09
   9   8  -3   10.25    1.23
   9  -8   3   11.09    0.86
   9   8   3    9.12    1.11
   9  -8  -3   10.83    1.30
  10   8  -3    9.48    1.34
 -10   8   3    8.53    1.19
  10  -8  -3   12.54    1.48
  10   8   3   11.50    1.59
  11   8  -3    2.31    1.26
 -11   8   3    4.84    1.14
  11   8   3    3.13    1.17
  11  -8  -3    2.32    1.01
   0  -9  -3    0.08    0.24
   0   9   3   -0.02    0.35
   0   9  -3   -0.12    0.21
   0  -9   3    0.21    0.27
   0  -9   3    0.21    0.34
   0   9  -3    0.40    0.43
   1   9  -3  148.96    4.92
  -1  -9  -3  142.13    4.66
   1   9  -3  143.73    5.45
   1  -9   3  142.61    4.63
   1   9  -3  150.59    4.63
   1  -9   3  147.76    4.81
  -1   9   3  150.49    4.79
  -1   9  -3  145.70    5.46
  -1  -9   3  147.85    4.62
   1  -9  -3  150.35    4.66
  -1  -9   3  143.54    4.81
   1   9   3  151.70    4.83
   2  -9   3    5.32    0.56
   2   9  -3    4.14    0.55
  -2  -9  -3    3.15    0.44
   2  -9   3    4.61    0.62
  -2   9   3    4.48    0.56
   2   9  -3    3.61    0.63
   2   9  -3    3.38    0.52
   2  -9  -3    4.00    0.32
  -2   9  -3    3.73    0.71
   2  -9  -3    4.21    0.49
  -2  -9   3    3.92    0.57
   2   9   3    3.20    0.53
  -2  -9   3    4.97    0.53
   3  -9   3   94.14    3.09
   3   9  -3   89.26    3.11
   3   9  -3   91.78    3.33
  -3   9   3   95.48    3.14
  -3  -9  -3   92.02    3.10
   3   9  -3   85.22    3.35
   3  -9   3   92.41    3.17
   3   9   3   90.58    3.24
   3  -9  -3   93.26    2.99
  -3   9  -3   81.35    3.74
   3   9   3   86.86    2.87
  -3  -9   3   87.08    3.17
   3  -9  -3   93.50    2.91
  -4   9   3   60.18    2.87
   4   9  -3   63.00    2.51
   4  -9   3   61.09    2.30
  -4   9   3   61.10    2.25
   4  -9   3   59.61    2.28
   4   9  -3   55.96    2.30
   4   9   3   60.64    2.43
  -4   9  -3   60.58    2.92
  -4  -9   3   60.50    2.33
   4  -9  -3   59.05    2.07
   4  -9  -3   63.80    2.14
   4   9   3   59.17    2.11
   5   9  -3   22.64    1.18
   5   9  -3   20.31    1.30
   5  -9   3   21.58    1.18
   5   9  -3   22.99    1.48
   5   9   3   21.77    1.41
   5   9   3   21.01    1.11
   5  -9  -3   25.12    1.15
  -5  -9   3   22.72    1.23
  -5   9  -3   21.75    1.81
   5  -9  -3   22.58    0.96
   6   9  -3    0.26    0.50
   6  -9   3    0.63    0.41
   6   9  -3   -0.55    0.70
   6   9  -3   -0.02    0.41
  -6  -9   3    1.13    0.46
   6   9   3    0.31    0.65
   6   9   3    0.54    0.46
   6  -9  -3    0.23    0.37
  -6   9  -3   -0.77    0.94
   7   9  -3   68.12    2.66
   7   9  -3   68.89    2.86
   7   9  -3   66.48    2.95
   7  -9   3   67.99    2.51
   7   9   3   69.56    2.71
   7   9   3   70.18    2.94
  -7  -9   3   68.95    2.59
   7  -9  -3   70.85    2.71
   8  -9   3    0.80    0.48
   8   9  -3    0.46    0.49
   8   9  -3    0.92    0.74
   8   9  -3    2.35    1.02
  -8  -9   3    2.05    0.57
   8  -9  -3    1.16    0.61
   8   9   3    1.39    0.67
   9   9  -3   44.56    2.53
   9  -9   3   47.06    1.86
   9   9   3   46.08    2.43
   9  -9  -3   52.31    2.39
  10   9  -3    5.35    1.23
  10   9   3    3.40    1.05
  10  -9  -3    5.21    1.03
 -11   9   3    8.28    1.37
  11   9  -3    6.43    1.48
  11   9   3    8.05    1.46
  11  -9  -3    6.86    1.28
   0 -10  -3    0.24    0.27
   0  10  -3    0.21    0.50
   0 -10   3   -0.15    0.29
   0  10   3   -0.07    0.40
   0 -10   3   -0.16    0.36
  -1 -10  -3    1.47    0.36
   1  10  -3    1.57    0.34
   1 -10   3    1.19    0.34
   1  10  -3    1.78    0.58
   1 -10   3    1.80    0.44
  -1  10   3    2.02    0.49
   1  10  -3    1.16    0.51
   1 -10  -3    1.41    0.34
  -1 -10   3    2.33    0.38
   1  10   3    2.82    0.57
  -1 -10   3    2.30    0.47
  -1  10  -3    1.00    0.57
   2 -10   3    1.00    0.32
   2  10  -3    0.63    0.31
  -2 -10  -3    0.55    0.33
   2  10  -3    0.46    0.53
  -2  10   3    0.39    0.43
   2 -10   3    0.85    0.41
   2 -10  -3    0.56    0.30
   2  10   3    0.55    0.46
  -2 -10   3    0.92    0.42
  -2  10  -3    0.03    0.57
  -2 -10   3    0.83    0.31
  -3  10   3    8.29    1.19
   3  10  -3    9.96    0.95
   3 -10   3    9.20    0.75
   3  10  -3    8.02    0.75
  -3 -10  -3    8.67    0.75
   3  10  -3    7.91    1.09
   3 -10   3    7.17    0.80
  -3  10   3    7.97    0.86
  -3  10  -3    7.31    1.06
   3  10   3    9.40    0.98
   3 -10  -3    7.66    0.64
  -3 -10   3    9.39    0.87
   3 -10  -3    8.81    0.57
   3  10   3    7.59    0.55
  -4  10   3    1.76    0.76
   4 -10   3    2.82    0.51
   4  10  -3    2.60    0.55
   4  10  -3    1.63    0.51
   4 -10   3    2.50    0.55
  -4  10   3    2.41    0.57
   4  10  -3    2.55    0.72
   4 -10  -3    1.76    0.37
   4  10   3    1.82    0.39
   4  10   3    2.49    0.64
   4 -10  -3    1.75    0.36
  -4 -10   3    2.71    0.56
   5  10  -3    2.95    0.58
   5 -10   3    3.05    0.59
   5  10  -3    3.31    0.79
   5  10  -3    5.38    0.80
   5 -10   3    3.39    0.60
   5  10   3    3.35    0.78
   5  10   3    2.74    0.51
   5 -10  -3    3.38    0.44
  -5 -10   3    3.77    0.61
   5 -10  -3    2.91    0.45
   6  10  -3   -0.28    0.54
   6  10  -3    0.15    0.85
   6  10  -3   -0.39    0.47
   6 -10   3    0.28    0.44
   6  10   3    0.18    0.48
   6 -10  -3    0.06    0.42
  -6 -10   3    0.25    0.45
   7 -10   3    1.06    0.50
   7  10  -3    0.02    0.53
   7  10  -3    0.62    0.69
  -7 -10   3    1.18    0.55
   7  10   3    0.19    0.56
   7 -10  -3    1.15    0.53
   8 -10   3    0.11    0.49
   8  10  -3    0.23    0.76
   8  10  -3   -0.42    0.57
   8  10   3    0.76    0.72
  -8 -10   3    0.40    0.62
   8 -10  -3   -0.09    0.59
   9  10  -3    4.31    1.09
   9 -10   3    5.61    0.71
   9 -10  -3    4.08    0.85
   9  10   3    3.93    1.02
  10  10  -3   12.32    1.55
  10 -10  -3   10.71    1.33
  10  10   3   13.77    1.90
   0 -11  -3   -0.52    0.29
   0  11   3   -0.48    0.52
   0  11  -3    0.16    0.57
   0 -11   3    0.34    0.40
   0 -11   3   -0.05    0.33
  -1  11   3   56.92    2.38
   1  11  -3   56.06    2.51
   1  11  -3   62.16    2.07
   1  11  -3   56.38    2.61
   1 -11   3   58.88    2.09
   1 -11   3   56.35    2.33
  -1 -11  -3   58.78    2.21
  -1  11  -3   59.21    2.77
   1  11   3   58.07    2.43
  -1 -11   3   57.60    2.35
   1 -11  -3   58.01    2.19
  -1 -11   3   56.41    2.04
   2  11  -3   96.79    3.72
  -2  11   3   97.79    3.55
  -2 -11  -3   99.56    3.43
   2 -11   3   97.55    3.52
   2  11  -3  100.13    3.89
   2  11  -3   97.68    3.30
  -2 -11   3  101.84    3.59
   2 -11  -3   95.01    3.35
  -2  11  -3  103.96    4.22
  -2 -11   3  103.78    3.27
   3  11  -3    0.19    0.52
   3 -11   3    0.44    0.43
  -3  11   3    0.81    0.76
   3 -11   3    0.02    0.41
   3  11  -3   -1.03    0.66
   3  11  -3    0.27    0.38
  -3  11   3    0.02    0.54
  -3 -11  -3    0.75    0.38
   3 -11  -3    0.47    0.25
   3 -11  -3    0.31    0.31
  -3 -11   3    0.28    0.43
  -3 -11   3    0.31    0.35
  -3  11  -3   -0.44    0.77
   4 -11   3  122.70    4.23
   4 -11   3  124.22    4.19
   4  11  -3  122.79    4.61
  -4  11   3  127.28    4.28
   4  11  -3  126.76    4.22
  -4  11   3  120.24    5.12
   4  11  -3  122.20    4.53
   4 -11  -3  129.38    3.99
  -4 -11   3  122.60    4.30
   4  11   3  120.54    4.46
   4 -11  -3  133.74    4.05
   4  11   3  120.92    3.95
   5 -11   3    6.83    0.86
   5  11  -3    7.83    0.87
   5 -11   3    8.05    1.01
   5  11  -3    8.68    0.97
   5 -11  -3    8.03    0.73
  -5 -11   3    7.67    0.96
   5 -11  -3    6.95    0.65
   5  11   3    7.16    0.82
   6  11  -3   43.00    2.11
   6 -11   3   43.23    1.93
   6 -11   3   47.30    2.18
   6  11  -3   44.29    2.03
   6 -11  -3   46.03    1.89
   6 -11  -3   45.52    1.68
   6  11   3   46.09    1.97
  -6 -11   3   44.06    2.05
   7  11  -3   19.06    1.37
   7  11  -3   19.88    1.60
   7 -11   3   20.63    1.25
   7 -11  -3   20.37    1.31
   7  11   3   21.15    1.44
  -7 -11   3   21.30    1.45
   8  11  -3   13.11    1.66
   8 -11   3   16.28    1.15
   8 -11  -3   14.50    1.36
  -8 -11   3   16.72    1.35
   8  11   3   16.09    1.56
   9  11  -3   23.80    2.10
   9 -11   3   25.26    1.38
   9  11   3   23.79    2.03
   9 -11  -3   24.59    1.77
  10  11  -3    1.35    1.25
  10  11   3   -0.07    1.16
  10 -11  -3   -0.49    0.98
   0  12  -3   32.47    2.01
   0 -12  -3   33.60    1.51
   0  12   3   31.03    1.80
   0 -12   3   33.24    1.65
   0 -12   3   31.28    1.33
  -1 -12  -3   14.38    0.97
   1 -12   3   13.95    0.90
   1 -12   3   13.90    1.11
   1  12  -3   14.13    1.37
  -1  12   3   14.02    1.26
   1  12  -3   14.93    0.82
  -1 -12   3   14.44    0.83
  -1 -12   3   15.30    1.14
  -1  12  -3   13.49    1.55
   1 -12  -3   15.39    0.96
   1  12   3   14.22    1.33
  -2 -12  -3    3.01    0.51
   2 -12   3    2.81    0.57
  -2  12   3    1.40    0.82
  -2  12   3    2.95    0.73
   2  12  -3    3.06    0.73
   2  12  -3    3.24    0.46
  -2 -12   3    2.54    0.59
   2 -12  -3    2.58    0.50
  -2  12  -3    1.73    0.92
  -2 -12   3    2.63    0.42
   3  12  -3    5.48    0.71
  -3  12   3    5.31    0.86
   3  12  -3    5.06    0.81
   3 -12   3    6.86    0.81
  -3  12   3    5.14    1.03
  -3 -12  -3    7.02    0.77
   3 -12   3    3.75    0.65
  -3 -12   3    4.33    0.69
   3 -12  -3    5.03    0.67
  -3  12  -3    4.21    1.06
   4  12  -3    0.90    0.48
   4 -12   3    1.13    0.55
   4 -12   3    0.92    0.55
   4  12  -3    0.95    0.67
  -4  12   3    1.75    0.72
   4 -12  -3    0.71    0.38
  -4 -12   3    1.52    0.59
   4 -12  -3    1.08    0.39
   4 -12  -3    1.01    0.36
   5  12  -3    1.29    0.69
   5  12  -3    1.42    0.61
   5 -12   3    1.71    0.59
   5 -12   3    1.61    0.66
   5 -12  -3    1.02    0.43
  -5 -12   3    0.69    0.58
   5  12   3    0.72    0.48
   5 -12  -3    2.30    0.45
   6 -12   3    1.72    0.84
   6 -12   3    1.28    0.58
   6  12  -3   -0.65    0.64
   6 -12  -3    0.57    0.38
   6  12   3    1.18    0.60
   6 -12  -3    0.33    0.49
  -6 -12   3    0.57    0.66
   7 -12   3    3.27    0.71
   7  12  -3    2.42    0.87
  -7 -12   3    3.51    0.78
   7 -12  -3    2.85    0.63
   7  12   3    3.51    0.76
   8 -12   3   -0.22    0.61
   8  12  -3   -0.77    0.93
   8 -12  -3    0.51    0.73
  -8 -12   3    0.39    0.75
   8  12   3   -1.07    0.84
   9  12  -3   21.26    2.18
   9 -12  -3   23.16    1.75
   9  12   3   18.64    2.11
   0 -13  -3    0.10    0.42
   0 -13   3   -0.34    0.40
   0 -13   3    0.08    0.50
   0  13  -3   -0.43    0.81
  -1  13   3  125.37    5.20
   1  13  -3  135.38    5.29
  -1  13   3  112.96    4.58
   1 -13   3  133.86    4.20
  -1 -13  -3  127.99    4.41
   1 -13   3  133.34    4.57
  -1  13  -3  131.33    5.35
   1 -13  -3  139.73    4.41
  -1 -13   3  132.13    4.59
  -1 -13   3  129.23    4.13
   2 -13   3  118.93    4.31
  -2 -13  -3  124.55    4.24
   2  13  -3  122.40    3.97
  -2  13   3  119.92    5.13
  -2  13   3  122.58    4.46
   2  13  -3  129.02    4.91
  -2  13  -3  114.72    5.25
  -2 -13   3  121.26    4.37
   2 -13  -3  128.61    4.16
  -2 -13   3  125.87    3.95
   3  13  -3   43.27    2.33
   3 -13   3   45.43    2.05
  -3  13   3   43.35    2.25
   3  13  -3   43.48    1.77
   3 -13   3   41.68    1.83
   3 -13  -3   43.51    1.82
  -4  13   3   70.37    3.03
   4  13  -3   69.20    3.16
   4  13  -3   75.21    2.72
   4 -13   3   74.57    2.88
   4 -13   3   70.62    2.76
   4 -13  -3   70.38    2.64
   4 -13  -3   76.32    2.47
   4 -13  -3   74.43    2.45
  -4 -13   3   73.41    2.97
   5 -13   3   39.00    1.91
   5  13  -3   39.27    1.90
   5 -13   3   39.16    1.98
   5  13  -3   38.00    2.17
   5 -13  -3   39.94    1.70
   5 -13  -3   40.20    1.68
  -5 -13   3   38.80    2.00
   5 -13  -3   40.71    1.63
   5  13   3   39.32    1.63
   6 -13   3    2.83    0.74
   6 -13   3    2.38    0.94
   6  13  -3    3.55    0.94
   6  13  -3    1.19    0.78
  -6 -13   3    1.60    0.69
   6  13   3    2.69    0.70
   6 -13  -3    3.18    0.62
   7  13  -3   24.88    1.90
   7 -13   3   23.00    1.46
   7 -13  -3   22.14    1.42
   7  13   3   21.55    1.57
  -7 -13   3   21.05    1.60
   8 -13   3   15.31    1.31
   8 -13  -3   16.12    1.52
   8  13   3   15.32    1.73
  -8 -13   3   15.04    1.60
   9  13  -3   62.48    3.30
   9 -13  -3   64.88    2.93
   9  13   3   54.50    3.21
   0 -14   3   23.07    1.13
   0 -14  -3   22.99    1.37
   0  14   3   22.32    2.04
   1 -14   3   10.70    0.92
   1 -14   3    9.56    1.15
   1  14  -3    8.47    1.33
  -1  14   3    7.69    1.37
  -1 -14   3   12.88    1.21
  -1 -14   3   10.57    0.81
   1 -14  -3   10.98    0.97
   2  14  -3    1.05    0.94
   2  14  -3    0.39    0.39
   2 -14   3    1.05    0.58
  -2 -14  -3    0.65    0.54
   2 -14  -3   -0.17    0.47
  -2 -14   3    1.01    0.64
   3  14  -3    6.17    0.80
  -3 -14  -3    6.36    0.84
   3 -14   3    7.23    0.79
   3  14  -3    7.28    1.17
   3 -14   3    6.09    0.88
  -3 -14   3    6.36    0.91
   3 -14  -3    6.19    0.84
   4 -14   3   13.06    1.26
   4  14  -3   11.54    1.70
   4  14  -3   11.05    1.04
   4 -14   3   12.16    1.32
   4 -14  -3   11.93    1.00
  -4 -14   3   11.90    1.30
   5  14  -3    0.44    0.63
   5 -14   3   -0.75    0.88
   5  14  -3   -0.74    0.97
   5 -14   3    0.89    0.66
   5 -14  -3    1.06    0.53
   5 -14  -3   -0.03    0.46
  -5 -14   3   -1.08    0.64
   6  14  -3   21.18    1.63
   6 -14   3   21.77    1.49
  -6 -14   3   24.11    1.71
   6 -14  -3   20.07    1.33
   6  14   3   22.82    1.38
   7 -14   3   -0.59    0.71
   7  14  -3    0.32    0.97
  -7 -14   3    1.40    0.85
   7 -14  -3    0.31    0.70
   8 -14   3    2.88    0.89
  -8 -14   3    2.48    1.02
   8 -14  -3    1.88    0.91
   0 -15   3    0.21    0.62
   0 -15   3   -0.33    0.45
   0 -15  -3    0.80    0.54
   1  15  -3   13.35    1.70
   1 -15   3   13.66    1.04
   1 -15   3   12.98    1.31
  -1 -15  -3   15.09    1.22
  -1 -15   3   10.85    1.31
   1 -15  -3   15.52    1.17
   1  15   3   14.11    2.02
  -1 -15   3   14.43    0.88
   2 -15   3   12.86    1.27
  -2 -15  -3   12.08    1.19
   2  15  -3   10.43    1.50
   2  15   3   10.78    1.40
  -2 -15   3   11.97    1.35
   3 -15   3   18.69    1.44
  -3 -15  -3   19.67    1.44
   3  15  -3   23.12    2.27
   3 -15   3   20.00    1.50
   3  15  -3   19.94    1.12
  -3 -15   3   21.54    1.60
   4  15  -3    2.50    0.62
   4 -15   3    3.16    0.71
   4  15  -3    2.38    1.25
   4 -15  -3    4.48    0.73
  -4 -15   3    0.81    0.78
   5 -15   3   78.53    3.22
   5  15  -3   79.05    3.07
  -5 -15   3   87.66    3.44
   5 -15  -3   81.50    3.03
   6 -15   3    0.88    0.75
   6  15  -3    1.02    0.81
  -6 -15   3   -0.09    0.90
   7 -15   3   13.22    1.50
   7  15  -3   15.25    1.85
  -7 -15   3   18.39    1.84
   0 -16  -3   14.38    1.30
   0 -16   3   15.27    1.48
   1 -16   3    9.81    1.35
  -1 -16  -3   10.84    1.24
  -1 -16   3   11.42    1.23
   1 -16  -3   10.51    1.15
   2 -16   3    3.37    0.85
  -2 -16  -3    6.37    0.90
  -2 -16   3    4.45    0.91
   2  16   3    4.86    1.47
   2 -16  -3    6.20    0.85
   3  16  -3   -0.10    1.50
   3 -16   3   -0.55    0.72
   3 -16  -3   -0.14    0.61
  -3 -16   3    0.01    0.81
   4 -16   3    5.31    0.99
  -4 -16   3    5.85    1.09
   4 -16  -3    5.41    0.84
   5 -16   3   -0.03    0.80
  -5 -16   3   -0.41    0.93
   6 -16   3    4.26    0.97
  -6 -16   3    0.62    1.03
   0 -17   3   -0.21    0.81
   0 -17  -3    0.71    0.73
   1 -17   3    5.55    1.05
  -1 -17  -3    6.63    1.00
   1 -17  -3    6.85    0.96
  -1 -17   3    5.80    1.08
   2 -17   3   30.63    2.02
  -2 -17  -3   34.15    2.03
   2 -17  -3   31.58    1.82
  -2 -17   3   29.82    2.07
   3 -17   3   68.52    3.01
   3 -17  -3   66.60    2.80
  -3 -17   3   64.28    3.06
   4 -17   3   30.89    2.01
  -4 -17   3   29.64    2.18
   4 -17  -3   30.60    1.81
   5 -17   3   34.41    2.12
  -5 -17   3   28.02    2.26
   0 -18  -3   12.79    1.57
   0 -18   3   12.86    1.76
  -1 -18  -3    4.60    1.03
   1 -18   3    4.90    1.20
  -1 -18   3    3.94    1.09
   1 -18  -3    5.39    0.99
   2 -18   3    6.21    1.13
  -2 -18   3    3.72    1.11
   2 -18  -3    3.16    0.90
   3 -18   3    0.79    1.05
   3 -18  -3    1.05    0.90
  -3 -18   3   -1.09    1.07
   0   0   4    3.17    0.33
   0   0  -4    4.25    0.31
   0   0  -4    2.81    0.28
   0   0   4    3.34    0.30
   1   0   4  996.77   29.24
  -1   0   4 1000.00   29.26
  -2   0  -4    0.76    0.16
  -2   0   4    0.93    0.22
  -2   0   4    0.74    0.19
   2   0  -4    0.55    0.15
   2   0  -4    0.51    0.20
   3   0  -4   29.43    1.21
   3   0  -4   28.20    1.18
   3   0   4   27.22    1.27
  -3   0   4   31.45    1.25
  -3   0   4   29.18    1.16
  -3   0  -4   28.82    1.16
  -4   0  -4   93.58    2.97
   4   0  -4   80.53    2.86
  -4   0   4   77.69    3.02
  -4   0   4   81.60    2.52
   4   0   4   84.69    3.14
  -5   0   4  121.16    4.31
   5   0   4  110.99    4.43
   5   0  -4  121.27    4.07
  -5   0   4  123.28    4.34
  -5   0  -4  134.84    4.20
  -6   0   4   20.18    1.00
  -6   0   4   18.45    1.04
   6   0  -4   18.95    1.10
   6   0   4   19.13    1.20
  -7   0   4    3.36    0.44
   7   0   4    2.98    0.62
  -7   0   4    2.98    0.45
   7   0  -4    2.06    0.48
  -8   0   4   -0.35    0.37
  -8   0   4    0.28    0.33
   8   0   4    0.81    0.32
   8   0   4    0.87    0.55
   8   0  -4    0.32    0.44
   9   0   4  123.98    5.00
   9   0  -4  126.52    4.65
   9   0   4  128.48    4.01
  10   0   4  147.14    5.84
  10   0  -4  151.55    5.41
  10   0   4  144.96    4.66
  11   0  -4    2.18    0.94
  12   0  -4   38.98    2.67
  12   0   4   40.65    2.55
   0   1  -4   -0.87    0.11
   0   1  -4   -1.18    0.12
   0  -1  -4   -0.41    0.14
   0   1   4   -1.00    0.11
   0  -1  -4   -0.99    0.08
   0  -1   4   -1.00    0.12
   0   1   4   -0.84    0.13
  -1   1   4   86.89    2.75
  -1  -1  -4   81.57    2.96
  -1   1   4   86.98    3.06
   1   1  -4   87.69    3.06
   1   1   4   87.58    3.02
   1   1   4   84.77    2.72
  -1  -1   4   85.60    2.78
   1  -1  -4   85.15    2.74
   1  -1  -4   85.97    3.02
  -1   1  -4   96.31    3.11
   2  -1   4  364.89   12.32
   2   1  -4  374.15   11.08
   2   1  -4  385.46   12.24
  -2  -1  -4  362.15   12.11
  -2   1   4  365.96   11.03
  -2   1   4  362.33   12.26
  -2   1  -4  392.25   12.29
  -2  -1   4  388.08   11.08
   2   1   4  357.94   12.20
   2  -1  -4  351.20   11.03
  -3   1   4   86.35    2.86
   3   1  -4   87.02    2.92
  -3   1   4   85.79    3.15
   3  -1   4   88.24    3.24
   3   1  -4   92.87    3.13
  -3  -1   4   88.26    2.88
  -3  -1   4   87.02    2.70
  -3  -1   4   85.60    3.10
  -3   1  -4   88.33    3.16
   3  -1  -4   85.44    2.87
   4   1  -4  129.75    4.19
  -4   1   4  134.00    4.54
   4   1  -4  129.01    4.48
   4  -1   4  118.88    4.61
   4  -1  -4  126.88    4.15
   4   1   4  133.81    4.53
  -4  -1   4  125.90    3.86
  -4  -1   4  128.14    4.44
  -4   1  -4  131.00    4.52
  -5   1   4    0.75    0.34
   5   1  -4    1.01    0.33
  -5   1   4    0.18    0.23
   5  -1   4    0.63    0.36
   5  -1  -4    0.08    0.26
  -5  -1   4    0.79    0.17
  -5  -1   4    0.54    0.24
  -5   1  -4    0.38    0.27
  -5  -1   4    0.71    0.26
   5   1   4    0.18    0.30
   6  -1   4    9.58    0.92
  -6   1   4    8.51    0.69
   6   1  -4   10.03    0.81
  -6   1   4    9.90    0.82
  -6  -1   4    9.02    0.63
  -6   1  -4    8.66    0.70
   6  -1  -4    8.54    0.79
   6   1   4    8.32    0.84
  -7   1   4   11.75    0.97
   7   1  -4   12.88    1.00
   7  -1   4   11.31    1.10
  -7   1   4   10.71    0.83
   7   1   4   11.77    1.04
   7  -1  -4   12.44    0.99
  -7   1  -4   11.87    0.77
   7   1   4   12.23    0.69
   8  -1   4   27.09    1.74
  -8   1   4   27.12    1.47
   8   1  -4   26.67    1.57
  -8   1   4   29.94    1.39
   8   1   4   28.31    1.20
   8  -1  -4   27.52    1.57
   8   1   4   29.15    1.68
   9  -1   4   16.19    1.50
   9   1  -4   17.73    1.41
  -9   1   4   13.95    0.99
  -9   1   4   14.83    1.17
   9   1   4   15.99    0.95
   9  -1  -4   14.29    1.33
   9   1   4   16.39    1.47
  10  -1   4    0.94    0.86
  10   1  -4    1.37    0.72
  10   1   4    0.14    0.56
  10   1   4    0.13    0.75
  10  -1  -4    2.59    0.73
  11   1  -4    1.13    0.86
  11  -1   4   -0.17    0.97
  11   1   4    0.91    1.01
  11  -1  -4   -0.24    0.82
  12   1  -4   21.68    2.18
  12   1   4   22.23    2.06
  12  -1  -4   22.30    2.17
   0  -2  -4  205.05    5.83
   0  -2   4  193.57    6.61
   0   2   4  194.54    5.84
   0  -2   4  196.96    5.93
   0   2  -4  182.79    6.58
  -1   2   4   98.76    3.07
   1  -2   4   97.54    3.13
   1   2  -4   99.42    3.47
   1  -2   4   96.82    3.53
  -1   2   4   99.56    3.45
   1   2  -4   96.55    3.15
  -1  -2   4  101.52    3.15
  -1   2  -4   96.70    3.52
   1  -2  -4   97.37    3.07
   1   2   4  100.43    3.05
  -1   2  -4   96.50    3.12
   1   2   4  100.68    3.37
   2   2  -4  301.01    9.20
  -2   2   4  303.21    9.12
   2  -2   4  313.57    9.18
   2   2  -4  286.55   10.13
  -2   2   4  290.72   10.16
   2  -2   4  318.58   10.29
   2  -2  -4  293.63    9.16
  -2  -2   4  295.79   10.12
  -2   2  -4  342.07   10.28
  -2  -2   4  304.88    9.19
  -3   2   4   -0.18    0.16
  -3   2   4   -0.01    0.17
   3   2  -4    0.17    0.22
   3   2  -4   -0.30    0.15
   3  -2   4   -0.28    0.24
  -3  -2   4    0.05    0.17
   3   2   4    0.02    0.15
   3  -2  -4   -0.14    0.16
  -3  -2   4    0.00    0.16
  -3   2  -4    0.19    0.23
   4   2  -4  360.64   10.79
   4  -2   4  367.45   12.02
   4   2  -4  342.82   11.77
  -4   2   4  335.95   11.84
  -4  -2   4  337.14   11.66
  -4   2  -4  386.86   11.95
   4  -2  -4  348.70   10.72
  -4  -2   4  358.43   11.65
   5   2  -4    1.10    0.35
  -5   2   4    0.87    0.37
  -5   2   4    0.94    0.29
   5   2  -4    0.76    0.26
   5  -2   4    0.99    0.39
  -5   2  -4    0.43    0.34
   5  -2  -4    0.70    0.30
   5   2   4    0.23    0.30
  -6   2   4   63.06    2.50
   6  -2   4   63.86    2.71
   6   2  -4   58.34    2.40
   6  -2  -4   62.53    2.39
   6   2   4   62.19    2.49
  -6   2  -4   62.84    2.52
  -7   2   4    6.20    0.78
   7  -2   4    5.73    0.83
   7   2  -4    4.99    0.68
  -7   2   4    4.73    0.68
  -7   2  -4    6.23    0.77
   7   2   4    6.56    0.84
   7  -2  -4    7.14    0.78
   7   2   4    7.01    0.58
  -8   2   4   55.24    2.25
  -8   2   4   50.92    2.37
   8   2  -4   51.16    2.33
   8  -2   4   47.39    2.53
   8  -2  -4   54.81    2.32
   8   2   4   51.59    1.94
  -8   2  -4   56.68    2.21
   8   2   4   49.89    2.38
  -9   2   4    3.79    0.61
   9   2  -4    2.94    0.77
  -9   2   4    4.94    0.88
   9  -2   4    4.66    0.92
  -9   2  -4    4.01    0.56
   9  -2  -4    4.14    0.82
   9   2   4    3.40    0.81
  -9   2  -4    5.09    0.60
   9   2   4    4.52    0.61
  10  -2   4  115.88    4.99
 -10   2   4  108.39    4.22
 -10   2   4  109.74    4.09
  10  -2   4  112.01    3.54
  10   2  -4  112.30    4.36
  10  -2  -4  113.24    4.32
  10   2   4  110.54    4.55
  10   2   4  111.09    3.76
  11   2  -4    7.26    1.19
  11   2   4    6.77    1.21
  11  -2  -4    5.95    1.05
  12   2  -4   51.37    2.99
  12   2   4   50.09    2.85
  12  -2  -4   46.91    2.92
   0   3  -4   -0.08    0.16
   0  -3   4   -0.09    0.13
   0   3  -4    0.23    0.15
   0   3   4    0.05    0.10
   0  -3   4   -0.08    0.18
   0  -3  -4   -0.05    0.09
  -1   3   4   84.29    2.54
   1  -3   4   74.91    2.98
   1   3  -4   81.95    2.67
   1   3  -4   79.90    2.93
   1  -3   4   81.23    2.64
  -1   3  -4   81.70    3.01
  -1  -3   4   82.49    2.66
   1   3   4   81.21    2.52
   1  -3  -4   83.14    2.55
  -1   3  -4   79.82    2.63
   2   3  -4  581.02   19.92
   2   3  -4  594.31   18.01
   2  -3   4  595.85   20.07
   2  -3   4  604.53   17.97
  -2   3   4  591.36   17.88
  -2  -3   4  618.16   18.00
  -2   3  -4  670.76   20.12
  -2  -3   4  589.74   17.73
  -2  -3   4  619.72   19.86
   3  -3   4   69.57    2.84
   3   3  -4   73.33    2.53
   3   3  -4   71.06    2.65
  -3   3   4   72.40    2.22
  -3   3  -4   82.94    2.89
  -3  -3   4   70.68    2.51
  -3  -3   4   73.20    2.49
   3   3   4   71.47    2.50
  -3  -3   4   70.42    2.38
   3  -3  -4   73.16    2.44
   4   3  -4    4.54    0.56
   4   3  -4    5.05    0.45
   4  -3   4    5.10    0.68
  -4  -3   4    5.99    0.45
   4   3   4    5.18    0.38
  -4  -3   4    5.86    0.55
  -4   3  -4    4.88    0.64
   4   3   4    4.75    0.40
   4  -3  -4    5.89    0.51
  -5   3   4   15.57    1.10
   5   3  -4   17.34    0.88
   5  -3   4   18.59    1.18
  -5   3   4   16.97    0.98
   5   3  -4   17.92    1.01
  -5  -3   4   15.80    0.76
  -5   3  -4   17.88    1.10
   5  -3  -4   15.92    0.92
  -6   3   4   38.90    1.78
   6  -3   4   39.57    2.01
  -6   3   4   40.33    1.95
   6   3  -4   39.75    1.66
   6   3  -4   40.12    1.78
   6  -3  -4   38.65    1.71
  -6  -3   4   39.89    1.41
   6   3   4   42.17    1.54
   6   3   4   38.79    1.71
   7   3  -4    7.49    0.87
   7  -3   4    7.28    1.04
  -7   3   4    6.82    0.75
  -7   3   4    7.69    1.06
   7   3   4    5.63    0.80
   7  -3  -4    7.88    0.83
   7   3   4    7.36    0.67
  -7   3  -4    7.62    1.01
   8   3  -4  118.55    4.26
  -8   3   4  114.53    4.37
   8  -3   4  116.84    4.72
  -8   3   4  114.85    4.54
  -8   3  -4  120.74    4.43
   8   3   4  116.35    4.39
   8  -3  -4  115.36    4.18
   8   3   4  112.52    3.81
  -9   3   4    4.74    0.69
  -9   3   4    3.73    0.86
   9  -3   4    4.23    0.98
   9   3  -4    4.85    0.90
   9   3   4    4.25    0.81
   9  -3  -4    3.50    0.75
   9   3   4    4.95    0.67
 -10   3   4    0.94    0.58
 -10   3   4    1.49    0.98
  10  -3   4    1.72    0.40
  10  -3   4    1.68    0.91
  10   3  -4    3.08    0.78
 -10   3  -4    0.58    0.43
  10   3   4    2.21    0.73
 -10   3  -4    1.88    0.68
  10   3   4    2.21    0.84
  10  -3  -4    0.44    0.64
 -11   3   4   16.51    1.39
  11   3  -4   17.73    1.82
  11   3   4   16.82    1.69
  11  -3  -4   14.79    1.70
  11   3   4   18.65    1.97
  12   3  -4   47.22    2.96
  12  -3  -4   45.36    2.83
  12   3   4   49.89    2.80
   0   4  -4   65.24    2.39
   0   4  -4   61.49    2.09
   0   4   4   61.96    2.00
   0  -4   4   63.64    2.10
   0   4   4   60.15    1.92
   0  -4  -4   59.31    1.90
   0  -4   4   61.73    2.34
   1  -4   4   64.31    2.18
  -1   4   4   65.57    2.07
   1  -4   4   66.25    2.50
  -1   4   4   64.87    2.03
   1   4  -4   65.68    2.44
   1   4  -4   60.94    2.19
   1   4   4   62.53    2.10
  -1  -4   4   66.30    2.20
  -1  -4   4   61.58    2.20
   1  -4  -4   64.77    2.05
  -1   4  -4   65.72    2.52
  -1   4  -4   65.42    2.18
   1   4   4   65.74    2.02
   2  -4   4  113.81    3.73
  -2   4   4  113.61    3.55
   2  -4   4  118.02    4.26
   2   4  -4  114.41    4.10
   2   4  -4  112.65    3.76
  -2  -4   4  112.22    3.69
  -2   4  -4  128.67    4.31
  -2  -4   4  115.92    3.74
  -2  -4   4  119.70    3.97
   2   4   4  119.65    3.65
  -3   4   4   26.10    0.93
   3  -4   4   25.54    1.35
   3   4  -4   27.64    1.20
   3   4  -4   25.71    1.15
   3   4   4   25.04    1.04
   3  -4  -4   26.49    1.07
  -3  -4   4   26.34    1.12
  -3  -4   4   25.37    1.09
  -3   4  -4   26.11    1.35
   4   4  -4  153.22    5.02
   4   4  -4  159.55    5.36
   4  -4   4  157.95    5.67
  -4   4   4  156.25    4.61
   4   4   4  151.71    4.83
   4  -4  -4  155.69    4.92
  -4  -4   4  156.44    4.97
  -4  -4   4  153.63    4.81
   5   4  -4   29.33    1.26
   5  -4   4   28.26    1.58
   5   4  -4   26.90    1.35
  -5   4   4   28.02    1.54
   5  -4  -4   28.45    1.28
   5   4   4   29.42    1.21
   5   4   4   27.15    1.12
  -5   4  -4   29.80    1.58
  -5  -4   4   28.71    1.15
   6   4  -4   66.45    2.59
   6  -4   4   64.17    2.97
   6   4  -4   69.61    2.67
  -6   4   4   70.17    2.98
  -6   4  -4   72.62    2.97
  -6  -4   4   68.25    2.30
   6   4   4   69.12    2.41
   6  -4  -4   69.39    2.57
   7  -4   4    0.75    0.54
  -7   4   4    0.41    0.38
  -7   4   4   -0.31    0.63
   7   4  -4    0.28    0.44
   7   4   4    0.46    0.40
   7  -4  -4    0.47    0.37
  -7   4  -4    0.91    0.60
   7   4   4    0.96    0.39
  -7  -4   4    0.25    0.27
   8   4  -4   14.97    1.26
  -8   4   4   13.64    1.10
  -8   4   4   15.05    1.49
   8  -4   4   16.71    1.50
   8   4   4   13.75    1.13
   8   4   4   14.54    1.06
  -8   4  -4   12.05    1.39
   8  -4  -4   15.27    1.16
   9  -4   4    0.61    0.81
  -9   4   4    0.64    0.53
  -9   4   4   -1.12    0.87
  -9   4  -4   -1.12    0.76
   9  -4  -4    0.76    0.58
   9   4   4   -1.11    0.58
   9   4   4   -0.04    0.61
 -10   4   4    2.66    0.70
  10   4  -4    2.15    0.84
 -10   4   4    4.43    1.24
  10   4   4    1.94    0.83
  10   4   4    2.83    0.87
  10  -4  -4    3.01    0.77
 -10   4  -4    2.31    0.93
  10   4   4    3.03    0.77
  11   4  -4    0.01    0.85
 -11   4   4   -0.84    0.76
  11  -4  -4    1.13    0.88
  11   4   4    0.42    0.84
  11   4   4   -0.56    0.98
  12   4  -4    3.78    1.30
  12   4   4    4.73    1.22
  12  -4  -4    5.37    1.28
   0   5   4   -0.30    0.16
   0  -5   4   -0.11    0.20
   0  -5   4   -0.39    0.18
   0   5  -4   -0.22    0.18
   0   5   4   -0.09    0.08
   0  -5   4   -0.15    0.21
   1  -5   4   44.19    1.61
   1  -5   4   41.36    1.84
   1   5  -4   44.37    1.63
   1   5  -4   45.53    1.82
  -1   5   4   45.35    1.55
   1  -5   4   42.12    1.66
  -1  -5   4   43.74    1.61
  -1  -5   4   42.97    1.66
  -1   5  -4   44.92    1.90
  -1  -5   4   44.18    1.73
  -1   5  -4   44.93    1.60
   1   5   4   45.58    1.41
   1  -5  -4   44.09    1.43
   1   5   4   45.38    1.58
   2   5  -4  102.91    3.70
   2  -5   4  101.44    3.84
  -2   5   4  104.21    3.23
   2   5  -4  101.74    3.40
   2  -5   4  101.48    3.36
   2  -5  -4  103.71    3.24
  -2  -5   4  109.78    3.39
  -2  -5   4  104.87    3.48
  -2   5  -4  104.07    3.89
  -2  -5   4  101.96    3.37
   2   5   4  101.65    3.33
   3   5  -4    0.13    0.23
  -3   5   4   -0.21    0.16
   3  -5   4   -0.19    0.29
   3   5  -4   -0.21    0.24
   3  -5   4    0.36    0.22
   3  -5  -4    0.17    0.20
  -3  -5   4    0.04    0.24
   3   5   4   -0.27    0.20
  -3  -5   4   -0.27    0.21
   4  -5   4    6.73    0.78
   4   5  -4    4.71    0.49
   4   5  -4    4.37    0.62
  -4   5   4    5.02    0.38
  -4   5  -4    4.88    0.71
  -4  -5   4    4.24    0.54
   4  -5  -4    5.33    0.51
  -4  -5   4    4.78    0.51
   4   5   4    4.70    0.50
   5  -5   4    1.55    0.51
   5   5  -4    2.19    0.38
   5   5  -4    1.99    0.45
  -5   5   4    2.72    0.60
   5  -5  -4    3.03    0.46
  -5   5  -4    2.24    0.60
  -5  -5   4    2.20    0.37
   5   5   4    2.23    0.40
   6   5  -4    6.80    0.61
  -6   5   4    6.53    0.87
   6  -5   4    5.37    0.81
   6   5  -4    6.16    0.74
   6  -5  -4    6.74    0.72
  -6   5  -4    7.54    1.08
   6   5   4    5.11    0.67
  -6  -5   4    6.22    0.58
   7   5  -4   16.91    0.98
   7   5  -4   16.66    1.23
  -7   5   4   17.64    1.49
   7  -5   4   16.88    1.44
   7  -5  -4   15.75    1.08
  -7   5  -4   15.98    1.49
   7   5   4   16.55    1.07
  -7  -5   4   16.07    0.87
   7   5   4   14.76    1.00
  -8   5   4   50.79    2.65
  -8   5   4   48.78    2.28
   8  -5   4   48.81    2.64
   8   5  -4   49.92    2.34
   8   5   4   48.22    2.13
   8  -5  -4   47.66    2.20
   8   5   4   51.88    2.10
  -8   5  -4   46.29    2.54
  -9   5   4    2.15    1.07
  -9   5   4    0.99    0.58
   9  -5   4    1.23    0.48
   9  -5   4    1.15    0.87
  -9   5  -4    2.74    1.02
   9   5   4    0.89    0.61
   9   5   4    0.41    0.69
   9   5   4    2.09    0.69
  10   5  -4   -0.08    0.76
 -10   5   4    0.63    1.28
 -10   5   4    0.99    0.69
  10  -5   4    1.71    0.53
  10   5   4    1.09    0.73
  10   5   4    1.40    0.91
  10  -5  -4    0.04    0.68
 -10   5  -4    0.02    1.11
  10   5   4   -0.11    0.75
 -11   5   4   -0.57    0.80
  11   5  -4   -0.50    0.91
  11   5   4   -0.48    0.87
  11   5   4   -1.19    0.97
  11  -5  -4   -1.90    0.79
  12   5  -4   12.23    1.55
  12   5   4   12.71    1.58
  12  -5  -4   15.32    1.68
   0   6  -4   25.35    1.07
   0   6  -4   24.68    1.28
   0  -6   4   24.51    1.19
   0  -6   4   25.40    1.09
   0   6   4   26.81    1.09
   0  -6   4   24.97    1.17
  -1   6   4   37.90    1.40
   1   6  -4   37.42    1.45
   1  -6   4   36.20    1.42
   1  -6   4   38.76    1.67
   1   6  -4   39.24    1.64
   1  -6   4   36.05    1.51
  -1  -6   4   39.09    1.50
  -1   6  -4   36.40    1.72
  -1  -6   4   35.29    1.49
  -1  -6   4   36.92    1.43
   1  -6  -4   36.63    1.21
   2   6  -4  356.04   11.84
  -2   6   4  364.04   10.49
   2  -6   4  357.08   12.00
   2  -6   4  349.63   10.67
   2   6  -4  358.22   10.71
   2  -6   4  352.37   10.63
   2   6   4  364.47   10.58
  -2  -6   4  345.65   10.61
  -2  -6   4  350.21   10.66
   2  -6  -4  365.93   10.51
  -2   6  -4  327.90   12.05
   3  -6   4   27.37    1.25
   3   6  -4   26.73    1.26
  -3   6   4   27.45    1.10
   3   6  -4   29.13    1.29
   3  -6   4   30.05    1.52
  -3   6  -4   27.51    1.53
   3  -6  -4   27.20    1.11
   3   6   4   29.65    1.23
  -3  -6   4   27.78    1.24
  -3  -6   4   28.07    1.23
  -4   6   4  131.54    4.19
   4   6  -4  141.34    4.79
   4   6  -4  134.72    4.45
   4  -6   4  132.59    5.11
   4   6  -4  130.89    4.50
  -4  -6   4  133.51    4.37
  -4   6  -4  149.78    5.23
   4   6   4  134.83    4.39
  -4  -6   4  137.23    4.44
   4  -6  -4  140.07    4.37
   5   6  -4    1.24    0.31
   5   6  -4    1.18    0.44
  -5   6   4    1.56    0.55
   5  -6   4    1.08    0.46
   5   6  -4    1.64    0.43
  -5   6  -4    2.41    0.61
  -5  -6   4    0.84    0.31
   5   6   4    1.41    0.41
   5  -6  -4    1.97    0.37
   6   6  -4  130.92    4.35
  -6   6   4  129.67    5.10
   6   6  -4  130.64    4.53
   6  -6   4  134.00    5.14
  -6   6  -4  130.07    5.14
   6  -6  -4  129.65    4.38
  -6  -6   4  126.86    4.19
   6   6   4  135.48    4.36
   7   6  -4    5.00    0.77
  -7   6   4    4.32    0.92
   7  -6   4    5.74    0.96
   7  -6   4    6.03    0.69
   7   6  -4    4.26    0.63
   7  -6  -4    7.29    0.80
  -7   6  -4    7.15    1.05
  -7  -6   4    4.47    0.62
   7   6   4    5.00    0.70
   8  -6   4   61.21    2.25
   8  -6   4   62.22    3.10
   8   6  -4   62.35    2.48
  -8   6   4   60.41    3.14
   8   6  -4   62.96    2.74
   8   6   4   56.59    2.42
   8  -6  -4   58.21    2.54
   8   6   4   60.32    2.49
  -8   6  -4   62.55    3.11
   8   6   4   61.15    2.55
  -8  -6   4   61.15    2.19
   9  -6   4    8.61    0.85
   9   6  -4    7.55    1.09
  -9   6   4    6.58    0.96
  -9   6   4    7.08    1.40
  -9   6  -4    8.56    1.36
   9   6   4   10.02    1.31
   9   6   4    9.63    1.15
   9   6   4   10.16    1.22
  10  -6   4    1.60    0.53
 -10   6   4    1.67    0.79
  10   6  -4    2.85    0.93
  10   6   4    1.84    0.75
  10   6   4    0.59    0.79
 -10   6  -4    1.66    1.45
  10   6   4    0.42    1.05
  10  -6  -4    1.11    0.75
  11   6  -4    5.37    1.26
  11  -6  -4    4.84    1.02
  11   6   4    4.75    1.11
  11   6   4    4.35    1.09
  12   6  -4    6.56    1.53
  12   6   4    3.48    1.36
  12  -6  -4    7.16    1.42
   0  -7   4   -0.52    0.25
   0  -7  -4   -0.35    0.16
   0  -7   4    0.04    0.26
   0   7   4    0.32    0.25
   0   7  -4   -0.25    0.29
   0   7  -4   -0.07    0.19
   0  -7   4   -0.05    0.23
   1   7  -4   -0.12    0.28
   1   7  -4   -0.44    0.19
   1  -7   4   -0.56    0.24
   1  -7   4    0.01    0.28
   1  -7   4   -0.13    0.22
  -1   7  -4   -0.14    0.32
   1   7   4   -0.24    0.24
  -1  -7   4   -0.52    0.23
   1  -7  -4   -0.25    0.16
  -1  -7   4   -0.20    0.24
   2  -7   4  116.71    3.88
   2  -7   4  112.37    3.80
   2   7  -4  112.64    4.23
   2  -7   4  115.69    4.37
  -2   7   4  124.33    3.78
   2   7  -4  117.61    3.85
  -2  -7   4  116.80    3.80
  -2  -7   4  115.97    3.88
   2  -7  -4  116.70    3.66
   2   7   4  114.69    3.55
  -2   7  -4  127.86    4.52
   2   7   4  118.48    3.86
   2  -7  -4  118.53    3.62
   3   7  -4    7.75    0.69
  -3   7   4    9.86    0.63
   3   7  -4    8.49    0.83
   3   7  -4    8.53    0.73
   3  -7   4    8.11    0.87
   3  -7   4    9.10    0.74
   3  -7   4    9.93    0.70
   3  -7  -4    8.60    0.56
   3   7   4    8.74    0.72
  -3   7  -4    8.68    0.98
  -3  -7   4    7.72    0.70
   4  -7   4   12.20    0.84
   4  -7   4   11.46    1.06
   4  -7   4   11.90    0.85
   4   7  -4   11.51    0.80
  -4   7   4   12.02    0.70
   4   7  -4   13.62    0.96
   4   7  -4   11.35    0.88
   4   7   4   11.38    0.86
  -4  -7   4   11.75    0.80
  -4   7  -4   10.75    1.14
  -4  -7   4   13.58    0.84
   4  -7  -4   11.18    0.71
   5   7  -4    3.83    0.58
   5  -7   4    4.11    0.56
  -5   7   4    3.54    0.79
   5  -7   4    3.94    0.72
   5   7  -4    4.27    0.65
   5   7  -4    3.70    0.57
  -5   7  -4    4.63    0.78
  -5  -7   4    4.57    0.62
   5   7   4    4.10    0.59
   5  -7  -4    4.57    0.57
   6  -7   4   14.85    0.98
   6   7  -4   15.66    1.15
   6   7  -4   15.64    1.18
   6  -7   4   14.47    1.35
   6   7  -4   16.24    0.96
  -6   7   4   14.96    1.52
   6   7   4   14.04    0.97
   6   7   4   16.64    1.14
  -6   7  -4   15.62    1.57
   6  -7  -4   15.59    0.99
  -6  -7   4   15.05    0.94
   7  -7   4   29.96    1.44
   7   7  -4   30.80    1.75
  -7   7   4   33.93    2.23
   7  -7   4   31.21    2.03
   7   7  -4   32.55    1.50
   7   7   4   30.37    1.57
  -7   7  -4   32.58    2.26
   7   7   4   32.11    1.68
   7  -7  -4   34.25    1.62
  -7  -7   4   33.71    1.45
   8   7  -4    6.62    0.85
   8  -7   4    5.68    0.78
   8   7  -4    7.39    0.98
  -8  -7   4    6.62    0.79
   8  -7  -4    6.38    0.83
  -8   7  -4    6.12    1.28
   8   7   4    5.86    0.82
   8   7   4    6.62    0.94
   9   7  -4    2.48    0.85
   9  -7   4    3.18    0.59
   9   7   4    4.24    0.74
   9   7   4    5.05    1.04
   9   7   4    4.06    0.82
 -10   7   4   10.21    1.46
  10  -7   4    9.47    0.91
  10   7  -4    8.03    1.29
  10   7   4    8.40    1.12
  10   7   4    9.90    1.39
  10  -7  -4    8.11    1.08
 -11   7   4    3.14    1.05
  11   7  -4   -0.16    1.19
  11  -7  -4    3.34    1.04
  11   7   4    1.71    1.06
   0  -8   4    9.93    0.79
   0  -8  -4   10.47    0.65
   0   8  -4   10.69    0.92
   0   8  -4   10.41    0.65
   0   8   4   11.34    0.75
   0  -8   4   10.13    0.69
  -1  -8  -4    2.01    0.35
  -1   8   4    2.74    0.45
   1  -8   4    2.59    0.38
   1   8  -4    2.53    0.46
   1  -8   4    2.64    0.46
   1   8  -4    3.07    0.41
   1  -8  -4    2.11    0.34
   1   8   4    2.75    0.44
  -1  -8   4    2.34    0.36
  -1  -8   4    1.99    0.45
  -1   8  -4    2.67    0.53
   2  -8   4   33.81    1.68
  -2   8   4   34.67    1.44
   2   8  -4   33.65    1.45
   2  -8   4   34.52    1.53
   2  -8   4   33.71    1.45
   2   8  -4   36.64    1.63
  -2  -8   4   33.02    1.52
  -2   8  -4   36.24    1.86
   2  -8  -4   34.73    1.32
  -2  -8   4   35.50    1.42
   2   8   4   35.82    1.52
   2  -8  -4   33.46    1.19
   3  -8   4    0.86    0.36
   3   8  -4    1.48    0.39
   3   8  -4    0.75    0.50
   3  -8   4    1.21    0.37
   3  -8   4    1.22    0.47
   3   8  -4    1.77    0.40
   3   8   4    1.67    0.43
  -3  -8   4    1.67    0.36
   3  -8  -4    0.97    0.26
   3  -8  -4    1.46    0.28
  -3   8  -4    1.54    0.55
  -3  -8   4    0.87    0.39
   4  -8   4   42.06    1.75
   4  -8   4   43.70    1.75
   4   8  -4   39.10    1.76
   4   8  -4   40.68    1.78
  -4   8   4   40.55    1.59
   4  -8   4   41.30    2.08
   4   8  -4   40.60    1.86
   4   8   4   39.74    1.54
   4   8   4   40.99    1.79
  -4  -8   4   41.93    1.69
  -4  -8   4   41.02    1.72
   4  -8  -4   42.54    1.58
  -4   8  -4   37.31    2.19
   5   8  -4    2.79    0.55
   5   8  -4    1.60    0.61
   5  -8   4    1.15    0.56
   5  -8   4    2.36    0.50
   5   8  -4    2.40    0.45
  -5   8   4    2.16    0.72
   5   8   4    2.18    0.42
  -5  -8   4    1.77    0.45
   5   8   4    1.68    0.55
   5  -8  -4    2.68    0.44
  -5   8  -4    2.25    0.71
   6   8  -4   27.40    1.53
   6   8  -4   26.06    1.56
   6   8  -4   24.82    1.29
   6  -8   4   25.66    1.29
  -6   8   4   26.24    1.96
   6   8   4   25.14    1.50
   6  -8  -4   26.12    1.32
  -6  -8   4   24.73    1.28
  -6   8  -4   25.19    2.00
   6   8   4   24.85    1.29
   7   8  -4    3.98    0.55
   7  -8   4    4.55    0.63
   7   8  -4    3.60    0.74
   7   8  -4    3.76    0.85
  -7   8  -4    1.80    1.06
   7  -8  -4    4.30    0.64
   7   8   4    4.23    0.80
   7   8   4    3.71    0.64
  -7  -8   4    3.58    0.57
   8  -8   4   36.85    1.62
   8   8  -4   35.91    1.74
   8   8  -4   35.69    2.07
   8  -8  -4   37.44    1.89
   8   8   4   39.92    1.94
  -8  -8   4   36.31    1.64
   9   8  -4    2.31    0.86
   9   8  -4    3.50    0.70
   9  -8   4    4.05    0.62
   9  -8  -4    3.32    0.77
   9   8   4    3.11    0.80
 -10   8   4   10.73    1.51
  10   8  -4    9.42    1.30
  10   8   4    9.18    1.21
  10  -8  -4    6.70    1.05
 -11   8   4   -1.01    1.04
  11   8  -4   -0.62    1.20
  11   8   4   -1.08    1.11
  11  -8  -4    0.65    1.01
   0  -9   4    0.48    0.31
   0   9  -4   -0.27    0.23
   0  -9   4    0.02    0.35
   0  -9  -4   -0.20    0.23
   0   9  -4   -0.27    0.40
   0   9   4    0.05    0.33
   1  -9   4   66.10    2.52
   1   9  -4   66.07    2.76
  -1   9   4   70.03    2.47
  -1  -9  -4   64.85    2.35
   1  -9   4   68.01    2.37
   1   9  -4   64.02    2.33
  -1  -9   4   67.53    2.35
   1  -9  -4   66.00    2.31
  -1   9  -4   66.65    2.91
  -1  -9   4   65.51    2.51
   1   9   4   68.79    2.52
  -2   9   4  292.40    8.82
   2   9  -4  289.34    9.89
   2   9  -4  294.24    8.85
   2  -9   4  286.16    8.89
   2  -9  -4  283.01    8.65
  -2  -9   4  282.37    8.90
  -2  -9   4  281.14    8.81
   2   9   4  286.77    8.90
  -2   9  -4  298.09   10.18
   3   9  -4   75.15    2.94
   3  -9   4   76.44    2.80
   3  -9   4   74.95    2.72
   3   9  -4   77.10    2.99
   3   9  -4   81.10    2.78
  -3   9   4   77.65    2.72
  -3   9  -4   74.63    3.34
   3   9   4   73.96    2.44
  -3  -9   4   74.99    2.80
   3  -9  -4   76.20    2.55
   3   9   4   75.16    2.84
  -3  -9   4   76.69    2.67
   3  -9  -4   76.09    2.50
   4  -9   4    4.46    0.64
   4  -9   4    5.15    0.64
  -4   9   4    3.89    0.80
   4   9  -4    4.12    0.61
   4   9  -4    3.63    0.73
  -4   9   4    5.46    0.68
  -4  -9   4    3.82    0.55
   4   9   4    5.27    0.72
   4   9   4    4.95    0.56
   4  -9  -4    4.54    0.46
  -4  -9   4    4.20    0.59
  -4   9  -4    4.87    0.92
   4  -9  -4    4.02    0.54
   5   9  -4   16.35    1.11
   5  -9   4   16.73    1.21
   5   9  -4   17.77    1.22
   5  -9   4   17.05    1.08
   5   9  -4   15.56    1.35
  -5  -9   4   18.00    1.12
   5   9   4   18.40    1.31
   5  -9  -4   17.82    0.99
   5   9   4   17.37    0.97
  -5   9  -4   18.52    1.69
   6   9  -4   74.18    2.94
   6  -9   4   77.72    2.78
   6   9  -4   75.47    3.00
   6   9  -4   76.52    3.08
   6  -9  -4   78.30    2.80
   6   9   4   73.13    2.75
  -6  -9   4   75.50    2.80
   6   9   4   74.77    3.01
   7   9  -4   84.62    3.37
   7  -9   4   80.42    2.96
   7   9  -4   77.93    3.15
   7   9  -4   83.75    3.31
   7   9   4   83.59    3.10
   7  -9  -4   84.01    3.11
  -7  -9   4   85.08    3.02
   8   9  -4   91.59    3.56
   8  -9   4   96.11    3.29
   8   9  -4   90.26    3.75
   8   9   4   94.78    3.57
   8  -9  -4   92.68    3.54
  -8  -9   4   97.32    3.34
   9  -9   4    0.06    0.54
   9   9  -4   -0.22    0.82
   9  -9  -4   -0.64    0.67
   9   9   4   -0.19    0.80
  10   9  -4    2.94    1.13
 -10   9   4    0.06    0.90
  10  -9  -4    2.00    0.90
  10   9   4    2.19    1.01
  11   9  -4    0.49    1.35
 -11   9   4    0.91    1.16
  11  -9  -4   -1.22    1.04
  11   9   4   -0.88    1.19
   0  10   4  164.48    5.39
   0  10  -4  163.01    5.18
   0 -10  -4  171.68    5.24
   0 -10   4  163.54    5.41
   0 -10   4  165.17    5.22
   0  10  -4  162.32    6.09
   1  10  -4    8.03    0.97
   1 -10   4    6.93    0.69
  -1  10   4    6.47    0.81
   1 -10   4    8.09    0.82
   1  10  -4    6.29    0.60
  -1 -10  -4    7.46    0.66
  -1 -10   4    6.80    0.68
  -1  10  -4    7.28    0.95
  -1 -10   4    6.52    0.79
   1  10   4    6.70    0.85
   1 -10  -4    7.31    0.63
   2 -10   4  154.49    5.21
  -2 -10  -4  164.29    5.10
   2 -10   4  167.35    5.11
   2  10  -4  154.51    5.07
   2  10  -4  170.85    5.81
  -2  10   4  161.04    5.18
   2 -10  -4  150.15    4.97
  -2  10  -4  149.61    5.99
  -2 -10   4  152.06    5.21
   2  10   4  159.56    5.27
   3  10  -4   61.11    2.61
  -3  10   4   58.85    2.33
   3 -10   4   60.45    2.30
   3  10  -4   61.32    2.31
   3 -10   4   59.49    2.39
  -3  10  -4   61.59    2.98
   3  10   4   59.50    2.48
  -3 -10   4   60.10    2.41
   3 -10  -4   61.20    2.04
   3 -10  -4   63.51    2.17
  -3 -10   4   61.30    2.24
   4 -10   4   60.77    2.41
  -4  10   4   61.13    2.34
   4  10  -4   62.55    2.57
   4 -10   4   61.10    2.39
   4  10  -4   64.02    2.69
   4  10  -4   58.36    2.40
  -4  10   4   57.86    2.99
   4  10   4   61.36    2.13
   4 -10  -4   62.58    2.15
  -4 -10   4   61.51    2.30
  -4 -10   4   59.88    2.43
   4  10   4   59.45    2.56
   4 -10  -4   65.78    2.18
   5  10  -4   19.04    1.29
   5  10  -4   18.62    1.23
   5 -10   4   17.88    1.27
   5  10  -4   17.00    1.52
   5 -10   4   18.58    1.17
   5  10   4   18.20    1.03
   5 -10  -4   18.20    1.02
  -5 -10   4   18.18    1.20
   5  10   4   16.43    1.43
   6 -10   4   24.41    1.32
   6  10  -4   22.97    1.52
   6  10  -4   22.58    1.36
   6 -10   4   21.52    1.52
   6  10  -4   23.34    1.83
   6  10   4   21.87    1.27
   6 -10  -4   22.87    1.25
  -6 -10   4   22.95    1.35
   7 -10   4    4.69    0.69
   7  10  -4    5.24    0.90
  -7 -10   4    4.80    0.75
   7 -10  -4    5.03    0.74
   7  10   4    3.35    0.68
   8  10  -4   44.13    2.06
   8 -10   4   43.67    1.88
   8  10  -4   42.06    2.36
  -8 -10   4   44.06    1.98
   8 -10  -4   38.99    2.04
   8  10   4   44.25    2.14
   9  10  -4    1.73    0.96
   9 -10   4    2.08    0.67
   9  10   4    0.07    0.88
   9 -10  -4    0.11    0.72
  10  10  -4   81.06    3.83
  10  10   4   79.68    3.61
  10 -10  -4   83.17    3.56
   0 -11   4    0.07    0.37
   0  11   4   -0.80    0.50
   0  11  -4    0.55    0.60
   0 -11   4   -0.16    0.40
   0 -11  -4    0.30    0.32
   1 -11   4   76.11    2.89
  -1 -11  -4   79.75    2.76
   1  11  -4   76.86    2.63
  -1  11   4   79.42    2.94
   1  11  -4   75.82    3.25
   1 -11  -4   69.95    2.65
   1  11   4   75.54    2.94
  -1 -11   4   74.96    2.90
  -1  11  -4   74.77    3.39
   2  11  -4   28.41    1.33
  -2 -11  -4   30.43    1.42
  -2  11   4   30.66    1.59
   2 -11   4   30.25    1.55
   2  11  -4   30.26    1.73
   2 -11   4   32.15    1.43
   2 -11  -4   28.56    1.32
  -2 -11   4   31.13    1.33
  -2 -11   4   29.53    1.56
  -2  11  -4   26.94    1.97
   3 -11   4   -0.40    0.39
  -3  11   4   -1.00    0.50
   3  11  -4    0.36    0.58
   3  11  -4   -0.85    0.72
   3  11  -4   -0.71    0.35
   3 -11   4   -0.51    0.43
  -3  11  -4   -0.93    0.77
   3 -11  -4    0.23    0.29
  -3 -11   4   -0.06    0.44
  -3 -11   4    0.21    0.41
   4 -11   4    2.15    0.55
   4  11  -4    2.33    0.55
  -4  11   4    1.21    0.63
   4  11  -4    2.47    0.89
  -4  11   4    1.56    0.99
   4  11  -4    2.86    0.65
   4 -11   4    1.91    0.57
  -4 -11   4    2.92    0.50
   4  11   4    2.40    0.43
   4 -11  -4    2.80    0.46
   4 -11  -4    2.51    0.40
  -4 -11   4    1.98    0.58
   5 -11   4   -0.58    0.44
   5  11  -4    0.36    0.52
   5 -11   4   -0.70    0.57
   5  11   4   -0.86    0.40
  -5 -11   4   -0.23    0.51
   5 -11  -4   -0.29    0.35
   6 -11   4    9.05    1.06
   6 -11   4    5.76    0.80
   6  11  -4    6.80    0.90
   6 -11  -4    6.41    0.84
   6  11   4    6.59    0.75
  -6 -11   4    6.88    0.84
   7 -11   4    6.64    0.80
   7  11  -4    5.45    0.85
   7  11  -4    5.69    0.99
   7  11   4    5.69    0.81
   7 -11  -4    5.49    0.76
   8 -11   4    1.89    0.68
   8  11   4    0.94    0.81
  -8 -11   4    2.43    0.74
   8 -11  -4    0.71    0.67
   9  11  -4    2.53    1.09
   9 -11   4    3.03    0.74
   9  11   4    3.16    1.06
   9 -11  -4    3.02    0.90
  10  11  -4    9.27    1.56
  10  11   4    9.40    1.42
  10 -11  -4    8.82    1.26
   0  12   4  124.53    4.46
   0  12  -4  127.46    5.05
   0 -12  -4  128.44    4.21
   0 -12   4  123.54    4.40
   1 -12   4    0.76    0.50
   1 -12   4    0.08    0.44
  -1  12   4    1.05    0.64
   1  12  -4    0.80    0.32
  -1 -12  -4    0.68    0.38
   1  12  -4    2.02    0.74
   1 -12  -4   -0.02    0.34
  -1  12  -4    1.05    0.80
  -1 -12   4    0.63    0.46
   1  12   4   -0.07    0.64
   2 -12   4   46.48    2.07
   2  12  -4   41.60    2.30
  -2  12   4   47.01    2.13
   2 -12   4   45.44    1.86
  -2 -12  -4   43.72    1.91
   2  12  -4   46.88    1.81
  -2  12  -4   43.34    2.63
  -2 -12   4   44.42    2.07
  -2 -12   4   45.67    1.79
   2 -12  -4   46.35    1.83
   3  12  -4    0.78    0.66
   3 -12   4    1.17    0.53
  -3  12   4    0.72    0.65
  -3  12   4    1.72    0.94
   3  12  -4    1.15    0.44
   3 -12   4    1.01    0.53
  -3 -12   4    1.57    0.57
  -3  12  -4    1.10    1.07
   3 -12  -4    0.53    0.36
  -3 -12   4    0.84    0.47
   4 -12   4    8.05    1.06
   4  12  -4    8.82    1.03
   4  12  -4    8.01    0.95
  -4  12   4    9.89    1.04
   4 -12   4    8.35    0.96
  -4 -12   4    9.48    1.10
   4 -12  -4    9.14    0.76
   4 -12  -4    8.93    0.68
   5 -12   4    3.11    0.74
   5  12  -4    1.66    0.64
   5  12  -4    0.60    0.75
   5 -12   4    2.39    0.62
   5  12   4    1.66    0.49
   5 -12  -4    1.83    0.46
  -5 -12   4    0.74    0.64
   6 -12   4   -0.63    0.88
   6 -12   4   -0.56    0.57
   6  12  -4   -0.93    0.74
   6  12  -4    0.67    0.69
  -6 -12   4    0.13    0.59
   6 -12  -4    0.32    0.48
   6  12   4    0.88    0.57
   7  12  -4    1.44    0.85
   7 -12   4    0.55    0.65
   7 -12  -4    1.17    0.60
   7  12   4   -0.24    0.71
  -7 -12   4    1.53    0.74
   8 -12   4    5.72    0.89
   8 -12  -4    4.69    0.92
  -8 -12   4    6.56    0.95
   8  12   4    7.24    1.06
   9  12  -4   -0.53    1.13
   9  12   4    2.29    1.14
   9 -12  -4    1.67    0.89
   0 -13  -4    0.00    0.40
   0  13  -4    1.77    0.90
   0 -13   4    0.95    0.52
   1 -13   4   11.00    1.14
  -1 -13  -4   11.60    1.00
   1 -13   4   10.70    0.97
  -1 -13   4   11.96    1.17
   1 -13  -4   11.79    0.92
  -1  13  -4   10.36    1.38
   2  13  -4    3.50    0.92
  -2  13   4    1.45    0.80
  -2 -13  -4    2.26    0.57
   2  13  -4    3.23    0.51
   2 -13   4    2.88    0.67
  -2  13   4    2.09    1.01
   2 -13   4    2.22    0.59
   2 -13  -4    3.17    0.53
  -2 -13   4    3.09    0.73
  -2 -13   4    2.35    0.54
   3  13  -4    0.01    0.80
  -3  13   4    1.83    0.82
   3 -13   4    0.79    0.58
   3  13  -4    1.30    0.49
   3 -13   4    0.94    0.54
   3 -13  -4    1.30    0.45
  -3 -13   4    0.06    0.50
  -4  13   4    3.45    0.92
   4  13  -4    2.51    0.87
   4 -13   4    2.80    0.71
   4  13  -4    3.16    0.61
   4 -13   4    2.69    0.74
  -4 -13   4    3.48    0.73
   4 -13  -4    3.21    0.56
   5 -13   4    0.52    0.82
   5  13  -4    0.78    0.86
   5  13  -4    1.19    0.64
   5 -13   4    0.66    0.60
   5 -13  -4    0.68    0.45
   5  13   4    1.40    0.51
  -5 -13   4    0.95    0.66
   6  13  -4    9.27    1.10
   6 -13   4    7.68    1.18
   6 -13   4    7.29    0.94
   6  13  -4    9.59    1.19
   6 -13  -4    6.89    0.94
  -6 -13   4    8.07    1.00
   6  13   4    6.75    0.80
   7  13  -4   20.06    1.86
   7 -13   4   23.59    1.59
  -7 -13   4   24.11    1.72
   7  13   4   22.05    1.60
   7 -13  -4   23.49    1.49
   8  13  -4    6.75    1.26
   8 -13   4    6.52    0.98
  -8 -13   4    6.92    1.10
   8  13   4    4.17    1.04
   8 -13  -4    5.95    1.00
   9  13  -4    5.24    1.42
   9 -13  -4    2.87    1.06
   0 -14  -4   56.05    2.38
   0 -14   4   55.55    2.63
   1  14  -4    1.93    1.11
  -1  14   4    1.86    1.16
  -1 -14  -4    1.99    0.62
   1 -14   4    2.45    0.60
   1 -14  -4    2.29    0.57
  -1 -14   4    1.33    0.63
   2  14  -4   13.27    1.55
   2 -14   4   15.22    1.22
   2  14  -4   14.30    0.97
  -2 -14   4   14.31    1.06
   2 -14  -4   15.11    1.09
  -2 -14   4   13.28    1.31
   3 -14   4    2.24    0.73
   3  14  -4    1.55    1.03
   3  14  -4    0.93    0.52
   3 -14   4    2.17    0.77
  -3 -14   4    0.28    0.65
   3 -14  -4    1.18    0.51
   4 -14   4   51.99    2.34
   4  14  -4   51.26    2.16
   4  14  -4   50.15    2.82
   4 -14   4   52.86    2.59
  -4 -14   4   52.23    2.46
   5 -14   4    0.44    0.73
   5  14  -4    1.08    0.68
   5  14  -4   -0.03    1.10
   5 -14   4    2.07    0.98
  -5 -14   4   -0.51    0.72
   5 -14  -4    0.26    0.48
   6  14  -4   33.67    1.98
  -6 -14   4   31.90    2.01
   6 -14  -4   31.33    1.60
   7  14  -4    1.30    1.03
  -7 -14   4    0.96    0.93
   8  14  -4   17.82    2.17
   8 -14   4   19.60    1.62
  -8 -14   4   17.94    1.85
   0 -15  -4    0.19    0.55
   0 -15   4   -0.05    0.62
   1 -15   4   15.37    1.41
   1 -15   4   14.10    1.21
  -1 -15  -4   18.16    1.29
  -1 -15   4   16.01    1.42
   1 -15  -4   15.21    1.21
   2 -15   4   34.92    1.76
   2 -15   4   35.57    1.99
   2  15  -4   32.29    2.73
   2 -15  -4   35.10    1.78
  -2 -15   4   37.13    1.58
  -2 -15   4   34.23    2.03
   3  15  -4    1.73    0.54
   3  15  -4    0.06    1.21
   3 -15   4    0.23    0.85
   3 -15   4    1.69    0.74
  -3 -15   4    0.85    0.74
   4 -15   4    7.02    1.00
   4  15  -4    6.92    0.81
   4  15  -4    6.11    1.41
  -4 -15   4    4.66    0.98
   5  15  -4    2.20    0.77
   5 -15   4    2.37    0.81
  -5 -15   4    2.05    0.89
   6  15  -4   12.17    1.54
   6 -15   4   10.66    1.37
  -6 -15   4   12.38    1.66
   7 -15   4    3.44    0.94
   7  15  -4    2.13    1.18
  -7 -15   4    3.23    1.11
   0 -16  -4    7.21    0.90
   0 -16   4    6.57    1.06
   1 -16   4    1.52    0.80
   1 -16  -4    1.72    0.65
  -1 -16   4    1.83    0.85
   2 -16   4   10.85    1.38
  -2 -16   4   13.39    1.38
   2 -16  -4    9.93    1.15
   2  16   4    8.80    1.59
   3 -16   4    6.45    0.95
  -3 -16   4    6.22    1.08
   4 -16   4   27.27    1.84
   4  16  -4   27.91    1.53
  -4 -16   4   26.76    2.04
   5 -16   4    5.91    0.99
  -5 -16   4    6.67    1.19
   6 -16   4   36.53    2.20
  -6 -16   4   38.89    2.43
   0 -17   4    0.89    0.90
   1 -17   4   14.20    1.71
  -1 -17   4   16.20    1.77
   2 -17   4    1.91    0.90
  -2 -17   4    2.26    0.98
   3 -17   4   -0.34    0.86
  -3 -17   4    0.02    1.00
   4 -17   4    1.62    0.92
  -4 -17   4    1.41    1.04
   5 -17   4    1.38    1.00
  -5 -17   4    1.84    1.16
   0 -18   4   14.56    1.84
   1 -18   4    2.48    1.07
  -1 -18   4    5.78    1.18
   2 -18   4   17.90    1.91
  -2 -18   4   22.94    2.05
   3 -18   4    2.96    1.15
  -3 -18   4    3.42    1.17
   0   0   5   -0.21    0.12
  -1   0   5   -0.31    0.15
  -1   0  -5   -0.17    0.13
   1   0  -5   -0.23    0.16
   1   0  -5   -0.20    0.12
  -1   0   5   -0.30    0.16
  -1   0  -5   -0.12    0.14
   1   0   5   -0.18    0.12
   1   0   5   -0.26    0.15
   2   0  -5    0.01    0.18
   2   0  -5    0.29    0.15
   2   0   5   -0.16    0.18
   2   0   5    0.22    0.14
  -2   0  -5   -0.12    0.14
  -2   0   5    0.19    0.17
  -2   0   5    0.31    0.19
  -3   0   5   -0.34    0.17
   3   0  -5    0.37    0.23
  -3   0  -5   -0.04    0.15
  -3   0   5    0.04    0.17
   3   0  -5    0.15    0.15
   3   0   5    0.00    0.23
  -4   0  -5    0.10    0.17
  -4   0   5   -0.09    0.14
  -4   0   5    0.27    0.22
   4   0   5    0.21    0.29
   4   0  -5   -0.07    0.23
  -4   0   5    0.18    0.23
   5   0  -5    4.31    0.59
  -6   0  -5   -0.04    0.18
  -6   0   5    0.47    0.37
   6   0  -5    0.29    0.32
  -6   0   5    0.10    0.27
   6   0   5   -0.05    0.41
   7   0   5    0.01    0.47
   7   0  -5    0.08    0.37
  -7   0   5    0.44    0.41
   8   0  -5   -0.34    0.43
  -8   0   5    0.47    0.45
   8   0   5   -0.31    0.52
  -8   0   5   -0.45    0.34
   9   0   5   -1.12    0.67
  10   0  -5   -0.02    0.66
  10   0   5    0.82    0.55
  10   0   5   -0.87    0.81
  11   0   5    1.67    1.06
  11   0  -5    0.67    0.85
  12   0  -5    0.23    1.05
   0  -1  -5   -0.34    0.12
   0   1   5   -0.40    0.14
   0  -1   5   -0.05    0.16
   0   1  -5    0.06    0.14
   0  -1   5   -0.04    0.16
   0  -1  -5   -0.15    0.10
   0   1  -5   -0.46    0.14
   0   1   5   -0.29    0.13
   1  -1   5   37.95    1.34
  -1   1   5   36.03    1.46
   1  -1   5   35.06    1.51
  -1   1   5   36.11    1.32
  -1  -1  -5   38.35    1.39
   1   1  -5   33.95    1.35
   1   1  -5   34.04    1.44
   1   1   5   36.44    1.45
  -1   1  -5   35.63    1.47
  -1  -1   5   37.04    1.36
  -1   1  -5   34.60    1.31
   1  -1  -5   37.15    1.42
  -1  -1   5   35.02    1.48
   2   1  -5  504.85   16.81
   2  -1   5  526.84   15.17
  -2   1   5  515.74   15.14
  -2   1   5  511.21   16.85
   2   1  -5  505.43   15.19
   2  -1   5  530.82   16.92
  -2  -1  -5  456.65   16.66
  -2  -1   5  507.65   16.83
  -2   1  -5  533.30   16.85
   2  -1  -5  512.28   15.15
   2   1   5  492.38   15.11
  -2  -1   5  530.51   15.20
   2   1   5  503.62   16.79
   3   1  -5   93.83    3.25
  -3   1   5   90.63    3.29
  -3  -1  -5   89.31    3.07
  -3   1   5   88.27    2.96
   3   1  -5   85.85    3.01
   3  -1   5   96.15    3.39
  -3   1  -5   84.26    3.24
   3   1   5   92.65    3.26
  -3  -1   5   88.49    3.24
   3  -1  -5   91.03    3.00
  -3  -1   5   85.17    2.97
   4   1  -5   22.02    1.12
   4  -1   5   22.51    1.25
  -4  -1  -5   22.92    0.88
  -4   1   5   24.02    1.16
   4   1  -5   23.82    1.10
   4  -1  -5   23.93    1.12
   4   1   5   23.64    1.17
  -4  -1   5   25.98    1.13
  -4  -1   5   23.92    1.10
  -4  -1   5   22.32    0.89
  -4   1  -5   24.25    1.13
   5   1  -5  409.20   13.51
  -5   1   5  414.18   13.56
   5   1  -5  407.59   12.36
   5  -1   5  414.48   13.73
   5   1   5  419.34   13.60
  -5  -1   5  405.17   11.81
  -5   1  -5  352.97   13.43
  -5  -1   5  404.32   13.43
   5  -1  -5  406.96   12.33
  -5  -1   5  416.04   13.46
   6  -1   5   29.53    1.59
  -6   1   5   29.84    1.40
  -6   1   5   27.35    1.43
   6   1  -5   29.70    1.45
  -6  -1   5   26.96    0.96
   6   1   5   27.45    1.48
  -6  -1   5   26.27    1.25
  -6   1  -5   31.79    1.33
  -6  -1   5   28.27    1.28
   6  -1  -5   28.06    1.42
  -7   1   5   79.91    2.83
  -7   1   5   71.60    2.87
   7  -1   5   71.65    3.06
   7   1  -5   67.87    2.76
  -7  -1   5   65.98    2.57
  -7  -1   5   69.28    2.57
   7  -1  -5   69.04    2.75
   7   1   5   69.21    2.93
  -7   1  -5   67.56    2.60
  -8   1   5   26.63    1.49
  -8   1   5   26.67    1.38
   8   1  -5   24.69    1.57
   8  -1   5   25.75    1.75
   8  -1  -5   24.15    1.51
   8   1   5   24.67    1.62
   8   1   5   27.08    1.18
  -9   1   5    8.58    0.90
  -9   1   5    9.94    1.13
   9  -1   5   10.94    1.46
   9   1   5   10.57    0.86
   9   1   5   11.41    1.38
  10  -1   5    4.02    0.57
  10   1  -5    3.24    0.85
  10  -1   5    3.51    1.03
  10  -1  -5    3.96    0.90
  10   1   5    3.94    0.94
  10   1   5    3.15    0.66
  11   1  -5   -0.65    0.85
  11  -1   5    0.18    1.06
  11  -1  -5    1.44    0.85
  12   1  -5   15.66    1.78
  12  -1  -5   14.78    1.73
  12   1   5   15.60    1.81
   0   2   5   29.54    1.10
   0   2   5   29.07    1.24
   0  -2   5   30.97    1.19
   0  -2   5   31.79    1.35
   0   2  -5   29.59    1.17
   0   2  -5   30.54    1.31
   0  -2  -5   30.96    1.09
   1  -2   5   62.09    2.05
   1   2  -5   59.98    2.26
  -1   2   5   59.76    2.23
   1   2  -5   58.95    2.06
   1  -2   5   56.00    2.30
  -1   2   5   65.12    2.00
   1   2   5   58.44    1.95
  -1   2  -5   61.57    2.30
  -1  -2   5   61.66    2.07
  -1   2  -5   57.75    2.02
   1   2   5   56.50    2.18
  -1  -2   5   56.26    2.25
   2  -2   5  374.23   11.17
  -2   2   5  369.71   12.40
  -2   2   5  364.20   11.11
   2   2  -5  356.46   12.36
   2   2  -5  362.38   11.20
   2  -2   5  376.05   12.51
   2   2   5  379.89   11.10
  -2  -2   5  371.87   12.37
  -2   2  -5  394.36   12.48
  -2  -2   5  375.29   11.20
   2  -2  -5  373.43   11.14
  -3   2   5   25.04    1.05
   3   2  -5   23.94    1.13
  -3   2   5   25.58    1.18
   3   2  -5   25.02    1.13
   3  -2   5   26.28    1.31
   3  -2  -5   24.04    1.08
  -3   2  -5   26.26    1.24
  -3  -2   5   23.95    1.11
  -3  -2   5   24.72    1.01
  -3  -2   5   26.02    1.11
   4  -2   5    4.54    0.68
   4   2  -5    5.77    0.50
  -4   2   5    5.53    0.55
  -4  -2   5    6.64    0.47
   4   2   5    6.51    0.56
  -4  -2   5    6.25    0.58
  -4   2  -5    5.69    0.62
   4  -2  -5    5.52    0.54
  -4  -2   5    5.22    0.51
   5   2  -5   85.36    3.11
  -5   2   5   91.96    3.34
   5  -2   5   90.25    3.50
   5   2  -5   90.79    3.24
  -5  -2   5   90.21    3.09
  -5  -2   5   87.70    2.77
  -5   2  -5   85.52    3.32
   5   2   5   83.12    3.23
  -5  -2   5   86.51    3.07
   5  -2  -5   83.42    3.05
   6   2  -5   17.92    1.00
   6   2  -5   16.40    1.11
   6  -2   5   17.42    1.27
  -6   2   5   17.76    1.20
  -6   2   5   17.23    1.06
  -6   2  -5   17.27    1.08
  -6  -2   5   17.62    0.76
   6  -2  -5   18.69    1.09
   6   2   5   18.62    1.11
   7   2  -5   26.14    1.47
   7  -2   5   28.31    1.68
  -7   2   5   26.22    1.55
  -7   2   5   26.35    1.39
   7   2   5   25.88    1.15
   7  -2  -5   26.81    1.42
   7   2   5   25.82    1.47
  -7   2  -5   22.03    1.31
  -8   2   5   -0.79    0.60
   8   2  -5    0.02    0.51
   8  -2   5    0.10    0.59
  -8   2   5    0.17    0.40
   8   2   5   -0.35    0.37
   8   2   5   -0.07    0.55
   8  -2  -5    0.31    0.47
  -8   2  -5   -0.13    0.43
  -9   2   5    0.12    0.50
   9  -2   5    0.63    0.74
  -9   2   5    1.14    0.75
   9   2   5    0.89    0.51
   9   2   5   -0.16    0.67
  -9   2  -5    0.59    0.44
  10   2  -5   45.01    2.42
 -10   2   5   46.00    2.09
  10  -2   5   45.13    1.74
  10  -2  -5   46.25    2.41
  10   2   5   46.86    2.57
  10   2   5   45.42    2.00
  11  -2   5   10.90    1.56
  11   2  -5   10.89    1.39
  11  -2  -5    9.60    1.31
  11   2   5   11.98    1.50
  12   2  -5    2.91    1.17
  12   2   5   -0.63    0.99
  12  -2  -5   -0.17    1.01
  12   2   5    2.12    1.37
   0  -3   5    0.10    0.18
   0  -3  -5   -0.35    0.11
   0   3  -5   -0.02    0.19
   0   3   5    0.06    0.14
   0   3  -5   -0.09    0.16
  -1   3   5  215.67    6.49
   1   3  -5  217.31    7.33
   1   3  -5  208.82    6.60
   1  -3   5  222.95    7.41
   1  -3   5  221.11    6.60
  -1   3  -5  209.26    6.57
  -1  -3   5  215.72    6.61
   1  -3  -5  202.06    6.47
   1   3   5  218.80    7.20
  -1  -3   5  215.25    7.31
  -1   3  -5  209.15    7.37
   1   3   5  224.24    6.47
   2  -3   5    4.62    0.58
   2  -3   5    5.55    0.46
   2   3  -5    4.80    0.50
  -2   3   5    4.77    0.39
   2   3   5    5.41    0.39
  -2  -3   5    4.88    0.48
  -2   3  -5    6.07    0.59
  -2  -3   5    5.04    0.48
   2   3   5    5.49    0.40
   2  -3  -5    5.65    0.46
  -2  -3   5    4.84    0.47
  -3   3   5  169.88    5.32
   3  -3   5  181.04    6.40
   3   3  -5  181.22    5.71
   3   3  -5  174.55    6.19
  -3   3   5  179.32    5.58
  -3   3  -5  185.12    6.37
   3  -3  -5  179.61    5.61
   3   3   5  190.95    6.08
  -3  -3   5  180.63    5.52
  -3  -3   5  184.76    5.68
   4   3  -5   61.66    2.35
   4  -3   5   64.09    2.61
  -4   3   5   60.15    2.43
  -4   3   5   63.45    1.88
   4   3  -5   59.89    2.28
  -4  -3   5   59.32    2.23
  -4   3  -5   64.22    2.54
  -4  -3   5   59.59    2.18
  -4  -3   5   61.24    2.09
   4  -3  -5   60.32    2.20
   5   3  -5   97.18    3.42
  -5   3   5   92.32    3.61
   5   3  -5   98.66    3.51
   5  -3   5   93.64    3.79
   5   3   5   96.00    3.47
  -5  -3   5   97.78    3.34
   5  -3  -5   99.19    3.33
  -5  -3   5   95.15    3.07
   6  -3   5    3.25    0.65
  -6   3   5    3.62    0.55
   6   3  -5    3.31    0.57
  -6   3   5    2.54    0.64
   6   3   5    3.29    0.43
  -6  -3   5    3.71    0.44
   6  -3  -5    3.37    0.53
  -6   3  -5    3.97    0.66
   6   3   5    3.37    0.51
   7   3  -5   75.08    3.06
  -7   3   5   78.88    3.32
   7  -3   5   80.61    3.45
  -7   3   5   78.96    3.18
  -7  -3   5   78.10    2.54
   7   3   5   85.39    2.75
   7  -3  -5   78.67    3.02
   7   3   5   78.32    3.12
  -7   3  -5   79.97    3.22
   8   3  -5   -0.04    0.49
  -8   3   5    0.25    0.45
   8  -3   5   -0.22    0.65
  -8   3   5   -0.68    0.71
   8   3   5   -0.29    0.42
   8   3   5    0.51    0.53
  -8   3  -5   -0.26    0.58
   8  -3  -5   -0.35    0.45
  -9   3   5   18.05    1.33
   9  -3   5   21.09    1.83
  -9   3   5   19.17    1.73
   9   3   5   17.40    1.53
   9   3   5   19.27    1.22
 -10   3   5    1.09    0.63
  10   3  -5    0.27    0.72
 -10   3   5   -0.05    1.05
  10  -3   5    0.61    0.93
 -10   3  -5    0.80    0.66
  10   3   5    0.92    0.86
  10  -3  -5    1.36    0.71
  10   3   5    0.44    0.74
 -10   3  -5    0.25    0.42
 -11   3   5   26.23    1.69
  11   3  -5   25.24    2.14
  11  -3   5   28.19    2.40
  11  -3  -5   25.50    2.03
  11   3   5   26.33    2.20
  12   3  -5   -0.95    1.13
  12   3   5    0.62    1.05
  12  -3  -5    1.50    1.05
  12   3   5    0.85    1.36
   0   4  -5   54.72    1.92
   0  -4   5   55.26    2.16
   0  -4   5   53.76    1.92
   0   4   5   55.12    1.76
   0   4  -5   54.41    2.17
   0   4   5   53.64    1.80
   0  -4  -5   52.59    1.73
   1   4  -5    8.81    0.64
   1   4  -5    8.87    0.59
   1  -4   5    8.29    0.56
   1  -4   5    7.89    0.67
  -1   4   5    8.17    0.44
  -1   4   5    8.55    0.45
   1  -4  -5    8.15    0.45
  -1   4  -5    8.97    0.70
  -1  -4   5    9.03    0.63
  -1  -4   5    8.38    0.59
  -1   4  -5    8.46    0.55
   1   4   5    7.91    0.42
  -2   4   5   17.25    0.76
   2  -4   5   18.90    1.08
   2   4  -5   18.44    0.95
  -2   4   5   17.66    0.71
   2   4  -5   18.09    0.93
   2  -4   5   16.80    0.86
   2  -4  -5   18.22    0.81
  -2  -4   5   18.42    0.91
   2   4   5   17.77    0.75
  -2  -4   5   19.18    0.91
  -2   4  -5   17.96    1.06
   3  -4   5   61.45    2.55
   3   4  -5   61.44    2.24
   3   4  -5   59.71    2.33
  -3   4   5   61.71    1.94
  -3   4  -5   62.16    2.54
   3   4   5   57.20    2.14
   3  -4  -5   62.50    2.12
  -3  -4   5   58.65    2.12
  -3  -4   5   62.59    2.16
   4   4  -5   18.88    1.06
   4  -4   5   17.72    1.20
  -4   4   5   19.26    0.71
   4   4  -5   19.29    0.98
   4   4   5   20.47    0.91
  -4  -4   5   17.58    0.89
  -4   4  -5   20.25    1.24
   4   4   5   17.39    0.82
   4  -4  -5   19.99    0.96
  -4  -4   5   18.66    0.99
   5   4  -5    2.00    0.47
   5   4  -5    2.21    0.38
   5  -4   5    2.27    0.55
   5   4   5    2.62    0.38
   5  -4  -5    2.10    0.43
  -5  -4   5    1.06    0.29
  -5   4  -5    1.46    0.50
  -5  -4   5    1.15    0.38
  -6   4   5    4.05    0.60
  -6   4   5    4.23    0.74
   6  -4   5    4.15    0.75
   6   4  -5    4.58    0.57
   6   4  -5    4.68    0.67
   6   4   5    4.26    0.51
  -6  -4   5    4.78    0.51
   6   4   5    3.79    0.50
  -6   4  -5    3.57    0.68
   6  -4  -5    4.96    0.63
   7  -4   5   40.28    2.16
   7   4  -5   39.59    1.90
  -7   4   5   32.82    1.80
  -7   4   5   37.74    2.10
   7   4   5   36.19    1.58
  -7   4  -5   35.16    2.02
   7   4   5   38.27    1.75
  -7  -4   5   39.35    1.42
   7  -4  -5   37.16    1.78
  -8   4   5    0.52    0.49
   8  -4   5   -0.37    0.61
   8   4  -5    0.34    0.55
  -8   4   5    0.68    0.78
   8  -4  -5    0.34    0.50
   8   4   5    0.48    0.52
   8   4   5   -0.27    0.50
  -8   4  -5   -1.12    0.67
   9   4  -5    1.67    0.71
  -9   4   5    3.37    1.03
  -9   4   5    2.16    0.60
   9   4   5    1.72    0.70
  -9   4  -5    0.35    0.81
   9   4   5    3.45    0.74
  10  -4   5   38.20    2.60
 -10   4   5   37.81    2.08
  10   4  -5   36.37    2.30
 -10   4   5   39.83    2.64
  10   4   5   39.78    2.29
  10   4   5   41.59    2.04
  10  -4  -5   40.84    2.22
 -10   4  -5   38.77    2.28
 -11   4   5    0.91    0.84
  11   4  -5   -0.58    0.93
  11  -4  -5    1.28    0.89
  11   4   5    0.06    1.03
  11   4   5   -0.88    0.82
  12   4  -5    4.42    1.32
  12  -4  -5    4.49    1.23
  12   4   5    4.97    1.25
   0   5   5   -0.10    0.16
   0   5   5   -0.17    0.12
   0   5  -5    0.17    0.27
   0  -5   5   -0.46    0.21
   0   5  -5   -0.18    0.21
   0  -5   5   -0.16    0.24
   0  -5   5   -0.15    0.23
   1   5  -5  300.62    9.17
   1  -5   5  291.94   10.24
   1  -5   5  305.76    9.17
   1   5  -5  317.98   10.24
  -1   5   5  302.13    8.95
  -1   5   5  300.04    8.94
  -1   5  -5  298.81    9.13
  -1   5  -5  289.32   10.28
  -1  -5   5  313.48    9.18
  -1  -5   5  296.90    9.11
   1   5   5  305.49    8.94
  -1  -5   5  283.77   10.09
   1  -5  -5  301.22    8.96
   1   5   5  316.23    9.00
  -2   5   5  151.84    4.56
   2  -5   5  153.35    5.42
   2   5  -5  149.19    5.26
   2  -5   5  152.26    4.77
   2   5  -5  146.65    4.80
   2   5   5  155.95    4.57
  -2  -5   5  148.69    4.76
  -2  -5   5  146.09    4.73
   2   5   5  142.20    4.63
  -3   5   5  127.32    3.82
   3   5  -5  121.21    4.10
   3  -5   5  126.55    4.66
   3  -5   5  122.97    4.06
   3   5  -5  126.75    4.43
  -3  -5   5  120.02    4.07
  -3   5  -5  124.10    4.66
   3   5   5  123.54    3.94
   3  -5  -5  126.75    3.96
  -3  -5   5  121.92    4.00
   4   5  -5   25.41    1.20
   4   5  -5   22.94    1.24
   4  -5   5   26.45    1.50
  -4   5   5   25.04    0.95
  -4  -5   5   25.32    1.14
  -4  -5   5   25.05    1.19
  -4   5  -5   24.63    1.48
   4   5   5   26.06    0.98
   4   5   5   25.20    1.13
   4  -5  -5   25.30    1.14
   5   5  -5    1.82    0.47
  -5   5   5    1.94    0.23
   5  -5   5    1.09    0.50
   5   5   5    2.55    0.43
  -5   5  -5    1.26    0.57
   5   5   5    1.79    0.26
  -5  -5   5    1.61    0.36
  -5  -5   5    1.76    0.45
   6   5  -5    6.35    0.84
  -6   5   5    5.83    0.90
   6   5  -5    6.94    0.67
   6  -5   5    6.86    1.02
   6   5   5    5.66    0.70
  -6  -5   5    5.42    0.60
  -6   5  -5    6.19    0.88
   6  -5  -5    6.31    0.74
   7  -5   5   26.43    1.77
   7   5  -5   25.85    1.32
   7   5  -5   27.75    1.58
  -7   5   5   26.42    1.83
  -7   5   5   23.37    1.44
   7   5   5   26.33    1.33
  -7  -5   5   24.85    1.14
  -7   5  -5   24.75    1.73
   7   5   5   23.01    1.27
   7  -5  -5   25.19    1.40
  -8   5   5   33.35    2.24
   8  -5   5   36.15    2.27
   8   5  -5   34.29    1.71
   8   5  -5   36.25    1.99
  -8   5   5   37.39    1.94
   8   5   5   35.42    1.74
   8  -5  -5   35.40    1.85
   8   5   5   35.09    1.77
  -8  -5   5   38.68    1.45
  -8   5  -5   37.72    2.25
   9  -5   5   62.76    3.24
  -9   5   5   58.82    3.19
  -9   5   5   61.37    2.79
   9   5  -5   60.04    2.84
  -9   5  -5   54.70    2.99
   9   5   5   64.61    2.73
   9   5   5   58.42    2.51
  10  -5   5    3.87    1.13
  10   5  -5    6.30    1.09
 -10   5   5    4.27    1.40
 -10   5   5    4.24    0.90
  10  -5   5    5.29    0.69
  10   5   5    4.60    1.03
  10  -5  -5    4.70    0.93
  10   5   5    4.22    0.93
  10   5   5    4.20    0.82
 -10   5  -5    3.52    1.24
  11   5  -5   48.21    2.92
 -11   5   5   50.18    2.61
  11   5   5   46.07    2.62
  11   5   5   47.68    2.72
  11  -5  -5   46.54    2.66
  12   5  -5   43.04    3.05
  12   5   5   43.76    2.80
  12  -5  -5   39.51    2.79
   0   6  -5   33.54    1.34
   0  -6   5   33.73    1.50
   0   6  -5   31.65    1.57
   0  -6   5   34.72    1.36
   0  -6   5   31.98    1.42
  -1   6   5   56.27    1.90
   1  -6   5   54.85    2.05
   1  -6   5   53.73    2.25
   1   6  -5   52.93    1.97
   1   6  -5   55.01    2.24
   1  -6   5   54.69    1.97
  -1  -6   5   52.82    2.02
   1   6   5   53.85    1.71
  -1  -6   5   51.15    2.08
   1   6   5   55.33    1.93
  -1  -6   5   54.92    1.98
   1  -6  -5   55.58    1.73
  -1   6  -5   52.19    1.94
   2   6  -5   -0.54    0.24
   2   6  -5    0.09    0.27
   2  -6   5   -0.20    0.24
   2  -6   5   -0.30    0.31
  -2   6   5    0.02    0.20
  -2  -6   5   -0.18    0.19
   2   6   5    0.17    0.16
  -2  -6   5    0.23    0.27
  -2   6  -5    0.02    0.34
  -2  -6   5   -0.24    0.26
   2   6   5    0.08    0.23
   3   6  -5    2.87    0.43
   3  -6   5    2.12    0.41
  -3   6   5    3.28    0.40
   3   6  -5    1.98    0.42
   3  -6   5    1.61    0.49
  -3  -6   5    2.08    0.40
   3   6   5    1.73    0.37
  -3  -6   5    2.48    0.41
   3  -6  -5    1.89    0.32
  -3   6  -5    2.08    0.51
  -4   6   5    0.66    0.25
   4   6  -5    0.47    0.37
   4  -6   5    0.74    0.34
   4  -6   5    1.27    0.46
  -4  -6   5    0.58    0.34
  -4   6  -5    0.71    0.49
  -4  -6   5    0.71    0.32
   4  -6  -5   -0.12    0.27
   4   6   5    0.44    0.30
   5   6  -5    1.72    0.48
  -5   6   5    2.10    0.28
   5   6  -5    1.99    0.40
   5  -6   5    1.24    0.52
  -5  -6   5    1.96    0.46
   5   6   5    1.62    0.44
   5  -6  -5    1.34    0.35
  -5   6  -5    0.50    0.62
  -5  -6   5    1.21    0.37
   6  -6   5    3.27    0.71
  -6   6   5    3.65    0.80
   6   6  -5    3.06    0.62
   6   6   5    2.40    0.51
  -6   6  -5    4.94    0.88
  -6  -6   5    3.62    0.50
   6  -6  -5    3.29    0.53
   7   6  -5   21.72    1.44
   7  -6   5   21.16    1.69
   7   6  -5   19.98    1.17
  -7   6   5   19.05    1.78
   7   6   5   18.33    1.09
  -7  -6   5   20.79    1.06
   7  -6  -5   19.12    1.25
  -7   6  -5   23.30    1.85
   7   6   5   20.40    1.29
  -8   6   5   -0.31    0.48
  -8   6   5   -0.81    0.99
   8   6  -5    0.68    0.59
   8   6  -5    0.86    0.50
   8  -6  -5    0.97    0.54
   8   6   5    0.26    0.51
  -8  -6   5    1.35    0.43
  -8   6  -5    0.73    0.93
   8   6   5   -0.18    0.66
  -9   6   5   10.34    1.29
   9  -6   5   12.59    1.65
   9   6  -5   10.94    1.49
   9  -6   5   10.70    0.98
   9   6   5   11.32    1.27
   9   6   5   11.82    1.44
  -9   6  -5   11.12    1.52
   9   6   5   11.41    1.25
  10  -6   5    7.62    1.01
  10   6  -5    8.23    1.23
  10   6   5    7.56    1.06
  10  -6  -5    7.23    1.06
 -10   6  -5    7.81    1.56
  10   6   5    6.11    1.01
 -11   6   5    1.56    0.93
  11   6  -5    3.00    1.10
  11  -6  -5    1.97    0.97
  11   6   5   -0.94    0.93
   0   7   5   -0.23    0.26
   0   7  -5   -0.04    0.22
   0  -7   5    0.03    0.26
   0  -7   5   -0.14    0.26
   0  -7   5    0.00    0.30
  -1   7   5  134.70    4.19
   1   7  -5  134.30    4.27
   1   7  -5  139.15    4.83
   1  -7   5  125.22    4.76
   1  -7   5  129.70    4.25
   1  -7   5  130.81    4.33
  -1   7  -5  129.49    4.90
   1   7   5  130.64    4.23
  -1  -7   5  129.17    4.32
  -1  -7   5  134.35    4.26
  -1   7  -5  131.24    4.22
  -1  -7   5  128.08    4.58
  -2   7   5   48.05    1.77
   2   7  -5   48.45    1.85
   2   7  -5   49.19    2.04
   2  -7   5   47.78    2.14
   2  -7   5   46.92    1.90
   2  -7   5   45.85    1.93
  -2  -7   5   45.00    1.87
  -2   7  -5   46.35    2.22
   2   7   5   47.80    1.83
   2  -7  -5   47.11    1.61
   2   7   5   47.71    1.55
   3   7  -5   25.35    1.33
   3  -7   5   28.43    1.32
  -3   7   5   27.44    1.14
   3   7  -5   26.45    1.32
   3  -7   5   28.32    1.28
   3  -7   5   24.13    1.49
  -3  -7   5   25.79    1.27
  -3   7  -5   25.99    1.58
  -3  -7   5   27.01    1.25
   3   7   5   25.83    1.24
   3  -7  -5   27.67    1.11
   4   7  -5   -0.50    0.33
   4  -7   5    0.28    0.44
  -4   7   5   -0.04    0.27
   4  -7   5    0.73    0.36
   4   7  -5    0.03    0.37
   4  -7  -5    0.39    0.27
  -4   7  -5    0.11    0.51
  -4  -7   5   -0.31    0.33
   4   7   5   -0.37    0.33
  -4  -7   5    0.29    0.32
   5  -7   5    0.32    0.39
   5  -7   5    0.98    0.52
   5   7  -5    0.37    0.36
   5   7  -5    0.21    0.42
  -5   7   5    0.73    0.57
  -5   7   5    0.04    0.27
   5  -7  -5    0.06    0.30
  -5   7  -5    0.52    0.61
   5   7   5   -0.18    0.44
  -5  -7   5    0.73    0.42
  -5  -7   5    0.17    0.35
   6  -7   5    9.90    1.23
   6   7  -5   11.32    1.06
   6  -7   5   10.92    0.89
   6   7  -5   11.08    0.85
  -6   7  -5    9.73    1.46
   6  -7  -5    9.88    0.86
   6   7   5   10.06    1.01
  -6  -7   5    9.14    0.82
   7   7  -5   39.82    1.87
   7  -7   5   40.77    1.79
   7  -7   5   43.96    2.47
  -7   7   5   41.85    2.57
   7   7  -5   42.37    2.11
   7   7   5   43.98    2.01
  -7  -7   5   44.23    1.75
   7  -7  -5   42.23    1.92
  -7   7  -5   41.42    2.58
   8  -7   5   90.48    3.23
   8  -7   5   93.05    4.19
   8   7  -5   93.67    3.54
   8   7  -5   89.03    3.67
   8   7   5   91.52    3.43
  -8   7  -5   91.48    4.27
  -8  -7   5   94.05    3.16
   8   7   5   89.38    3.48
   8   7   5   92.71    3.47
   8  -7  -5   93.64    3.53
  -9   7   5   99.14    4.21
   9   7  -5  100.38    3.91
   9   7  -5  103.85    4.13
   9  -7   5   99.51    3.49
   9   7   5  103.45    3.91
   9  -7  -5  105.03    3.99
   9   7   5  103.14    3.91
  10  -7   5    0.24    0.61
 -10   7   5   -0.76    0.82
  10   7  -5    0.23    0.92
  10  -7  -5    0.14    0.78
  10   7   5    2.49    0.87
  10   7   5    0.83    0.88
  11   7  -5   74.77    3.75
 -11   7   5   73.08    3.59
  11   7   5   73.43    3.53
  11  -7  -5   78.05    3.51
   0   8  -5    3.76    0.63
   0  -8   5    5.32    0.61
   0  -8   5    3.76    0.59
   0   8   5    5.22    0.60
   0   8  -5    4.61    0.52
   0  -8   5    3.72    0.57
   1  -8   5    0.02    0.34
   1  -8   5    0.07    0.32
   1   8  -5   -0.12    0.26
  -1   8   5    0.29    0.31
  -1   8  -5   -0.10    0.41
  -1  -8   5   -0.51    0.30
   1   8   5   -0.59    0.29
  -1  -8   5    0.30    0.34
   2  -8   5   -0.38    0.32
   2   8  -5    0.47    0.39
   2   8  -5   -0.24    0.28
   2  -8   5   -0.52    0.35
  -2   8   5    0.21    0.31
   2  -8   5    0.34    0.32
  -2   8  -5   -0.38    0.46
  -2  -8   5    0.58    0.34
  -2  -8   5    0.16    0.34
   2  -8  -5    0.14    0.19
   2   8   5    0.31    0.34
   3  -8   5    1.43    0.51
   3  -8   5    1.26    0.40
   3  -8   5    1.05    0.37
   3   8  -5    1.51    0.43
   3   8  -5    1.40    0.44
  -3   8   5    1.18    0.39
   3   8   5    1.19    0.43
  -3  -8   5    1.27    0.41
   3  -8  -5    1.35    0.30
  -3   8  -5    1.19    0.55
  -3  -8   5    1.69    0.40
   4   8  -5    4.97    0.71
   4  -8   5    3.61    0.59
  -4   8   5    3.93    0.48
   4  -8   5    2.99    0.63
   4  -8   5    4.65    0.62
   4   8  -5    3.54    0.58
   4   8   5    3.52    0.59
  -4  -8   5    3.50    0.52
  -4  -8   5    3.44    0.54
   4  -8  -5    3.48    0.45
  -4   8  -5    2.43    0.72
  -5   8   5    9.67    0.73
   5  -8   5   11.53    0.94
   5  -8   5   10.57    1.00
   5   8  -5   14.00    1.07
   5  -8   5   10.58    1.18
  -5   8   5    9.49    1.33
   5   8  -5   11.50    0.89
  -5  -8   5   10.67    0.95
  -5  -8   5   10.63    0.90
   5   8   5   10.57    1.04
   5   8   5   10.52    0.78
  -5   8  -5   10.09    1.41
   5  -8  -5   12.09    0.83
   6  -8   5    3.42    0.59
   6  -8   5    3.40    0.80
   6   8  -5    3.08    0.56
   6   8  -5    3.78    0.69
  -6   8   5    2.32    0.91
  -6  -8   5    2.26    0.51
   6   8   5    3.60    0.72
   6   8   5    3.47    0.53
  -6   8  -5    3.01    0.98
   6  -8  -5    3.32    0.58
   7   8  -5   17.16    1.42
   7  -8   5   15.75    1.11
   7   8  -5   17.48    1.19
   7   8   5   17.77    1.48
  -7  -8   5   17.08    1.10
   7  -8  -5   16.75    1.18
   7   8   5   19.86    1.21
   8  -8   5    4.55    0.69
   8   8  -5    4.45    0.69
   8   8  -5    4.33    0.91
  -8  -8   5    3.59    0.62
   8  -8  -5    5.11    0.79
   8   8   5    5.10    0.82
   9   8  -5    8.93    1.27
   9   8  -5    9.88    1.23
   9  -8   5    8.01    1.01
  -9   8   5    8.57    1.33
   9   8   5    8.49    1.10
   9   8   5    9.30    1.21
   9  -8  -5    9.87    1.10
  10   8  -5   39.40    2.60
  10  -8   5   38.16    1.79
 -10   8   5   39.01    2.44
  10  -8  -5   36.25    2.24
  10   8   5   40.28    2.31
  11   8  -5    5.10    1.41
 -11   8   5    6.49    1.31
  11  -8  -5    9.97    1.38
  11   8   5    7.61    1.36
   0   9   5    0.27    0.38
   0  -9   5    0.11    0.34
   0   9  -5    0.37    0.46
   1   9  -5   35.00    1.82
  -1   9   5   33.58    1.55
   1  -9   5   36.05    1.64
   1  -9   5   37.66    1.53
   1   9  -5   36.90    1.50
  -1   9  -5   37.57    1.96
  -1  -9   5   33.76    1.63
   1   9   5   35.35    1.61
   2  -9   5    2.30    0.54
   2   9  -5    2.87    0.47
   2   9  -5    2.54    0.55
   2  -9   5    2.34    0.53
   2  -9   5    2.61    0.47
  -2   9   5    2.26    0.45
  -2   9  -5    2.17    0.65
   2   9   5    2.38    0.51
  -2  -9   5    2.32    0.46
  -2  -9   5    2.31    0.52
   3  -9   5   47.58    2.30
   3  -9   5   47.43    1.96
  -3   9   5   49.55    1.92
   3   9  -5   49.10    1.99
   3  -9   5   49.26    2.03
  -3   9  -5   40.38    2.39
   3  -9  -5   49.87    1.72
   3   9   5   49.54    1.62
  -3  -9   5   47.79    2.03
   3   9   5   49.51    2.06
   3   9   5   47.60    1.63
  -3  -9   5   49.02    1.91
   4  -9   5   43.87    1.88
   4   9  -5   45.59    1.94
  -4   9   5   42.95    1.74
   4  -9   5   41.99    1.86
   4  -9   5   40.53    2.21
  -4  -9   5   42.65    1.81
   4   9   5   43.59    1.95
   4   9   5   42.82    1.59
   4  -9  -5   43.86    1.67
  -4  -9   5   42.63    1.87
   5   9  -5   40.02    1.94
   5   9  -5   41.03    1.96
   5  -9   5   40.30    1.84
   5  -9   5   42.25    2.27
   5  -9   5   45.21    1.97
  -5  -9   5   42.65    1.86
   5   9   5   42.91    2.01
   5   9   5   40.62    1.67
  -5  -9   5   42.66    1.87
   5  -9  -5   43.17    1.73
  -5   9  -5   41.34    2.52
   6  -9   5   16.02    1.12
   6   9  -5   15.27    1.31
   6  -9   5   18.15    1.41
   6  -9  -5   16.61    1.09
   6   9   5   15.43    1.42
  -6  -9   5   16.91    1.15
   6   9   5   16.36    1.07
   7   9  -5   96.88    3.78
   7  -9   5   99.24    3.50
   7   9  -5   99.41    3.83
   7   9   5   98.88    3.57
  -7  -9   5  100.04    3.49
   7  -9  -5  100.36    3.60
   8   9  -5    1.87    0.67
   8  -9   5    2.93    0.68
   8   9  -5    2.57    0.84
   8  -9  -5    2.47    0.68
  -8  -9   5    2.35    0.63
   8   9   5    2.05    0.69
   9  -9   5   40.05    1.83
   9   9  -5   36.29    2.35
  -9  -9   5   39.23    1.86
   9  -9  -5   37.50    2.13
   9   9   5   38.58    2.21
 -10   9   5    0.27    0.91
  10   9  -5   -1.57    1.04
  10   9   5   -0.27    0.97
  10  -9  -5    0.44    0.89
   0  10  -5   34.91    1.93
   0  10  -5   34.79    1.45
   0 -10   5   34.45    1.52
   0 -10   5   36.17    1.70
   0  10   5   33.94    1.64
  -1  10   5    1.09    0.45
   1 -10   5   -0.52    0.37
   1  10  -5    0.59    0.34
   1  10  -5    0.64    0.53
   1 -10   5   -0.16    0.40
  -1  10  -5    0.28    0.58
   1  10   5    0.66    0.45
  -1 -10   5    0.76    0.40
  -1 -10   5    1.00    0.44
  -2  10   5   25.30    1.31
   2 -10   5   24.87    1.38
   2 -10   5   24.34    1.27
   2  10  -5   24.82    1.24
   2  10  -5   22.71    1.50
  -2 -10   5   23.98    1.35
  -2 -10   5   25.52    1.26
   2  10   5   25.16    1.40
  -2  10  -5   21.75    1.71
   3 -10   5   43.52    1.97
   3  10  -5   43.14    1.88
   3  10  -5   43.60    2.15
  -3  10   5   46.09    1.92
   3 -10   5   47.00    1.91
   3 -10  -5   46.49    1.61
  -3 -10   5   45.65    2.00
   3  10   5   39.55    2.00
  -3  10  -5   46.42    2.50
  -3 -10   5   46.02    1.85
  -4  10   5    1.09    0.50
   4  10  -5    1.52    0.52
   4 -10   5    0.53    0.50
   4  10  -5    1.78    0.61
   4 -10   5    1.43    0.53
   4 -10  -5    1.34    0.36
  -4 -10   5    0.59    0.49
   4  10   5    1.59    0.36
   4  10   5    0.48    0.63
  -4 -10   5    0.63    0.48
   5 -10   5    1.14    0.60
   5  10  -5    2.08    0.60
   5  10  -5    0.92    0.56
   5 -10   5    1.49    0.52
  -5  10   5    2.17    0.55
   5 -10  -5    1.24    0.42
   5  10   5    2.04    0.43
  -5 -10   5    1.15    0.51
   6 -10   5   24.74    1.71
   6  10  -5   28.17    1.57
   6  10  -5   27.60    1.66
   6 -10   5   26.11    1.45
  -6 -10   5   25.32    1.49
   6  10   5   25.45    1.37
   6 -10  -5   24.97    1.36
   7  10  -5    6.06    0.98
   7  10  -5    5.33    0.81
   7 -10   5    4.95    0.79
   7  10   5    6.04    0.79
  -7 -10   5    4.15    0.74
   7 -10  -5    5.06    0.73
   8  10  -5    1.59    0.76
   8 -10   5    0.97    0.62
  -8 -10   5    0.60    0.67
   8 -10  -5    1.94    0.70
   8  10   5    2.15    0.74
   9  10  -5   -1.01    0.94
   9 -10   5    0.51    0.70
   9 -10  -5    0.69    0.78
   9  10   5    0.60    0.87
 -10  10   5   18.82    2.02
  10  10  -5   17.76    2.20
  10 -10  -5   12.85    1.46
  10  10   5   13.58    1.51
   0  11   5    0.50    0.52
   0 -11   5    0.18    0.42
   0  11  -5    0.17    0.65
   0 -11   5    0.36    0.46
   1  11  -5  113.22    3.68
   1 -11   5  111.53    3.73
  -1  11   5  111.37    3.87
   1  11  -5  107.72    4.39
   1 -11   5  107.62    3.90
  -1  11  -5  106.02    4.51
  -1 -11   5  107.87    3.90
   1  11   5  107.51    3.91
  -1 -11   5  110.67    3.68
   2 -11   5   84.67    3.13
   2  11  -5   79.37    2.90
   2 -11   5   83.27    2.95
   2  11  -5   82.16    3.45
  -2  11   5   83.34    3.08
  -2  11  -5   80.69    3.73
  -2 -11   5   80.79    2.88
  -2 -11   5   80.20    3.10
   3  11  -5   68.15    2.91
   3 -11   5   62.70    2.51
   3  11  -5   64.44    2.49
  -3  11   5   66.47    2.57
   3 -11   5   64.88    2.62
  -3 -11   5   62.50    2.61
  -3  11  -5   63.86    3.28
  -3 -11   5   68.47    2.46
   4  11  -5   13.35    1.31
   4 -11   5   13.33    1.18
   4 -11   5   13.80    1.13
  -4  11   5   15.51    1.16
   4  11  -5   14.88    1.12
  -4 -11   5   16.59    1.12
   4 -11  -5   14.14    0.85
  -4 -11   5   12.72    1.15
  -5  11   5   73.62    2.75
   5  11  -5   72.64    2.90
   5 -11   5   70.21    2.81
   5  11  -5   74.80    3.07
   5 -11   5   70.22    2.90
   5  11   5   71.66    2.54
   5 -11  -5   71.69    2.59
  -5 -11   5   73.12    2.88
   6  11  -5   11.92    1.29
   6 -11   5   13.18    1.48
   6 -11   5   10.06    1.07
   6  11  -5   10.40    1.28
   6 -11  -5    9.55    0.95
  -6 -11   5    8.14    1.12
   6  11   5   10.59    1.01
   7  11  -5   18.92    1.68
   7  11  -5   21.90    1.59
   7 -11   5   21.04    1.41
   7 -11  -5   22.11    1.40
   7  11   5   23.12    1.47
   8  11  -5   66.84    3.15
   8 -11   5   65.43    2.66
  -8 -11   5   68.15    2.75
   8 -11  -5   64.36    2.80
   8  11   5   66.52    2.84
   9 -11   5    6.45    0.88
   9  11  -5    6.43    1.28
   9  11   5    5.38    1.11
  -9 -11   5    6.28    0.94
   9 -11  -5    5.96    1.02
  10  11  -5   -0.70    1.33
  10  11   5   -2.22    1.15
  10 -11  -5   -1.59    1.01
   0 -12   5   12.69    0.96
   0  12  -5   10.74    1.46
   0 -12   5    9.63    1.05
   0  12   5   11.07    1.24
   1 -12   5    0.64    0.52
  -1  12   5    0.54    0.67
   1 -12   5    0.87    0.54
   1  12  -5    0.88    0.37
   1  12  -5    0.55    0.75
   1  12   5    0.10    0.67
  -1 -12   5    1.38    0.56
  -1 -12   5    1.61    0.53
  -1  12  -5    1.76    0.85
   2  12  -5   22.00    1.17
  -2  12   5   22.16    1.51
   2 -12   5   22.85    1.30
   2  12  -5   21.53    1.70
   2 -12   5   22.04    1.40
  -2  12  -5   20.02    2.01
  -2 -12   5   20.69    1.22
  -2 -12   5   22.31    1.43
   3 -12   5    3.69    0.68
   3 -12   5    1.41    0.58
  -3  12   5    3.44    0.76
   3  12  -5    3.00    0.78
   3  12  -5    3.77    0.58
  -3 -12   5    2.84    0.67
  -3 -12   5    2.76    0.59
   4  12  -5    0.09    0.51
   4  12  -5    1.03    0.76
  -4  12   5    1.25    0.71
   4 -12   5    1.31    0.57
   4 -12   5   -0.06    0.64
  -4 -12   5    0.10    0.54
   4 -12  -5    0.53    0.35
  -4 -12   5   -0.61    0.54
   5 -12   5    2.81    0.79
   5  12  -5    2.60    0.82
   5  12  -5    0.80    0.64
   5 -12   5    3.23    0.69
  -5  12   5    3.31    0.81
   5 -12  -5    2.30    0.49
   5  12   5    2.64    0.51
   6  12  -5   -0.85    0.83
   6  12  -5   -0.84    0.66
   6 -12   5    0.30    0.58
   6  12   5   -0.59    0.57
   6 -12  -5    0.45    0.53
  -6 -12   5    0.21    0.65
   7  12  -5   -0.82    0.83
   7 -12   5   -0.06    0.62
   7 -12  -5    0.15    0.61
  -7 -12   5   -0.33    0.73
   7  12   5    1.37    0.71
   8 -12   5   29.73    1.83
   8  12  -5   36.10    2.33
  -8 -12   5   31.54    1.93
   8  12   5   33.72    2.04
   8 -12  -5   31.97    1.91
   9  12  -5    0.42    1.19
   9  12   5    0.75    1.11
  -9 -12   5   -0.76    0.91
   9 -12  -5   -1.10    0.90
   0 -13   5   -0.15    0.52
   0 -13   5    0.27    0.53
   0  13  -5    0.23    0.85
   1 -13   5   17.74    1.34
   1 -13   5   17.24    1.18
   1  13  -5   13.88    0.97
  -1 -13   5   16.97    1.34
  -1  13  -5   17.69    2.03
  -1 -13   5   15.34    1.12
   2 -13   5   16.22    1.24
   2  13  -5   15.46    1.02
   2 -13   5   15.39    1.29
  -2  13   5   17.38    1.58
   2  13  -5   14.47    1.73
  -2 -13   5   16.23    1.15
  -3  13   5   57.44    2.55
   3 -13   5   54.43    2.46
   3 -13   5   55.72    2.34
   3  13  -5   55.25    2.24
   3  13  -5   53.90    2.83
  -3 -13   5   55.87    2.23
  -3 -13   5   56.33    2.59
  -4  13   5    1.46    0.88
   4  13  -5    1.64    0.94
   4 -13   5    2.66    0.80
   4  13  -5    2.33    0.64
   4 -13   5    1.35    0.65
  -4 -13   5    1.43    0.72
   5  13  -5   93.52    4.04
   5 -13   5   94.01    3.69
   5 -13   5   95.32    3.62
   5  13  -5   97.60    3.60
   5 -13  -5  100.59    3.24
  -5 -13   5   93.06    3.66
   6 -13   5   10.52    1.26
   6  13  -5    9.39    1.30
   6  13  -5    9.70    1.13
   6  13   5    8.25    1.06
  -6 -13   5   10.73    1.34
   6 -13  -5    9.40    1.03
   7 -13   5   24.65    1.70
   7  13  -5   23.49    2.00
  -7 -13   5   26.87    1.80
   7  13   5   23.72    1.64
   7 -13  -5   25.23    1.57
   8  13  -5   10.94    1.46
   8 -13   5   11.09    1.22
   8  13   5   11.42    1.29
   8 -13  -5   11.71    1.25
  -8 -13   5   14.78    1.62
   0 -14   5   41.88    2.13
   0 -14   5   41.88    1.87
   1 -14   5    7.50    0.83
   1  14  -5    8.69    1.39
   1 -14   5    7.88    1.05
  -1 -14   5    8.74    1.18
  -1 -14   5    9.09    1.05
   2  14  -5    0.14    0.44
   2 -14   5    0.55    0.64
   2 -14   5   -1.11    0.69
   2  14  -5   -0.38    1.07
  -2 -14   5    0.57    0.68
  -2 -14   5    0.56    0.60
   3  14  -5   46.93    2.03
   3 -14   5   50.33    2.58
   3 -14   5   46.23    2.21
   3  14  -5   49.98    2.84
  -3 -14   5   49.60    2.07
  -3 -14   5   48.33    2.35
   4 -14   5   40.38    2.13
   4  14  -5   38.78    2.63
   4  14  -5   39.66    1.92
  -4 -14   5   41.29    2.19
   5  14  -5    2.23    0.74
   5 -14   5    2.27    1.08
   5  14  -5    1.01    1.19
   5 -14   5    1.01    0.72
   5 -14  -5    1.43    0.51
  -5 -14   5    0.89    0.78
   6  14  -5    9.80    1.17
   6 -14   5   10.26    1.37
  -6 -14   5   14.52    1.53
   6 -14  -5    8.55    1.11
   7 -14   5   27.88    1.83
   7  14  -5   26.83    2.18
  -7 -14   5   23.53    1.94
   8  14  -5    2.47    1.27
   8 -14   5    2.43    1.07
  -8 -14   5    6.60    1.15
   0 -15   5   -0.76    0.70
   0 -15   5    0.17    0.68
   1 -15   5   18.56    1.52
   1 -15   5   18.61    1.45
  -1 -15   5   17.94    1.57
  -1 -15   5   18.68    1.36
   2 -15   5    0.58    0.66
   2 -15   5   -0.10    0.80
  -2 -15   5    0.87    0.76
  -2 -15   5   -0.42    0.69
   3 -15   5   20.72    1.63
   3  15  -5   21.48    1.30
   3  15  -5   21.42    2.49
  -3 -15   5   22.70    1.78
   4  15  -5    1.20    0.66
   4  15  -5    1.34    1.39
   4 -15   5    1.35    0.75
  -4 -15   5    1.44    0.85
   5  15  -5   47.63    2.28
   5 -15   5   48.53    2.41
  -5 -15   5   46.26    2.49
   6  15  -5    4.57    1.08
   6 -15   5    3.59    0.96
  -6 -15   5    4.94    1.12
   7 -15   5    7.49    1.19
  -7 -15   5    7.51    1.28
   0 -16   5    8.91    1.14
   1 -16   5   -1.12    0.73
  -1 -16   5    0.92    0.83
   2 -16   5   -0.71    0.76
  -2 -16   5    0.63    0.89
   3 -16   5    1.92    0.88
   3  16  -5    1.28    0.62
  -3 -16   5    1.57    1.01
   4  16  -5    7.34    0.91
   4 -16   5   12.11    1.54
  -4 -16   5   10.19    1.31
   5 -16   5    2.12    0.99
  -5 -16   5    1.55    1.03
   6 -16   5    0.64    0.97
  -6 -16   5    1.95    1.16
   0 -17   5   -0.85    0.89
   1 -17   5   26.83    2.02
  -1 -17   5   21.73    1.96
   2 -17   5   34.97    2.20
  -2 -17   5   28.82    2.22
   3 -17   5   19.04    1.82
  -3 -17   5   17.08    1.95
   4 -17   5    0.36    0.96
  -4 -17   5   -0.08    1.11
   5 -17   5   13.12    1.76
  -5 -17   5   13.03    1.52
   0 -18   5    7.40    1.32
   1 -18   5    5.86    1.26
  -1 -18   5    6.86    1.32
   2 -18   5   30.94    2.27
  -2 -18   5   30.83    2.39
   3 -18   5    2.58    1.09
  -3 -18   5    0.17    1.25
   0   0  -6    7.68    0.52
   0   0  -6    7.29    0.50
   0   0   6    9.01    0.60
   0   0   6    7.81    0.52
   1   0   6    3.22    0.37
  -1   0   6    3.15    0.40
  -1   0  -6    3.04    0.37
   1   0  -6    3.16    0.37
  -1   0  -6    1.94    0.34
   1   0   6    2.37    0.42
  -1   0   6    4.00    0.45
   1   0  -6    3.45    0.41
  -2   0   6    0.19    0.21
   2   0   6    0.29    0.19
   2   0  -6   -0.21    0.16
  -2   0  -6    0.08    0.18
   2   0  -6   -0.12    0.21
   2   0   6   -0.11    0.21
  -2   0   6    0.56    0.24
   3   0  -6  290.22    9.03
  -3   0   6  290.42    9.00
  -3   0  -6  316.80    9.88
   3   0  -6  299.41    9.94
   3   0   6  292.87   10.02
  -3   0   6  283.32    9.97
   4   0  -6  823.10   24.94
   4   0   6  846.57   27.70
  -4   0   6  836.38   24.91
  -4   0  -6  888.81   27.48
  -4   0   6  806.81   27.60
   5   0   6    0.75    0.40
  -5   0  -6    1.01    0.26
  -5   0   6    1.14    0.34
  -5   0   6    1.31    0.22
   5   0  -6    1.14    0.35
  -5   0   6    0.94    0.32
   6   0   6  655.42   21.24
  -6   0  -6  581.08   20.72
  -6   0   6  664.02   21.04
   6   0  -6  637.21   19.17
  -6   0   6  638.71   21.02
  -7   0   6   93.50    3.53
   7   0  -6   93.16    3.49
   7   0   6   93.97    3.81
  -7   0   6   93.05    3.51
   8   0  -6  186.57    6.41
   8   0   6  192.82    7.03
  -8   0   6  184.59    6.57
  -8   0   6  194.57    6.62
   9   0   6   17.45    1.04
   9   0   6   18.55    1.64
  10   0   6    1.11    0.93
  10   0   6    1.76    0.60
  10   0  -6    0.15    0.72
  11   0  -6   -0.04    0.85
  11   0   6    0.19    1.09
  12   0  -6   16.49    2.11
  12   0   6   17.98    2.62
   0   1  -6   -0.21    0.15
   0  -1   6    0.14    0.20
   0   1   6    0.24    0.17
   0  -1  -6   -0.06    0.13
   0   1  -6    0.09    0.17
   0  -1   6   -0.16    0.17
   0  -1  -6   -0.19    0.14
   0   1   6    0.09    0.17
   1   1  -6   35.80    1.53
   1  -1   6   40.54    1.65
   1  -1   6   36.97    1.41
  -1   1   6   37.43    1.40
   1   1  -6   36.25    1.43
  -1   1   6   35.04    1.55
  -1  -1  -6   39.94    1.48
  -1  -1  -6   34.56    1.35
   1   1   6   37.22    1.38
  -1   1  -6   36.54    1.40
   1  -1  -6   35.26    1.39
   1  -1  -6   39.29    1.52
  -1  -1   6   39.81    1.46
   1   1   6   37.66    1.56
  -1  -1   6   37.76    1.59
   2   1  -6   16.00    0.86
  -2   1   6   17.10    0.92
   2  -1   6   16.64    0.82
   2  -1   6   17.19    0.98
  -2   1   6   18.26    0.85
   2   1  -6   17.97    0.89
  -2  -1  -6   15.76    0.77
  -2  -1   6   16.63    0.92
   2   1   6   18.17    0.92
   2  -1  -6   16.99    0.85
  -2  -1   6   17.89    0.87
   2  -1  -6   19.07    0.88
  -2   1  -6   17.15    0.89
   2   1   6   16.73    0.79
  -3   1   6   28.11    1.19
   3   1  -6   28.94    1.26
  -3  -1  -6   28.03    1.11
   3  -1   6   30.06    1.41
  -3   1   6   26.63    1.29
   3  -1   6   26.23    1.19
   3   1  -6   29.86    1.28
  -3   1  -6   25.02    1.24
   3   1   6   24.54    1.26
  -3  -1   6   30.42    1.31
  -3  -1   6   28.38    1.24
   3  -1  -6   25.30    1.19
  -4   1   6   11.97    0.82
   4  -1   6   11.97    0.92
  -4   1   6   11.69    0.77
  -4  -1  -6   11.84    0.57
   4   1  -6   13.73    0.78
   4  -1  -6   12.16    0.81
   4   1   6   13.70    0.87
  -4  -1   6   11.02    0.78
  -4   1  -6   11.77    0.77
  -4  -1   6   14.34    0.84
   5   1  -6   21.47    1.21
   5   1  -6   22.06    1.13
  -5   1   6   23.88    1.22
   5  -1   6   21.76    1.34
   5  -1  -6   22.29    1.18
  -5  -1   6   22.10    1.14
  -5  -1   6   21.32    1.15
   5   1   6   22.51    1.26
  -5   1  -6   23.53    1.15
   6  -1   6    5.83    0.80
  -6   1   6    6.93    0.71
   6   1   6    6.74    0.85
   6  -1  -6    6.39    0.76
  -6   1  -6    4.69    0.62
  -7   1   6   32.47    1.62
  -7   1   6   33.93    1.72
   7   1  -6   32.27    1.71
   7  -1   6   33.04    1.90
   7   1   6   31.49    1.78
  -7   1  -6   33.81    1.45
  -7  -1   6   34.58    1.50
  -7  -1   6   33.89    1.49
   7  -1  -6   33.53    1.70
  -8   1   6   19.26    1.24
   8   1  -6   19.01    1.43
  -8   1   6   21.08    1.52
   8  -1   6   21.24    1.61
   8  -1  -6   20.80    1.43
   8   1   6   21.51    1.56
   9  -1   6   -1.12    0.71
  -9   1   6    0.16    0.49
   9   1  -6    0.27    0.59
   9   1   6   -0.13    0.48
   9   1   6   -0.98    0.71
  10  -1   6    3.25    0.62
  10   1  -6    4.34    0.90
  10  -1   6    5.42    1.15
  10   1   6    4.67    0.77
  10  -1  -6    4.28    0.91
  10   1   6    4.18    1.04
  11  -1   6    7.66    1.36
  11   1  -6    7.41    1.32
  11  -1  -6    7.29    1.21
  12   1  -6   16.85    2.20
  12  -1   6   26.66    2.76
  12   1   6   23.55    2.66
  12  -1  -6   16.58    2.14
   0   2  -6    2.69    0.39
   0  -2   6    1.91    0.37
   0   2  -6    3.09    0.38
   0  -2   6    2.37    0.35
   0   2   6    3.70    0.39
   1   2  -6    8.11    0.57
   1  -2   6    7.39    0.66
   1  -2   6    8.43    0.56
   1   2  -6    7.95    0.58
  -1  -2  -6    7.68    0.48
  -1   2   6    8.01    0.52
  -1   2   6    8.38    0.59
  -1  -2   6    8.60    0.60
  -1   2  -6    8.68    0.55
  -1   2  -6    7.95    0.63
  -1  -2   6    8.14    0.62
   1  -2  -6    7.60    0.51
   1   2   6    8.08    0.50
   2  -2   6   19.82    1.12
  -2   2   6   21.62    0.91
   2   2  -6   19.53    1.00
   2  -2   6   19.31    0.93
  -2   2   6   20.13    1.02
   2   2  -6   19.68    0.98
   2   2   6   19.41    0.95
   2   2   6   19.38    0.87
  -2   2  -6   22.39    1.08
  -2  -2   6   19.71    1.02
  -2  -2   6   19.69    0.96
   2  -2  -6   19.42    0.91
   3   2  -6   -0.22    0.19
   3   2  -6    0.10    0.25
  -3   2   6    0.11    0.21
   3  -2   6   -0.36    0.28
  -3   2   6    0.13    0.20
  -3   2  -6    0.48    0.28
   3  -2  -6   -0.14    0.23
  -3  -2   6    0.15    0.22
   4  -2   6   33.21    1.69
   4   2  -6   35.36    1.50
  -4   2   6   34.54    1.58
   4   2  -6   33.56    1.51
  -4   2   6   34.04    1.41
   4   2   6   30.10    1.48
   4  -2  -6   32.84    1.45
  -4  -2   6   33.79    1.46
  -4   2  -6   37.16    1.60
  -4  -2   6   34.84    1.30
  -4  -2   6   33.31    1.47
   5  -2   6   35.22    1.78
  -5   2   6   32.37    1.60
   5   2  -6   35.78    1.60
  -5  -2   6   34.20    1.46
   5   2   6   33.71    1.59
  -5  -2   6   33.73    1.27
  -5   2  -6   33.58    1.60
   5  -2  -6   32.58    1.52
  -5  -2   6   34.68    1.52
   6   2  -6  106.49    3.82
  -6   2   6  107.41    4.08
   6  -2   6  105.45    4.23
  -6   2   6  106.34    4.02
   6   2  -6  108.94    3.93
  -6  -2   6  103.12    3.74
  -6   2  -6  103.46    3.96
   6   2   6  105.78    4.01
   6  -2  -6  108.68    3.76
  -6  -2   6  107.50    3.31
  -6  -2   6  107.24    3.72
   7   2  -6    0.66    0.48
   7  -2   6    0.72    0.60
  -7   2   6    1.70    0.60
  -7   2   6    1.41    0.47
  -7  -2   6    1.59    0.29
   7   2   6    0.96    0.54
  -7   2  -6    1.40    0.47
   7  -2  -6    2.06    0.52
   8  -2   6    8.58    1.29
  -8   2   6    9.03    0.95
   8   2  -6    8.28    1.07
  -8   2   6    8.41    1.22
   8   2   6    8.63    0.81
  -8   2  -6    8.43    0.92
   8  -2  -6    9.47    1.08
   8   2   6    7.65    1.14
   9  -2   6    2.07    0.83
   9   2  -6    1.21    0.60
  -9   2   6    2.04    0.60
  -9   2   6    1.27    0.83
  -9   2  -6    2.51    0.48
   9   2   6    1.65    0.79
   9   2   6    2.62    0.58
 -10   2   6   12.35    1.68
 -10   2   6   10.75    1.18
  10  -2   6   11.68    1.47
  10   2  -6   11.17    1.33
  10   2   6   11.00    1.35
  10  -2  -6    9.23    1.18
  10   2   6   11.98    1.24
  11  -2   6    0.48    1.15
  11   2  -6    1.22    0.94
  11  -2  -6    2.71    0.96
  11   2   6    1.24    1.16
  12  -2   6    8.15    1.67
  12   2  -6    5.52    1.25
  12  -2  -6    7.86    1.42
  12   2   6    5.25    1.55
   0  -3   6    0.02    0.24
   0   3  -6   -0.06    0.20
   0   3   6   -0.14    0.15
   0   3   6    0.32    0.19
   0  -3   6   -0.23    0.19
   0   3  -6    0.01    0.18
   1  -3   6   52.47    2.20
   1   3  -6   52.35    1.94
  -1   3   6   53.91    2.08
  -1   3   6   53.50    1.83
   1   3  -6   54.06    2.14
   1  -3   6   52.99    1.92
  -1  -3   6   50.75    2.12
   1   3   6   59.33    2.05
  -1   3  -6   50.19    2.16
   1  -3  -6   53.63    1.82
  -1  -3   6   55.25    1.96
   1   3   6   51.99    1.80
  -1   3  -6   51.73    1.90
  -2   3   6    8.72    0.64
   2   3  -6    9.27    0.66
   2   3  -6    9.92    0.70
   2  -3   6   10.08    0.78
   2  -3   6    9.28    0.63
  -2   3   6    9.08    0.56
   2   3   6    7.72    0.56
  -2  -3   6    8.75    0.65
   2   3   6    9.66    0.54
  -2   3  -6   10.75    0.75
  -2  -3   6    8.94    0.66
   2  -3  -6    8.69    0.59
   3   3  -6   54.70    2.15
   3  -3   6   51.21    2.31
   3   3  -6   52.50    2.05
  -3   3   6   52.25    1.92
  -3   3   6   54.43    2.20
   3  -3   6   53.21    2.00
  -3  -3   6   53.56    2.02
   3   3   6   50.89    2.03
   3  -3  -6   57.83    1.99
  -3  -3   6   53.19    2.09
  -3  -3   6   50.90    1.91
  -3   3  -6   61.00    2.32
   4   3  -6   56.62    2.14
   4  -3   6   57.31    2.40
  -4   3   6   53.83    1.65
   4   3  -6   50.61    2.07
  -4   3   6   48.63    2.18
  -4  -3   6   53.32    2.02
   4   3   6   55.59    2.07
  -4  -3   6   46.93    1.84
   4  -3  -6   53.50    2.00
  -4  -3   6   49.69    2.01
   5  -3   6   79.53    3.34
  -5   3   6   77.98    3.15
   5   3  -6   78.80    2.96
  -5   3  -6   85.17    3.24
   5   3   6   78.77    3.01
   5  -3  -6   83.28    2.90
  -5  -3   6   80.39    2.90
  -5  -3   6   79.17    2.84
  -5  -3   6   78.08    2.64
  -5  -3   6   82.04    2.81
  -6   3   6   23.56    1.48
   6   3  -6   22.36    1.22
   6  -3   6   23.74    1.58
  -6   3   6   22.87    1.33
   6   3  -6   24.57    1.38
  -6   3  -6   24.33    1.44
   6  -3  -6   23.75    1.30
   6   3   6   24.21    1.10
  -6  -3   6   22.05    1.00
   6   3   6   26.38    1.31
   7   3  -6   -0.03    0.44
   7  -3   6   -0.21    0.58
   7   3  -6    0.47    0.40
  -7   3   6   -0.16    0.61
  -7   3   6    0.14    0.41
   7  -3  -6    0.08    0.39
  -7   3  -6    0.11    0.51
  -7  -3   6    0.35    0.27
   7   3   6   -0.46    0.36
   7   3   6    0.73    0.46
  -8   3   6   15.05    1.51
  -8   3   6   15.88    1.22
   8  -3   6   18.72    1.60
   8   3  -6   14.25    1.32
   8  -3  -6   15.67    1.27
   8   3   6   16.40    1.07
   8   3   6   16.55    1.34
  -8   3  -6   15.42    1.31
  -9   3   6   21.26    1.46
   9   3  -6   20.65    1.63
  -9   3   6   21.08    1.86
   9  -3   6   23.73    1.96
   9   3   6   20.89    1.63
   9   3   6   20.44    1.30
  10  -3   6    3.29    1.07
  10   3  -6    3.52    0.93
 -10   3   6    2.65    1.12
 -10   3   6    2.88    0.75
  10  -3  -6    2.62    0.79
  10   3   6    4.18    1.04
  10   3   6    3.88    0.86
  11   3  -6    7.19    1.24
 -11   3   6    6.99    1.00
  11  -3   6    7.08    1.42
  11   3   6    9.59    1.40
  11  -3  -6    6.63    1.14
  12   3  -6    8.72    1.55
  12   3   6    2.98    1.50
  12  -3  -6    5.71    1.28
  12   3   6    5.12    1.21
   0   4  -6  813.84   25.39
   0  -4   6  788.71   25.34
   0  -4  -6  732.12   22.55
   0   4   6  764.74   22.59
   0   4  -6  751.49   22.75
   0  -4   6  761.71   22.77
   1  -4   6    0.26    0.27
  -1   4   6   -0.10    0.18
   1  -4   6   -0.28    0.20
   1   4  -6   -0.60    0.21
   1   4  -6   -0.45    0.22
   1   4   6   -0.18    0.15
  -1   4  -6   -0.30    0.19
  -1   4  -6   -0.31    0.25
  -1  -4   6   -0.32    0.23
  -1  -4   6   -0.13    0.24
   2   4  -6  253.01    8.39
  -2   4   6  251.15    7.42
  -2   4   6  244.80    7.26
   2   4  -6  249.67    7.61
   2  -4   6  245.29    7.61
   2  -4   6  242.36    8.51
  -2  -4   6  241.45    8.29
  -2  -4   6  248.42    7.48
  -2   4  -6  259.38    8.52
  -2  -4   6  250.05    7.59
   2   4   6  238.39    7.39
   2   4   6  219.23    8.17
   2  -4  -6  243.07    7.44
   3   4  -6   11.10    0.75
   3  -4   6   13.81    1.00
   3   4  -6   11.02    0.80
  -3   4   6   10.75    0.64
  -3   4   6   10.19    0.51
   3   4   6   11.23    0.64
  -3  -4   6    9.72    0.70
   3  -4  -6   11.87    0.71
  -3   4  -6   11.19    0.94
  -3  -4   6   12.39    0.72
  -3  -4   6   11.18    0.78
  -4   4   6   50.71    2.14
   4  -4   6   49.30    1.96
   4   4  -6   52.08    2.05
   4   4  -6   49.09    2.01
   4  -4   6   49.78    2.30
  -4   4   6   49.27    1.60
  -4   4  -6   51.44    2.27
  -4  -4   6   49.09    1.83
   4  -4  -6   49.26    1.89
   4   4   6   49.18    1.90
  -4  -4   6   46.87    1.80
  -4  -4   6   48.66    1.95
  -5   4   6    7.02    0.73
   5   4  -6    7.70    0.81
   5   4  -6    6.26    0.62
   5   4   6    5.45    0.59
  -5  -4   6    5.77    0.75
   5  -4  -6    6.67    0.69
   5   4   6    6.61    0.60
  -5  -4   6    7.16    0.59
   6   4  -6   11.97    1.04
   6  -4   6   12.36    1.23
  -6   4   6   11.59    0.98
   6   4  -6   14.99    0.93
  -6   4   6   11.46    1.23
   6   4   6   11.88    0.82
  -6  -4   6   12.24    0.75
   6  -4  -6   13.52    0.98
  -6   4  -6   12.67    1.21
   6   4   6   12.06    0.89
  -7   4   6    8.00    0.91
  -7   4   6    9.16    1.28
   7   4  -6    9.22    1.05
   7  -4   6    9.93    1.23
  -7   4  -6    6.26    0.92
   7   4   6    8.84    0.83
   7   4   6    7.76    0.91
  -7  -4   6    8.99    0.65
   7  -4  -6    7.54    0.91
  -8   4   6   30.55    1.73
  -8   4   6   27.19    2.04
   8  -4   6   28.70    2.05
   8   4  -6   28.63    1.82
   8   4   6   31.94    1.52
   8  -4  -6   27.93    1.69
  -8  -4   6   28.99    1.19
   8   4   6   32.19    1.72
  -8   4  -6   29.11    1.86
  -9   4   6    3.42    0.73
  -9   4   6    3.73    1.09
   9   4  -6    3.39    0.81
  -9   4  -6    0.26    0.83
   9   4   6    2.35    0.79
   9   4   6    1.71    0.71
   9  -4  -6    2.17    0.81
  10   4  -6   38.18    2.39
  10  -4   6   37.47    2.67
 -10   4   6   36.13    2.71
 -10   4   6   41.16    2.16
  10   4   6   38.38    2.11
  10  -4  -6   39.50    2.24
  10   4   6   36.20    2.34
  11  -4   6    2.02    1.21
  11   4  -6    3.57    1.09
 -11   4   6    0.68    0.87
  11   4   6    4.14    1.22
  11  -4  -6    2.53    1.02
  12   4  -6   13.20    1.80
  12   4   6   10.95    1.52
  12  -4  -6   12.08    1.58
   0   5   6    0.04    0.17
   0  -5  -6    0.07    0.13
   0   5   6   -0.06    0.16
   0   5  -6   -0.32    0.21
   0  -5   6   -0.16    0.27
   0   5  -6   -0.40    0.27
   0  -5   6   -0.45    0.22
  -1   5   6   -0.20    0.16
   1   5  -6    0.09    0.28
  -1   5   6   -0.02    0.17
   1  -5   6   -0.05    0.23
   1  -5   6    0.00    0.29
   1   5  -6    0.13    0.25
  -1  -5   6   -0.01    0.26
  -1   5  -6    0.10    0.21
   1   5   6    0.28    0.19
  -1  -5   6    0.07    0.25
   1  -5  -6    0.15    0.17
   1   5   6    0.66    0.18
  -1  -5   6    0.15    0.24
  -2   5   6    3.42    0.37
   2  -5   6    3.04    0.54
  -2   5   6    3.04    0.36
   2   5  -6    4.32    0.55
   2   5  -6    2.86    0.42
   2  -5   6    3.77    0.47
  -2  -5   6    5.02    0.52
   2   5   6    3.82    0.42
   2   5   6    3.57    0.35
   2  -5  -6    3.32    0.38
  -2  -5   6    4.01    0.53
  -2   5  -6    3.32    0.57
   3   5  -6   15.52    0.95
   3  -5   6   16.34    0.93
   3  -5   6   15.78    1.13
  -3   5   6   16.83    0.72
   3   5  -6   16.41    0.99
  -3   5  -6   14.68    1.13
  -3  -5   6   16.39    0.90
   3   5   6   16.25    0.77
  -3  -5   6   15.33    0.82
   3   5   6   15.28    0.82
  -3  -5   6   16.48    0.95
   4   5  -6   11.29    0.88
   4  -5   6    9.75    1.00
  -4   5   6   10.80    0.55
   4  -5   6    8.28    0.77
   4   5  -6    9.98    0.75
   4  -5  -6   11.03    0.73
  -4  -5   6   10.41    0.75
   4   5   6    9.42    0.69
  -4  -5   6   10.13    0.82
  -4   5  -6    9.63    0.98
   5   5  -6   41.66    1.90
  -5   5   6   41.51    1.42
   5   5  -6   43.17    1.85
   5   5   6   40.27    1.68
   5   5   6   46.73    1.72
  -5  -5   6   42.71    1.68
  -5  -5   6   42.40    1.84
   5  -5  -6   43.09    1.77
  -6   5   6    9.55    0.89
  -6   5   6    8.41    1.22
   6   5  -6    8.00    0.78
   6  -5   6   10.52    1.18
   6   5  -6    8.87    0.98
  -6   5  -6    9.63    1.24
   6   5   6   11.05    0.85
   6  -5  -6    8.37    0.84
   6   5   6   10.38    0.76
  -6  -5   6    8.25    0.71
   7   5  -6    0.51    0.44
   7  -5   6    1.34    0.67
   7   5  -6    1.69    0.61
  -7   5   6    1.09    0.79
  -7   5   6    1.22    0.45
   7   5   6    1.31    0.47
   7  -5  -6    1.16    0.47
  -7  -5   6    1.32    0.40
   7   5   6    2.09    0.55
  -7   5  -6    0.62    0.76
  -8   5   6    5.48    0.83
   8   5  -6    5.28    0.90
   8  -5   6    4.27    1.05
   8   5  -6    6.24    0.92
  -8   5   6    7.51    1.14
  -8  -5   6    5.80    0.67
   8   5   6    6.37    0.78
   8   5   6    6.24    0.80
   8  -5  -6    6.25    0.84
  -8   5  -6    3.23    0.94
   9   5  -6    0.81    0.71
  -9   5   6   -0.83    0.59
   9  -5   6   -0.06    0.84
  -9   5   6    0.89    1.17
  -9   5  -6   -0.34    0.95
   9   5   6    0.79    0.71
   9   5   6    2.05    0.80
   9  -5  -6   -0.78    0.58
  10   5  -6    1.40    0.89
 -10   5   6    0.38    0.74
  10  -5   6    0.04    1.02
  10   5   6    0.35    0.90
  10  -5  -6    0.38    0.72
  11   5  -6    3.12    1.12
 -11   5   6    4.42    1.05
  11  -5  -6    4.64    1.09
  11   5   6    3.12    1.20
  11   5   6    5.10    1.04
   0   6   6  651.30   19.13
   0  -6   6  644.94   19.46
   0   6   6  675.01   19.11
   0  -6   6  650.95   21.58
   0   6  -6  651.95   19.41
   0  -6   6  639.32   19.27
  -1   6   6   15.63    0.64
   1   6  -6   14.93    1.00
   1  -6   6   15.44    1.04
   1   6  -6   16.16    0.88
  -1   6  -6   15.74    0.85
   1   6   6   15.49    0.81
  -1  -6   6   14.97    0.91
  -1  -6   6   14.63    0.92
  -1   6  -6   13.30    1.13
   1  -6  -6   15.98    0.66
   1   6   6   15.70    0.65
  -2   6   6  227.48    6.92
   2   6  -6  253.04    8.00
   2  -6   6  219.40    8.04
   2  -6   6  230.28    7.16
   2   6  -6  222.44    7.17
  -2  -6   6  224.01    7.72
   2   6   6  239.57    6.91
  -2  -6   6  211.39    7.08
   2   6   6  229.26    7.02
  -2  -6   6  221.89    7.14
   2  -6  -6  226.60    6.94
  -2   6  -6  246.95    8.17
   3   6  -6   47.73    1.92
   3   6  -6   46.84    1.99
  -3   6   6   47.81    1.65
   3  -6   6   43.41    2.15
   3  -6   6   45.41    1.83
  -3   6  -6   47.44    2.23
  -3  -6   6   43.01    1.81
  -3  -6   6   45.18    1.83
   3   6   6   44.86    1.76
   3  -6  -6   47.02    1.70
   4  -6   6    0.60    0.40
   4   6  -6    0.41    0.34
   4  -6   6    0.77    0.46
  -4   6   6    0.75    0.27
   4   6  -6    0.64    0.38
   4   6   6    0.30    0.31
   4  -6  -6    0.51    0.29
  -4  -6   6    0.50    0.35
  -4   6  -6    0.63    0.52
  -4  -6   6    0.30    0.37
   5  -6   6   -0.10    0.46
  -5   6   6    0.03    0.23
   5   6  -6    1.28    0.46
   5   6  -6    1.12    0.35
   5  -6   6    0.56    0.42
   5   6   6    0.44    0.37
  -5  -6   6    0.10    0.33
  -5  -6   6    0.14    0.41
   5  -6  -6    0.31    0.34
  -5   6  -6    0.22    0.55
   6  -6   6    7.32    1.03
   6   6  -6    6.48    0.85
  -6   6   6    6.99    0.96
   6   6   6    6.63    0.67
  -6   6  -6    7.55    1.07
   6   6   6    6.68    0.82
  -6  -6   6    7.29    0.74
   6  -6  -6    8.28    0.83
   7  -6   6   44.88    2.51
   7   6  -6   44.88    2.17
   7   6  -6   41.92    1.97
  -7   6   6   43.44    2.52
  -7   6   6   44.07    2.19
   7  -6  -6   45.23    2.03
   7   6   6   45.94    1.98
  -7   6  -6   48.13    2.57
   7   6   6   41.20    1.87
  -7  -6   6   44.87    1.77
   8   6  -6   59.04    2.73
  -8   6   6   60.42    2.76
   8   6  -6   55.47    2.50
   8   6   6   60.19    2.50
  -8  -6   6   59.29    2.16
  -8   6  -6   55.45    3.09
   8   6   6   57.63    2.49
   8  -6  -6   58.92    2.56
  -9   6   6    0.74    0.73
   9  -6   6    1.83    0.95
   9   6  -6    2.22    0.83
  -9   6  -6   -1.35    1.17
   9  -6  -6    3.11    0.74
   9   6   6    3.86    0.81
  10   6  -6   43.64    2.61
  10  -6   6   46.17    1.99
  10  -6   6   44.77    2.94
 -10   6   6   44.04    2.51
  10   6   6   44.30    2.47
  10  -6  -6   45.92    2.44
  10   6   6   43.29    2.39
 -11   6   6    4.82    1.14
  11   6  -6    7.23    1.39
  11  -6  -6    7.35    1.26
  11   6   6    6.14    1.18
   0   7   6   -0.17    0.25
   0   7  -6   -0.08    0.25
   0  -7   6    0.54    0.33
   0  -7   6    0.07    0.31
   0   7  -6    0.38    0.37
   1  -7   6    5.61    0.66
   1   7  -6    4.10    0.56
   1  -7   6    4.58    0.60
   1  -7   6    4.55    0.69
  -1   7   6    4.90    0.54
  -1   7  -6    5.59    0.82
   1   7   6    4.26    0.33
  -1  -7   6    5.24    0.60
  -1  -7   6    5.58    0.64
  -1   7  -6    4.33    0.52
  -1  -7   6    4.74    0.63
   1  -7  -6    4.99    0.33
   1   7   6    3.90    0.53
   2   7  -6   21.41    1.14
   2   7  -6   21.14    1.30
   2  -7   6   20.97    1.12
  -2   7   6   21.44    1.02
   2  -7   6   20.36    1.16
   2  -7   6   21.98    1.34
   2   7   6   21.24    1.07
  -2  -7   6   23.21    1.02
  -2   7  -6   21.50    1.41
  -2  -7   6   20.87    1.13
  -2  -7   6   21.00    1.15
   2   7   6   21.76    0.85
   3  -7   6    1.08    0.38
   3   7  -6    1.19    0.39
   3   7  -6    0.76    0.40
  -3   7   6    0.78    0.29
   3  -7   6    0.74    0.46
   3  -7  -6    1.19    0.30
   3   7   6    0.56    0.34
  -3  -7   6    0.67    0.37
  -3  -7   6    0.95    0.39
  -3   7  -6    0.50    0.52
   3   7   6    1.11    0.26
   5  -7   6   -0.02    0.46
   5   7  -6   -0.51    0.41
   5  -7   6   -0.16    0.49
  -5   7   6    0.33    0.30
  -5   7  -6    0.06    0.64
   5   7   6    0.13    0.45
  -5  -7   6   -0.14    0.39
   5  -7  -6   -0.02    0.35
  -5  -7   6    1.02    0.47
   6  -7   6    5.53    0.90
   6   7  -6    6.16    0.82
   6   7  -6    5.99    0.78
  -6   7   6    5.53    0.96
  -6   7  -6    4.63    0.99
  -6  -7   6    5.25    0.65
   6  -7  -6    5.72    0.70
   6   7   6    5.46    0.74
   7  -7   6   11.08    1.48
   7   7  -6    9.61    1.19
   7   7  -6   11.65    1.01
   7   7   6   10.86    1.20
  -7  -7   6   10.90    0.93
   7   7   6   11.85    0.89
   7  -7  -6   10.70    1.05
  -7   7  -6   11.20    1.48
   8   7  -6    7.02    0.84
   8  -7   6    7.40    1.18
   8   7  -6    8.83    1.14
   8  -7   6    8.58    0.98
   8  -7  -6    8.31    0.97
  -8  -7   6    7.50    0.88
   8   7   6    8.27    0.99
   9  -7   6   -0.32    0.61
   9   7  -6   -0.52    0.69
   9   7  -6   -0.80    0.73
   9  -7   6    0.11    0.94
  -9   7   6    0.42    0.69
   9   7   6   -0.69    0.69
   9  -7  -6   -1.39    0.65
  -9  -7   6   -0.54    0.52
   9   7   6    0.49    0.71
  10   7  -6    5.04    1.17
 -10   7   6    5.03    1.10
  10  -7   6    4.78    0.82
  10   7   6    5.85    1.01
  10  -7  -6    4.11    0.96
  10   7   6    4.37    1.05
  11   7  -6    5.27    1.33
 -11   7   6    4.54    1.19
  11  -7  -6    2.73    1.09
  11   7   6    4.63    1.17
   0   8  -6  135.20    4.52
   0  -8   6  142.96    4.59
   0  -8   6  137.37    5.03
   0   8   6  146.56    4.55
   0  -8   6  135.92    4.64
   0   8  -6  140.40    5.24
   1   8  -6    0.96    0.47
   1  -8   6    0.76    0.37
   1  -8   6    1.28    0.43
  -1   8   6    0.76    0.36
   1  -8   6    0.96    0.40
   1   8  -6    1.36    0.36
  -1   8  -6    1.74    0.55
  -1  -8   6    1.40    0.44
   1   8   6    1.98    0.42
  -1  -8   6    0.95    0.35
  -1  -8   6    1.71    0.40
   2   8  -6  302.79   10.32
  -2   8   6  306.41    9.06
   2   8  -6  303.68    9.25
   2  -8   6  294.17    9.23
   2  -8   6  301.18    9.24
   2  -8   6  298.98   10.37
   2   8   6  304.63    9.17
  -2  -8   6  297.78    9.24
  -2  -8   6  297.15    9.21
   2  -8  -6  289.74    8.90
  -2   8  -6  291.40   10.49
   3  -8   6    4.82    0.64
  -3   8   6    4.57    0.59
   3   8  -6    4.44    0.62
   3  -8   6    5.21    0.74
   3  -8   6    4.22    0.64
  -3  -8   6    5.59    0.68
   3   8   6    4.37    0.44
  -3  -8   6    4.40    0.59
   3  -8  -6    5.11    0.55
  -3   8  -6    5.50    0.88
   3   8   6    5.37    0.66
   4  -8   6   17.37    1.37
   4  -8   6   18.25    1.16
   4   8  -6   17.82    1.21
   4  -8   6   19.32    1.18
   4   8   6   19.24    1.19
  -4  -8   6   18.99    1.16
  -4   8  -6   15.39    1.52
  -4  -8   6   19.49    1.15
   4  -8  -6   19.51    0.99
  -5   8   6    4.26    0.50
   5   8  -6    3.09    0.60
   5  -8   6    3.96    0.63
   5  -8   6    4.62    0.83
   5   8  -6    4.02    0.68
   5  -8   6    4.51    0.73
  -5   8  -6    5.55    1.01
  -5  -8   6    3.24    0.58
   5   8   6    4.25    0.71
  -5  -8   6    4.69    0.70
   5  -8  -6    4.17    0.57
   6  -8   6   73.35    2.83
   6  -8   6   75.91    3.04
   6   8  -6   73.77    3.03
   6   8  -6   76.27    3.04
   6  -8   6   74.65    3.49
   6  -8  -6   76.16    2.82
  -6  -8   6   71.37    2.77
   6   8   6   76.30    2.97
  -6   8  -6   81.99    3.72
   7  -8   6    5.28    0.77
   7   8  -6    5.23    0.88
   7  -8   6    3.07    0.95
   7   8  -6    5.37    0.72
   7   8   6    5.38    0.72
  -7  -8   6    5.18    0.67
   7  -8  -6    3.42    0.67
   8  -8   6  104.61    4.67
   8  -8   6  101.68    3.68
   8   8  -6  102.90    4.02
   8   8   6  104.89    3.85
   8  -8  -6  107.33    3.92
  -8  -8   6  104.40    3.61
   8   8   6  105.59    3.85
   9  -8   6   11.85    1.14
   9   8  -6    8.95    1.24
   9   8  -6   11.65    1.45
  -9   8   6   10.22    1.41
   9   8   6   10.01    1.35
   9  -8  -6    9.92    1.37
   9   8   6   10.39    1.40
  -9  -8   6   12.88    1.10
  10  -8   6   61.00    2.46
 -10   8   6   55.83    3.14
  10   8  -6   60.63    3.19
  10   8   6   60.44    2.93
  10  -8  -6   62.42    2.95
 -11   8   6    0.87    1.18
  11   8  -6    1.40    1.35
  11   8   6   -0.63    1.12
  11  -8  -6    2.11    1.11
   0  -9   6    0.32    0.34
   0   9  -6    1.12    0.37
   0   9   6    0.02    0.38
   0  -9   6   -0.08    0.38
   0   9  -6    0.43    0.51
   1  -9   6   14.38    1.12
   1   9  -6   16.47    1.26
   1   9  -6   15.02    0.96
   1  -9   6   16.66    1.03
   1  -9   6   16.04    1.09
  -1   9   6   19.63    1.06
  -1  -9   6   14.98    1.07
  -1   9  -6   15.62    1.32
   1   9   6   15.79    1.04
  -1  -9   6   14.79    1.01
   2   9  -6   33.94    1.76
  -2   9   6   33.54    1.48
   2  -9   6   31.08    1.50
   2  -9   6   32.95    1.77
   2   9  -6   30.98    1.48
   2  -9   6   35.29    1.62
  -2   9  -6   29.92    1.91
  -2  -9   6   32.14    1.51
  -2  -9   6   32.44    1.60
   2   9   6   30.72    1.55
   3  -9   6   26.46    1.46
   3  -9   6   26.52    1.68
  -3   9   6   30.36    1.37
   3   9  -6   27.88    1.61
   3   9  -6   27.29    1.44
   3  -9   6   29.62    1.47
  -3  -9   6   28.36    1.48
   3   9   6   27.89    1.49
   3   9   6   29.29    1.07
  -3  -9   6   27.26    1.41
  -3   9  -6   29.13    1.90
   3  -9  -6   29.59    1.18
   4  -9   6   17.95    1.19
  -4   9   6   16.82    1.04
   4   9  -6   16.17    1.19
   4  -9   6   16.32    1.43
   4  -9   6   18.73    1.21
   4   9   6   17.51    0.86
   4  -9  -6   16.97    0.93
  -4  -9   6   17.69    1.16
  -4  -9   6   15.66    1.15
   4   9   6   15.99    1.22
   5  -9   6   66.55    2.65
   5  -9   6   66.23    2.55
   5   9  -6   61.60    2.62
   5  -9   6   61.70    3.05
   5   9  -6   63.05    2.70
   5  -9  -6   66.02    2.37
  -5  -9   6   62.48    2.51
   5   9   6   62.77    2.65
  -5  -9   6   62.04    2.49
   5   9   6   63.84    2.29
  -5   9  -6   57.09    3.17
   6   9  -6    6.61    0.83
   6  -9   6    4.50    1.00
   6  -9   6    6.20    0.93
   6   9  -6    5.00    0.82
   6  -9   6    6.27    0.84
   6   9   6    6.56    0.71
   6  -9  -6    6.85    0.83
  -6  -9   6    5.65    0.73
   7  -9   6    2.40    0.88
   7   9  -6    3.11    0.69
   7   9  -6    2.15    0.77
   7  -9   6    2.73    0.66
  -7  -9   6    3.38    0.66
   7   9   6    2.88    0.64
   7  -9  -6    3.06    0.63
   8   9  -6   11.55    1.53
   8  -9   6   11.65    1.18
   8   9  -6   11.72    1.31
   8   9   6   12.93    1.29
   8  -9  -6   10.06    1.23
  -8  -9   6   12.94    1.18
   9   9  -6    6.59    1.17
  -9   9   6    4.48    1.03
   9  -9   6    5.06    0.86
   9   9   6    4.31    0.99
   9  -9  -6    6.39    1.01
  -9  -9   6    6.70    0.89
 -10   9   6    7.39    1.31
  10   9  -6    5.06    1.30
  10  -9  -6    7.44    1.22
  10   9   6    4.36    1.13
   0 -10   6    2.00    0.50
   0  10  -6    1.90    0.41
   0 -10   6    2.89    0.57
   0  10   6    2.50    0.54
   0  10  -6    1.71    0.63
   1  10  -6   51.20    2.38
   1 -10   6   45.34    2.06
  -1  10   6   45.46    1.98
   1 -10   6   48.13    1.97
   1  10  -6   46.71    1.90
  -1 -10   6   48.03    1.95
   1  10   6   46.00    2.04
  -1  10  -6   48.62    2.46
  -1 -10   6   46.83    2.09
   2  10  -6    0.04    0.57
  -2  10   6    0.38    0.46
   2  10  -6    0.34    0.37
   2 -10   6   -0.11    0.42
   2 -10   6    0.68    0.47
  -2 -10   6    0.19    0.47
   2  10   6   -0.26    0.49
  -2  10  -6    0.40    0.68
  -2 -10   6    0.33    0.47
   3  10  -6   34.62    1.91
  -3  10   6   35.87    1.65
   3  10  -6   35.66    1.68
   3 -10   6   33.87    1.69
   3 -10   6   35.85    1.98
   3 -10   6   38.70    1.79
  -3 -10   6   37.00    1.66
  -3  10  -6   34.69    2.24
  -3 -10   6   37.92    1.79
   3 -10  -6   36.06    1.36
   4 -10   6   57.26    2.72
   4  10  -6   55.02    2.51
  -4  10   6   57.88    2.19
   4 -10   6   54.94    2.32
   4  10  -6   54.88    2.33
   4 -10   6   55.79    2.33
   4  10   6   54.10    1.94
   4  10   6   56.97    1.92
  -4 -10   6   54.38    2.32
   4 -10  -6   56.38    2.03
  -4 -10   6   53.78    2.24
   4  10   6   52.76    2.42
   5 -10   6    1.66    0.58
   5  10  -6    2.41    0.64
  -5  10   6    2.12    0.55
   5 -10   6    1.27    0.67
   5  10  -6    2.18    0.66
  -5 -10   6    1.21    0.55
   5 -10  -6    1.09    0.44
   5  10   6    1.15    0.41
  -5 -10   6    1.92    0.61
   6 -10   6   65.36    2.91
   6  10  -6   68.68    2.91
   6  10  -6   66.33    2.87
   6 -10   6   65.58    2.65
   6  10   6   67.26    2.51
  -6 -10   6   64.97    2.67
   6 -10  -6   67.58    2.56
   7  10  -6   22.56    1.75
   7 -10   6   22.58    1.43
   7  10  -6   21.14    1.56
   7 -10  -6   21.65    1.40
  -7 -10   6   22.92    1.48
   7  10   6   21.50    1.40
   8  10  -6   14.95    1.52
   8  10  -6   18.17    1.81
   8 -10   6   17.27    1.37
  -8 -10   6   18.15    1.43
   8 -10  -6   17.11    1.45
   8  10   6   17.87    1.49
   9 -10   6    6.40    0.93
   9  10  -6    7.14    1.28
   9 -10  -6    6.57    1.07
   9  10   6    5.58    1.10
 -10  10   6   -0.69    1.05
  10  10  -6    0.07    1.26
  10  10   6    0.42    1.08
  10 -10  -6    0.69    1.01
   0  11   6    0.73    0.57
   0  11  -6    0.26    0.31
   0  11  -6   -0.90    0.66
   0 -11   6    0.62    0.47
   0 -11   6   -0.51    0.45
  -1  11   6    2.52    0.61
   1  11  -6    3.46    0.81
   1 -11   6    2.59    0.65
   1 -11   6    2.99    0.59
   1  11  -6    2.48    0.47
  -1 -11   6    2.93    0.59
  -1 -11   6    2.04    0.61
   1  11   6    4.12    0.73
  -1  11  -6    1.67    0.81
   2 -11   6   27.34    1.54
   2  11  -6   26.54    1.76
   2  11  -6   24.94    1.35
   2 -11   6   28.19    1.48
  -2  11   6   26.83    1.50
  -2  11  -6   27.76    2.04
  -2 -11   6   27.45    1.55
  -2 -11   6   29.48    1.45
   3 -11   6    0.67    0.53
   3  11  -6    0.10    0.44
   3 -11   6    0.58    0.52
  -3  11   6   -0.29    0.55
   3  11  -6   -0.63    0.64
  -3 -11   6    1.29    0.54
  -3  11  -6   -0.24    0.90
  -3 -11   6    0.17    0.49
   4 -11   6   35.98    1.85
   4  11  -6   35.74    2.02
   4 -11   6   36.48    1.84
   4  11  -6   38.04    1.83
  -4  11   6   36.23    1.73
   4 -11  -6   37.48    1.47
   4  11   6   33.63    1.32
  -4 -11   6   37.21    1.76
  -4 -11   6   39.72    1.88
   5 -11   6   18.27    1.48
  -5  11   6   17.86    1.29
   5 -11   6   18.77    1.32
   5  11  -6   17.72    1.38
   5  11  -6   17.08    1.51
   5 -11  -6   18.70    1.08
   5  11   6   17.97    1.05
  -5 -11   6   17.34    1.36
  -5 -11   6   18.97    1.38
   6  11  -6    2.20    0.80
   6  11  -6    3.06    0.75
   6 -11   6    1.55    0.67
   6 -11  -6    1.50    0.57
  -6 -11   6    0.94    0.66
   6  11   6    2.08    0.56
   7  11  -6    0.58    0.80
   7 -11   6   -1.06    0.64
   7  11  -6    0.67    0.82
   7  11   6   -0.86    0.61
   7 -11  -6   -0.36    0.59
   8 -11   6    0.51    0.71
   8  11  -6    0.36    0.93
   8  11   6   -1.17    0.76
  -8 -11   6    0.00    0.75
   8 -11  -6   -0.56    0.73
   9 -11   6   -0.39    0.81
   9  11  -6   -0.18    1.10
  -9 -11   6   -1.11    0.84
   9  11   6    0.09    1.03
   9 -11  -6    0.93    0.90
   0  12   6   43.78    2.12
   0 -12   6   44.39    2.09
   0  12  -6   41.39    2.46
   0 -12   6   41.99    1.88
   1  12  -6    6.35    1.08
   1  12  -6    8.86    0.81
  -1  12   6    9.66    1.06
   1 -12   6    7.01    0.87
   1 -12   6    6.29    0.75
  -1 -12   6    7.04    0.78
  -1 -12   6    7.95    1.04
  -1  12  -6    7.32    1.20
   2 -12   6   11.25    1.15
  -2  12   6   12.77    1.29
   2  12  -6   13.00    1.59
   2  12  -6   13.07    0.97
   2 -12   6   12.41    1.13
  -2  12  -6   13.65    1.90
  -2 -12   6   12.18    1.19
  -2 -12   6   11.17    1.08
   3 -12   6   20.33    1.41
   3  12  -6   20.57    1.28
   3 -12   6   20.06    1.39
   3  12  -6   22.19    1.74
  -3  12   6   19.24    1.44
  -3 -12   6   21.29    1.34
  -3 -12   6   21.70    1.46
   4  12  -6  146.36    5.59
   4  12  -6  144.20    4.96
  -4  12   6  149.53    4.95
   4 -12   6  138.78    4.99
   4 -12   6  145.45    5.04
  -4 -12   6  147.94    4.89
   4 -12  -6  146.81    4.54
  -4 -12   6  140.40    5.13
   5  12  -6    0.52    0.64
  -5  12   6    0.86    0.77
   5 -12   6    1.65    0.67
   5 -12   6   -0.93    0.86
   5  12  -6    0.68    0.84
   5  12   6    0.90    0.42
  -5 -12   6    1.43    0.72
   5  12   6   -0.09    0.44
   5 -12  -6    0.33    0.45
   6  12  -6   65.00    3.13
   6 -12   6   69.81    2.84
   6  12  -6   65.04    2.93
   6 -12  -6   71.30    2.62
  -6 -12   6   67.61    2.86
   6  12   6   66.93    2.54
   7 -12   6   16.59    1.48
   7  12  -6   17.25    1.78
  -7 -12   6   18.91    1.53
   7  12   6   17.93    1.47
   7 -12  -6   16.64    1.35
   8 -12   6    9.87    1.14
   8  12  -6    8.88    1.35
   8 -12  -6    8.75    1.06
   8  12   6    7.50    1.09
  -8 -12   6    7.92    1.07
   9 -12   6    2.61    1.05
   9  12  -6    2.49    1.37
   9 -12  -6    2.47    0.99
   9  12   6   -0.16    1.15
  -9 -12   6   -0.52    0.97
   0 -13   6   -1.35    0.58
   0 -13   6   -0.57    0.56
   0  13  -6   -0.86    0.95
   1 -13   6   -0.04    0.63
   1  13  -6    0.19    0.40
   1 -13   6    0.32    0.60
  -1 -13   6   -0.26    0.64
   2 -13   6   34.17    1.90
   2  13  -6   32.03    1.57
   2 -13   6   33.74    1.80
   2  13  -6   32.87    2.35
  -2 -13   6   34.57    2.00
  -2 -13   6   35.38    1.72
  -3  13   6    2.07    0.87
   3  13  -6    3.85    1.00
   3 -13   6    2.59    0.74
   3 -13   6    0.43    0.75
   3  13  -6    1.34    0.57
  -3 -13   6    1.37    0.71
  -3 -13   6    3.04    0.77
   4 -13   6   22.18    1.56
   4  13  -6   23.17    2.02
  -4  13   6   21.51    1.72
   4 -13   6   18.84    1.66
   4  13  -6   22.89    1.47
  -4 -13   6   23.13    1.52
  -4 -13   6   22.60    1.60
   5 -13   6    4.06    0.84
   5 -13   6    4.21    1.10
   5  13  -6    3.99    1.14
   5  13  -6    4.46    0.82
  -5  13   6    5.75    1.04
   5 -13  -6    3.80    0.58
  -5 -13   6    5.99    0.91
   6  13  -6    0.50    0.83
   6 -13   6   -0.20    0.75
   6  13   6    0.15    0.62
   6 -13  -6   -0.82    0.57
  -6 -13   6   -0.77    0.74
   7  13   6    0.85    0.79
  -7 -13   6    0.13    0.85
   7 -13  -6    0.20    0.75
   8  13  -6   24.06    2.32
  -8 -13   6   30.28    2.06
   8 -13  -6   27.12    1.92
   0 -14   6    0.75    0.71
   0 -14   6    1.29    0.69
   1 -14   6    7.32    1.01
   1 -14   6    6.24    0.88
  -1 -14   6    6.65    0.86
  -1 -14   6    7.65    1.04
   2  14  -6   29.65    2.51
   2 -14   6   28.55    1.80
   2 -14   6   30.50    1.84
   2  14  -6   30.18    1.51
  -2 -14   6   27.95    1.66
  -2 -14   6   31.17    1.87
   3 -14   6    2.44    0.78
   3 -14   6    3.38    0.94
   3  14  -6    4.00    0.69
   3  14  -6    3.59    1.22
  -3 -14   6    3.79    0.85
  -3 -14   6    4.46    0.80
   4 -14   6   49.01    2.41
   4 -14   6   45.30    2.44
   4  14  -6   48.19    2.98
   4  14  -6   49.91    2.25
  -4 -14   6   54.08    2.32
  -4 -14   6   52.56    2.51
   5  14  -6   -0.93    0.73
   5  14  -6   -2.07    1.21
   5 -14   6    0.87    0.76
  -5  14   6    0.57    1.29
  -5 -14   6   -1.60    0.80
   6 -14   6   91.95    3.63
   6  14  -6   87.01    3.65
  -6 -14   6   89.49    3.64
   7 -14   6    4.41    1.01
   7  14  -6    1.38    1.09
  -7 -14   6    2.50    1.08
   8  14  -6   11.32    1.57
   8 -14   6   10.95    1.30
  -8 -14   6   11.43    1.41
   0 -15   6   -0.16    0.67
   0 -15   6   -1.79    0.82
   1 -15   6    5.58    0.98
   1 -15   6    3.85    0.89
  -1 -15   6    5.02    1.00
  -1 -15   6    6.75    0.88
   2 -15   6   19.81    1.61
   2  15  -6   17.42    1.21
   2 -15   6   16.59    1.66
  -2 -15   6   14.74    1.56
  -2 -15   6   17.18    1.63
   3 -15   6    0.12    0.72
   3  15  -6    0.78    0.61
  -3 -15   6    0.19    0.81
   4 -15   6   22.82    1.80
   4  15  -6   24.46    1.60
  -4 -15   6   26.00    1.95
   5 -15   6    6.61    1.05
   5  15  -6    8.28    1.07
  -5 -15   6    9.07    1.25
   6 -15   6    6.96    1.11
   6  15  -6    4.45    1.13
  -6 -15   6    4.78    1.09
   7 -15   6    5.44    1.15
   7  15  -6    2.86    1.20
  -7 -15   6    5.06    1.22
   0 -16   6   82.02    3.52
   1 -16   6   11.31    1.52
  -1 -16   6   11.20    1.54
   2 -16   6   37.08    2.23
  -2 -16   6   40.19    2.38
   3 -16   6    9.84    1.21
   3  16  -6    9.58    0.97
  -3 -16   6    9.43    1.29
   4 -16   6   10.24    1.26
   4  16  -6   11.54    1.38
  -4 -16   6   12.93    1.47
   5 -16   6    2.72    1.03
   5  16  -6    0.16    0.93
  -5 -16   6    1.49    1.09
   6 -16   6    6.40    1.24
  -6 -16   6    4.95    1.23
   0 -17   6    0.85    0.98
   1 -17   6    6.20    1.16
  -1 -17   6    6.07    1.19
   2 -17   6   -0.18    0.96
  -2 -17   6   -0.88    1.01
   3 -17   6    3.02    1.05
  -3 -17   6    2.06    1.15
   4 -17   6    8.77    1.29
  -4 -17   6    7.15    1.31
   0 -18   6   36.14    2.50
   1 -18   6    9.30    1.45
  -1 -18   6    9.64    1.47
   2 -18   6   11.98    1.47
  -2 -18   6   11.02    1.54
   0   0  -7   -0.20    0.16
   0   0   7   -0.14    0.19
   0   0  -7   -0.19    0.16
   0   0   7   -0.18    0.19
   1   0  -7   -0.26    0.17
  -1   0  -7    0.03    0.19
  -1   0   7   -0.37    0.20
   1   0  -7   -0.18    0.19
   1   0   7   -0.19    0.21
   1   0   7    0.16    0.20
  -1   0   7   -0.34    0.21
   2   0   7    0.01    0.20
  -2   0   7   -0.09    0.21
   2   0  -7   -0.05    0.19
   2   0  -7    0.08    0.24
  -2   0   7   -0.11    0.22
   2   0   7   -0.06    0.23
  -2   0  -7    0.03    0.19
   3   0  -7    0.04    0.21
  -3   0  -7   -0.19    0.19
   3   0  -7   -0.07    0.23
  -3   0   7   -0.29    0.24
  -3   0   7    0.09    0.25
   3   0   7    0.22    0.27
   4   0  -7   -0.37    0.21
  -4   0  -7    0.21    0.23
   4   0   7   -0.03    0.32
  -4   0   7    0.05    0.30
  -4   0   7    0.06    0.27
   4   0  -7    0.16    0.30
   5   0  -7    0.71    0.35
   5   0   7   -0.32    0.37
  -5   0   7   -0.03    0.23
  -5   0   7    0.35    0.31
  -5   0   7    0.69    0.35
  -5   0  -7    0.11    0.23
   6   0   7    0.24    0.45
   6   0  -7    1.19    0.47
  -6   0  -7   -0.08    0.23
  -6   0   7   -0.02    0.34
   7   0   7   -0.64    0.52
   7   0  -7   -0.04    0.38
  -7   0   7    0.10    0.40
   8   0  -7   -0.02    0.46
  -8   0   7   -0.12    0.45
   8   0   7    0.04    0.65
  -8   0   7   -0.37    0.53
  -9   0   7    1.06    0.49
  -9   0   7    1.01    0.60
   9   0   7    0.01    0.77
   9   0  -7    1.10    0.63
  10   0  -7   -1.17    0.64
  10   0   7   -0.16    0.97
  10   0   7    0.02    0.65
  11   0   7   -0.07    1.18
  11   0  -7    0.55    0.92
  12   0   7   -0.79    1.50
  12   0  -7   -1.83    1.05
   0  -1  -7   -0.14    0.16
   0  -1   7   -0.18    0.21
   0   1  -7    0.01    0.20
   0   1  -7    0.11    0.18
   0   1   7    0.31    0.21
   0   1   7   -0.03    0.20
   0  -1  -7    0.04    0.15
   0  -1   7   -0.07    0.19
  -1   1   7  118.08    4.29
   1   1  -7  116.21    3.87
  -1  -1  -7  122.45    4.17
   1  -1   7  114.53    4.34
  -1  -1  -7  114.66    3.79
   1  -1   7  118.50    3.87
  -1   1   7  120.58    3.85
   1   1  -7  120.71    4.26
  -1  -1   7  118.15    4.31
  -1   1  -7  119.18    3.85
  -1  -1   7  121.44    3.90
   1  -1  -7  117.15    3.83
   1   1   7  119.06    3.83
  -1   1  -7  121.04    4.27
   1  -1  -7  125.37    4.22
   1   1   7  122.13    4.30
  -2  -1  -7    4.94    0.43
  -2   1   7    5.29    0.53
   2  -1   7    4.35    0.47
   2   1  -7    5.01    0.49
  -2   1   7    5.75    0.52
   2  -1   7    4.36    0.60
   2   1  -7    5.32    0.56
  -2  -1   7    5.25    0.57
   2   1   7    4.82    0.46
  -2  -1   7    5.48    0.54
   2  -1  -7    5.52    0.48
   2   1   7    4.67    0.55
  -2   1  -7    4.91    0.51
   2  -1  -7    4.46    0.51
  -3   1   7   68.09    2.67
   3   1  -7   67.86    2.47
   3  -1   7   68.21    2.41
   3   1  -7   71.18    2.62
  -3  -1  -7   61.58    2.41
   3  -1   7   65.55    2.72
   3  -1  -7   66.10    2.42
   3   1   7   64.12    2.64
  -3  -1   7   69.53    2.44
  -3   1  -7   72.75    2.62
  -3  -1   7   65.39    2.63
  -4  -1  -7   36.08    1.41
   4   1  -7   38.32    1.64
   4   1  -7   36.40    1.63
  -4   1   7   37.65    1.57
   4  -1   7   36.57    1.81
  -4   1   7   37.59    1.71
  -4  -1   7   34.94    1.65
   4  -1  -7   36.66    1.59
   4   1   7   37.75    1.72
  -4   1  -7   35.87    1.61
  -4  -1   7   38.92    1.60
   5   1  -7   86.50    3.18
  -5   1   7   86.32    3.38
   5  -1   7   92.13    3.56
  -5   1   7   84.40    3.09
   5   1  -7   87.59    3.30
  -5  -1   7   88.30    3.32
   5   1   7   89.10    3.43
   5  -1  -7   88.33    3.16
  -5   1  -7   87.75    3.25
  -5  -1   7   82.45    2.77
  -5  -1   7   88.08    3.13
   6   1  -7   -0.44    0.37
  -6   1   7   -0.19    0.33
   6  -1   7   -0.33    0.43
   6   1   7    0.30    0.47
   6  -1  -7    1.13    0.41
  -6  -1   7   -0.73    0.37
  -6  -1   7   -0.50    0.34
  -6   1  -7    0.35    0.34
   7   1  -7    2.04    0.59
   7  -1   7    2.14    0.69
  -7   1   7    2.22    0.52
  -7   1   7    2.57    0.62
  -7   1  -7    2.14    0.39
   7   1   7    1.96    0.63
   7  -1  -7    1.80    0.54
  -7  -1   7    2.41    0.49
  -7  -1   7    1.67    0.46
   8   1  -7    3.32    0.75
   8  -1   7    3.43    0.85
  -8   1   7    2.23    0.71
  -8   1   7    3.58    0.64
  -8  -1   7    3.26    0.49
   8  -1  -7    1.97    0.60
  -8  -1   7    2.78    0.52
   8   1   7    2.24    0.72
   9  -1   7   94.07    4.14
  -9   1   7   95.08    3.76
   9   1  -7   90.78    3.75
  -9   1   7   94.39    3.62
   9   1   7   91.99    4.02
   9   1   7   93.47    3.21
   9  -1  -7   88.56    3.70
  10  -1   7    2.00    0.63
 -10   1   7   -0.11    0.60
  10   1  -7    0.89    0.75
  10   1   7    1.54    1.02
  10   1   7    2.19    0.73
  10  -1  -7    0.45    0.71
  11   1  -7   57.48    3.13
  11  -1   7   59.89    3.39
  11  -1  -7   55.14    3.01
  11   1   7   59.23    3.37
  12   1  -7   -0.16    1.18
  12  -1   7    0.78    1.59
  12   1   7    2.44    1.51
  12  -1  -7    2.74    1.23
   0  -2   7   27.97    1.16
   0   2  -7   24.00    1.21
   0  -2  -7   22.53    1.01
   0   2  -7   23.57    1.09
   0  -2   7   27.81    1.32
   0   2   7   25.80    1.07
   0   2   7   26.00    1.20
   1  -2   7   54.72    2.24
   1  -2   7   53.61    1.96
  -1   2   7   54.00    2.15
  -1   2   7   56.15    1.92
   1   2  -7   52.22    2.14
   1   2  -7   50.98    1.95
  -1  -2  -7   53.02    1.85
  -1  -2   7   54.28    1.99
   1   2   7   52.49    2.11
  -1   2  -7   55.39    2.18
  -1  -2   7   49.42    2.16
   1   2   7   54.64    1.88
   1  -2  -7   52.76    1.88
  -1   2  -7   50.88    1.92
   2   2  -7    1.69    0.36
  -2   2   7    2.98    0.46
  -2   2   7    2.63    0.38
   2   2  -7    1.77    0.33
  -2  -2   7    2.03    0.40
  -2   2  -7    1.84    0.37
   2   2   7    3.37    0.45
   2  -2  -7    2.36    0.37
   3  -2   7  304.55    9.89
   3   2  -7  264.73    8.79
  -3   2   7  275.26    9.73
   3  -2   7  284.56    8.77
   3   2  -7  286.83    9.67
  -3   2   7  282.93    8.75
   3   2   7  280.25    8.69
  -3  -2   7  282.62    9.68
  -3   2  -7  287.83    9.73
   3   2   7  316.03    9.70
  -3  -2   7  281.54    8.79
   3  -2  -7  274.26    8.73
   4   2  -7  177.99    5.89
  -4   2   7  182.58    5.80
   4  -2   7  176.04    6.57
  -4   2   7  184.55    6.47
   4  -2   7  183.40    5.85
  -4   2  -7  192.32    6.46
  -4  -2   7  182.84    5.86
   4  -2  -7  176.50    5.82
   4   2   7  182.26    6.39
  -4  -2   7  181.24    5.60
  -4  -2   7  186.39    6.36
   5   2  -7   18.90    1.08
   5   2  -7   18.15    1.16
   5  -2   7   19.71    1.33
  -5   2   7   19.41    1.15
  -5  -2   7   19.15    0.88
  -5   2  -7   19.88    1.17
  -5  -2   7   18.32    1.11
   5  -2  -7   19.68    1.13
   5   2   7   17.22    1.13
  -5  -2   7   18.71    1.06
  -6   2   7   95.73    3.77
   6   2  -7   98.48    3.59
   6  -2   7   99.61    4.00
   6   2  -7   98.75    3.67
   6  -2  -7  100.77    3.54
  -6  -2   7   98.22    3.50
  -6  -2   7   92.93    3.07
  -6  -2   7   95.85    3.53
   6   2   7   93.87    3.76
   7   2  -7   18.71    1.34
  -7   2   7   16.73    1.41
  -7   2   7   18.75    1.23
   7  -2   7   16.90    1.49
   7  -2  -7   15.56    1.23
  -7  -2   7   19.80    0.96
  -7  -2   7   19.23    0.82
   7   2   7   18.75    1.35
  -7   2  -7   16.84    1.18
  -8   2   7   40.74    2.19
   8   2  -7   39.00    2.12
   8  -2   7   40.55    2.36
  -8   2   7   39.78    2.00
  -8   2  -7   40.06    1.81
   8   2   7   42.37    2.20
   8   2   7   41.61    1.72
   8  -2  -7   41.18    2.08
   9   2  -7    1.58    0.75
   9  -2   7    1.41    0.86
  -9   2   7    1.17    0.87
  -9   2   7    0.21    0.57
   9   2   7    1.15    0.58
   9  -2  -7    0.39    0.60
   9   2   7    0.22    0.75
  10  -2   7    6.52    1.33
 -10   2   7   13.68    1.29
  10   2  -7    8.16    1.24
 -10   2   7   10.16    1.27
  10   2   7    9.34    1.29
  10  -2  -7   10.65    1.45
  10   2   7    9.81    1.31
  11  -2   7    0.90    1.25
  11   2  -7    3.81    1.15
  11  -2  -7    2.72    1.02
  12  -2   7    3.98    1.63
  12   2  -7    6.36    1.48
  12   2   7    3.70    1.55
  12  -2  -7    3.91    1.29
   0   3  -7   -0.43    0.20
   0  -3  -7   -0.08    0.18
   0   3  -7   -0.17    0.24
   0  -3   7   -0.41    0.23
   0   3   7   -0.28    0.19
   0  -3   7   -0.39    0.24
   0   3   7    0.17    0.19
   1  -3   7  367.52   10.94
   1  -3   7  359.54   12.23
   1   3  -7  359.81   10.95
   1   3  -7  368.85   12.16
  -1   3   7  373.52   10.84
  -1   3   7  358.46   12.11
  -1  -3  -7  348.19   10.77
  -1   3  -7  343.22   12.17
  -1  -3   7  369.25   10.97
   1   3   7  338.73   12.03
   1  -3  -7  373.76   10.82
   1   3   7  351.69   10.80
  -1  -3   7  389.45   12.19
  -1   3  -7  350.24   10.90
   2   3  -7   57.01    2.28
  -2   3   7   54.93    2.00
   2   3  -7   56.20    2.14
   2  -3   7   58.06    2.44
   2  -3   7   55.43    2.12
  -2   3   7   55.92    2.29
   2  -3  -7   52.37    2.00
  -2  -3   7   56.14    2.15
   2   3   7   57.23    1.98
  -2   3  -7   66.16    2.42
   2   3   7   54.87    2.19
  -2  -3   7   57.23    2.29
   3   3  -7  348.73   10.79
   3  -3   7  353.58   10.74
  -3   3   7  343.63   10.63
   3   3  -7  351.54   11.85
  -3   3   7  355.80   11.92
  -3  -3   7  362.98   10.77
  -3  -3   7  338.02   11.79
   3   3   7  351.01   11.76
   3  -3  -7  353.46   10.67
   3   3   7  358.99   10.62
   4  -3   7    0.83    0.33
   4   3  -7    0.02    0.34
  -4   3   7   -0.07    0.28
  -4  -3   7   -0.02    0.32
   4   3   7    0.09    0.27
  -4  -3   7    0.21    0.29
   4  -3  -7    0.53    0.29
  -4  -3   7    0.04    0.28
  -5   3   7   23.57    0.82
   5   3  -7   23.04    1.32
   5   3  -7   24.21    1.25
   5  -3   7   24.60    1.53
  -5   3   7   23.66    1.35
  -5  -3   7   23.65    1.15
   5  -3  -7   22.53    1.24
  -5   3  -7   27.78    1.46
  -5  -3   7   23.73    1.28
  -5  -3   7   22.79    1.07
   5   3   7   23.08    1.25
   6   3  -7   11.01    0.88
   6   3  -7   10.34    1.00
  -6   3   7   10.58    0.96
   6  -3   7   10.71    1.20
   6   3   7   12.78    0.99
  -6  -3   7   10.52    0.70
  -6   3  -7   13.00    1.10
   6  -3  -7   11.48    0.95
  -6  -3   7   11.67    0.99
  -7   3   7   21.31    1.61
   7   3  -7   20.01    1.39
  -7   3   7   20.31    1.35
   7   3  -7   21.70    1.28
   7  -3   7   22.60    1.65
   7  -3  -7   22.06    1.37
   7   3   7   19.74    1.10
  -7  -3   7   22.28    0.97
   7   3   7   21.47    1.39
  -7   3  -7   21.83    1.44
   8   3  -7    6.41    0.89
  -8   3   7    6.60    0.95
  -8   3   7    6.73    1.00
   8  -3   7    6.76    1.10
   8   3   7    5.36    0.69
  -8   3  -7    6.79    0.85
  -8  -3   7    6.61    0.54
   8   3   7    5.69    0.86
   8  -3  -7    5.47    0.77
  -9   3   7   14.31    1.79
  -9   3   7   13.28    1.31
   9   3  -7   15.04    1.51
   9  -3  -7   14.31    1.39
  -9   3  -7   14.74    1.38
   9   3   7   14.19    1.22
   9   3   7   14.69    1.56
  10  -3   7    0.79    0.98
 -10   3   7    0.87    1.21
 -10   3   7    1.05    0.75
  10   3  -7    2.33    0.91
  10  -3  -7    1.60    0.81
  10   3   7    1.52    0.97
  10   3   7    1.06    0.86
 -11   3   7   56.22    2.87
  11  -3   7   60.94    3.60
  11   3  -7   60.97    3.21
  11  -3  -7   59.60    3.10
  11   3   7   59.37    3.35
  12   3  -7    0.19    1.23
  12  -3   7    0.33    1.53
  12  -3  -7   -0.54    1.15
  12   3   7    0.39    1.47
   0   4   7  100.96    3.20
   0  -4   7   89.53    3.71
   0   4  -7  104.15    3.78
   0  -4  -7   95.06    3.14
   0   4   7  103.62    3.62
   0   4  -7  102.27    3.35
   1   4  -7   51.27    2.22
  -1   4   7   54.80    2.17
   1   4  -7   54.35    2.04
   1  -4   7   50.36    2.28
  -1   4   7   56.79    1.89
   1   4   7   55.06    2.10
  -1   4  -7   54.82    2.00
   1  -4  -7   50.31    1.85
   1   4   7   57.83    1.88
  -1  -4   7   53.01    2.22
  -2   4   7  103.02    3.72
  -2   4   7  105.96    3.26
   2  -4   7   98.82    3.38
   2  -4   7   88.02    3.81
   2   4  -7  105.12    3.74
   2   4  -7   98.40    3.42
  -2   4  -7   95.81    3.81
  -2  -4   7   98.38    3.67
   2   4   7   97.03    3.57
   2  -4  -7  103.53    3.28
   2   4   7  102.35    3.23
  -2  -4   7  100.39    3.41
  -3   4   7   79.97    2.51
   3   4  -7   80.16    3.07
  -3   4   7   81.57    2.72
   3  -4   7   80.82    2.85
  -3   4   7   82.67    3.12
   3  -4   7   80.76    3.28
   3   4  -7   81.04    2.90
   3  -4  -7   79.90    2.75
  -3  -4   7   82.17    2.86
   3   4   7   81.17    2.69
  -3  -4   7   77.99    2.75
  -3  -4   7   77.42    2.97
  -3   4  -7   71.53    3.17
   3   4   7   79.81    2.93
   4  -4   7  177.33    6.38
  -4   4   7  179.80    6.21
   4  -4   7  179.26    5.63
  -4   4   7  174.65    5.16
   4   4  -7  167.27    5.66
   4  -4  -7  168.77    5.52
  -4  -4   7  171.34    5.60
  -4   4  -7  181.95    6.32
  -4  -4   7  172.88    5.41
   4   4   7  160.01    5.94
  -4  -4   7  168.20    5.91
   5   4  -7    1.23    0.38
  -5   4   7    1.78    0.45
  -5   4   7    1.61    0.23
   5  -4   7    1.79    0.55
   5   4  -7    1.37    0.46
   5   4   7    1.60    0.39
   5  -4  -7    1.40    0.41
  -5  -4   7    2.20    0.52
  -5  -4   7    0.99    0.34
  -5   4  -7    1.28    0.53
   6   4  -7   22.15    1.26
   6  -4   7   21.57    1.60
  -6   4   7   21.92    1.38
   6   4  -7   23.97    1.42
   6   4   7   22.06    1.14
   6  -4  -7   22.17    1.29
   6   4   7   20.71    1.24
  -6   4  -7   26.08    1.58
  -6  -4   7   22.68    1.34
  -6  -4   7   22.92    1.07
  -7   4   7   15.24    1.19
  -7   4   7   11.62    1.48
   7  -4   7   15.20    1.47
   7   4  -7   14.12    1.17
   7   4  -7   16.48    1.28
  -7   4  -7   12.97    1.38
   7   4   7   14.51    1.01
   7   4   7   15.48    1.16
  -7  -4   7   14.48    0.85
   7  -4  -7   14.81    1.16
  -8   4   7   15.21    1.32
   8   4  -7   17.09    1.46
   8  -4   7   17.25    1.71
  -8   4   7   16.36    2.06
   8   4   7   14.63    1.18
   8  -4  -7   15.18    1.27
   8   4   7   13.90    1.34
  -8   4  -7   14.84    1.54
  -8  -4   7   15.80    0.86
   9   4  -7   22.63    1.75
  -9   4   7   20.57    1.59
  -9   4   7   25.33    2.16
   9  -4   7   22.34    2.07
   9  -4  -7   22.01    1.62
   9   4   7   19.96    1.72
   9   4   7   20.98    1.48
  -9   4  -7   23.43    1.82
  10   4  -7   40.96    2.50
 -10   4   7   40.23    2.30
  10  -4   7   44.63    2.84
 -10   4   7   42.97    2.95
  10  -4  -7   38.43    2.30
  10   4   7   40.80    2.50
 -11   4   7    2.70    1.00
  11   4  -7    4.88    1.27
  11  -4   7    2.13    1.40
  11   4   7    4.17    1.32
  11  -4  -7    3.50    1.08
   0   5   7   -0.06    0.19
   0   5  -7   -0.18    0.23
   0   5   7    0.01    0.19
   0  -5   7    0.24    0.30
   0  -5   7    0.40    0.33
   1  -5   7    0.47    0.36
  -1   5   7    0.90    0.23
   1   5  -7    0.23    0.33
   1   5  -7    0.40    0.27
   1  -5   7    0.53    0.32
  -1   5  -7    0.49    0.27
   1  -5  -7    0.48    0.22
   1   5   7    0.69    0.22
  -1  -5   7    0.53    0.32
  -1  -5   7    0.25    0.32
   2  -5   7   24.26    1.40
   2   5  -7   23.98    1.20
  -2   5   7   24.77    1.01
   2   5  -7   23.99    1.27
   2  -5   7   23.38    1.18
  -2   5   7   24.88    0.97
  -2  -5   7   24.46    1.20
  -2   5  -7   21.95    1.36
  -2  -5   7   22.37    1.19
   2   5   7   23.44    0.99
  -2  -5   7   22.53    1.17
   2  -5  -7   24.97    1.04
   2   5   7   23.62    1.09
   3   5  -7  162.35    5.39
   3   5  -7  170.34    5.90
  -3   5   7  166.18    5.00
   3  -5   7  165.21    5.34
   3  -5   7  159.03    6.05
  -3   5   7  161.49    5.15
  -3  -5   7  165.99    5.34
   3   5   7  168.23    5.65
  -3  -5   7  158.97    5.22
   3   5   7  170.23    5.15
   3  -5  -7  161.03    5.19
   3   5   7  164.53    5.15
  -3  -5   7  164.00    5.67
  -3   5  -7  166.29    6.04
  -4   5   7   20.65    1.21
  -4   5   7   20.09    0.83
   4   5  -7   19.69    1.20
   4  -5   7   19.56    1.16
   4  -5   7   19.49    1.37
  -4   5  -7   19.01    1.37
   4   5   7   18.75    0.99
  -4  -5   7   21.03    0.90
   4  -5  -7   18.56    1.04
  -4  -5   7   18.14    1.04
  -4  -5   7   19.89    1.16
   4   5   7   21.96    1.01
  -5   5   7  173.48    6.43
   5  -5   7  179.87    6.68
   5   5  -7  185.40    6.33
   5  -5   7  183.16    5.90
   5   5  -7  177.02    5.94
  -5   5   7  178.87    5.34
  -5  -5   7  176.28    5.61
  -5  -5   7  182.35    5.86
  -5   5  -7  172.46    6.58
   5  -5  -7  172.68    5.77
   5   5   7  174.34    6.16
   5   5   7  187.87    5.66
   6   5  -7   11.59    1.08
   6  -5   7    8.51    1.21
   6   5  -7   12.81    0.95
  -6   5   7    7.68    0.93
  -6  -5   7   10.26    0.78
   6  -5  -7    9.43    0.91
   6   5   7   11.56    0.87
   6   5   7   12.06    0.89
  -6  -5   7    9.63    1.05
  -6   5  -7    8.46    1.28
   7   5  -7   96.33    3.73
  -7   5   7   97.47    4.15
   7   5  -7   95.81    3.72
  -7   5   7   96.46    3.92
   7  -5   7   96.18    4.21
  -7   5  -7   95.44    4.06
   7   5   7   92.44    3.67
   7  -5  -7  102.09    3.62
  -7  -5   7   95.79    3.22
   7   5   7   97.02    3.41
   8   5  -7   -0.17    0.60
  -8   5   7   -0.54    1.00
   8   5  -7    0.57    0.57
  -8   5   7    0.12    0.58
   8   5   7    0.08    0.63
   8  -5  -7    0.14    0.54
  -8   5  -7    0.88    0.88
  -8  -5   7   -0.66    0.41
   8   5   7    0.51    0.62
   9   5  -7    4.01    0.92
  -9   5   7    3.77    0.83
   9  -5   7    2.64    1.05
  -9   5  -7    5.55    1.15
   9   5   7    3.02    0.86
   9  -5  -7    3.09    0.73
   9   5   7    3.45    0.93
  10  -5   7   -0.09    1.10
 -10   5   7   -0.44    0.79
  10   5  -7   -0.43    0.85
  10  -5  -7    0.39    0.75
  10   5   7    0.95    0.96
  11   5  -7   -0.83    1.05
  11  -5   7    0.39    1.35
  11   5   7    1.22    1.25
  11  -5  -7    1.00    1.02
   0   6   7    1.63    0.26
   0  -6   7    1.84    0.42
   0  -6  -7    2.20    0.29
   0  -6   7    1.13    0.36
   0   6  -7    1.22    0.43
   0   6  -7    1.49    0.34
   0   6   7    1.45    0.30
  -1   6   7    1.92    0.26
  -1   6   7    1.98    0.33
   1  -6   7    2.31    0.50
   1  -6   7    2.10    0.44
   1   6  -7    2.08    0.44
   1   6  -7    2.27    0.50
  -1  -6   7    2.51    0.44
   1   6   7    2.55    0.36
  -1  -6   7    1.46    0.42
   1   6   7    2.75    0.38
  -1  -6   7    2.25    0.44
  -1   6  -7    1.97    0.38
  -1   6  -7    2.51    0.53
   2  -6   7    4.92    0.73
   2   6  -7    5.53    0.66
  -2   6   7    5.06    0.47
  -2   6   7    5.10    0.44
   2  -6   7    4.58    0.63
   2  -6  -7    4.18    0.48
  -2   6  -7    7.02    0.87
  -2  -6   7    5.05    0.70
  -2  -6   7    4.65    0.60
  -2  -6   7    3.99    0.57
   2   6   7    4.75    0.44
   2   6   7    4.32    0.53
  -3   6   7   53.88    1.87
   3  -6   7   54.34    2.50
   3  -6   7   52.24    2.12
   3   6  -7   52.02    2.16
  -3  -6   7   54.83    2.14
   3   6   7   51.36    2.04
  -3  -6   7   51.68    2.08
  -3  -6   7   55.79    2.06
   3   6   7   54.96    2.01
  -3   6  -7   51.47    2.49
   3   6   7   57.48    1.91
   3  -6  -7   54.31    1.97
   4   6  -7    7.20    0.82
   4  -6   7    7.89    0.84
  -4   6   7    6.96    0.55
   4  -6   7    6.98    0.98
   4   6  -7    7.57    0.78
   4  -6  -7    7.88    0.69
   4   6   7    6.50    0.69
  -4   6  -7    5.36    0.85
   4   6   7    7.46    0.58
  -4  -6   7    6.05    0.82
  -4  -6   7    6.05    0.71
   5   6  -7    1.41    0.44
  -5   6   7    1.96    0.31
   5   6  -7    2.13    0.54
   5  -6   7    1.85    0.64
   5  -6   7    1.33    0.53
   5   6   7    1.79    0.36
  -5  -6   7    1.18    0.40
   5   6   7    1.66    0.47
  -5  -6   7    1.69    0.54
  -5   6  -7    1.14    0.67
   5  -6  -7    1.54    0.43
   6   6  -7    1.36    0.55
   6  -6   7    1.77    0.57
   6  -6   7    0.74    0.68
  -6   6   7    1.65    0.51
   6  -6  -7    1.08    0.45
   6   6   7    1.22    0.50
  -6  -6   7    1.07    0.45
  -6  -6   7    1.78    0.59
   6   6   7    1.44    0.42
  -6   6  -7   -0.11    0.76
  -7   6   7    1.16    0.53
   7   6  -7   -0.52    0.58
   7  -6   7    0.88    0.71
  -7   6   7    0.22    0.89
   7   6  -7    0.43    0.47
   7  -6  -7    0.85    0.52
   7   6   7    1.01    0.61
  -7   6  -7    1.62    0.90
  -7  -6   7    1.19    0.45
   7   6   7    1.24    0.51
   8   6  -7    3.05    0.73
  -8   6   7    3.50    0.81
   8  -6   7    2.55    0.92
  -8   6  -7    1.42    1.09
   8  -6  -7    3.12    0.74
   8   6   7    3.44    0.71
   8   6   7    3.68    0.82
  -8  -6   7    3.35    0.55
  -9   6   7    2.47    0.82
   9  -6   7    0.72    0.96
   9   6  -7    1.54    0.77
   9  -6  -7    1.09    0.69
  -9   6  -7   -0.09    1.27
  -9  -6   7    1.61    0.53
   9   6   7    0.95    0.79
 -10   6   7    1.84    0.90
  10  -6   7    1.30    1.18
  10   6  -7    2.87    1.03
  10   6   7    2.80    1.02
  10  -6  -7    1.45    0.86
  11   6  -7    4.64    1.32
 -11   6   7    5.28    1.18
  11   6   7    6.69    1.23
  11  -6  -7    5.34    1.15
   0   7  -7   -0.08    0.26
   0  -7   7   -0.35    0.33
   0  -7   7   -0.83    0.33
   0   7  -7   -0.39    0.40
   0   7   7    0.32    0.18
   0  -7   7   -0.07    0.34
   0   7   7   -0.12    0.26
  -1   7   7    7.37    0.43
   1  -7   7    4.91    0.69
   1  -7   7    5.84    0.72
  -1   7   7    6.82    0.60
   1   7  -7    5.85    0.65
   1  -7   7    6.29    0.79
   1   7  -7    5.75    0.82
  -1  -7   7    5.14    0.69
   1   7   7    7.66    0.64
  -1   7  -7    6.38    0.63
  -1  -7   7    6.25    0.73
  -1  -7   7    6.57    0.74
  -1   7  -7    6.71    0.90
   1   7   7    5.88    0.43
   2   7  -7    0.81    0.43
   2  -7   7    0.41    0.40
   2  -7   7    0.65    0.45
  -2   7   7    0.88    0.33
   2   7  -7    0.55    0.36
  -2  -7   7    0.69    0.40
  -2  -7   7    0.52    0.32
  -2  -7   7    0.75    0.40
   2  -7  -7    0.71    0.26
  -2   7  -7    0.45    0.47
   2   7   7    0.11    0.21
   2   7   7    0.71    0.31
   3   7  -7   67.13    2.83
   3   7  -7   67.53    2.63
   3  -7   7   67.11    2.59
   3  -7   7   68.33    3.01
  -3  -7   7   71.04    2.64
   3  -7  -7   71.11    2.40
  -3   7  -7   71.75    3.12
   3   7   7   69.38    2.32
   3   7   7   68.22    2.51
  -3  -7   7   66.61    2.57
   4   7  -7   10.07    0.95
   4  -7   7    9.98    1.10
   4  -7   7   10.56    0.96
   4   7  -7    8.71    0.92
  -4   7   7   10.03    0.67
   4   7   7   10.21    0.66
  -4  -7   7   10.54    0.88
  -4  -7   7   10.96    0.94
  -4   7  -7    8.73    1.31
   4   7   7    9.20    0.86
   4  -7  -7   10.15    0.77
   5  -7   7  104.00    4.37
   5   7  -7  100.88    3.83
   5   7  -7  112.66    4.04
  -5   7   7  102.50    3.34
   5  -7   7  105.61    3.80
  -5  -7   7  103.94    3.62
  -5  -7   7  104.07    3.73
   5  -7  -7  105.15    3.63
  -5   7  -7   96.31    4.35
   5   7   7  115.28    3.74
   5   7   7  103.94    3.65
   6  -7   7   12.61    1.27
   6  -7   7   11.52    1.38
   6   7  -7   10.92    1.03
  -6   7   7   10.36    0.64
   6   7  -7   11.32    1.16
   6   7   7    9.67    1.07
  -6   7  -7   11.34    1.55
  -6  -7   7   11.79    1.16
   6   7   7   11.06    0.81
  -6  -7   7    9.68    0.93
   6  -7  -7   11.42    0.96
   7   7  -7   45.65    2.12
   7   7  -7   44.57    2.27
  -7   7   7   40.46    2.24
  -7  -7   7   43.60    1.87
   7  -7  -7   44.07    2.05
   7   7   7   44.41    1.93
  -7   7  -7   54.15    2.87
   7   7   7   41.79    2.08
   8   7  -7    6.95    0.88
  -8   7   7    6.11    0.95
   8  -7   7    8.24    1.27
   8   7   7    8.27    1.09
  -8  -7   7    6.86    0.91
   8  -7  -7    7.12    0.94
   9   7  -7   40.01    2.44
   9  -7   7   36.31    1.92
  -9   7   7   40.99    2.37
   9  -7   7   40.61    2.83
   9   7  -7   41.03    2.21
   9  -7  -7   39.52    2.16
   9   7   7   38.21    2.16
  -9  -7   7   43.12    1.77
 -10   7   7   19.22    1.90
  10  -7   7   18.62    2.34
  10  -7   7   18.57    1.49
  10   7  -7   15.92    1.98
  10  -7  -7   16.27    1.74
  10   7   7   19.77    1.73
  10   7   7   17.57    1.93
  11   7  -7   19.76    2.42
 -11   7   7   19.99    2.17
  11  -7  -7   18.41    2.07
  11   7   7   18.99    2.12
   0  -8   7   23.30    1.30
   0   8   7   23.02    1.16
   0   8  -7   23.33    1.51
   0  -8   7   23.22    1.33
   0  -8   7   23.97    1.26
   0   8  -7   22.66    1.17
   1  -8   7   70.65    2.60
   1  -8   7   70.92    2.91
   1   8  -7   69.43    2.56
   1   8  -7   70.80    2.97
  -1   8   7   72.09    2.50
   1  -8   7   66.83    2.65
  -1  -8   7   68.68    2.58
   1  -8  -7   69.12    2.16
  -1  -8   7   70.31    2.71
  -1  -8   7   69.29    2.65
   1   8   7   70.92    2.54
  -1   8  -7   60.89    2.98
  -1   8  -7   68.06    2.52
   2  -8   7   25.29    1.40
  -2   8   7   27.37    1.25
   2   8  -7   25.10    1.33
   2  -8   7   26.18    1.35
   2   8  -7   25.96    1.55
   2  -8   7   26.97    1.61
  -2   8  -7   26.85    1.72
   2   8   7   26.32    1.00
  -2  -8   7   27.22    1.38
  -2  -8   7   26.47    1.22
   2   8   7   26.46    1.32
  -2  -8   7   27.23    1.42
   3  -8   7  106.03    3.60
  -3   8   7  101.64    3.34
   3   8  -7   97.80    3.56
   3  -8   7   93.55    3.55
   3  -8   7   97.75    4.06
   3   8  -7   98.83    3.91
  -3   8  -7  100.93    4.20
   3  -8  -7  101.77    3.28
  -3  -8   7  103.65    3.53
  -3  -8   7   98.92    3.55
   3   8   7   99.62    3.49
  -4   8   7   48.00    1.81
   4  -8   7   48.28    2.08
   4   8  -7   51.21    2.22
   4  -8   7   44.65    2.04
   4  -8   7   45.34    2.40
   4   8  -7   44.00    2.07
   4   8   7   46.65    1.74
  -4  -8   7   48.14    2.02
   4   8   7   48.99    2.04
  -4   8  -7   42.55    2.50
   4  -8  -7   48.71    1.85
  -4  -8   7   47.45    2.03
   5  -8   7   -0.36    0.43
   5   8  -7    0.18    0.50
   5   8  -7    0.15    0.49
  -5   8   7    0.31    0.36
   5  -8   7    0.77    0.63
   5  -8   7   -0.33    0.54
  -5  -8   7    0.51    0.46
   5   8   7    0.15    0.53
  -5   8  -7   -0.09    0.82
   5  -8  -7    0.73    0.38
   5   8   7   -0.19    0.29
  -5  -8   7    0.83    0.59
   6  -8   7   15.47    1.65
   6   8  -7   18.81    1.31
   6  -8   7   18.58    1.27
   6  -8   7   19.76    1.54
   6   8  -7   18.43    1.42
  -6   8   7   18.15    0.94
   6   8   7   17.20    1.41
   6  -8  -7   18.40    1.17
  -6  -8   7   19.80    1.22
  -6  -8   7   17.66    1.42
   6   8   7   17.87    0.98
   7   8  -7   33.68    1.96
   7   8  -7   30.25    1.73
   7  -8   7   29.15    2.20
   7  -8   7   30.24    1.63
  -7  -8   7   31.15    1.57
   7  -8  -7   28.41    1.63
   7   8   7   33.81    1.52
   8  -8   7   32.93    1.70
   8   8  -7   31.30    1.85
  -8   8   7   28.21    1.92
   8  -8   7   30.61    2.36
   8   8  -7   33.69    2.10
   8  -8  -7   28.82    1.79
   8   8   7   30.94    1.69
  -8  -8   7   32.33    1.60
   9   8  -7    3.05    0.96
  -9   8   7    2.91    0.91
   9  -8   7    3.65    0.81
   9   8  -7    0.65    0.94
   9  -8   7    1.31    1.07
  -9  -8   7    3.61    0.72
   9  -8  -7    2.43    0.84
   9   8   7    2.68    0.87
  10  -8   7   10.46    1.34
 -10   8   7    7.68    1.33
  10   8  -7    9.61    1.45
  10   8   7   10.29    1.24
  10  -8  -7    9.83    1.29
  11   8  -7    5.56    1.49
 -11   8   7    5.19    1.42
  11  -8  -7    7.07    1.33
  11   8   7    4.50    1.36
   0  -9   7   -0.51    0.36
   0   9  -7   -0.21    0.29
   0   9  -7   -0.31    0.53
   0  -9   7   -0.40    0.36
   0  -9   7    0.47    0.45
   0   9   7   -0.88    0.38
   1  -9   7    5.19    0.71
   1  -9   7    5.86    0.69
   1   9  -7    5.60    0.84
  -1   9   7    5.48    0.67
   1  -9   7    5.03    0.69
   1   9  -7    5.35    0.68
  -1   9  -7    5.29    0.90
  -1  -9   7    5.06    0.66
  -1  -9   7    5.95    0.80
   1   9   7    5.81    0.66
  -1  -9   7    4.91    0.67
  -2   9   7   30.37    1.44
   2  -9   7   31.38    1.77
   2  -9   7   30.60    1.54
   2   9  -7   29.12    1.48
   2  -9   7   31.37    1.61
   2   9  -7   29.79    1.75
  -2  -9   7   32.34    1.55
   2   9   7   30.33    1.53
   2  -9  -7   34.11    1.14
  -2  -9   7   31.90    1.61
  -2   9  -7   29.54    1.96
   3  -9   7   37.63    1.75
   3   9  -7   37.36    1.93
   3  -9   7   36.08    1.76
  -3   9   7   38.50    1.60
   3  -9   7   36.39    2.03
   3   9  -7   37.61    1.73
  -3   9  -7   36.08    2.20
   3   9   7   35.36    1.32
   3   9   7   32.46    1.68
  -3  -9   7   36.47    1.71
  -3  -9   7   32.95    1.70
   3  -9  -7   37.03    1.41
   4   9  -7    0.34    0.47
   4  -9   7    0.52    0.48
   4  -9   7    1.05    0.58
  -4   9   7    0.05    0.41
   4  -9   7   -0.31    0.58
   4  -9  -7    0.45    0.36
   4   9   7    0.79    0.58
  -4  -9   7    0.28    0.48
  -4  -9   7   -0.28    0.52
   4   9   7   -0.09    0.31
   5  -9   7   69.02    3.33
   5  -9   7   68.45    2.86
   5   9  -7   72.96    3.03
   5   9  -7   68.10    2.88
  -5   9   7   70.47    2.50
   5  -9   7   69.51    2.79
   5  -9  -7   74.18    2.62
  -5  -9   7   69.17    2.74
  -5  -9   7   72.02    2.81
   6   9  -7   -0.26    0.58
   6  -9   7    1.14    0.58
  -6   9   7    2.42    0.51
   6   9  -7    0.99    0.61
   6  -9   7    1.09    0.87
  -6  -9   7    0.16    0.70
   6   9   7    0.77    0.37
   6  -9  -7    0.94    0.50
  -6  -9   7    0.80    0.57
   7   9  -7   31.08    1.88
   7  -9   7   38.24    2.45
   7   9  -7   34.06    2.08
   7  -9   7   35.10    1.81
   7   9   7   33.48    1.57
   7   9   7   33.49    1.72
  -7  -9   7   37.03    1.76
   7  -9  -7   34.34    1.75
   8   9  -7    5.51    1.07
   8   9  -7    6.17    0.96
   8  -9   7    5.22    1.22
  -8   9   7    5.31    1.02
   8  -9   7    5.29    0.88
   8   9   7    6.78    0.88
  -8  -9   7    6.76    0.84
   8   9   7    6.36    0.80
   8  -9  -7    5.79    0.90
   9  -9   7   29.09    1.77
  -9   9   7   28.06    2.14
   9   9  -7   33.10    2.35
   9  -9  -7   31.88    1.98
  -9  -9   7   30.95    1.72
  10   9  -7    4.58    1.31
 -10   9   7    4.77    1.18
  10   9   7    2.42    1.08
  10  -9  -7    4.71    1.11
   0 -10   7  177.19    5.57
   0  10   7  174.76    5.57
   0  10  -7  164.99    5.47
   0  10  -7  159.81    6.37
   0 -10   7  170.07    5.66
  -1  10   7   60.50    2.33
   1 -10   7   58.60    2.57
   1  10  -7   53.45    2.71
   1 -10   7   55.20    2.40
   1 -10   7   60.66    2.35
   1  10  -7   55.43    2.24
  -1 -10   7   54.39    2.28
  -1  10  -7   64.55    2.93
  -1 -10   7   56.45    2.42
   1  10   7   56.32    2.36
   2  10  -7    7.46    0.99
   2 -10   7    9.13    0.95
   2  10  -7    8.14    0.86
   2 -10   7    6.16    0.89
   2 -10   7    9.39    1.00
  -2  10   7    8.34    0.92
  -2 -10   7    7.49    0.93
  -2  10  -7    7.86    1.14
  -2 -10   7    8.38    1.00
   2  10   7    6.68    0.87
   3  10  -7   -0.09    0.60
  -3  10   7    0.32    0.49
   3 -10   7    1.07    0.57
   3 -10   7    0.10    0.46
   3 -10   7   -0.13    0.55
   3  10  -7    0.42    0.46
  -3 -10   7    0.04    0.51
   3 -10  -7   -0.48    0.31
  -3 -10   7    0.84    0.49
   4 -10   7   26.23    1.61
   4 -10   7   26.22    1.79
   4  10  -7   24.13    1.49
   4 -10   7   22.94    1.46
  -4  10   7   23.37    1.34
   4  10  -7   23.99    1.65
  -4 -10   7   25.99    1.51
  -4 -10   7   27.26    1.52
   4 -10  -7   25.11    1.19
   4  10   7   25.60    1.11
   4  10   7   26.54    1.09
   5  10  -7   10.58    1.27
   5 -10   7    9.94    1.29
  -5  10   7   10.83    0.96
   5 -10   7    9.45    1.05
   5  10  -7    9.74    1.20
   5 -10   7    9.90    1.28
  -5 -10   7    8.15    1.07
   5 -10  -7   11.65    0.92
  -5 -10   7    8.97    1.25
   5  10   7    9.30    0.81
   6 -10   7   34.37    1.76
  -6  10   7   31.82    1.53
   6 -10   7   34.70    2.30
   6  10  -7   32.78    1.92
   6  10  -7   30.44    1.93
   6  10   7   33.93    1.44
   6  10   7   30.54    1.53
  -6 -10   7   30.77    1.75
   6 -10  -7   31.49    1.60
   7 -10   7   13.74    1.27
   7  10  -7   15.31    1.61
   7  10  -7   13.61    1.46
   7  10   7   12.04    1.19
   7 -10  -7   12.62    1.22
  -7 -10   7   12.51    1.32
   7  10   7   13.00    0.97
   8  10  -7    9.92    1.34
   8 -10   7   12.43    1.32
   8 -10  -7    9.64    1.13
   8  10   7   10.58    1.12
  -8 -10   7   12.99    1.40
  -9  10   7    0.07    0.93
   9 -10   7    0.40    0.82
   9  10  -7   -0.71    1.05
   9 -10  -7    1.50    0.87
  -9 -10   7    0.64    0.82
 -10  10   7   17.86    2.20
  10  10  -7   16.96    1.90
  10 -10  -7   15.17    1.90
  10  10   7   17.16    2.08
   0  11  -7    0.82    0.39
   0 -11   7    0.66    0.55
   0 -11   7   -0.77    0.50
   0  11   7   -0.53    0.56
   0  11  -7   -0.56    0.72
   1 -11   7  191.50    6.30
  -1  11   7  192.05    6.19
   1 -11   7  196.50    6.20
   1  11  -7  180.52    6.08
   1  11  -7  185.95    7.08
   1  11   7  191.57    6.26
  -1  11  -7  186.46    7.20
  -1 -11   7  188.34    6.14
  -1 -11   7  190.12    6.30
   2  11  -7   -0.21    0.41
   2 -11   7    0.49    0.60
   2  11  -7   -0.52    0.69
   2 -11   7    0.12    0.48
  -2  11   7    0.06    0.54
  -2 -11   7    0.23    0.58
  -2  11  -7    1.28    0.93
  -2 -11   7   -0.45    0.50
   3 -11   7  119.27    4.36
  -3  11   7  125.55    4.25
   3  11  -7  123.40    4.86
   3 -11   7  122.77    4.32
   3  11  -7  121.28    4.26
  -3 -11   7  122.50    4.23
  -3 -11   7  122.74    4.38
  -4  11   7   11.41    1.11
   4 -11   7   11.31    1.29
   4  11  -7   12.86    1.45
   4  11  -7   10.78    1.14
   4 -11   7   11.15    1.15
   4 -11  -7   11.66    0.83
  -4 -11   7   10.87    1.24
   4  11   7   11.66    0.70
  -4 -11   7   12.29    1.21
   5  11  -7    5.45    0.88
   5 -11   7    3.14    0.91
   5  11  -7    5.96    0.97
  -5  11   7    6.42    0.83
   5 -11   7    5.96    0.88
   5 -11  -7    5.48    0.64
  -5 -11   7    4.63    0.81
   5  11   7    5.89    0.78
   5  11   7    6.03    0.73
  -5 -11   7    6.04    0.87
   6 -11   7   12.47    1.26
   6  11  -7   13.70    1.56
   6  11  -7   12.83    1.43
   6  11   7   12.40    1.08
   6 -11  -7   14.84    1.12
   7 -11   7   18.18    1.50
   7  11  -7   16.39    1.75
   7  11   7   19.91    1.38
  -7 -11   7   19.16    1.54
   7 -11  -7   14.80    1.31
   8  11  -7   21.94    2.01
   8 -11   7   18.19    1.63
   8  11   7   21.15    1.67
  -8 -11   7   21.82    1.65
   8 -11  -7   21.20    1.69
   9 -11   7   32.46    2.00
   9  11  -7   32.65    2.57
  -9  11   7   32.05    2.47
   9  11   7   34.74    2.28
   9 -11  -7   28.67    2.07
  -9 -11   7   31.87    1.96
   0 -12   7   58.26    2.39
   0  12  -7   57.14    3.07
   0 -12   7   59.82    2.59
   1  12  -7    1.08    0.85
   1  12  -7    0.19    0.42
   1 -12   7    0.03    0.57
  -1  12   7    0.19    0.71
   1 -12   7    0.38    0.64
  -1 -12   7    0.56    0.60
  -1  12  -7   -0.27    0.98
  -1 -12   7   -0.50    0.51
   2 -12   7    1.90    0.70
   2 -12   7    1.50    0.61
  -2  12   7    2.42    0.75
   2  12  -7    1.70    0.95
   2  12  -7    1.28    0.50
  -2 -12   7    0.38    0.63
  -2 -12   7    1.47    0.67
   3 -12   7    3.79    0.75
  -3  12   7    5.24    0.88
   3  12  -7    5.09    0.72
   3  12  -7    3.63    0.97
   3 -12   7    2.85    0.79
  -3 -12   7    5.44    0.89
  -3 -12   7    4.03    0.77
   4  12  -7    8.73    1.23
   4 -12   7    8.61    1.10
   4 -12   7    7.56    1.02
   4  12  -7    8.91    1.10
  -4  12   7    7.11    0.96
  -4 -12   7    9.44    0.95
   4 -12  -7    8.53    0.76
   5  12  -7   -0.11    0.90
  -5  12   7    0.13    0.77
   5  12  -7   -0.04    0.67
   5 -12   7   -0.54    0.65
  -5 -12   7    0.35    0.70
   5 -12  -7    0.37    0.49
   5  12   7    0.39    0.42
  -5 -12   7   -0.49    0.84
   5  12   7    0.01    0.46
   6 -12   7    0.81    0.75
   6  12  -7    0.76    1.00
   6  12  -7    1.26    0.82
  -6 -12   7    0.93    0.79
   6 -12  -7   -0.31    0.58
   6  12   7    0.45    0.60
   7 -12   7    1.64    0.82
   7  12  -7    0.58    0.92
   7 -12  -7    0.53    0.67
  -7 -12   7    2.20    0.82
   7  12   7    1.09    0.75
   8  12  -7   -0.25    1.04
   8 -12   7    0.25    0.90
   8  12   7   -0.25    0.90
   8 -12  -7    0.17    0.83
  -8 -12   7    0.30    0.91
   9  12  -7    3.63    1.37
   9 -12  -7    2.27    1.10
  -9 -12   7    3.83    1.06
   0 -13   7   -1.22    0.67
   1  13  -7  138.95    4.67
   1 -13   7  138.02    4.78
  -1 -13   7  141.11    4.76
  -1 -13   7  139.94    5.02
   2  13  -7    0.45    0.51
   2 -13   7    1.83    0.79
   2  13  -7    0.26    1.00
  -2 -13   7   -0.10    0.62
  -2 -13   7    0.78    0.70
   3  13  -7   19.54    1.36
   3  13  -7   21.35    2.03
  -3  13   7   22.33    1.71
   3 -13   7   16.88    1.61
  -3 -13   7   19.51    1.54
  -3 -13   7   22.14    1.56
   4 -13   7    1.10    0.95
   4  13  -7   -0.49    0.62
   4  13  -7    1.27    1.06
  -4  13   7    1.22    0.92
  -4 -13   7    1.73    0.72
  -4 -13   7   -0.27    0.82
   5  13  -7    0.47    0.71
   5  13  -7   -0.45    1.08
   5 -13   7   -0.05    0.70
  -5  13   7   -1.77    0.99
   5 -13  -7   -0.55    0.51
  -5 -13   7   -0.15    0.78
  -5 -13   7    0.35    0.95
   6 -13   7    0.54    0.75
   6  13  -7    1.69    0.92
   6  13   7    1.38    0.64
  -6 -13   7   -0.02    0.82
   6 -13  -7   -0.09    0.64
   7 -13   7    2.73    0.93
   7  13  -7    2.81    1.07
   7 -13  -7    1.97    0.87
  -7 -13   7    2.27    0.96
   8 -13   7    2.96    1.04
   8  13  -7    2.01    1.25
  -8 -13   7    2.05    1.05
   8 -13  -7    0.97    0.99
   0 -14   7   10.68    1.06
   0 -14   7    7.67    1.02
   1 -14   7   11.90    1.35
   1 -14   7   10.81    1.45
  -1 -14   7   10.54    1.43
  -1 -14   7   10.90    1.31
   2 -14   7    4.13    1.00
   2  14  -7    4.61    0.74
   2 -14   7    5.17    0.92
  -2 -14   7    4.91    0.91
  -2 -14   7    5.50    0.90
   3 -14   7   14.33    1.70
   3 -14   7   15.61    1.47
   3  14  -7   16.90    2.28
   3  14  -7   17.68    1.32
  -3 -14   7   17.67    1.59
  -3 -14   7   17.82    1.62
   4 -14   7   17.72    1.97
   4 -14   7   17.00    1.56
   4  14  -7   18.87    2.35
   4  14  -7   15.83    1.44
  -4 -14   7   17.41    1.72
  -4 -14   7   19.16    1.66
   5  14  -7    1.93    0.88
   5 -14   7    2.22    0.82
  -5 -14   7    3.50    0.97
   6  14  -7   23.61    2.08
   6 -14   7   17.87    1.75
  -6 -14   7   22.67    1.91
   7  14  -7   14.99    1.60
   7 -14   7   19.61    1.79
  -7 -14   7   20.49    1.94
   0 -15   7    1.87    0.98
   0 -15   7   -0.23    0.76
   1 -15   7   18.63    1.63
   1 -15   7   18.89    1.73
  -1 -15   7   19.33    1.67
  -1 -15   7   17.89    1.67
   2 -15   7    3.74    0.92
   2  15  -7    4.96    0.76
  -2 -15   7    5.68    1.04
   3  15  -7   22.99    1.49
   3 -15   7   20.23    1.77
  -3 -15   7   21.32    1.82
   4 -15   7    6.48    1.07
   4  15  -7    4.66    0.85
  -4 -15   7    4.33    1.06
   5  15  -7   71.11    3.05
   5 -15   7   68.83    3.15
  -5 -15   7   66.28    3.22
   6 -15   7   -1.68    0.94
  -6 -15   7    0.33    1.05
   0 -16   7    3.43    0.94
   1 -16   7    1.69    0.95
  -1 -16   7    2.11    0.98
   2 -16   7    1.88    0.95
  -2 -16   7    2.39    0.99
   3  16  -7    8.55    1.03
   3 -16   7   11.57    1.44
  -3 -16   7   10.64    1.39
   4  16  -7   24.19    1.75
   4 -16   7   24.14    2.00
  -4 -16   7   27.91    2.18
   5  16  -7   -1.19    0.96
   5 -16   7    2.89    1.06
  -5 -16   7   -0.01    1.10
   0 -17   7   -1.71    0.97
   1 -17   7    2.98    1.09
  -1 -17   7    2.36    1.08
   2 -17   7    3.33    1.12
  -2 -17   7    2.64    1.11
   3 -17   7    3.82    1.16
  -3 -17   7    3.83    1.28
   4 -17   7   18.21    2.06
  -4 -17   7   13.67    1.66
   0 -18   7    6.57    1.42
   1 -18   7    7.40    1.36
  -1 -18   7    5.47    1.41
   0   0   8  158.85    4.98
   0   0  -8  157.29    5.44
   0   0  -8  164.68    4.96
   0   0   8  141.92    5.52
   1   0  -8  221.33    7.28
   1   0   8  208.33    6.57
  -1   0   8  220.10    7.38
   1   0  -8  203.56    6.57
  -1   0  -8  197.54    6.52
   1   0   8  208.32    7.35
  -1   0   8  216.36    6.62
  -1   0  -8  215.61    7.24
  -2   0   8  154.85    5.60
   2   0   8  157.50    5.63
  -2   0  -8  157.18    5.45
   2   0  -8  157.07    5.04
   3   0   8   47.35    2.07
  -3   0   8   45.67    1.82
  -3   0   8   45.63    2.01
   3   0  -8   43.11    1.93
   3   0  -8   44.06    1.83
   3   0   8   45.68    1.80
  -3   0  -8   46.32    1.85
  -4   0  -8   23.03    1.14
   4   0  -8   24.18    1.24
   4   0   8   25.92    1.41
   4   0  -8   24.39    1.28
  -4   0   8   23.03    1.32
   4   0   8   24.55    1.21
  -4   0   8   24.79    1.25
   5   0   8   32.68    1.73
  -5   0  -8   30.38    1.35
  -5   0   8   30.75    1.59
  -5   0   8   31.51    1.52
   5   0  -8   30.62    1.56
  -6   0  -8   37.81    1.51
   6   0  -8   38.82    1.85
  -6   0   8   38.96    1.83
   6   0   8   36.26    1.99
  -6   0   8   36.56    1.34
   7   0  -8   11.10    1.12
  -7   0   8   10.78    1.08
  -7   0   8   11.09    1.02
   7   0   8    9.63    1.24
  -8   0   8  225.23    7.87
   8   0  -8  217.97    7.52
   8   0   8  231.39    8.30
  -9   0   8   11.52    1.31
   9   0  -8   11.52    1.40
   9   0   8   14.69    1.67
  -9   0   8   11.29    1.09
  10   0   8   83.80    3.11
  10   0  -8   88.56    3.80
  11   0   8   79.30    4.07
  11   0  -8   75.17    3.69
  12   0  -8   18.15    2.04
  12   0   8   16.50    2.10
   0   1   8   -0.14    0.22
   0   1  -8    0.86    0.26
   0  -1  -8   -0.13    0.19
   0   1   8    0.07    0.23
   0  -1   8    0.67    0.27
   0  -1   8    0.18    0.26
   0  -1  -8   -0.18    0.19
   1   1  -8    0.74    0.28
   1  -1   8    0.76    0.33
  -1  -1  -8    0.84    0.27
   1   1  -8    1.25    0.30
  -1  -1  -8    1.06    0.26
  -1   1   8    1.57    0.34
  -1   1   8    1.34    0.34
   1  -1   8    1.20    0.33
   1   1   8    1.33    0.31
  -1  -1   8    1.14    0.35
   1  -1  -8    0.99    0.26
   1   1   8    0.86    0.32
  -1  -1   8    0.51    0.30
   1  -1  -8    0.62    0.26
  -1   1  -8    0.93    0.28
  -2   1   8   14.04    0.93
  -2  -1  -8   14.98    0.79
   2  -1   8   15.15    0.85
  -2   1   8   14.12    0.86
   2   1  -8   14.97    0.89
  -2   1  -8   14.67    0.88
  -2  -1   8   14.13    0.88
  -2  -1   8   13.88    0.93
   2  -1  -8   13.48    0.83
   2   1   8   13.85    0.93
   2   1   8   14.41    0.81
   3  -1   8   35.76    1.53
  -3  -1  -8   40.70    1.50
   3   1  -8   33.59    1.60
  -3   1   8   36.41    1.53
  -3   1   8   36.69    1.71
   3   1  -8   34.00    1.56
   3  -1   8   37.43    1.79
   3  -1  -8   35.22    1.55
  -3  -1   8   37.05    1.58
  -3  -1   8   35.67    1.70
  -3   1  -8   37.67    1.62
   3   1   8   37.55    1.50
   3   1   8   31.49    1.65
  -4   1   8    1.07    0.38
   4   1  -8    1.06    0.41
   4  -1   8    1.45    0.44
  -4   1   8    1.51    0.40
   4  -1   8    1.48    0.38
  -4  -1  -8    1.02    0.25
   4   1  -8    1.50    0.34
  -4  -1   8    0.87    0.39
  -4  -1   8    1.17    0.38
   4   1   8    1.42    0.35
  -4   1  -8    1.20    0.35
   4   1   8    1.62    0.45
   4  -1  -8    1.70    0.42
   5   1  -8  142.49    4.92
   5  -1   8  142.22    5.18
  -5   1   8  133.06    4.52
   5   1  -8  137.16    4.64
  -5   1   8  129.83    4.98
  -5  -1  -8  119.01    4.54
   5   1   8  126.43    5.00
  -5   1  -8  142.19    4.84
  -5  -1   8  137.77    4.94
  -5  -1   8  133.41    4.20
  -5  -1   8  138.26    4.58
   5  -1  -8  138.52    4.61
   6  -1   8   10.36    1.12
   6   1  -8   10.02    0.97
  -6   1   8    9.16    0.90
  -6  -1   8   10.15    0.88
   6  -1  -8   10.20    0.96
   6   1   8    9.27    1.08
  -6  -1   8    9.81    0.65
  -6   1  -8    7.67    0.79
  -6  -1   8    8.75    0.99
  -7   1   8   47.21    2.20
   7   1  -8   45.61    2.21
   7  -1   8   47.15    2.45
  -7   1   8   45.01    2.21
   7  -1  -8   47.97    2.20
  -7  -1   8   45.53    2.06
  -7   1  -8   48.34    1.91
   7   1   8   49.59    2.38
  -7  -1   8   43.28    2.01
   8  -1   8    2.72    0.88
  -8   1   8    5.12    0.77
  -8   1   8    3.84    0.83
   8  -1  -8    4.78    0.83
   8   1   8    3.36    0.84
   9   1  -8    0.82    0.70
  -9   1   8    0.09    0.61
   9  -1   8    1.22    0.88
  -9   1   8    0.41    0.84
   9  -1  -8    0.29    0.65
   9   1   8    0.50    0.85
  10  -1   8    2.11    1.07
 -10   1   8    2.86    0.74
  10   1  -8    3.15    0.92
  10   1   8    1.94    0.80
  10   1   8    3.87    1.17
  10  -1  -8    2.59    0.91
  11   1  -8    3.18    1.13
  11  -1   8    5.27    1.40
  11  -1  -8    4.24    1.19
  11   1   8    3.76    1.34
  12   1  -8    5.32    1.52
  12  -1   8    5.35    1.76
  12  -1  -8    3.35    1.34
  12   1   8    4.62    1.68
   0   2  -8  685.12   20.33
   0  -2   8  647.29   22.64
   0  -2  -8  697.26   22.45
   0   2  -8  665.62   22.58
   0  -2  -8  705.90   20.24
   0   2   8  684.68   20.27
   0   2   8  697.61   22.60
   1   2  -8   76.79    2.80
  -1   2   8   75.44    3.08
  -1  -2  -8   83.79    2.70
   1   2  -8   78.53    3.08
  -1  -2  -8   82.53    2.92
   1  -2   8   82.04    3.21
  -1   2   8   78.87    2.75
   1   2   8   89.09    2.77
  -1  -2   8   76.33    3.12
   1   2   8   92.99    3.13
  -1   2  -8   76.39    2.77
   1  -2  -8   73.79    2.70
   2  -2   8   53.04    2.29
   2   2  -8   51.09    2.01
  -2  -2  -8   51.11    1.93
  -2   2   8   53.01    1.95
  -2   2   8   50.12    2.17
   2  -2   8   48.99    1.96
   2   2   8   47.00    1.86
  -2   2  -8   56.08    2.20
  -2  -2   8   50.29    2.00
   2  -2  -8   52.16    1.94
  -2  -2   8   51.41    2.19
   2   2   8   55.39    2.17
  -3   2   8   13.31    0.83
   3  -2   8   14.28    0.88
   3  -2   8   13.49    1.06
  -3   2   8   12.63    0.91
   3   2  -8   11.98    0.88
   3   2  -8   14.07    0.88
  -3  -2   8   16.08    0.97
  -3  -2   8   12.64    0.88
   3  -2  -8   13.79    0.86
   3   2   8   11.59    0.87
   3   2   8   14.11    0.82
   4  -2   8    5.01    0.61
  -4   2   8    4.74    0.62
   4   2  -8    2.78    0.52
   4  -2   8    3.89    0.69
  -4   2   8    4.65    0.66
   4   2  -8    4.36    0.60
   4   2   8    3.99    0.59
  -4  -2   8    4.35    0.55
  -4  -2   8    5.01    0.65
   4   2   8    4.68    0.59
   4  -2  -8    4.95    0.64
   5   2  -8    4.53    0.67
   5  -2   8    4.25    0.60
   5   2  -8    4.12    0.57
  -5   2   8    5.75    0.72
   5  -2   8    5.03    0.75
  -5   2   8    5.24    0.72
  -5  -2   8    4.33    0.59
   5   2   8    4.40    0.65
  -5  -2   8    3.38    0.45
  -5  -2   8    4.95    0.67
  -5   2  -8    3.85    0.60
   5  -2  -8    4.55    0.62
   6  -2   8   17.29    1.39
  -6   2   8   14.35    1.11
   6   2  -8   15.90    1.06
   6   2  -8   15.75    1.19
  -6  -2   8   15.82    0.82
  -6   2  -8   14.26    1.08
   6   2   8   15.30    1.19
  -6  -2   8   15.31    1.16
  -6  -2   8   14.17    0.99
   6  -2  -8   14.54    1.12
  -7   2   8   73.91    3.00
  -7   2   8   68.95    3.02
   7   2  -8   68.45    2.89
   7  -2   8   70.75    3.23
   7   2   8   68.66    3.02
  -7  -2   8   68.33    2.62
   7  -2  -8   69.57    2.85
  -7  -2   8   67.18    2.26
  -7  -2   8   64.70    2.64
   8   2  -8   54.18    2.63
   8  -2   8   59.07    2.98
  -8   2   8   57.33    2.61
  -8   2   8   56.86    2.74
   8  -2  -8   54.72    2.59
   8   2   8   56.50    2.76
  -8   2  -8   59.28    2.36
  -9   2   8    6.02    0.87
   9   2  -8    5.67    0.94
   9  -2   8    5.62    1.20
  -9   2   8   10.98    1.61
   9   2   8    6.45    0.81
   9   2   8    5.33    1.09
   9  -2  -8    5.10    0.90
 -10   2   8   62.43    2.86
  10  -2   8   65.20    3.50
  10   2  -8   64.09    3.15
  10   2   8   63.17    3.32
  10  -2  -8   63.80    3.08
  10   2   8   61.38    2.64
  11  -2   8    0.73    1.29
  11   2  -8    2.00    1.06
  11   2   8   -0.88    1.25
  11  -2  -8    1.80    1.01
  12  -2   8   25.70    3.14
  12   2  -8   21.55    2.55
  12   2   8   28.23    2.99
   0   3   8   -0.05    0.23
   0  -3   8   -0.42    0.29
   0   3  -8    0.16    0.25
   0   3   8    0.14    0.24
   0  -3  -8   -0.16    0.19
   0  -3   8   -0.15    0.27
  -1  -3  -8   54.03    2.01
   1  -3   8   61.48    2.21
   1   3  -8   59.05    2.20
  -1   3   8   57.31    2.37
  -1   3   8   61.21    2.10
   1  -3   8   54.12    2.47
  -1  -3   8   60.61    2.23
   1   3   8   55.61    2.05
  -1  -3   8   58.48    2.43
   1   3   8   60.53    2.34
  -1   3  -8   57.79    2.16
   1  -3  -8   61.07    2.07
  -2   3   8    0.91    0.30
   2   3  -8    0.92    0.35
  -2   3   8    0.65    0.29
   2  -3   8    1.03    0.40
   2  -3   8    0.70    0.33
  -2  -3   8    0.67    0.33
   2   3   8    0.47    0.24
   2  -3  -8    0.75    0.29
  -2  -3   8    0.90    0.35
  -2   3  -8    0.81    0.39
   2   3   8    1.16    0.30
  -3   3   8   24.37    1.18
   3   3  -8   25.22    1.31
   3  -3   8   26.01    1.25
   3   3  -8   27.59    1.33
  -3   3   8   25.35    1.36
   3  -3   8   22.52    1.46
  -3  -3   8   25.34    1.30
  -3  -3   8   26.05    1.33
   3   3   8   23.91    1.26
   3  -3  -8   24.66    1.20
  -3   3  -8   29.49    1.47
   4  -3   8    8.29    0.80
  -4   3   8    8.01    0.82
   4   3  -8    7.62    0.82
   4   3  -8    9.67    0.79
   4  -3   8    8.80    1.00
  -4   3   8    9.69    0.75
   4   3   8    9.67    0.80
   4   3   8    8.54    0.71
  -4  -3   8    8.21    0.78
  -4  -3   8    9.60    0.71
  -4   3  -8   11.35    0.97
   4  -3  -8    8.73    0.78
  -4  -3   8    9.38    0.86
   5   3  -8   15.28    1.00
  -5   3   8   14.67    0.58
  -5   3   8   15.58    1.11
   5  -3   8   13.37    1.22
   5   3  -8   15.14    1.11
   5  -3   8   15.02    1.06
  -5   3  -8   12.14    1.07
  -5  -3   8   14.05    1.05
  -5  -3   8   13.16    0.95
   5  -3  -8   14.84    1.02
  -5  -3   8   13.51    0.83
   5   3   8   12.05    0.97
   6  -3   8    6.44    0.96
   6   3  -8    7.80    0.93
   6   3  -8    6.07    0.79
  -6   3   8    6.34    0.86
  -6  -3   8    5.11    0.69
  -6   3  -8    7.01    0.99
  -6  -3   8    6.27    0.64
   6  -3  -8    7.31    0.84
  -6  -3   8    7.02    0.72
  -6  -3   8    5.95    0.62
   6   3   8    6.26    0.90
   7   3  -8    0.99    0.57
  -7   3   8    0.44    0.48
   7  -3   8    1.16    0.67
  -7   3   8    1.58    0.73
   7   3  -8    0.72    0.48
   7  -3  -8    0.83    0.52
   7   3   8    1.68    0.63
  -7   3  -8    1.33    0.58
  -7  -3   8    1.32    0.36
  -8   3   8   17.53    1.73
   8   3  -8   15.70    1.46
  -8   3   8   17.14    1.37
   8  -3   8   18.24    1.78
   8   3   8   16.23    1.49
  -8  -3   8   18.02    0.87
  -8   3  -8   14.09    1.35
   8  -3  -8   16.30    1.38
   8   3   8   19.12    1.20
   9   3  -8   17.22    1.63
  -9   3   8   22.08    2.07
   9  -3   8   22.02    2.01
  -9   3   8   18.95    1.56
   9   3   8   19.23    1.78
   9   3   8   21.03    1.42
  -9   3  -8   22.26    1.51
   9  -3  -8   21.51    1.62
 -10   3   8    0.79    0.79
  10  -3   8    1.27    1.10
  10   3  -8    2.30    0.95
  10   3   8    0.74    0.99
  10  -3  -8   -0.56    0.78
  11   3  -8   12.04    1.50
  11  -3   8   15.96    2.43
  11  -3  -8   13.33    1.84
   0   4  -8  185.98    5.97
   0  -4   8  192.17    6.71
   0   4   8  187.24    5.83
   0  -4  -8  179.20    5.77
   0   4  -8  199.22    6.71
   0  -4   8  189.82    6.01
   0   4   8  183.70    6.55
   1  -4   8    0.20    0.29
  -1   4   8    0.31    0.24
   1  -4   8    0.19    0.33
   1   4  -8   -0.21    0.27
  -1   4   8    0.12    0.24
   1   4  -8    0.71    0.33
   1   4   8    0.29    0.23
  -1   4  -8    0.27    0.24
   1  -4  -8    0.14    0.21
  -1  -4   8    0.24    0.33
  -1   4  -8   -0.10    0.30
  -1  -4   8    0.65    0.35
   1   4   8    0.40    0.24
   2  -4   8  130.75    4.25
  -2   4   8  130.86    4.68
   2   4  -8  124.70    4.26
  -2   4   8  127.15    4.09
   2   4  -8  132.98    4.70
   2  -4   8  119.97    4.79
  -2  -4   8  130.52    4.66
   2   4   8  123.91    4.53
   2   4   8  123.10    4.06
  -2   4  -8  124.30    4.75
   2  -4  -8  128.38    4.11
  -2  -4   8  130.84    4.28
   3   4  -8    4.81    0.66
   3  -4   8    3.07    0.46
   3  -4   8    5.66    0.79
  -3   4   8    4.95    0.63
   3   4  -8    4.22    0.59
   3  -4  -8    4.21    0.55
  -3  -4   8    4.94    0.64
  -3  -4   8    4.24    0.59
   3   4   8    3.77    0.50
  -3  -4   8    4.27    0.55
   3   4   8    3.68    0.52
  -3   4  -8    4.97    0.68
  -4   4   8  264.41    8.07
   4   4  -8  279.35    8.68
   4  -4   8  265.45    9.68
  -4   4   8  280.13    8.47
   4  -4   8  279.96    8.62
  -4   4   8  267.62    9.51
   4   4  -8  274.41    9.41
  -4  -4   8  265.23    9.27
   4  -4  -8  276.64    8.52
  -4  -4   8  278.24    8.60
  -4   4  -8  298.99    9.65
   4   4   8  266.99    8.43
  -4  -4   8  269.38    8.35
   4   4   8  268.43    9.32
  -5   4   8    0.61    0.21
   5  -4   8    0.35    0.53
  -5   4   8    0.23    0.39
   5   4  -8    0.97    0.39
   5  -4   8    0.15    0.44
   5   4  -8    1.24    0.46
  -5  -4   8    0.39    0.35
   5   4   8   -0.32    0.35
  -5  -4   8    1.02    0.48
  -5  -4   8    0.13    0.35
   5  -4  -8    0.16    0.36
  -5   4  -8    0.31    0.51
   6   4  -8   95.75    3.68
  -6   4   8   93.23    3.83
   6  -4   8  101.56    4.11
   6   4  -8   95.60    3.61
   6  -4  -8   98.39    3.51
   6   4   8   91.17    3.65
  -6   4  -8   95.53    3.88
  -6  -4   8   91.78    3.49
  -6  -4   8   94.40    3.18
   7   4  -8   31.42    1.77
   7  -4   8   29.96    2.04
  -7   4   8   30.62    2.03
   7   4  -8   30.32    1.69
  -7   4   8   28.86    1.75
   7   4   8   27.13    1.44
   7   4   8   30.47    1.68
   7  -4  -8   30.20    1.66
  -7  -4   8   28.69    1.29
  -7   4  -8   27.50    1.83
  -8   4   8   18.45    1.87
  -8   4   8   17.82    1.45
   8  -4   8   19.90    1.89
  -8   4  -8   19.03    1.66
   8   4   8   17.19    1.50
   8   4   8   21.38    1.32
   8  -4  -8   18.25    1.44
  -8  -4   8   20.68    1.00
   9  -4   8    6.08    1.26
   9   4  -8    6.83    1.07
  -9   4   8    6.15    0.96
  -9   4   8    5.16    1.33
   9  -4  -8    6.49    1.02
  -9   4  -8    4.69    1.04
   9   4   8    9.71    1.48
  10  -4   8    1.15    1.18
 -10   4   8    0.48    0.86
  10   4  -8    1.83    0.96
 -10   4   8    1.50    1.69
  10   4   8    1.40    1.03
  10  -4  -8    2.52    0.87
 -11   4   8   10.62    1.38
  11   4  -8    9.56    1.46
  11  -4   8   10.46    1.75
  11  -4  -8    8.08    1.26
  11   4   8   10.55    1.62
   0   5  -8    0.10    0.33
   0  -5   8   -0.22    0.30
   0   5  -8   -0.32    0.23
   0  -5   8   -0.37    0.34
   0   5   8   -0.21    0.22
   0  -5  -8   -0.19    0.20
   1  -5   8    2.25    0.51
   1   5  -8    1.80    0.37
  -1   5   8    2.27    0.34
   1  -5   8    2.66    0.47
   1   5  -8    1.88    0.41
  -1   5   8    1.81    0.38
   1   5   8    2.22    0.34
   1  -5  -8    1.98    0.32
   1   5   8    1.45    0.34
  -1  -5   8    2.44    0.48
  -1   5  -8    2.15    0.39
  -1  -5   8    1.99    0.45
  -2   5   8    2.05    0.33
   2  -5   8    1.43    0.40
   2  -5   8    0.86    0.47
  -2   5   8    1.33    0.36
  -2   5   8    1.52    0.27
   2   5  -8    1.11    0.40
   2   5  -8    1.33    0.40
   2   5   8    1.79    0.32
  -2  -5   8    1.73    0.43
   2  -5  -8    1.78    0.33
   2   5   8    1.42    0.33
  -2  -5   8    0.85    0.39
  -2   5  -8    0.78    0.42
  -2  -5   8    1.78    0.41
  -3   5   8   22.82    1.28
   3   5  -8   24.18    1.31
  -3   5   8   21.61    1.07
   3  -5   8   21.39    1.43
   3   5  -8   23.99    1.29
  -3   5   8   22.40    0.93
   3  -5   8   23.32    1.24
  -3  -5   8   22.43    1.20
   3   5   8   22.58    1.04
   3  -5  -8   21.96    1.10
  -3  -5   8   21.00    1.18
   3   5   8   20.69    1.11
  -3  -5   8   23.92    1.27
  -3   5  -8   24.76    1.48
   4  -5   8    4.67    0.60
   4  -5   8    4.38    0.76
  -4   5   8    4.81    0.69
   4   5  -8    3.85    0.62
   4   5  -8    4.53    0.62
  -4   5   8    5.14    0.45
  -4   5  -8    4.03    0.71
   4   5   8    5.22    0.60
  -4  -5   8    5.35    0.67
   4   5   8    4.59    0.58
   4  -5  -8    4.88    0.66
  -4  -5   8    5.26    0.64
  -4  -5   8    4.06    0.61
   5  -5   8    0.75    0.47
  -5   5   8    0.79    0.39
  -5   5   8    0.40    0.25
   5   5  -8    0.95    0.48
   5   5  -8    0.18    0.40
   5  -5   8    0.16    0.52
  -5  -5   8    0.90    0.41
   5  -5  -8    0.63    0.38
   5   5   8    0.43    0.36
   5   5   8   -0.65    0.37
  -5   5  -8    0.98    0.58
  -5  -5   8    1.14    0.49
  -6   5   8    4.99    0.75
   6   5  -8    5.37    0.81
   6  -5   8    6.59    0.85
   6  -5   8    8.07    1.21
   6   5  -8    6.92    0.84
   6   5   8    6.66    0.81
  -6  -5   8    5.26    0.73
   6  -5  -8    6.11    0.84
  -6  -5   8    6.02    0.73
   6   5   8    6.21    0.84
  -6   5  -8    6.34    0.98
  -7   5   8    2.12    0.61
   7  -5   8    2.08    0.86
  -7   5   8    3.53    0.95
   7   5  -8    1.83    0.55
   7   5  -8    2.26    0.70
   7  -5  -8    0.44    0.52
  -7  -5   8    2.76    0.50
   7   5   8    1.92    0.59
  -7   5  -8    0.48    0.80
   7   5   8    1.95    0.60
  -8   5   8   -0.89    1.09
   8  -5   8    0.62    0.85
  -8   5   8    1.04    0.67
   8   5  -8    0.88    0.62
  -8   5  -8    0.52    0.93
   8   5   8    0.51    0.70
  -8  -5   8    1.16    0.46
   8  -5  -8    0.66    0.58
   8   5   8    1.38    0.67
   9   5  -8    9.48    1.21
  -9   5   8   10.93    1.40
   9  -5   8   10.06    1.44
   9   5   8    9.46    1.18
   9  -5  -8    9.97    1.32
  -9  -5   8    9.83    0.87
  -9   5  -8    9.55    1.38
  10   5  -8    2.42    0.97
  10  -5   8    2.18    1.22
 -10   5   8    4.67    1.03
  10  -5  -8    2.40    0.92
  10   5   8    0.64    1.07
  11   5  -8    1.53    1.20
 -11   5   8    0.45    1.14
  11  -5   8   -0.14    1.43
  11   5   8   -1.02    1.32
  11  -5  -8    0.56    1.02
   0   6   8   12.40    0.67
   0   6   8   12.81    0.74
   0   6  -8   13.83    1.06
   0  -6   8   12.20    0.98
   0   6  -8   11.67    0.84
   0  -6   8   12.34    0.91
   0  -6  -8   11.91    0.62
   1   6  -8  104.12    4.18
   1   6  -8  114.58    3.78
  -1   6   8  109.56    3.52
   1  -6   8  109.34    3.76
   1  -6   8  105.86    4.21
  -1   6   8  112.81    3.48
   1  -6  -8  104.55    3.45
  -1  -6   8  109.68    4.10
  -1   6  -8  106.31    3.70
   1   6   8  112.00    3.57
  -1  -6   8  114.06    3.79
   1   6   8  108.36    3.48
  -1  -6   8  108.21    3.77
  -1   6  -8  111.20    4.29
   2  -6   8   44.21    2.25
   2  -6   8   48.41    1.98
  -2   6   8   47.27    1.72
   2   6  -8   47.71    2.18
  -2   6   8   48.04    1.73
   2   6  -8   48.02    1.99
   2   6   8   45.98    1.71
  -2  -6   8   47.45    1.98
  -2  -6   8   47.65    1.99
   2  -6  -8   47.53    1.74
   2   6   8   48.73    1.82
   2   6   8   47.05    1.93
  -2  -6   8   49.63    2.04
  -2   6  -8   50.04    2.31
   3  -6   8    6.52    0.81
  -3   6   8    6.56    0.55
   3   6  -8    8.00    0.83
   3   6  -8    9.22    0.83
   3  -6   8    6.91    0.96
   3  -6  -8    7.54    0.66
   3   6   8    7.00    0.62
  -3  -6   8    9.26    0.73
  -3  -6   8    7.70    0.77
  -3   6  -8    5.14    0.82
  -3  -6   8    6.80    0.85
   3   6   8    6.96    0.59
   3   6   8    6.39    0.66
   4  -6   8  168.35    5.74
  -4   6   8  182.33    5.34
  -4   6   8  172.71    6.33
   4   6  -8  167.58    6.24
   4   6  -8  172.31    5.82
   4  -6   8  169.82    6.53
   4   6   8  181.58    5.56
   4  -6  -8  173.72    5.58
  -4  -6   8  174.12    5.60
  -4  -6   8  175.65    5.74
   4   6   8  166.61    5.49
  -4   6  -8  181.39    6.56
   4   6   8  177.90    6.04
   5  -6   8    0.19    0.54
   5  -6   8    0.70    0.60
   5   6  -8    2.17    0.52
  -5   6   8    0.67    0.40
  -5   6   8    0.24    0.27
  -5   6  -8    0.65    0.67
   5   6   8    0.10    0.35
   5   6   8    0.95    0.45
  -5  -6   8    1.67    0.59
   5  -6  -8    0.32    0.39
   6   6  -8  189.64    6.40
   6  -6   8  186.86    6.34
   6  -6   8  193.45    7.21
  -6   6   8  192.41    6.94
  -6  -6   8  183.02    6.23
  -6   6  -8  195.84    7.14
   6   6   8  178.17    6.57
   6   6   8  191.85    6.08
  -6  -6   8  182.34    5.95
   6  -6  -8  189.00    6.19
   7  -6   8   40.90    2.50
   7   6  -8   39.82    2.12
  -7   6   8   36.98    2.11
   7   6  -8   41.27    2.00
   7  -6  -8   38.25    1.93
  -7   6  -8   37.44    2.45
  -7  -6   8   38.54    1.69
   7   6   8   37.96    1.87
   7   6   8   38.82    1.90
   8   6  -8    1.61    0.71
   8  -6   8   -0.05    0.81
   8   6  -8    1.98    0.75
   8  -6  -8    0.66    0.64
   8   6   8    0.71    0.66
  -8   6  -8    0.09    1.04
  -8  -6   8    1.14    0.53
   9  -6   8   27.02    2.34
   9   6  -8   28.81    1.97
  -9   6   8   28.68    2.04
   9   6  -8   28.48    2.10
   9  -6  -8   31.80    1.92
   9   6   8   31.57    1.98
  -9   6  -8   27.06    2.58
  -9  -6   8   28.98    1.40
  10   6  -8    1.97    1.07
  10  -6   8    0.71    1.29
 -10   6   8    2.76    0.97
  10  -6  -8    2.28    0.92
  10   6   8    1.59    1.11
  11  -6   8   29.17    3.13
 -11   6   8   35.11    2.53
  11   6  -8   30.26    2.68
  11  -6  -8   30.19    2.41
   0  -7   8    0.02    0.40
   0   7  -8   -0.14    0.30
   0   7   8   -0.63    0.28
   0  -7   8    0.15    0.39
   0   7  -8    0.49    0.46
   0   7   8    0.01    0.21
   0  -7   8    0.27    0.38
  -1   7   8   -0.09    0.20
   1  -7   8    0.24    0.39
  -1   7   8   -0.26    0.29
   1  -7   8   -0.74    0.37
   1   7  -8    0.13    0.33
   1   7  -8   -0.24    0.43
  -1  -7   8   -0.61    0.33
  -1   7  -8   -0.66    0.45
   1   7   8   -0.12    0.24
   1   7   8    0.24    0.33
  -1  -7   8    0.31    0.36
   1  -7  -8    0.17    0.22
  -1  -7   8    0.06    0.39
  -1   7  -8   -0.01    0.27
   2  -7   8   16.91    1.10
   2  -7   8   17.72    1.30
   2   7  -8   16.83    1.09
  -2   7   8   17.00    0.82
  -2   7   8   17.95    0.92
   2   7  -8   17.32    1.23
   2  -7  -8   17.77    0.85
  -2   7  -8   16.22    1.35
  -2  -7   8   17.70    1.12
   2   7   8   17.37    0.83
  -2  -7   8   17.79    1.15
  -2  -7   8   18.32    1.06
   2   7   8   17.40    1.02
   3  -7   8    8.44    1.05
   3  -7   8    6.71    0.88
   3   7  -8   10.73    0.98
  -3   7   8    7.15    0.64
   3   7  -8    9.79    0.92
  -3  -7   8    8.99    0.92
   3   7   8    8.78    0.66
  -3  -7   8    7.89    0.68
   3  -7  -8    7.44    0.67
  -3   7  -8    7.75    1.05
  -3  -7   8    6.37    0.79
   3   7   8    7.77    0.62
   3   7   8    7.47    0.79
   4  -7   8    3.33    0.75
   4   7  -8    3.09    0.64
   4  -7   8    3.83    0.64
   4   7  -8    2.79    0.58
   4   7   8    3.31    0.57
  -4   7  -8    1.96    0.73
  -4  -7   8    3.93    0.64
  -4  -7   8    2.94    0.58
   4   7   8    2.58    0.42
   4  -7  -8    2.83    0.49
  -5   7   8   22.05    1.03
   5   7  -8   24.39    1.44
   5  -7   8   24.05    1.50
   5  -7   8   21.68    1.72
   5   7  -8   21.28    1.45
  -5  -7   8   22.64    1.45
   5  -7  -8   22.82    1.27
  -5   7  -8   24.04    1.84
   5   7   8   23.28    1.35
   5   7   8   26.58    1.23
  -5  -7   8   22.20    1.28
   6   7  -8    9.19    1.07
   6   7  -8    9.54    1.20
   6  -7   8    8.32    1.05
  -6   7   8   11.56    1.14
  -6   7   8    9.43    0.65
   6  -7   8    8.89    1.19
  -6  -7   8    9.30    0.94
  -6  -7   8    8.95    1.00
   6   7   8    9.30    1.13
  -6   7  -8    9.48    1.31
   6  -7  -8   11.18    1.00
   6   7   8    9.57    0.89
   7   7  -8   13.49    1.24
   7  -7   8   12.99    1.64
   7   7  -8   11.70    1.37
  -7  -7   8   11.24    1.04
   7  -7  -8   11.56    1.12
   7   7   8   11.11    1.05
   8   7  -8   27.04    1.78
   8   7  -8   29.70    2.01
  -8   7   8   28.47    1.89
   8  -7   8   26.58    2.25
   8  -7  -8   26.97    1.75
  -8  -7   8   28.15    1.46
   8   7   8   25.33    1.71
   9  -7   8    3.25    1.20
  -9   7   8    4.35    0.92
   9   7  -8    4.80    1.08
   9   7  -8    4.98    1.01
   9   7   8    3.80    0.95
  -9  -7   8    4.92    0.73
   9  -7  -8    2.31    0.84
  10  -7   8    3.02    1.38
 -10   7   8    3.44    1.13
  10   7  -8    7.08    1.32
  10  -7   8    3.42    0.95
  10   7   8    4.95    1.27
  10  -7  -8    5.08    1.07
  11   7  -8   -0.70    1.28
 -11   7   8   -0.77    1.18
  11  -7  -8    1.10    1.13
  11   7   8    0.32    1.10
   0   8  -8    5.50    0.86
   0   8   8    5.36    0.68
   0   8  -8    5.58    0.69
   0  -8   8    6.12    0.82
   0  -8   8    7.68    0.90
   0   8   8    5.57    0.40
   0  -8   8    5.97    0.83
   1  -8   8   11.27    0.99
   1  -8   8   12.98    1.01
   1  -8   8   12.28    1.10
   1   8  -8   11.87    0.92
  -1   8   8   11.96    0.86
   1   8  -8   12.07    1.15
   1   8   8   11.36    0.86
  -1  -8   8   12.64    1.01
  -1   8  -8   14.87    1.29
  -1  -8   8   11.89    0.95
   1  -8  -8   12.45    0.59
  -1   8  -8   10.90    0.86
  -1  -8   8    9.99    0.99
   2  -8   8   55.76    2.68
  -2   8   8   59.71    2.18
   2  -8   8   57.23    2.42
   2  -8   8   61.39    2.39
   2   8  -8   57.59    2.63
   2   8  -8   60.31    2.36
  -2  -8   8   57.80    2.36
  -2  -8   8   56.25    2.36
   2  -8  -8   59.58    2.01
  -2   8  -8   59.39    2.83
   2   8   8   60.20    2.28
  -2  -8   8   58.56    2.33
   3   8  -8   28.71    1.66
   3  -8   8   28.55    1.79
   3  -8   8   27.94    1.53
   3   8  -8   28.33    1.53
  -3   8   8   30.61    1.33
  -3  -8   8   30.15    1.53
  -3   8  -8   31.22    1.95
   3  -8  -8   29.70    1.27
   3   8   8   28.67    1.19
  -3  -8   8   29.76    1.55
   3   8   8   28.10    1.45
   4   8  -8   83.80    3.24
   4  -8   8   82.57    3.70
   4  -8   8   80.83    3.19
   4   8  -8   83.98    3.47
  -4   8   8   84.82    2.89
   4   8   8   87.86    3.13
   4   8   8   89.31    2.89
   4   8   8   86.35    3.12
  -4   8  -8   80.37    3.76
  -4  -8   8   83.87    3.17
   4  -8  -8   86.09    2.97
  -4  -8   8   85.93    3.14
   5   8  -8   -0.36    0.48
   5   8  -8   -0.61    0.51
   5  -8   8    0.04    0.63
   5  -8   8   -0.54    0.61
  -5   8   8   -0.16    0.43
   5   8   8    0.08    0.59
  -5  -8   8    0.53    0.48
   5   8   8   -0.05    0.40
  -5  -8   8   -0.29    0.60
  -5   8  -8    1.62    0.86
   5  -8  -8    0.06    0.40
   6   8  -8   56.53    2.59
   6   8  -8   52.50    2.50
  -6   8   8   56.73    1.96
   6   8   8   51.77    2.23
  -6  -8   8   56.64    2.29
   6  -8  -8   56.83    2.31
   7  -8   8   12.71    1.22
   7   8  -8   12.05    1.48
   7   8  -8   11.65    1.30
  -7   8   8   13.25    1.34
   7  -8   8   12.08    1.71
  -7  -8   8   10.95    1.12
   7   8   8   13.74    1.09
   7  -8  -8   13.12    1.19
   8   8  -8   52.28    2.55
   8   8  -8   52.13    2.67
   8  -8   8   48.69    2.30
   8  -8   8   44.59    2.96
  -8   8   8   51.77    2.69
   8  -8  -8   49.19    2.39
   8   8   8   51.40    2.35
  -8  -8   8   49.07    2.14
   9  -8   8   36.29    1.99
  -9   8   8   36.86    2.43
   9   8  -8   38.48    2.49
   9  -8   8   37.07    2.93
   9  -8  -8   35.07    2.13
   9   8   8   37.81    2.22
  -9  -8   8   38.84    1.86
  10  -8   8    2.51    1.33
 -10   8   8    1.72    1.10
  10  -8   8    1.42    0.91
  10   8  -8   -0.18    1.13
  10   8   8    2.34    1.04
  10  -8  -8    2.06    1.02
   0   9  -8   -0.21    0.58
   0   9  -8   -0.26    0.34
   0  -9   8   -0.79    0.38
   0  -9   8    0.61    0.50
   0  -9   8   -0.50    0.41
   0   9   8   -0.13    0.40
   1  -9   8   73.44    2.89
  -1   9   8   72.83    2.69
   1   9  -8   69.24    3.19
   1  -9   8   75.44    2.83
   1   9  -8   76.53    2.78
   1  -9   8   76.24    3.13
  -1   9  -8   66.76    3.29
   1   9   8   77.12    2.77
  -1   9  -8   74.61    2.73
  -1  -9   8   76.61    2.83
  -1  -9   8   70.84    2.84
  -1  -9   8   71.71    2.90
   2  -9   8   20.57    1.31
   2   9  -8   18.72    1.19
   2  -9   8   19.17    1.29
  -2   9   8   19.15    1.14
   2  -9   8   18.16    1.43
   2   9  -8   20.48    1.46
  -2  -9   8   18.93    1.29
   2   9   8   17.65    1.16
   2   9   8   17.96    0.79
  -2   9  -8   17.59    1.65
  -2  -9   8   18.02    1.24
   3   9  -8   -0.01    0.43
   3  -9   8   -0.06    0.55
   3  -9   8    0.39    0.48
   3  -9   8    0.89    0.60
  -3   9   8    0.32    0.44
   3   9  -8    0.38    0.58
   3   9   8    0.12    0.30
  -3  -9   8    0.08    0.48
  -3  -9   8   -0.30    0.56
   3  -9  -8    0.32    0.31
   4  -9   8    3.13    0.82
   4   9  -8    1.89    0.58
   4  -9   8    1.87    0.70
  -4   9   8    3.78    0.55
   4  -9   8    1.58    0.57
   4  -9  -8    2.47    0.47
   4   9   8    2.19    0.41
  -4  -9   8    2.01    0.60
  -4  -9   8    3.48    0.71
   4   9   8    2.06    0.66
  -5   9   8    0.61    0.49
   5  -9   8    1.09    0.58
   5   9  -8    0.61    0.59
   5   9  -8    0.52    0.63
   5  -9   8    0.65    0.72
   5  -9   8    1.50    0.73
   5   9   8    0.60    0.46
   5   9   8    0.89    0.38
  -5  -9   8   -0.04    0.52
   5  -9  -8    0.19    0.43
  -5  -9   8    0.91    0.68
   6   9  -8    8.25    1.07
   6  -9   8    8.29    1.07
  -6   9   8    8.03    0.84
   6  -9   8    7.32    1.11
   6   9  -8    8.13    1.19
   6  -9  -8    7.21    0.97
   6   9   8    7.07    0.78
  -6  -9   8    7.78    0.92
  -7   9   8    1.75    0.74
   7  -9   8    2.64    1.00
   7  -9   8    1.56    0.70
   7   9  -8    1.19    0.77
  -7  -9   8    1.51    0.70
   7   9   8    1.72    0.57
   7  -9  -8    2.00    0.67
   8   9  -8    3.25    1.00
  -8   9   8    2.84    0.88
   8  -9   8    1.97    1.12
   8   9  -8    2.91    0.89
   8  -9   8    2.12    0.81
   8   9   8    3.80    0.80
  -8  -9   8    2.76    0.75
   8   9   8    3.73    0.77
   8  -9  -8    1.53    0.79
   9  -9   8   35.87    2.77
  -9   9   8   34.67    2.39
   9   9  -8   36.66    2.53
   9  -9   8   31.09    1.97
  -9  -9   8   35.55    1.92
   9  -9  -8   33.06    2.10
  10   9  -8    7.06    1.47
 -10   9   8    4.82    1.37
  10  -9  -8    4.96    1.14
  10   9   8    4.84    1.20
 -10  -9   8    5.87    1.04
   0  10   8  119.10    4.11
   0  10  -8  110.96    4.79
   0 -10   8  119.91    4.15
   0 -10   8  118.49    4.48
   0  10  -8  120.47    4.07
   0 -10   8  121.69    4.26
   1 -10   8    0.00    0.47
   1  10  -8   -0.53    0.70
   1 -10   8   -0.98    0.54
   1  10  -8    0.58    0.43
  -1  10   8   -0.19    0.52
   1 -10   8    0.18    0.50
  -1 -10   8    0.38    0.50
  -1  10  -8   -0.47    0.74
   1  10   8    0.23    0.54
  -1 -10   8    0.13    0.54
  -2  10   8   45.95    1.95
   2 -10   8   44.96    2.04
   2 -10   8   42.14    2.06
   2  10  -8   45.26    1.97
   2 -10   8   43.74    2.25
   2  10  -8   43.75    2.37
  -2  10  -8   41.22    2.53
  -2 -10   8   44.86    2.04
  -2 -10   8   42.76    2.06
   3 -10   8    4.69    0.83
   3 -10   8    5.69    0.83
   3 -10   8    5.10    0.78
  -3  10   8    4.13    0.67
   3  10  -8    4.66    0.73
   3  10  -8    4.83    0.87
   3 -10  -8    4.33    0.47
  -3 -10   8    4.99    0.75
  -3 -10   8    4.93    0.79
  -4  10   8    7.20    0.95
   4 -10   8    8.95    1.01
   4  10  -8    8.49    1.08
   4  10  -8   10.61    1.31
   4 -10   8   10.98    1.39
   4 -10   8    9.25    1.08
   4 -10  -8   10.05    0.80
  -4 -10   8   10.36    1.24
   4  10   8    8.78    0.70
  -4 -10   8    7.32    0.93
  -5  10   8    8.04    0.94
   5  10  -8    8.65    1.12
   5 -10   8    7.68    0.99
   5  10  -8    7.38    0.93
   5 -10   8    6.59    1.00
   5 -10  -8    7.82    0.87
   5  10   8    7.56    0.76
  -5 -10   8    7.79    0.92
   5  10   8    5.87    0.79
  -5 -10   8    7.28    0.96
   5  10   8    6.95    0.74
   6 -10   8   36.22    2.47
   6 -10   8   38.11    2.00
  -6  10   8   39.50    1.75
   6  10  -8   39.64    2.17
   6  10  -8   38.40    2.23
  -6 -10   8   41.58    2.02
   6 -10  -8   39.77    1.84
   6  10   8   41.85    1.76
   6  10   8   35.96    1.72
   6  10   8   40.99    1.79
   7 -10   8   15.01    1.45
   7  10  -8   19.91    1.82
   7 -10   8   17.49    2.02
   7  10  -8   20.46    1.78
   7  10   8   19.75    1.29
   7 -10  -8   18.79    1.43
  -7 -10   8   19.05    1.50
   7  10   8   22.83    1.41
   8 -10   8   51.91    2.48
  -8  10   8   49.07    2.83
   8 -10   8   52.48    3.25
   8  10  -8   52.89    2.88
   8 -10  -8   53.38    2.53
   8  10   8   52.47    2.44
   8  10   8   54.35    2.41
  -9  10   8    5.65    1.24
   9  10  -8    5.54    1.30
   9 -10   8    8.99    1.17
   9 -10  -8    5.22    1.04
  -9 -10   8    6.87    1.07
 -10  10   8   42.15    3.06
  10  10  -8   42.37    3.13
  10 -10  -8   48.31    2.73
 -10 -10   8   43.30    2.34
  10  10   8   44.12    2.72
   0  11  -8    0.26    0.41
   0  11   8   -1.55    0.60
   0 -11   8   -0.14    0.50
   0  11  -8   -1.69    0.77
   0 -11   8    0.98    0.61
   1 -11   8   46.55    2.20
   1 -11   8   45.43    2.12
   1  11  -8   47.48    2.58
  -1  11   8   49.12    2.13
   1  11  -8   45.25    1.98
  -1  11  -8   46.49    2.70
  -1 -11   8   45.16    2.09
  -1 -11   8   46.95    2.21
   2 -11   8    7.65    1.05
  -2  11   8    8.68    1.09
   2 -11   8    8.81    1.17
   2  11  -8    6.99    1.10
   2 -11   8    7.79    0.93
   2  11  -8    6.66    0.92
  -2 -11   8    7.61    0.97
  -2  11  -8    6.78    1.19
  -2 -11   8    7.71    0.94
   3  11  -8   11.52    1.50
   3 -11   8   11.42    1.18
   3 -11   8    9.37    1.30
   3 -11   8   11.28    1.40
   3  11  -8   12.17    1.11
  -3  11   8   10.35    1.15
  -3 -11   8   14.03    1.25
   4  11  -8    0.79    0.81
   4 -11   8    0.68    0.80
   4 -11   8    1.55    0.76
  -4  11   8    1.95    0.68
   4  11  -8    0.69    0.57
   4 -11   8    1.17    0.61
  -4 -11   8    0.56    0.64
   4 -11  -8    1.25    0.43
  -4 -11   8    0.70    0.75
   5 -11   8    3.94    0.96
  -5  11   8    2.39    0.71
   5  11  -8    4.71    1.01
   5 -11   8    4.58    0.83
   5  11  -8    3.32    0.79
   5  11   8    3.47    0.51
  -5 -11   8    3.29    0.82
   5 -11  -8    4.58    0.62
  -5 -11   8    4.14    0.94
   5  11   8    3.34    0.52
  -6  11   8   -0.49    0.77
   6  11  -8    0.85    0.90
   6  11  -8   -0.38    0.71
   6 -11   8    0.49    0.70
   6 -11   8   -0.45    0.86
   6 -11  -8    0.56    0.56
  -6 -11   8   -0.14    0.75
   6  11   8   -0.09    0.47
   6  11   8    0.81    0.60
   6  11   8    0.98    0.55
   7  11  -8   -0.93    1.00
   7  11  -8    2.75    0.94
   7 -11   8    1.19    0.79
   7 -11  -8    1.28    0.71
   7  11   8    0.24    0.57
   7  11   8    0.14    0.66
  -7 -11   8    0.39    0.78
   8  11  -8   -0.29    1.03
   8 -11   8   -0.77    0.86
   8 -11  -8    0.81    0.86
  -8 -11   8    1.02    0.85
   8  11   8    0.04    0.85
   9  11  -8    0.99    1.28
  -9  11   8   -0.04    1.07
  -9 -11   8    0.20    0.98
   9 -11  -8    1.39    1.02
   0 -12   8  296.03    9.24
   0  12  -8  296.43   10.65
   0 -12   8  294.28    9.38
   0  12  -8  281.21    9.12
   1 -12   8   36.36    1.93
   1  12  -8   34.09    1.69
   1  12  -8   33.97    2.38
   1 -12   8   37.98    2.00
  -1 -12   8   34.58    1.95
  -1 -12   8   35.64    1.91
  -2  12   8   73.39    2.96
   2 -12   8   72.28    2.98
   2  12  -8   74.58    3.74
   2  12  -8   71.36    2.82
   2 -12   8   73.76    3.06
  -2 -12   8   70.33    2.91
   3  12  -8   47.18    2.74
  -3  12   8   49.55    2.30
   3 -12   8   49.79    2.38
   3  12  -8   47.46    2.19
   3 -12   8   48.44    2.38
  -3 -12   8   49.60    2.29
   4  12  -8   -0.04    0.92
   4 -12   8    0.76    0.90
   4 -12   8    0.63    0.67
  -4  12   8    0.12    0.77
   4  12  -8    0.44    0.62
   4 -12  -8    0.70    0.40
  -4 -12   8   -1.38    0.84
  -4 -12   8    0.17    0.68
  -5  12   8   -0.06    0.83
   5  12  -8    0.64    1.00
   5  12  -8    0.81    0.74
  -5 -12   8    0.29    0.75
   5  12   8   -0.42    0.48
   5 -12  -8    0.03    0.52
   5  12   8   -0.55    0.46
   6  12  -8    0.05    0.85
   6  12  -8    1.96    1.05
  -6 -12   8    0.36    0.79
   6 -12  -8    0.15    0.62
   6  12   8    0.21    0.62
   6  12   8    0.43    0.53
   7 -12   8   18.51    1.68
   7  12  -8   17.05    1.90
  -7 -12   8   16.29    1.69
   7  12   8   20.51    1.50
   7 -12  -8   19.13    1.53
   8  12  -8   29.47    2.44
   8 -12   8   31.51    2.06
   8  12   8   27.79    1.96
  -8 -12   8   31.24    2.09
   8 -12  -8   29.20    2.01
   0 -13   8   -0.32    0.62
   0 -13   8   -1.17    0.76
   1 -13   8    1.94    0.84
   1 -13   8    1.65    0.70
   1  13  -8    1.61    0.57
  -1 -13   8    1.44    0.69
  -1 -13   8    1.29    0.81
   2 -13   8    0.87    0.85
   2 -13   8    0.86    0.67
   2  13  -8   -1.40    1.11
   2  13  -8   -0.51    0.51
  -2 -13   8    1.24    0.74
  -2 -13   8    0.12    0.83
   3  13  -8    4.14    0.79
   3 -13   8    6.57    1.02
   3 -13   8    4.11    1.03
   3  13  -8    7.30    1.34
  -3 -13   8    5.44    0.97
  -3 -13   8    5.68    0.96
   4  13  -8    2.20    0.72
  -4  13   8    2.71    1.06
   4 -13   8    1.05    0.74
   4  13  -8    1.98    1.20
  -4 -13   8    1.64    0.95
  -4 -13   8    1.02    0.76
  -5  13   8    6.99    1.24
   5  13  -8    7.28    1.48
   5 -13   8   10.69    1.35
   5  13  -8   10.44    1.42
   5 -13  -8   10.17    0.98
  -5 -13   8    9.70    1.17
   6 -13   8   17.05    1.67
  -6 -13   8   20.49    1.81
   6 -13  -8   19.84    1.41
   7  13  -8    7.11    1.24
   7 -13   8    8.31    1.17
   7 -13  -8    7.66    1.04
  -7 -13   8   10.75    1.27
   8  13  -8   -1.39    1.25
   8 -13   8    0.21    1.02
  -8 -13   8   -0.29    1.11
   0 -14   8   37.18    2.16
   0 -14   8   40.67    2.20
   1 -14   8   13.75    1.67
   1 -14   8   14.29    1.51
   1  14  -8   13.42    1.16
  -1 -14   8   14.18    1.33
  -1 -14   8   11.56    1.43
   2  14  -8   16.16    1.31
   2 -14   8   18.74    1.59
   2 -14   8   15.30    1.83
  -2 -14   8   19.47    1.61
  -2 -14   8   17.22    1.69
   3 -14   8    0.70    1.11
   3  14  -8    1.36    0.70
   3 -14   8    0.62    0.80
  -3 -14   8    1.47    0.87
  -3 -14   8   -1.72    0.97
   4  14  -8   10.68    1.36
   4 -14   8    9.62    1.16
  -4 -14   8    9.32    1.29
   5  14  -8   -0.77    0.87
   5 -14   8    1.39    0.90
  -5 -14   8    0.38    0.91
   6 -14   8    3.14    0.98
   6  14  -8    3.56    1.08
  -6 -14   8    4.43    1.13
   7  14  -8   -1.03    1.15
   7 -14   8    1.30    1.05
  -7 -14   8   -0.56    1.07
   0 -15   8    0.58    0.85
   1 -15   8    9.41    1.28
  -1 -15   8    9.23    1.29
   2  15  -8    4.82    0.81
   2 -15   8    3.53    1.01
  -2 -15   8    4.59    1.02
   3 -15   8   16.36    1.73
   3  15  -8   16.08    1.45
  -3 -15   8   19.95    1.84
   4  15  -8   -1.05    0.79
   4 -15   8   -0.86    0.86
  -4 -15   8   -1.86    0.95
   5 -15   8    8.36    1.27
  -5 -15   8    9.72    1.33
   6 -15   8    1.04    1.04
   6  15  -8   -0.86    1.11
  -6 -15   8    1.25    1.15
   0 -16   8    3.06    1.06
   1 -16   8    3.01    1.01
  -1 -16   8    2.75    1.01
   2 -16   8   24.23    2.06
  -2 -16   8   27.44    2.12
   3  16  -8   -0.94    0.77
   3 -16   8   -0.72    1.02
  -3 -16   8   -0.59    1.02
   4 -16   8   50.07    2.79
   4  16  -8   49.28    2.49
  -4 -16   8   49.44    2.86
   5 -16   8    1.46    1.11
  -5 -16   8   -0.67    1.17
   0 -17   8   -0.76    1.07
   1 -17   8    0.66    1.09
  -1 -17   8    0.77    1.12
   2 -17   8   -1.10    1.05
  -2 -17   8    1.98    1.18
   3 -17   8   21.35    2.16
  -3 -17   8   18.88    2.21
   0   0   9    1.07    0.37
   0   0  -9   -0.29    0.20
  -1   0   9    0.29    0.29
   1   0   9    0.03    0.28
  -1   0   9    0.21    0.30
   1   0  -9    0.18    0.25
   1   0   9   -0.57    0.25
   1   0  -9   -0.12    0.25
  -1   0  -9   -0.27    0.22
  -1   0  -9   -0.06    0.22
  -2   0  -9   -0.01    0.25
  -2   0   9   -0.41    0.30
  -2   0   9    0.07    0.28
   2   0  -9    0.06    0.27
   2   0   9    0.01    0.30
   2   0   9    0.11    0.27
  -3   0   9    0.99    0.37
  -3   0   9    0.10    0.32
   3   0   9    0.06    0.31
  -3   0  -9   -0.22    0.25
   3   0  -9   -0.20    0.28
   3   0   9   -0.02    0.37
   3   0  -9   -0.56    0.25
  -4   0   9   -0.01    0.38
   4   0  -9    0.17    0.33
   4   0   9    0.12    0.36
   4   0  -9   -0.25    0.33
  -4   0   9   -0.33    0.32
  -4   0  -9    0.04    0.28
   4   0   9    0.18    0.39
   5   0  -9    1.33    0.43
  -5   0   9    1.24    0.45
   5   0   9    0.24    0.47
  -5   0   9    2.27    0.48
   5   0   9    0.84    0.42
  -6   0   9    0.01    0.30
  -6   0   9   -0.19    0.42
  -6   0   9    0.02    0.49
   6   0  -9    0.02    0.44
  -6   0  -9   -0.04    0.28
   6   0   9   -0.29    0.52
  -7   0   9   -0.07    0.51
   7   0   9   -0.13    0.64
   7   0  -9   -0.36    0.49
  -7   0   9    0.33    0.60
  -8   0   9    0.65    0.58
   8   0   9   -0.43    0.76
  -8   0   9    0.70    0.70
   8   0  -9    0.20    0.63
  -9   0   9   -0.27    0.61
   9   0   9   -1.05    0.90
   9   0  -9    0.92    0.71
  10   0  -9    1.50    0.88
  10   0   9   -0.16    1.10
  11   0   9    1.77    1.39
  11   0  -9   -1.04    0.96
   0  -1   9   -0.03    0.28
   0  -1   9    0.11    0.28
   0  -1  -9    0.52    0.26
   0   1   9    0.34    0.28
   0   1  -9   -0.30    0.23
   0  -1  -9    0.17    0.21
   0   1   9    0.37    0.30
   1  -1   9   49.64    2.33
   1   1  -9   54.83    2.08
   1   1  -9   54.86    2.25
  -1   1   9   52.12    2.31
  -1  -1  -9   54.06    2.00
   1  -1   9   54.07    2.08
  -1  -1  -9   56.44    2.16
   1   1   9   56.98    2.34
  -1  -1   9   54.12    2.11
  -1  -1   9   52.35    2.34
   1  -1  -9   58.19    2.06
   1  -1  -9   55.11    2.21
  -1   1  -9   53.93    2.04
   2  -1   9    5.06    0.69
   2  -1   9    4.30    0.57
  -2   1   9    4.75    0.59
   2   1  -9    4.17    0.54
  -2  -1  -9    3.57    0.47
   2   1  -9    3.08    0.46
   2  -1  -9    4.37    0.57
   2   1   9    3.90    0.60
   2   1   9    5.13    0.57
  -2  -1   9    5.32    0.66
   2  -1  -9    5.06    0.54
  -2  -1   9    4.57    0.65
  -3   1   9  159.06    5.75
  -3   1   9  156.53    5.14
   3  -1   9  168.26    5.86
   3   1  -9  158.33    5.63
  -3  -1  -9  147.03    5.43
   3  -1   9  158.76    5.16
   3   1  -9  156.32    5.21
  -3  -1   9  156.63    5.72
   3  -1  -9  156.22    5.16
   3  -1  -9  162.72    5.62
   3   1   9  160.57    5.12
   3   1   9  154.29    5.73
  -3  -1   9  158.52    5.18
  -4   1   9    1.05    0.39
   4   1  -9    0.57    0.34
   4  -1   9    0.33    0.43
  -4  -1  -9    0.28    0.24
  -4   1   9    0.16    0.38
   4  -1   9    0.63    0.40
   4   1  -9    1.24    0.43
  -4  -1   9    0.42    0.37
   4   1   9    0.45    0.40
   4  -1  -9    0.37    0.39
  -4  -1   9    0.14    0.39
   4   1   9    0.41    0.35
   5   1  -9  265.46    8.45
   5  -1   9  250.01    9.36
  -5   1   9  257.26    9.24
   5   1  -9  266.51    9.14
  -5  -1  -9  254.67    8.78
   5  -1   9  259.60    8.36
  -5   1   9  273.33    8.37
  -5  -1   9  262.19    8.37
   5   1   9  263.95    9.30
  -5  -1   9  273.05    7.99
   5  -1  -9  264.28    8.41
  -5  -1   9  259.73    9.17
  -5   1  -9  287.55    9.10
   5   1   9  263.62    8.33
   6  -1   9   13.11    1.27
  -6   1   9   10.70    1.07
   6   1  -9   11.94    1.10
   6   1   9   12.59    1.21
  -6   1  -9   14.08    0.93
  -6  -1   9   11.47    1.01
   6  -1  -9   12.81    1.11
  -6  -1   9   13.30    1.12
  -6  -1   9   12.37    0.74
   7   1  -9   60.61    2.64
  -7   1   9   60.58    2.66
   7  -1   9   59.74    2.93
   7  -1  -9   56.95    2.57
  -7   1  -9   50.85    2.27
  -7  -1   9   61.01    2.55
   7   1   9   62.25    2.86
  -7  -1   9   58.77    1.96
  -8   1   9   34.03    2.05
  -8   1   9   36.19    1.96
   8  -1   9   35.05    2.29
  -8  -1   9   34.91    1.81
   8  -1  -9   34.87    2.03
   8   1   9   39.12    2.25
  -8  -1   9   38.09    1.81
  -9   1   9    8.66    1.27
   9  -1   9   12.81    1.81
   9   1  -9   12.76    1.42
  -9   1   9    9.56    1.18
   9  -1  -9    9.11    1.16
   9   1   9    7.21    1.26
  10  -1   9    1.19    1.13
 -10   1   9    1.58    0.82
  10   1  -9    3.66    0.99
  10  -1  -9    2.71    0.90
  11   1  -9   10.40    1.49
  11  -1   9   10.02    1.78
  11  -1  -9    9.54    1.43
  11   1   9    9.10    1.63
   0   2  -9  495.54   15.28
   0  -2   9  511.65   15.33
   0  -2  -9  539.65   15.21
   0  -2  -9  501.22   16.81
   0   2   9  511.92   15.24
   0   2  -9  518.01   16.99
   0  -2   9  514.20   17.09
   0   2   9  473.07   16.96
  -1   2   9  100.92    3.98
   1  -2   9  107.90    3.63
   1   2  -9  108.95    3.98
  -1  -2  -9  102.99    3.47
  -1  -2  -9  108.51    3.78
   1  -2   9  107.70    4.11
  -1   2   9  109.35    3.56
   1   2  -9  104.16    3.60
  -1   2  -9  110.66    3.99
  -1   2  -9  103.82    3.58
  -1  -2   9  105.29    4.05
  -1  -2   9  108.84    3.66
   1   2   9  100.08    3.96
   1  -2  -9  105.34    3.52
   1   2   9  106.12    3.53
   2   2  -9   42.36    1.79
  -2   2   9   40.45    1.93
  -2  -2  -9   44.81    1.70
   2  -2   9   38.04    2.00
  -2   2   9   44.78    1.74
   2   2  -9   43.65    1.90
   2  -2   9   43.52    1.78
  -2  -2   9   41.76    1.96
  -2   2  -9   44.41    1.93
   2  -2  -9   44.10    1.72
  -2  -2   9   41.93    1.80
   2   2   9   42.39    1.93
   3   2  -9   14.27    0.98
   3  -2   9   16.56    1.20
  -3   2   9   14.27    0.94
   3  -2   9   14.34    0.93
  -3   2   9   15.65    1.05
   3   2  -9   15.05    0.99
   3   2   9   16.61    1.06
  -3  -2   9   14.27    1.01
  -3  -2   9   15.64    1.07
  -3   2  -9   16.59    1.05
   3   2   9   14.99    0.90
   3  -2  -9   13.70    0.93
  -4   2   9   10.49    0.86
  -4   2   9    9.10    0.91
   4   2  -9   11.88    0.89
   4  -2   9   12.11    1.12
   4   2  -9    9.87    0.91
   4  -2   9   11.17    0.90
   4   2   9   11.14    0.83
  -4  -2   9   10.04    0.90
  -4  -2   9   10.84    0.94
  -4   2  -9   10.72    0.90
   4  -2  -9   11.89    0.90
   4   2   9    9.84    0.94
  -5   2   9    6.27    0.79
   5  -2   9    5.09    0.70
  -5   2   9    5.88    0.78
   5   2  -9    5.14    0.72
   5   2  -9    4.66    0.71
   5  -2   9    5.21    0.81
   5  -2  -9    6.13    0.81
   5   2   9    6.05    0.88
  -5  -2   9    6.22    0.77
  -5   2  -9    4.50    0.66
  -5  -2   9    4.69    0.63
   5   2   9    5.22    0.65
  -5  -2   9    5.38    0.78
   6   2  -9   46.85    2.17
   6  -2   9   50.51    2.20
   6  -2   9   48.37    2.52
  -6   2   9   51.09    2.35
   6   2  -9   49.00    2.24
   6   2   9   45.05    2.31
   6  -2  -9   45.88    2.15
  -6  -2   9   48.87    2.15
  -6   2  -9   51.27    2.19
  -6  -2   9   48.24    1.80
   7  -2   9   28.61    1.99
  -7   2   9   29.78    1.72
   7   2  -9   25.63    1.68
   7  -2  -9   29.38    1.69
  -7  -2   9   30.20    1.21
  -7   2  -9   27.92    1.53
   7   2   9   29.54    1.85
  -7  -2   9   28.76    1.48
  -7  -2   9   29.93    1.50
   8  -2   9   17.13    1.75
  -8   2   9   14.83    1.66
  -8   2   9   16.34    1.39
  -8  -2   9   16.71    1.06
   8   2   9   18.71    1.62
   8  -2  -9   15.86    1.44
   9   2  -9    9.77    1.28
  -9   2   9    7.84    1.24
  -9   2   9    7.81    1.02
   9  -2  -9    6.11    0.97
   9   2   9    8.36    0.95
  -9   2  -9   10.00    0.91
   9   2   9    8.86    1.27
 -10   2   9    7.13    1.07
  10   2  -9    6.63    1.26
  10  -2   9    5.65    1.32
  10  -2  -9    6.37    1.13
  10   2   9    5.59    1.32
  11  -2   9   33.22    2.99
  11   2  -9   30.46    2.47
  11  -2  -9   30.07    2.42
  11   2   9   30.28    2.82
   0  -3   9   -0.02    0.31
   0   3  -9   -0.07    0.28
   0   3  -9    0.25    0.27
   0   3   9    0.12    0.24
   0   3   9   -0.31    0.25
   0  -3   9   -0.25    0.29
   0  -3  -9   -0.43    0.20
   1  -3   9   48.31    1.94
   1   3  -9   46.81    1.92
  -1   3   9   48.04    1.83
   1   3  -9   47.90    2.11
  -1  -3  -9   48.38    1.77
   1  -3   9   47.70    2.23
  -1   3   9   47.74    2.09
  -1  -3   9   49.46    1.97
   1   3   9   49.48    2.08
  -1  -3   9   48.14    2.17
   1   3   9   47.91    1.81
  -1   3  -9   46.12    2.13
   1  -3  -9   48.22    1.81
  -1   3  -9   47.85    1.90
   2   3  -9    0.13    0.31
   2  -3   9   -0.37    0.31
   2   3  -9    0.38    0.33
  -2   3   9    0.39    0.32
   2  -3   9    0.14    0.40
   2   3   9    0.02    0.29
  -2   3  -9   -0.21    0.38
   2  -3  -9   -0.33    0.25
   2   3   9    0.35    0.28
  -2  -3   9    0.09    0.35
  -2  -3   9    0.08    0.34
  -3   3   9   55.23    2.07
   3   3  -9   54.78    2.21
   3  -3   9   55.54    2.18
   3  -3   9   53.14    2.50
   3   3  -9   56.30    2.32
  -3   3   9   51.39    2.35
   3  -3  -9   50.12    2.07
   3   3   9   53.77    2.28
   3   3   9   52.42    2.03
  -3   3  -9   57.54    2.40
  -3  -3   9   52.86    2.33
  -3  -3   9   53.75    2.20
   4   3  -9    6.97    0.81
   4   3  -9    6.80    0.76
   4  -3   9    7.65    0.80
   4  -3   9    7.90    0.98
  -4   3   9    6.08    0.74
  -4   3   9    9.34    0.87
   4   3   9    6.51    0.71
  -4  -3   9    6.42    0.75
  -4  -3   9    7.47    0.71
   4  -3  -9    5.65    0.73
   4   3   9    5.87    0.77
  -4   3  -9    5.90    0.85
  -4  -3   9    6.95    0.81
   5  -3   9   17.29    1.20
  -5   3   9   15.01    1.18
  -5   3   9   17.04    1.10
   5   3  -9   16.21    1.11
   5  -3   9   18.78    1.46
   5   3  -9   16.38    1.21
  -5   3  -9   17.34    1.25
  -5  -3   9   15.79    1.19
   5   3   9   16.99    1.18
   5  -3  -9   16.29    1.13
  -5  -3   9   16.21    0.95
   5   3   9   17.95    1.09
  -5  -3   9   14.72    1.07
   6  -3   9    4.99    0.88
   6   3  -9    4.71    0.78
   6   3  -9    5.05    0.71
  -6   3   9    3.56    0.67
  -6   3  -9    5.09    0.78
  -6  -3   9    4.22    0.53
  -6  -3   9    4.22    0.59
   6  -3  -9    4.97    0.73
   6   3   9    6.42    0.96
   7   3  -9   36.82    2.02
   7  -3   9   38.56    2.35
  -7   3   9   39.34    2.07
   7   3  -9   39.15    1.95
  -7   3  -9   38.85    2.00
   7  -3  -9   39.81    1.99
  -7  -3   9   37.59    1.52
   7   3   9   37.48    2.08
   8  -3   9    0.47    0.84
  -8   3   9    0.55    0.96
   8   3  -9    0.09    0.66
  -8   3   9    1.13    0.65
   8   3   9    0.43    0.72
  -8  -3   9    0.05    0.38
  -8   3  -9   -0.31    0.68
   8  -3  -9    0.78    0.62
   8   3   9    0.59    0.60
   9   3  -9   26.29    1.95
  -9   3   9   26.61    1.82
   9  -3   9   25.56    2.24
  -9   3   9   27.25    2.33
   9  -3  -9   27.22    1.84
  -9   3  -9   24.91    1.73
   9   3   9   25.16    2.03
 -10   3   9    2.59    0.89
  10   3  -9    4.44    1.07
  10  -3   9    1.44    1.22
  10  -3  -9    2.17    0.93
  10   3   9    4.52    1.29
  11   3  -9    6.25    1.33
  11  -3   9    5.06    1.60
  11  -3  -9    4.50    1.22
  11   3   9    6.49    1.60
   0   4   9   18.05    1.09
   0  -4   9   19.07    1.12
   0  -4   9   20.50    1.27
   0   4   9   18.20    0.95
   0   4  -9   16.95    1.02
   0   4  -9   23.09    1.26
   0  -4  -9   18.54    0.89
  -1   4   9    3.61    0.56
   1  -4   9    4.93    0.75
   1   4  -9    2.85    0.45
   1  -4   9    3.67    0.54
  -1   4   9    3.44    0.45
   1   4  -9    3.01    0.51
  -1   4  -9    3.44    0.49
   1   4   9    3.58    0.50
  -1  -4   9    3.33    0.56
   1  -4  -9    3.31    0.46
  -1   4  -9    3.45    0.59
   1   4   9    3.87    0.55
  -2   4   9    3.04    0.53
   2   4  -9    2.34    0.44
   2  -4   9    1.34    0.50
  -2   4   9    1.89    0.37
   2  -4   9    2.19    0.46
   2   4  -9    1.09    0.41
   2   4   9    1.87    0.37
  -2  -4   9    1.45    0.44
   2   4   9    1.87    0.39
  -2   4  -9    1.31    0.46
   2  -4  -9    2.13    0.38
  -2  -4   9    2.06    0.46
   3  -4   9  124.51    4.31
   3  -4   9  122.22    4.90
   3   4  -9  126.78    4.71
   3   4  -9  127.03    4.37
  -3   4   9  126.05    4.17
  -3   4   9  133.95    4.80
   3   4   9  118.03    4.59
  -3   4  -9  129.32    4.83
   3  -4  -9  127.97    4.21
   3   4   9  120.72    4.13
  -3  -4   9  132.49    4.69
  -3  -4   9  131.55    4.37
   4   4  -9    0.04    0.35
  -4   4   9   -0.26    0.36
   4   4  -9    0.49    0.43
   4  -4   9   -0.16    0.40
  -4   4   9   -0.38    0.33
   4  -4   9    0.28    0.48
   4   4   9   -0.12    0.34
  -4   4  -9   -0.31    0.46
  -4  -4   9    0.45    0.37
  -4  -4   9    0.39    0.48
   4  -4  -9    0.11    0.35
  -4  -4   9    0.07    0.38
   4   4   9    0.35    0.35
   5  -4   9    1.29    0.53
   5  -4   9    2.66    0.68
  -5   4   9    2.89    0.61
   5   4  -9    2.18    0.51
  -5   4   9    2.61    0.30
   5  -4  -9    2.24    0.50
  -5   4  -9    2.94    0.70
   5   4   9    2.15    0.51
   5   4   9    1.65    0.45
  -5  -4   9    2.47    0.46
  -5  -4   9    1.97    0.58
   6  -4   9   -0.61    0.61
   6   4  -9    0.19    0.46
  -6   4   9    0.39    0.47
   6   4  -9    0.73    0.55
  -6   4  -9   -0.35    0.61
   6  -4  -9    0.22    0.44
  -6  -4   9    0.09    0.59
  -6  -4   9    0.01    0.41
  -6  -4   9   -0.01    0.33
   6   4   9    0.28    0.47
   7   4  -9   44.21    2.17
   7   4  -9   43.64    2.24
  -7   4   9   43.88    2.27
   7  -4   9   42.79    2.57
   7   4   9   46.59    2.24
  -7  -4   9   41.82    1.73
  -7   4  -9   45.73    2.34
   7  -4  -9   45.03    2.13
   7   4   9   41.63    1.89
   8   4  -9    1.18    0.69
  -8   4   9    2.04    0.72
  -8   4   9    2.79    1.11
   8   4  -9    1.27    0.71
   8   4   9    2.26    0.74
  -8  -4   9    2.34    0.50
   8  -4  -9    1.81    0.68
   8   4   9    1.96    0.79
  -8   4  -9    1.94    0.88
  -9   4   9   30.91    2.07
   9  -4   9   29.02    2.46
   9   4  -9   27.89    2.06
  -9   4  -9   32.42    2.13
   9  -4  -9   31.31    1.97
   9   4   9   32.38    2.21
  -9  -4   9   28.97    1.27
  10  -4   9    2.30    1.25
 -10   4   9    3.52    1.05
  10   4  -9    2.90    1.04
  10  -4  -9    4.37    1.07
  10   4   9    3.17    1.23
  11  -4   9    3.98    1.53
  11   4  -9    3.57    1.24
 -11   4   9   -1.48    1.11
  11  -4  -9    1.19    1.06
   0   5  -9   -0.38    0.27
   0  -5  -9    0.00    0.21
   0   5  -9   -0.04    0.37
   0   5   9   -0.07    0.26
   0  -5   9   -0.24    0.40
   0  -5   9    0.24    0.38
   0   5   9   -0.19    0.24
  -1   5   9  323.72   11.10
   1  -5   9  333.29   10.10
  -1   5   9  332.33    9.86
   1   5  -9  318.70   11.19
   1   5  -9  319.66   10.06
   1  -5   9  314.25   11.25
  -1  -5   9  333.25   10.11
  -1   5  -9  328.61   11.26
  -1  -5   9  330.23   11.17
   1   5   9  320.12   11.02
   1  -5  -9  327.35    9.82
   1   5   9  323.15    9.84
  -1   5  -9  323.34   10.03
  -2   5   9   50.13    2.15
   2  -5   9   47.97    2.31
   2   5  -9   44.12    2.14
   2  -5   9   47.67    2.00
   2   5  -9   47.01    2.00
  -2   5   9   50.58    1.81
  -2  -5   9   48.25    2.02
  -2   5  -9   48.48    2.27
   2   5   9   40.89    1.96
  -2  -5   9   46.35    2.11
   2  -5  -9   49.05    1.80
   2   5   9   47.82    1.78
   3  -5   9   34.78    1.95
  -3   5   9   35.04    1.48
  -3   5   9   34.31    1.33
   3   5  -9   32.83    1.72
  -3   5   9   36.64    1.78
   3   5  -9   34.05    1.67
   3  -5   9   35.84    1.68
   3  -5  -9   41.92    1.58
  -3  -5   9   34.94    1.70
   3   5   9   31.66    1.58
  -3   5  -9   35.24    1.91
  -3  -5   9   34.56    1.67
  -3  -5   9   35.21    1.60
   4   5  -9    4.56    0.65
   4  -5   9    3.32    0.56
   4   5  -9    5.22    0.74
  -4   5   9    5.46    0.66
  -4   5   9    4.49    0.67
  -4   5   9    3.95    0.40
  -4  -5   9    4.93    0.71
  -4  -5   9    4.34    0.66
  -4  -5   9    4.62    0.59
   4   5   9    3.75    0.54
   4   5   9    3.33    0.52
   4  -5  -9    4.36    0.59
  -5   5   9    2.66    0.60
   5  -5   9    2.82    0.64
   5  -5   9    1.78    0.68
   5   5  -9    1.46    0.49
   5   5  -9    2.03    0.53
  -5   5   9    2.29    0.32
   5  -5  -9    2.16    0.50
   5   5   9    1.40    0.47
  -5   5  -9    1.42    0.68
  -5  -5   9    2.50    0.51
  -5  -5   9    2.73    0.63
   5   5   9    2.21    0.47
  -5  -5   9    1.31    0.42
   5   5   9    1.98    0.51
   6   5  -9    0.60    0.51
   6  -5   9   -1.00    0.62
  -6   5   9    0.30    0.47
   6  -5   9    0.27    0.65
   6   5  -9    0.02    0.46
   6   5   9    0.08    0.49
  -6  -5   9    0.44    0.43
   6   5   9    0.73    0.49
  -6  -5   9   -1.30    0.64
  -6   5  -9   -0.38    0.68
   6  -5  -9   -0.62    0.42
   7  -5   9   29.59    2.16
   7   5  -9   28.26    1.83
  -7   5   9   29.14    1.82
   7   5  -9   27.72    1.66
   7   5   9   27.83    1.67
   7  -5  -9   29.37    1.66
  -7  -5   9   27.29    1.35
  -7   5  -9   23.21    2.05
   7   5   9   25.15    1.53
   8   5  -9    8.39    1.24
   8   5  -9    8.33    1.13
  -8   5   9    8.06    1.09
   8  -5   9    6.78    1.19
   8   5   9    8.80    1.10
  -8  -5   9    6.80    0.73
  -8   5  -9    9.08    1.21
   8  -5  -9    7.07    0.98
   9   5  -9   53.91    2.76
   9  -5   9   51.16    3.08
  -9   5   9   47.40    2.72
   9  -5  -9   48.51    2.51
  -9   5  -9   48.02    2.88
  -9  -5   9   50.97    1.93
   9   5   9   49.39    2.72
 -10   5   9   -1.01    0.95
  10   5  -9    0.96    1.03
  10  -5   9   -0.80    1.21
  10  -5  -9    0.76    0.93
  10   5   9   -2.17    1.13
  11  -5   9   79.72    4.55
 -11   5   9   80.69    3.89
  11   5  -9   80.71    4.00
  11   5   9   81.95    4.25
  11  -5  -9   83.15    3.84
   0  -6   9    3.26    0.63
   0  -6   9    2.78    0.52
   0  -6  -9    4.34    0.43
   0   6   9    3.37    0.51
   0   6  -9    2.63    0.57
   0   6   9    4.21    0.51
   0   6   9    3.36    0.43
   0   6  -9    2.46    0.47
   1  -6   9    3.57    0.58
  -1   6   9    4.06    0.49
   1  -6   9    3.87    0.68
  -1   6   9    4.33    0.51
   1   6  -9    3.26    0.57
   1   6  -9    4.61    0.70
  -1   6   9    3.98    0.60
   1  -6  -9    3.24    0.45
  -1   6  -9    3.35    0.61
   1   6   9    4.69    0.60
  -1   6  -9    3.40    0.50
  -1  -6   9    4.14    0.62
  -1  -6   9    3.34    0.57
   1   6   9    4.47    0.54
   1   6   9    3.78    0.43
   2  -6   9    9.21    1.04
   2   6  -9    6.17    0.88
   2   6  -9    5.85    0.78
  -2   6   9    6.57    0.60
   2  -6   9    9.79    0.89
  -2   6   9    6.74    0.74
  -2   6   9    7.02    0.57
   2  -6  -9    6.64    0.61
   2   6   9    7.18    0.70
  -2  -6   9    6.67    0.80
  -2  -6   9    6.75    0.77
   2   6   9    7.33    0.67
   2   6   9    6.64    0.62
  -2  -6   9    6.14    0.81
   3   6  -9    1.15    0.49
  -3   6   9    1.49    0.34
   3   6  -9    0.75    0.45
  -3   6   9    1.41    0.42
   3  -6   9    0.53    0.52
  -3   6   9    1.49    0.35
   3  -6   9    0.89    0.50
   3   6   9    1.59    0.43
   3  -6  -9    1.54    0.39
   3   6   9    1.84    0.41
  -3  -6   9    1.12    0.42
  -3  -6   9   -0.22    0.50
  -3  -6   9    1.64    0.47
  -3   6  -9    0.93    0.55
   3   6   9    0.86    0.32
  -4   6   9    3.59    0.48
   4   6  -9    2.93    0.59
   4  -6   9    3.60    0.75
   4  -6   9    2.22    0.53
  -4   6   9    3.37    0.63
   4   6  -9    2.49    0.61
  -4  -6   9    3.53    0.59
   4  -6  -9    3.17    0.53
  -4   6  -9    2.50    0.73
   4   6   9    2.71    0.48
  -4  -6   9    2.56    0.44
   4   6   9    3.53    0.54
   4   6   9    2.59    0.46
  -4  -6   9    3.99    0.68
   5  -6   9   -0.33    0.57
  -5   6   9   -0.19    0.43
   5  -6   9    0.34    0.63
   5   6  -9    0.18    0.49
  -5   6   9    0.68    0.32
   5   6  -9   -0.09    0.51
   5   6   9   -0.07    0.47
  -5  -6   9    0.49    0.45
   5  -6  -9   -0.42    0.39
   5   6   9    0.06    0.42
   5   6   9    0.31    0.40
  -5   6  -9   -0.17    0.67
  -5  -6   9   -0.47    0.58
   6   6  -9    0.49    0.58
   6  -6   9    0.63    0.77
  -6   6   9    0.16    0.50
  -6   6   9    0.13    0.29
  -6  -6   9    0.57    0.66
   6  -6  -9    0.13    0.48
   6   6   9    0.36    0.49
  -6   6  -9   -1.25    0.78
   6   6   9    0.48    0.58
  -6  -6   9    0.41    0.46
   7  -6   9   -0.34    0.87
  -7   6   9    1.64    0.68
   7   6  -9    2.95    0.78
   7   6  -9    1.61    0.64
   7   6   9    1.86    0.64
  -7  -6   9    0.79    0.52
   7  -6  -9    1.80    0.65
  -7   6  -9    0.45    0.95
  -8   6   9    1.02    0.72
   8   6  -9    2.60    0.80
   8   6  -9    2.17    0.86
   8  -6   9    2.47    1.01
   8  -6  -9    1.52    0.72
  -8   6  -9    0.80    1.15
   8   6   9    2.41    0.78
  -8  -6   9    0.89    0.58
  -9   6   9    0.20    0.80
   9   6  -9    0.03    0.83
   9  -6   9    1.66    1.12
  -9  -6   9    0.48    0.57
   9  -6  -9    0.64    0.75
   9   6   9   -1.32    0.90
 -10   6   9   15.44    1.92
  10   6  -9   13.02    1.67
  10  -6   9   16.26    2.48
  10   6   9   17.07    2.11
  10  -6  -9   20.69    1.85
 -11   6   9    2.01    1.34
  11  -6   9    3.92    1.69
  11   6  -9    3.58    1.33
  11  -6  -9    2.52    1.20
   0  -7   9    0.12    0.43
   0   7  -9    0.26    0.46
   0  -7   9   -0.33    0.41
   0   7   9   -0.31    0.26
   0   7   9   -0.02    0.31
   0   7  -9    0.15    0.34
  -1   7   9  142.56    4.51
   1   7  -9  135.38    4.68
  -1   7   9  139.70    4.37
   1  -7   9  141.77    4.75
   1  -7   9  134.84    5.26
   1   7  -9  143.29    5.33
   1   7   9  140.97    5.03
  -1   7  -9  138.40    4.66
   1   7   9  131.76    4.37
   1  -7  -9  137.29    4.35
   1   7   9  148.92    4.54
  -1  -7   9  134.13    4.72
  -1  -7   9  141.93    5.15
  -1   7  -9  145.72    5.41
  -1  -7   9  136.98    4.73
   2   7  -9   39.24    2.00
   2  -7   9   38.69    2.08
   2   7  -9   39.36    1.80
  -2   7   9   38.80    1.56
   2  -7   9   37.33    1.81
  -2   7   9   39.36    1.49
   2   7   9   39.26    1.50
   2   7   9   40.10    1.74
   2   7   9   39.98    1.65
   2  -7  -9   38.35    1.50
  -2  -7   9   40.20    1.85
  -2  -7   9   36.55    1.79
  -2  -7   9   38.40    1.81
  -2   7  -9   38.73    2.15
   3  -7   9   42.25    2.42
   3  -7   9   49.60    2.16
   3   7  -9   48.05    2.30
   3   7  -9   49.57    2.16
  -3   7   9   51.15    1.86
  -3  -7   9   50.77    2.05
  -3  -7   9   50.38    2.11
  -3  -7   9   52.04    2.20
   3  -7  -9   48.63    1.88
   3   7   9   48.43    2.05
  -3   7  -9   45.54    2.49
   3   7   9   50.96    1.99
   4   7  -9    7.21    0.96
   4  -7   9    5.87    0.95
   4   7  -9    7.10    0.98
  -4   7   9    7.57    0.66
  -4   7   9    5.83    0.87
   4  -7   9    7.21    0.85
  -4  -7   9    8.08    0.89
  -4  -7   9    8.14    0.93
  -4   7  -9    6.27    1.01
   4  -7  -9    8.18    0.81
   4   7   9    7.44    0.73
   4   7   9    8.05    0.73
   4   7   9    6.92    0.86
   5   7  -9   27.46    1.67
   5  -7   9   25.13    1.67
  -5   7   9   29.63    1.69
   5  -7   9   26.34    1.94
   5   7  -9   26.76    1.63
  -5   7   9   28.22    1.19
   5  -7  -9   27.38    1.43
   5   7   9   25.69    1.52
  -5  -7   9   25.96    1.44
  -5   7  -9   27.05    2.05
   5   7   9   27.90    1.37
   5   7   9   31.31    1.46
  -5  -7   9   27.55    1.67
  -6   7   9    2.94    0.74
   6   7  -9    2.31    0.70
   6  -7   9    2.97    0.89
  -6   7   9    3.71    0.47
   6   7  -9    4.40    0.76
  -6  -7   9    3.06    0.65
   6  -7  -9    2.80    0.63
  -6   7  -9    1.44    0.99
   6   7   9    3.11    0.62
   7   7  -9   45.48    2.61
   7   7  -9   42.77    2.24
  -7   7   9   42.95    2.37
   7  -7   9   46.23    2.73
   7  -7  -9   48.92    2.16
  -7  -7   9   42.28    1.93
   7   7   9   38.87    2.08
  -8   7   9    1.22    0.74
   8   7  -9    2.13    0.82
   8  -7   9    1.87    1.00
   8   7  -9    1.77    0.84
   8  -7  -9    1.82    0.75
  -8  -7   9    1.83    0.65
   8   7   9    0.35    0.74
   9  -7   9   89.39    4.59
   9   7  -9   95.58    4.08
  -9   7   9   90.12    4.19
   9  -7  -9   93.75    3.83
   9   7   9   93.10    3.99
  -9  -7   9   97.87    3.32
  10   7  -9    0.53    1.15
  10  -7   9    0.80    1.36
 -10   7   9   -1.15    1.02
  10  -7   9    2.16    0.98
  10  -7  -9    0.27    0.96
   0   8  -9  241.68    8.94
   0  -8   9  256.70    7.98
   0   8  -9  241.19    7.87
   0  -8   9  256.32    7.97
   0  -8   9  241.42    8.74
   0   8   9  252.54    7.48
   0   8   9  251.77    7.71
  -1   8   9   13.80    0.91
   1   8  -9   12.87    1.00
   1   8  -9   14.00    1.25
   1  -8   9   12.07    1.17
   1  -8   9   13.37    1.11
   1  -8   9   13.06    1.10
  -1   8   9   13.36    0.68
  -1  -8   9   12.43    1.06
  -1   8  -9   14.32    1.39
   1   8   9   13.11    0.95
  -1   8  -9   11.66    0.93
  -1  -8   9   12.96    1.12
   1  -8  -9   13.46    0.68
  -1  -8   9   14.44    1.11
   1   8   9   12.43    0.70
   2   8  -9    6.88    0.81
  -2   8   9    5.47    0.62
   2   8  -9    4.80    0.79
   2  -8   9    3.78    0.68
   2  -8   9    3.77    0.75
   2   8   9    4.65    0.55
  -2  -8   9    5.26    0.74
  -2  -8   9    4.63    0.61
   2  -8  -9    6.60    0.58
   2   8   9    5.11    0.64
  -2  -8   9    5.54    0.75
  -2   8  -9    3.81    0.86
   3  -8   9   29.35    1.66
   3  -8   9   30.93    1.93
  -3   8   9   30.92    1.38
   3   8  -9   28.98    1.78
   3   8  -9   29.28    1.62
  -3  -8   9   31.05    1.39
   3   8   9   32.08    1.48
   3  -8  -9   30.01    1.34
   3   8   9   30.92    1.29
  -3  -8   9   31.44    1.68
  -3  -8   9   31.34    1.62
  -4   8   9   26.70    1.24
   4  -8   9   26.41    1.85
   4   8  -9   28.75    1.68
   4   8  -9   27.26    1.58
   4  -8   9   29.79    1.67
  -4  -8   9   25.56    1.49
  -4   8  -9   23.26    1.98
   4   8   9   25.42    1.32
   4  -8  -9   25.36    1.28
  -4  -8   9   23.78    1.59
   4   8   9   24.84    1.46
  -5   8   9    0.92    0.43
   5  -8   9    2.24    0.77
   5  -8   9   -0.06    0.67
   5   8  -9    0.80    0.61
   5   8  -9    1.68    0.61
  -5   8   9    1.42    0.59
   5   8   9    0.59    0.47
   5   8   9    0.83    0.40
   5  -8  -9    1.32    0.50
  -5  -8   9    0.31    0.72
  -5  -8   9    0.77    0.54
   6  -8   9   11.82    1.58
  -6   8   9   11.32    0.83
  -6   8   9   11.53    1.24
   6   8  -9   10.79    1.30
   6   8  -9   10.41    1.33
   6   8   9   11.75    1.01
  -6  -8   9   12.76    1.15
   6  -8  -9   10.08    1.05
   6   8   9    9.65    1.07
  -7   8   9   14.36    1.49
   7  -8   9   17.23    1.86
   7   8  -9   16.22    1.55
  -7  -8   9   18.38    1.33
   7   8   9   17.79    1.36
   7  -8  -9   19.15    1.41
  -8   8   9    1.30    0.78
   8   8  -9    1.34    0.88
   8  -8   9    0.65    0.99
   8   8  -9    0.05    0.84
  -8  -8   9    0.54    0.70
   8   8   9    0.37    0.75
   8  -8  -9   -0.28    0.71
  -9   8   9   30.73    2.25
   9  -8   9   26.23    2.70
   9  -8   9   26.85    1.87
   9   8  -9   29.50    2.36
  -9  -8   9   26.72    1.68
   9  -8  -9   26.31    1.96
   9   8   9   24.55    2.05
 -10   8   9   11.04    1.59
  10   8  -9    9.20    1.58
  10  -8   9   11.90    1.90
  10  -8   9   13.47    1.44
  10  -8  -9   13.93    1.89
  10   8   9    9.00    1.35
   0  -9   9    0.31    0.49
   0   9   9   -0.20    0.46
   0  -9   9    0.04    0.54
   0   9  -9    0.61    0.64
   0   9  -9    0.09    0.39
   0  -9   9    0.02    0.48
   1   9  -9   33.82    2.09
   1  -9   9   36.35    1.98
   1  -9   9   35.32    1.83
   1  -9   9   37.59    1.84
  -1   9   9   36.04    1.66
   1   9  -9   34.14    1.70
   1   9   9   36.51    1.71
  -1   9  -9   34.89    1.67
  -1  -9   9   38.85    1.84
  -1   9  -9   36.92    2.21
  -1  -9   9   36.85    1.80
  -1  -9   9   36.28    1.82
   2  -9   9   33.68    1.77
  -2   9   9   31.59    1.54
   2   9  -9   34.69    2.00
   2  -9   9   34.75    1.98
   2  -9   9   32.57    1.76
   2   9  -9   35.04    1.70
  -2  -9   9   34.74    1.75
   2   9   9   30.59    1.62
   2   9   9   33.52    1.26
  -2  -9   9   33.52    1.79
   2  -9  -9   34.39    1.28
  -2  -9   9   32.34    1.56
  -2   9  -9   30.38    2.13
   3  -9   9   36.62    1.88
   3  -9   9   36.25    2.13
   3  -9   9   37.18    1.90
   3   9  -9   37.02    2.09
   3   9  -9   34.62    1.81
  -3   9   9   38.05    1.66
   3  -9  -9   38.47    1.49
  -3  -9   9   35.54    1.83
   3   9   9   35.96    1.44
  -3  -9   9   37.88    1.91
   4   9  -9    1.82    0.63
   4  -9   9    1.45    0.71
   4  -9   9    2.11    0.58
   4  -9   9    1.29    0.72
  -4   9   9    1.46    0.50
   4   9   9    1.91    0.43
  -4  -9   9    2.46    0.75
   4   9   9    0.79    0.41
  -4  -9   9    1.33    0.59
   4  -9  -9    1.32    0.46
   5  -9   9  128.80    4.61
   5   9  -9  127.50    5.03
   5   9  -9  128.17    4.69
  -5   9   9  132.44    4.22
   5  -9  -9  127.18    4.35
   5   9   9  131.37    4.26
   5   9   9  124.04    4.64
  -5  -9   9  130.15    4.51
   6   9  -9    2.64    0.84
   6   9  -9    4.39    0.89
   6  -9   9    3.73    1.01
   6  -9   9    3.45    0.75
  -6   9   9    4.51    0.86
   6   9   9    4.39    0.68
   6  -9  -9    2.71    0.65
   6   9   9    4.54    0.71
  -6  -9   9    4.08    0.77
  -7   9   9   17.34    1.57
   7   9  -9   17.66    1.71
   7  -9   9   16.09    1.97
   7   9  -9   17.44    1.69
   7  -9   9   16.19    1.47
   7  -9  -9   16.84    1.39
   7   9   9   18.49    1.36
  -7  -9   9   18.04    1.43
   8  -9   9    1.00    0.81
  -8   9   9    0.13    0.81
   8   9  -9    0.34    0.93
   8   9  -9    0.19    0.92
   8  -9   9    0.43    1.10
  -8  -9   9    1.31    0.77
   8  -9  -9   -0.17    0.76
   8   9   9    0.09    0.78
   9  -9   9   22.89    1.82
  -9   9   9   20.12    2.13
   9   9  -9   20.26    2.21
   9  -9   9   23.59    2.57
   9   9   9   21.60    1.80
  -9  -9   9   20.31    1.69
   9  -9  -9   20.86    1.84
  10   9  -9   -1.69    1.30
 -10   9   9    0.21    1.23
  10  -9  -9    1.26    1.08
  10   9   9    1.55    1.11
   0 -10   9   27.62    1.63
   0  10  -9   28.58    1.48
   0 -10   9   28.63    1.64
   0 -10   9   27.45    1.64
   0  10   9   28.95    1.55
   0  10  -9   25.39    2.00
   1  10  -9    4.37    0.68
  -1  10   9    6.74    0.82
   1 -10   9    5.36    0.82
   1  10  -9    4.91    1.03
   1 -10   9    4.75    0.78
   1 -10   9    5.35    0.78
  -1 -10   9    5.05    0.70
   1  10   9    5.53    0.82
  -1  10  -9    5.13    1.04
  -1 -10   9    5.32    0.84
  -1 -10   9    5.26    0.80
  -2  10   9   12.84    1.12
   2  10  -9   11.65    1.49
   2  10  -9   12.66    1.10
   2 -10   9   16.66    1.27
  -2 -10   9   14.30    1.32
  -2  10  -9   19.02    1.86
  -2 -10   9   12.10    1.20
   3 -10   9   34.99    1.90
  -3  10   9   37.70    1.72
   3  10  -9   37.61    2.20
   3 -10   9   35.92    1.96
   3  10  -9   36.61    1.83
   3 -10   9   36.84    2.20
  -3 -10   9   36.03    1.90
   3  10   9   34.58    1.35
   3 -10  -9   36.00    1.42
  -3 -10   9   36.44    1.95
   4 -10   9    4.38    0.86
   4  10  -9    4.70    0.84
  -4  10   9    4.83    0.68
   4  10  -9    5.16    0.98
   4 -10   9    5.73    1.01
   4 -10   9    4.84    0.93
   4  10   9    4.64    0.53
   4 -10  -9    4.75    0.60
  -4 -10   9    4.53    0.78
   4  10   9    3.94    0.59
  -4 -10   9    3.31    0.84
   5  10  -9    0.00    0.79
   5  10  -9   -0.03    0.63
  -5  10   9   -0.12    0.60
   5 -10   9    1.13    0.65
   5 -10   9   -1.04    0.78
   5  10   9    0.77    0.50
   5 -10  -9    1.09    0.50
  -5 -10   9   -0.18    0.63
   5  10   9    0.18    0.43
   6 -10   9   -0.62    0.85
   6  10  -9    0.92    0.83
   6  10  -9    1.86    0.82
   6 -10   9    1.66    0.70
  -6  10   9    1.33    0.67
   6  10   9    0.90    0.51
  -6 -10   9    0.78    0.69
   6 -10  -9   -0.78    0.54
   6  10   9    1.06    0.64
   7  10  -9   55.80    2.79
   7 -10   9   55.35    3.31
   7  10  -9   56.16    2.91
   7 -10   9   54.07    2.57
  -7  10   9   51.55    2.86
   7 -10  -9   56.48    2.47
   7  10   9   51.52    2.42
   7  10   9   53.38    2.44
   7  10   9   55.26    2.34
   8 -10   9    0.28    0.86
   8 -10   9    1.92    1.21
   8  10  -9    2.37    1.07
  -8  10   9    1.59    0.94
   8 -10  -9    0.55    0.84
   8  10   9    0.97    0.86
   8  10   9    2.13    0.82
  -8 -10   9    0.12    0.81
   9  10  -9    3.66    1.29
  -9  10   9    1.61    1.10
  -9 -10   9    2.91    1.01
   9  10   9    3.33    1.07
   9 -10  -9    2.41    0.99
   0  11  -9    0.60    0.95
   0  11  -9    0.10    0.43
   0 -11   9    0.27    0.53
   0 -11   9    1.11    0.69
   0 -11   9    0.01    0.57
   1 -11   9    4.11    0.83
   1  11  -9    4.15    0.67
   1 -11   9    3.22    0.71
   1  11  -9    2.39    0.97
   1 -11   9    3.61    0.76
  -1  11   9    3.51    0.78
  -1  11  -9    3.67    1.11
  -1 -11   9    5.59    0.84
  -1 -11   9    3.15    0.74
   2 -11   9   40.18    2.08
  -2  11   9   37.46    1.91
   2 -11   9   40.09    2.06
   2 -11   9   40.06    2.22
   2  11  -9   39.50    1.91
   2  11  -9   38.29    2.43
  -2 -11   9   38.86    2.06
  -2 -11   9   37.79    2.04
   3 -11   9   88.21    3.54
  -3  11   9   91.95    3.37
   3  11  -9   94.91    3.50
   3 -11   9   93.95    4.02
   3 -11   9   87.96    3.56
   3  11  -9   85.84    3.98
  -3 -11   9   89.81    3.55
   3 -11  -9   94.81    2.94
  -3 -11   9   87.88    3.47
   4  11  -9   23.24    1.93
   4  11  -9   21.32    1.56
   4 -11   9   21.45    1.58
  -4  11   9   23.89    1.49
  -4 -11   9   22.72    1.77
   4  11   9   21.35    1.06
  -4 -11   9   23.01    1.79
   4 -11  -9   22.30    1.14
   5 -11   9   37.09    2.46
   5  11  -9   33.35    2.03
   5  11  -9   34.00    2.33
   5 -11   9   33.83    1.98
  -5  11   9   39.85    1.87
   5  11   9   37.75    1.54
   5  11   9   33.12    1.69
  -5 -11   9   35.91    2.20
   6 -11   9    5.50    1.23
   6  11  -9    8.90    1.31
  -6  11   9    6.42    0.97
   6  11   9    8.84    1.01
   6  11   9    6.98    1.02
  -6 -11   9    8.20    1.08
   6  11   9    7.47    0.84
   6 -11  -9    7.13    0.85
   7  11  -9   33.71    2.52
   7  11  -9   34.43    2.29
   7 -11   9   30.30    2.67
  -7 -11   9   35.25    2.07
   7  11   9   38.25    1.91
   7 -11  -9   35.31    1.94
   7  11   9   35.79    1.87
  -8  11   9   11.33    1.50
   8  11  -9   13.51    1.55
   8 -11   9   12.74    1.61
   8  11   9   10.54    1.21
  -8 -11   9   13.33    1.60
   8 -11  -9   12.18    1.61
  -9  11   9    8.25    1.42
   9  11  -9    9.14    1.57
   9 -11   9    6.58    1.22
   9 -11  -9    6.51    1.28
  -9 -11   9    8.48    1.19
   0 -12   9    0.60    0.80
   1  12  -9    5.27    0.74
   1  12  -9    5.44    1.21
   1 -12   9    5.72    0.97
  -1 -12   9    5.21    0.91
   2  12  -9    3.10    0.65
   2 -12   9    3.44    0.91
  -2  12   9    1.73    0.83
  -2 -12   9    2.74    0.93
  -2 -12   9    2.13    0.78
   3  12  -9    6.39    0.88
   3 -12   9    6.17    1.09
  -3  12   9    6.15    1.02
   3 -12   9    6.08    1.04
   3  12  -9    7.82    1.32
  -3 -12   9    8.13    1.04
  -3 -12   9    7.98    1.03
  -4  12   9    1.53    0.88
   4 -12   9    1.92    0.76
   4 -12   9    1.97    0.91
   4  12  -9    1.34    0.71
   4  12  -9    1.44    1.12
   4 -12  -9    2.09    0.46
  -4 -12   9    2.63    0.81
  -5  12   9    0.55    0.87
   5  12  -9   -0.75    1.11
   5 -12   9    0.04    0.71
   5  12  -9   -0.04    0.75
   5  12   9    0.19    0.52
   5  12   9    0.05    0.49
   5 -12  -9   -0.28    0.56
  -5 -12   9    0.46    0.76
   6  12  -9   26.24    1.99
   6  12  -9   24.11    2.33
   6 -12   9   23.54    1.79
   6 -12  -9   25.13    1.53
   6  12   9   25.82    1.42
  -6 -12   9   22.72    1.80
   6  12   9   21.82    1.48
   7  12  -9    4.96    1.18
   7 -12   9    6.86    1.14
  -7 -12   9    5.36    1.10
   7  12   9    5.45    0.89
   7 -12  -9    7.82    1.01
   8  12  -9   -1.05    1.18
   8 -12   9    0.52    0.97
  -8  12   9   -1.35    0.99
   8 -12  -9   -1.20    0.97
  -8 -12   9    0.77    1.03
   0 -13   9   -1.11    0.64
   0 -13   9    0.03    0.89
   1  13  -9   26.31    1.50
   1 -13   9   25.24    1.90
   1 -13   9   24.70    1.73
  -1 -13   9   24.47    1.77
  -1 -13   9   22.67    1.89
   2  13  -9    7.04    0.89
   2 -13   9    9.02    1.14
   2 -13   9    5.92    1.18
  -2 -13   9    6.43    1.10
  -2 -13   9    7.13    1.02
   3 -13   9   55.90    2.67
   3  13  -9   55.62    2.50
  -3 -13   9   55.65    2.70
  -3 -13   9   54.80    2.66
   4  13  -9    6.26    1.00
   4 -13   9    6.30    1.04
  -4 -13   9    6.85    1.04
   5 -13   9  122.35    4.64
   5 -13  -9  123.89    4.02
  -5 -13   9  123.30    4.64
   6  13  -9    3.08    1.06
   6 -13   9    3.71    1.00
   6  13   9    3.05    0.76
   6 -13  -9    2.88    0.83
  -6 -13   9    4.39    1.07
   7  13  -9   36.18    2.55
   7 -13   9   36.56    2.30
  -7 -13   9   33.43    2.37
   0 -14   9    6.99    1.20
   0 -14   9    8.75    1.15
   1 -14   9    3.30    1.15
   1 -14   9    6.05    1.09
   1  14  -9    5.87    0.83
  -1 -14   9    5.48    0.98
  -1 -14   9    4.37    1.20
   2  14  -9   -0.46    0.62
   2 -14   9    0.75    0.81
  -2 -14   9    1.08    0.86
  -2 -14   9    0.64    1.07
   3 -14   9   27.48    1.97
   3  14  -9   29.85    1.81
  -3 -14   9   29.00    2.04
   4  14  -9   -1.24    0.82
   4 -14   9   -0.51    0.79
  -4 -14   9    1.02    0.92
   5 -14   9    1.55    0.93
   5  14  -9    0.80    0.96
  -5 -14   9    1.51    0.99
   6 -14   9    0.62    1.01
   6  14  -9    0.79    1.00
  -6 -14   9    3.61    1.13
   7  14  -9    1.75    1.25
   7 -14   9    4.01    1.23
  -7 -14   9    2.36    1.22
   0 -15   9   -0.70    0.85
   1 -15   9   67.04    3.16
  -1 -15   9   67.86    3.18
   2  15  -9    2.13    0.79
   2 -15   9    1.98    0.98
  -2 -15   9    4.08    1.03
   3 -15   9   14.06    1.74
   3  15  -9   13.08    1.47
  -3 -15   9   15.11    1.83
   4 -15   9    8.12    1.25
   4  15  -9    8.77    1.18
  -4 -15   9    7.56    1.35
   5 -15   9    2.40    1.10
   5  15  -9    4.11    1.11
  -5 -15   9    4.28    1.23
   6  15  -9    0.79    1.25
   6 -15   9    3.69    1.19
  -6 -15   9    2.56    1.24
   0 -16   9    2.17    1.04
   1 -16   9    2.49    1.06
  -1 -16   9    1.40    1.01
   2  16  -9    1.25    0.82
   2 -16   9    0.19    1.01
  -2 -16   9    0.53    1.05
   3 -16   9   20.81    2.03
   3  16  -9   15.43    1.68
  -3 -16   9   17.82    2.13
   4 -16   9    0.76    1.10
  -4 -16   9    0.09    1.17
   0 -17   9   -0.76    1.13
   1 -17   9   60.53    3.25
  -1 -17   9   60.71    3.23
   2 -17   9    4.86    1.30
  -2 -17   9    7.78    1.48
   0   0 -10   14.01    0.89
   0   0 -10   12.89    0.84
   0   0  10   14.00    0.94
   0   0  10   11.97    1.00
   1   0 -10    1.25    0.34
   1   0 -10    1.13    0.35
  -1   0 -10    1.87    0.39
  -1   0  10    1.85    0.45
  -1   0  10    1.05    0.41
   1   0  10    1.02    0.38
   1   0  10    1.84    0.46
  -1   0 -10    1.03    0.33
   2   0  10  151.06    5.88
  -2   0  10  156.81    5.88
  -2   0  10  168.35    5.30
   2   0  10  162.78    5.25
   2   0 -10  164.21    5.74
   2   0 -10  160.87    5.25
   3   0 -10  376.38   12.30
   3   0  10  333.49   12.43
  -3   0  10  372.89   11.19
   3   0  10  370.70   11.15
   3   0 -10  361.28   11.19
  -3   0  10  358.89   12.43
   4   0  10    7.62    0.98
   4   0 -10    7.07    0.85
  -4   0  10    7.68    0.88
   4   0 -10    7.70    0.76
  -4   0  10    8.27    0.92
   4   0  10    6.27    0.80
  -4   0 -10    7.02    0.71
  -5   0 -10   75.91    2.74
   5   0  10   69.97    3.16
  -5   0  10   71.02    2.81
  -5   0  10   70.60    3.05
   5   0  10   70.92    2.78
   5   0 -10   72.33    2.87
   6   0  10    2.55    0.64
  -6   0  10    2.04    0.40
   6   0 -10    1.76    0.55
  -6   0  10    1.64    0.63
   6   0  10    0.51    0.62
  -6   0  10    0.75    0.52
  -6   0 -10    1.12    0.36
  -7   0  10   13.67    1.27
   7   0  10   13.96    1.49
   7   0 -10   14.64    1.31
  -8   0  10   11.03    1.24
  -8   0  10   11.78    1.46
   8   0 -10   12.35    1.37
   8   0  10   13.55    1.65
   9   0 -10   32.13    2.13
  -9   0  10   31.18    2.10
   9   0  10   36.29    2.51
  -9   0  10   34.00    1.92
  10   0  10    2.07    1.25
  10   0 -10    3.89    1.07
  11   0 -10    0.89    1.11
  11   0  10   -0.12    1.49
   0  -1 -10    0.00    0.22
   0   1 -10   -0.25    0.25
   0  -1  10   -0.34    0.30
   0   1  10   -0.17    0.31
   0   1 -10    0.01    0.28
   0  -1 -10    0.16    0.27
   0   1  10   -0.14    0.30
   0  -1  10   -0.53    0.32
  -1   1  10    1.87    0.43
   1  -1  10    2.26    0.45
   1  -1  10    2.00    0.51
  -1   1  10    1.07    0.39
   1   1 -10    2.08    0.41
   1   1 -10    1.71    0.40
   1  -1 -10    2.36    0.43
  -1   1 -10    2.10    0.42
   1   1  10    2.29    0.49
  -1  -1  10    2.06    0.46
   1   1  10    1.24    0.39
  -1  -1  10    1.39    0.43
   1  -1 -10    1.59    0.37
  -1   1 -10    1.96    0.40
   2   1 -10    0.00    0.31
  -2   1  10    0.43    0.37
   2   1 -10    0.18    0.30
  -2   1  10   -0.07    0.31
   2  -1  10    0.68    0.41
   2  -1  10   -0.44    0.31
  -2  -1 -10    0.14    0.25
  -2  -1  10    0.00    0.36
   2  -1 -10    0.60    0.33
  -2   1 -10   -0.19    0.31
   2  -1 -10    0.40    0.30
   2   1  10   -0.05    0.30
   2   1  10    0.53    0.38
  -2  -1  10   -0.06    0.33
   3   1 -10    3.99    0.62
  -3  -1 -10    3.31    0.51
  -3   1  10    3.72    0.62
  -3   1  10    3.65    0.55
   3  -1  10    3.78    0.58
   3  -1  10    2.61    0.59
   3   1 -10    3.10    0.51
  -3  -1  10    3.52    0.59
  -3  -1  10    2.93    0.56
   3  -1 -10    3.41    0.54
  -3   1 -10    3.35    0.53
   3   1  10    2.79    0.56
   3   1  10    3.01    0.50
   3  -1 -10    3.07    0.48
   4  -1  10    8.06    0.86
   4   1 -10    7.67    0.78
  -4   1  10    6.65    0.89
   4  -1  10    7.64    0.99
  -4   1  10    6.92    0.85
   4   1 -10    6.77    0.84
  -4  -1 -10    8.51    0.65
  -4   1 -10    8.37    0.80
   4  -1 -10    8.79    0.89
   4   1  10    7.28    0.94
  -4  -1  10    8.29    0.92
   4   1  10    6.27    0.78
  -4  -1  10   10.89    0.96
  -5   1  10   49.64    2.16
   5  -1  10   50.49    2.18
  -5  -1 -10   51.77    1.93
   5  -1  10   54.15    2.56
   5   1 -10   51.92    2.27
  -5   1  10   51.28    2.39
   5   1 -10   48.49    2.23
  -5   1 -10   52.39    2.17
  -5  -1  10   51.27    2.33
   5   1  10   45.95    2.39
   5  -1 -10   50.28    2.21
  -5  -1  10   49.85    2.20
   5   1  10   47.49    2.12
   6  -1  10   38.52    1.92
  -6   1  10   38.22    1.91
  -6   1  10   37.90    1.44
  -6   1  10   38.58    2.01
   6   1 -10   36.87    1.92
   6  -1  10   38.43    2.22
   6   1  10   36.85    2.10
  -6  -1  10   34.08    1.47
  -6  -1  10   38.63    1.93
   6  -1 -10   39.72    1.95
   6   1  10   40.39    1.90
  -6  -1  10   37.55    1.93
  -7   1  10    6.36    0.90
   7   1 -10    6.79    0.94
   7  -1  10    8.25    1.17
  -7   1 -10    7.16    0.82
  -7  -1  10    7.25    0.65
   7   1  10    7.20    1.06
   7  -1 -10    6.48    0.90
  -7  -1  10    7.02    1.00
   8   1 -10   12.42    1.37
  -8   1  10   11.07    1.58
  -8   1  10   14.44    1.39
   8  -1  10   15.48    1.72
   8   1  10   10.66    1.57
  -8  -1  10   13.98    1.41
  -8  -1  10   12.56    1.20
  -8   1 -10   10.62    0.81
   9   1 -10    0.84    0.74
  -9   1  10    1.57    0.76
  -9   1  10   -1.40    1.00
   9  -1 -10    0.10    0.74
   9   1  10    0.71    0.97
  -9  -1  10    0.72    0.64
  -9  -1  10    0.64    0.77
 -10   1  10    0.98    0.88
  10  -1  10   -0.81    1.15
  10   1 -10    0.00    0.90
  10   1  10    0.98    1.20
  10  -1 -10    0.38    0.89
  11   1 -10    1.58    1.21
  11  -1  10    5.19    1.64
  11  -1 -10    5.11    1.28
  11   1  10    5.61    1.64
   0  -2 -10  141.15    4.45
   0   2 -10  135.16    5.02
   0   2 -10  137.93    4.55
   0  -2 -10  143.76    4.89
   0  -2  10  137.53    4.61
   0   2  10  131.03    4.49
   0  -2  10  134.93    5.15
   0   2  10  134.29    5.07
   1   2 -10   -0.27    0.29
  -1  -2 -10    0.13    0.23
   1  -2  10    0.07    0.33
  -1   2  10   -0.27    0.32
  -1   2  10   -0.06    0.30
   1  -2  10    0.28    0.38
   1   2 -10   -0.05    0.26
  -1  -2 -10    0.50    0.25
   1   2  10   -0.33    0.29
  -1   2 -10   -0.12    0.33
  -1   2 -10   -0.06    0.28
  -1  -2  10   -0.48    0.34
   1  -2 -10   -0.15    0.25
   1   2  10   -0.23    0.29
  -1  -2  10   -0.25    0.35
  -2   2  10  122.37    4.05
  -2  -2 -10  119.89    4.23
   2   2 -10  116.17    4.09
   2  -2  10  118.62    4.64
   2  -2  10  120.80    4.10
   2   2 -10  116.78    4.45
  -2   2  10  116.94    4.54
   2   2  10  126.99    4.55
   2  -2 -10  115.30    3.99
  -2   2 -10  118.67    4.47
   2   2  10  123.16    4.02
  -2  -2  10  124.42    4.58
  -2  -2  10  117.53    4.11
   3   2 -10    2.86    0.55
  -3  -2 -10    2.66    0.37
  -3   2  10    3.14    0.52
   3   2 -10    3.57    0.59
   3  -2  10    2.73    0.51
  -3   2  10    3.37    0.60
   3  -2  10    2.73    0.62
   3  -2 -10    3.22    0.50
   3   2  10    2.85    0.49
   3   2  10    2.86    0.57
  -3   2 -10    3.44    0.59
  -3  -2  10    4.33    0.66
  -3  -2  10    3.90    0.61
   4  -2  10  191.90    6.34
   4   2 -10  195.58    6.91
   4  -2  10  179.92    7.13
  -4   2  10  193.17    7.06
  -4   2  10  196.82    6.31
   4   2 -10  189.96    6.40
   4  -2 -10  188.79    6.32
  -4   2 -10  200.76    6.93
  -4  -2  10  190.31    6.36
  -4  -2  10  193.81    6.97
   4   2  10  195.13    6.27
   4   2  10  218.47    7.10
   5  -2  10    6.51    0.81
   5   2 -10    6.57    0.83
  -5   2  10    5.81    0.74
   5   2 -10    6.51    0.87
   5  -2  10    5.62    0.89
  -5   2  10    6.25    0.92
  -5  -2  10    6.02    0.78
   5  -2 -10    6.52    0.87
   5   2  10    6.28    0.87
  -5   2 -10    5.61    0.74
  -5  -2  10    6.29    0.76
   5   2  10    7.10    0.88
  -5  -2  10    5.39    0.70
  -6   2  10  149.90    5.13
  -6   2  10  157.07    5.71
   6  -2  10  145.41    5.18
   6   2 -10  150.90    5.51
   6   2 -10  150.87    5.26
   6  -2  10  154.74    5.89
  -6   2 -10  147.82    5.43
   6   2  10  133.11    5.60
   6  -2 -10  151.97    5.19
   6   2  10  143.97    5.07
  -6  -2  10  150.53    4.73
  -6  -2  10  155.96    5.50
   7  -2  10    7.20    1.11
   7   2 -10    5.84    0.90
  -7   2  10    7.88    1.06
  -7  -2  10    5.44    0.77
   7   2  10    5.59    0.96
  -7  -2  10    6.28    0.69
   7  -2 -10    5.74    0.90
  -7   2 -10    5.49    0.75
  -8   2  10   48.93    2.64
   8  -2  10   44.11    2.78
  -8   2  10   50.35    2.48
   8   2 -10   44.85    2.43
  -8  -2  10   47.18    2.09
  -8  -2  10   48.02    2.09
  -8  -2  10   46.27    1.68
   8   2  10   46.69    2.62
  -9   2  10    1.30    1.21
   9  -2  10    0.30    0.98
   9   2 -10    0.39    0.83
  -9   2  10    1.12    0.78
   9  -2 -10    2.12    0.85
  -9   2 -10    0.39    0.52
   9   2  10    1.11    1.04
  10   2 -10   41.25    2.61
 -10   2  10   42.89    2.48
  10  -2  10   42.65    3.04
  10  -2 -10   40.00    2.53
  11   2 -10   -1.25    1.09
  11  -2  10    1.72    1.55
  11  -2 -10    0.22    1.08
  11   2  10   -0.38    1.46
   0   3  10    0.29    0.30
   0  -3  10   -0.17    0.36
   0   3 -10   -0.38    0.26
   0  -3 -10   -0.40    0.22
   0   3 -10    0.23    0.34
   0  -3  10   -0.72    0.35
  -1   3  10   39.62    1.89
   1  -3  10   40.04    2.02
   1   3 -10   40.00    1.88
  -1  -3 -10   39.11    1.56
   1  -3  10   40.68    1.77
   1   3 -10   41.78    1.75
  -1   3  10   39.64    1.67
   1   3  10   35.38    1.82
   1  -3 -10   40.97    1.60
  -1   3 -10   39.06    1.69
  -1   3 -10   39.61    1.89
  -1  -3  10   40.18    1.79
  -1  -3  10   37.73    1.93
   2   3 -10   90.00    3.19
  -2   3  10   92.25    3.53
   2  -3  10   78.17    3.56
  -2   3  10   91.14    3.10
   2   3 -10   86.60    3.44
   2  -3  10   89.21    3.19
  -2  -3  10   88.94    3.52
  -2  -3  10   88.35    3.20
  -2   3 -10   82.30    3.45
   2  -3 -10   87.31    3.04
   2   3  10   85.42    3.43
   2   3  10   88.05    3.05
  -3   3  10   -0.08    0.34
   3  -3  10   -0.07    0.39
   3   3 -10   -0.12    0.33
   3  -3  10   -0.43    0.44
   3   3 -10    0.27    0.37
  -3   3  10    0.15    0.38
   3   3  10   -0.07    0.32
  -3  -3  10    0.05    0.39
  -3   3 -10    0.51    0.44
   3   3  10    0.03    0.34
  -3  -3  10   -0.15    0.42
   3  -3 -10    0.15    0.35
   4  -3  10    2.12    0.63
   4  -3  10    1.87    0.50
   4   3 -10    1.69    0.49
  -4   3  10    2.30    0.56
  -4   3  10    2.58    0.48
   4   3 -10    1.09    0.45
   4   3  10    2.58    0.50
  -4   3 -10    1.78    0.58
   4  -3 -10    1.37    0.45
  -4  -3  10    1.18    0.50
   4   3  10    2.57    0.58
  -4  -3  10    0.84    0.53
   5  -3  10  189.28    6.30
  -5   3  10  188.63    6.97
   5   3 -10  193.32    6.81
   5   3 -10  192.75    6.38
  -5   3  10  189.84    6.19
   5  -3  10  203.33    7.20
   5   3  10  191.39    6.17
  -5  -3  10  183.90    5.96
   5  -3 -10  192.36    6.27
  -5  -3  10  184.13    6.74
  -5  -3  10  173.01    6.25
   5   3  10  193.98    6.90
  -5   3 -10  190.88    6.87
  -6   3  10    6.62    0.98
   6  -3  10    6.49    1.04
   6   3 -10    6.77    0.96
   6   3 -10    6.84    0.97
  -6   3  10    7.46    0.45
  -6  -3  10    5.85    0.74
   6   3  10    7.55    0.96
  -6   3 -10    7.27    0.92
   6   3  10    5.88    0.80
  -6  -3  10    8.31    0.78
   6  -3 -10   10.20    1.03
   7   3 -10    1.05    0.61
   7  -3  10    1.73    0.87
   7   3 -10    2.32    0.77
  -7   3  10    0.73    0.61
  -7  -3  10    1.88    0.47
  -7   3 -10    1.67    0.72
   7  -3 -10    1.85    0.63
  -7  -3  10    1.43    0.52
  -7  -3  10    2.87    0.53
  -8   3  10    9.53    1.34
  -8   3  10   10.44    1.36
   8   3 -10    9.98    1.36
  -8   3 -10    7.10    0.96
  -8  -3  10    9.61    0.80
   8   3  10    9.81    1.48
  -9   3  10   24.11    1.88
   9  -3  10   23.30    2.27
   9   3 -10   26.14    1.98
  -9   3  10   20.65    2.43
  -9  -3  10   22.94    1.06
   9   3  10   26.03    2.15
  -9   3 -10   25.70    1.76
   9  -3 -10   24.66    1.84
 -10   3  10    1.21    0.97
  10   3 -10   -0.26    0.94
  10  -3  10    2.37    1.29
  10  -3 -10    1.86    0.94
  10   3  10    0.52    1.25
  11  -3  10    5.97    1.74
  11   3 -10    4.47    1.26
  11   3  10    4.36    1.56
  11  -3 -10    6.13    1.36
   0   4 -10   44.86    2.04
   0  -4  10   43.16    2.11
   0  -4  10   41.33    1.87
   0  -4 -10   44.61    1.64
   0   4  10   41.40    1.68
   0   4  10   37.71    1.89
   0   4 -10   40.70    1.78
   1  -4  10   35.36    1.91
   1   4 -10   37.38    1.64
  -1   4  10   34.66    1.73
   1  -4  10   38.96    1.70
  -1  -4 -10   35.42    1.42
  -1   4 -10   33.42    1.78
   1   4  10   33.25    1.68
   1   4  10   33.67    1.49
  -1   4 -10   37.59    1.61
   1  -4 -10   33.57    1.43
  -1  -4  10   34.77    1.68
  -2   4  10   55.33    2.04
   2   4 -10   54.20    2.36
   2  -4  10   52.50    2.17
  -2   4  10   49.73    2.33
   2   4 -10   51.97    2.17
   2  -4  10   50.35    2.49
  -2  -4  10   53.62    2.20
  -2  -4  10   48.96    2.33
   2  -4 -10   53.49    2.01
  -2   4 -10   54.03    2.41
   2   4  10   50.83    2.25
   2   4  10   50.25    1.97
   3  -4  10   42.69    2.20
   3   4 -10   42.45    2.00
  -3   4  10   44.06    1.76
   3   4 -10   40.21    1.88
   3  -4  10   41.42    1.89
  -3   4  10   42.41    2.05
  -3  -4  10   40.56    1.98
   3   4  10   40.17    1.92
   3  -4 -10   40.60    1.74
  -3   4 -10   37.43    2.03
   3   4  10   44.01    1.73
  -3  -4  10   39.07    1.89
   4  -4  10   44.15    2.02
   4   4 -10   45.17    2.12
   4   4 -10   45.71    2.08
  -4   4  10   46.72    1.91
  -4   4  10   47.14    2.24
   4  -4  10   44.53    2.39
  -4  -4  10   44.48    2.05
  -4  -4  10   45.42    1.90
   4   4  10   43.39    2.08
   4   4  10   45.08    1.88
  -4  -4  10   46.64    2.10
  -4   4 -10   44.52    2.25
   4  -4 -10   45.91    1.95
   5   4 -10   17.20    1.23
  -5   4  10   15.83    0.74
  -5   4  10   17.24    1.31
   5  -4  10   19.14    1.58
   5   4 -10   16.18    1.27
  -5   4  10   16.03    1.15
  -5  -4  10   16.36    1.18
  -5  -4  10   17.24    1.34
  -5  -4  10   14.63    1.04
   5   4  10   18.22    1.27
  -5   4 -10   20.01    1.46
   5   4  10   19.99    1.19
   5  -4 -10   16.67    1.18
  -6   4  10    3.27    0.41
   6   4 -10    2.17    0.65
   6   4 -10    2.77    0.66
   6  -4  10    2.69    0.86
  -6   4  10    2.21    0.65
   6   4  10    2.26    0.63
  -6  -4  10    2.02    0.51
   6   4  10    1.67    0.59
   6  -4 -10    2.07    0.58
  -6  -4  10    2.30    0.52
  -6   4 -10    1.52    0.72
   7  -4  10    0.38    0.82
  -7   4  10    0.50    0.59
   7   4 -10    1.39    0.71
   7   4 -10   -0.77    0.59
   7  -4 -10    0.09    0.58
   7   4  10    0.97    0.67
  -7  -4  10    0.11    0.47
  -7   4 -10   -0.70    0.76
  -8   4  10   23.95    1.77
   8   4 -10   20.97    1.72
   8  -4  10   19.52    2.05
   8   4 -10   21.76    1.68
   8   4  10   20.22    1.83
  -8  -4  10   21.61    1.17
  -8   4 -10   19.56    1.84
   9   4 -10    2.13    0.92
   9  -4  10    1.47    1.13
   9  -4 -10    1.60    0.79
   9   4  10    1.21    1.06
  -9   4 -10    1.99    1.02
  -9  -4  10    3.69    0.55
  10   4 -10   43.29    2.74
 -10   4  10   43.10    2.66
  10  -4  10   39.19    3.13
  10  -4 -10   45.25    2.61
  10   4  10   46.12    3.00
  11   4 -10   -1.38    1.17
  11  -4  10    1.07    1.56
  11  -4 -10    0.65    1.13
  11   4  10    1.35    1.55
   0   5  10    0.21    0.31
   0  -5  10    1.30    0.48
   0   5 -10   -0.01    0.41
   0   5 -10    0.14    0.32
   0   5  10   -0.14    0.30
   0  -5 -10    0.52    0.28
   0  -5  10   -0.49    0.42
  -1   5  10   52.26    2.22
   1  -5  10   46.59    2.33
   1  -5  10   48.41    2.08
  -1   5  10   49.18    1.85
   1   5 -10   46.27    2.01
   1   5 -10   49.31    2.28
  -1  -5  10   45.68    2.08
   1   5  10   48.75    1.84
   1   5  10   46.19    2.12
  -1   5 -10   45.16    2.27
  -1  -5  10   53.71    2.31
  -1   5 -10   47.64    1.99
   1  -5 -10   47.00    1.79
   2   5 -10   24.48    1.48
   2  -5  10   24.40    1.39
  -2   5  10   25.81    1.23
  -2   5  10   26.52    1.47
   2  -5  10   28.05    1.68
   2   5 -10   24.56    1.37
  -2  -5  10   25.21    1.45
   2  -5 -10   26.04    1.21
  -2   5 -10   25.13    1.58
   2   5  10   26.73    1.39
  -2  -5  10   25.54    1.48
   3  -5  10    6.26    0.93
  -3   5  10    5.82    0.69
   3   5 -10    7.28    0.91
  -3   5  10    5.12    0.79
   3  -5  10    5.22    0.72
   3   5 -10    6.02    0.82
  -3  -5  10    7.34    0.85
   3   5  10    5.96    0.72
  -3   5 -10    6.22    0.87
   3  -5 -10    6.72    0.72
   3   5  10    6.12    0.76
  -3  -5  10    5.99    0.80
  -3  -5  10    6.59    0.85
   4   5 -10    5.94    0.77
   4  -5  10    7.70    1.10
   4   5 -10    6.64    0.86
  -4   5  10    6.43    0.87
  -4   5  10    5.30    0.67
   4  -5  10    4.76    0.71
  -4  -5  10    5.77    0.77
  -4   5 -10    4.32    0.79
   4   5  10    6.35    0.76
   4   5  10    5.55    0.79
   4  -5 -10    6.90    0.77
  -4  -5  10    6.56    0.82
  -4  -5  10    5.95    0.79
  -5   5  10    2.96    0.67
  -5   5  10    4.03    0.41
   5   5 -10    3.89    0.68
   5  -5  10    2.48    0.78
   5   5 -10    2.84    0.62
   5  -5  10    2.59    0.67
  -5  -5  10    3.34    0.55
  -5   5 -10    3.84    0.89
  -5  -5  10    2.77    0.67
   5   5  10    3.13    0.59
   5   5  10    3.47    0.62
  -5  -5  10    3.69    0.60
   5  -5 -10    2.67    0.56
  -6   5  10    7.09    0.55
   6   5 -10    5.98    0.90
   6   5 -10    6.18    0.86
  -6   5  10    5.70    0.89
   6  -5  10    5.61    1.01
  -6  -5  10    5.78    0.69
   6  -5 -10    6.82    0.84
   6   5  10    7.94    1.04
  -6   5 -10    6.13    1.05
   6   5  10    6.50    0.79
   6   5  10    6.74    0.82
  -7   5  10    2.76    0.74
   7   5 -10    4.75    0.82
  -7  -5  10    5.16    0.67
   7   5  10    4.32    0.84
   7  -5 -10    4.37    0.80
  -7   5 -10    2.50    1.00
   8  -5  10   12.34    1.55
   8   5 -10   11.99    1.47
   8   5 -10   11.19    1.50
  -8   5 -10   11.08    1.39
   8   5  10   10.04    1.48
  -8  -5  10   11.54    1.03
   9  -5  10    3.03    1.23
   9   5 -10    1.85    0.95
  -9   5  10    2.87    0.91
   9  -5 -10    2.73    0.89
  -9  -5  10    1.93    0.59
  -9   5 -10    1.47    1.26
   9   5  10    1.98    1.06
  10   5 -10   -1.23    1.03
 -10   5  10   -0.52    0.99
  10  -5  10    2.41    1.38
  10   5  10    1.25    1.29
  10  -5 -10    2.25    1.00
 -11   5  10   -1.54    1.25
  11   5 -10   -1.61    1.19
  11  -5  10    1.23    1.62
  11  -5 -10   -0.06    1.14
   0  -6 -10  140.50    4.27
   0   6  10  140.51    5.00
   0   6 -10  131.02    5.15
   0   6 -10  131.87    4.56
   0   6  10  135.31    4.32
   0  -6  10  124.68    5.09
   0  -6  10  137.81    4.66
   1  -6  10    8.24    1.01
  -1   6  10    7.57    0.66
  -1   6  10    7.24    0.78
   1   6 -10    7.54    0.81
  -1   6  10    8.17    0.70
   1  -6  10    6.98    0.90
   1   6 -10    6.36    0.94
  -1  -6  10    7.38    0.94
   1  -6 -10    6.90    0.60
  -1   6 -10    6.25    0.85
   1   6  10    6.57    0.74
  -1  -6  10    6.87    0.80
  -1   6 -10    6.28    0.76
   1   6  10    6.62    0.63
   2   6 -10   99.32    4.04
   2  -6  10  102.79    3.70
   2   6 -10   99.33    3.67
  -2   6  10  101.83    4.00
  -2   6  10  104.27    3.34
   2  -6  10  101.75    4.19
  -2   6 -10  100.06    4.16
   2  -6 -10  100.57    3.39
  -2  -6  10  100.69    3.69
  -2  -6  10   99.74    3.95
   2   6  10  107.51    3.42
   2   6  10  106.10    3.88
  -2  -6  10   99.32    3.64
  -3   6  10   85.91    2.74
  -3   6  10   82.70    3.39
   3  -6  10   80.49    3.57
   3  -6  10   76.69    3.10
   3   6 -10   82.81    3.39
  -3   6  10   79.05    2.85
   3   6 -10   84.22    3.17
  -3  -6  10   80.38    3.21
   3   6  10   78.18    3.17
  -3   6 -10   80.60    3.55
   3   6  10   85.06    2.86
  -3  -6  10   83.16    3.06
   3  -6 -10   79.18    2.88
  -3  -6  10   81.81    3.15
   4   6 -10   77.58    3.10
  -4   6  10   80.48    3.35
   4  -6  10   75.15    3.53
   4  -6  10   82.28    3.12
   4   6 -10   79.64    3.29
  -4   6  10   79.04    2.62
   4   6  10   75.35    3.10
  -4  -6  10   76.81    3.06
   4  -6 -10   76.29    2.86
   4   6  10   79.48    2.83
  -4  -6  10   74.61    2.90
  -4   6 -10   79.53    3.51
   4   6  10   77.12    2.83
  -4  -6  10   80.23    3.02
  -5   6  10    7.02    1.05
   5  -6  10    8.88    1.33
   5   6 -10    8.25    1.07
  -5   6  10    9.01    0.66
   5   6 -10   11.40    1.20
   5  -6  10   10.86    1.24
  -5  -6  10    9.90    1.29
   5   6  10    8.11    0.96
  -5  -6  10    6.61    0.91
   5   6  10    7.57    0.91
   5   6  10    7.61    0.90
   5  -6 -10    7.56    0.93
  -5   6 -10    6.82    1.07
   6  -6  10   47.70    2.70
  -6   6  10   46.96    2.40
  -6   6  10   43.95    1.59
   6   6 -10   47.47    2.35
   6  -6 -10   43.06    2.07
  -6  -6  10   42.28    1.93
  -6   6 -10   44.97    2.61
   6   6  10   43.98    2.01
   6   6  10   42.17    2.16
   7  -6  10   52.39    3.05
   7   6 -10   56.96    2.63
  -7  -6  10   51.47    2.19
  -7   6 -10   51.68    3.02
   7  -6 -10   56.56    2.49
   7   6  10   54.47    2.57
   8  -6  10   13.10    1.94
   8   6 -10   14.46    1.62
  -8   6  10   13.31    1.56
   8   6 -10   13.05    1.67
  -8  -6  10   13.78    1.15
   8   6  10   14.53    1.54
   9  -6  10    3.41    1.26
  -9   6  10    2.92    0.98
   9   6 -10    4.09    1.13
   9   6  10    4.02    1.11
  -9  -6  10    4.54    0.74
 -10   6  10   74.87    3.67
  10  -6  10   68.33    4.12
  10   6 -10   68.36    3.61
  10  -6 -10   68.31    3.40
  10   6  10   70.14    3.71
   0   7  10   -0.02    0.32
   0   7  10   -0.04    0.32
   0   7  10   -0.04    0.35
   1  -7  10   13.12    1.25
  -1   7  10   13.07    1.02
   1   7 -10   13.41    1.05
   1   7 -10   15.01    1.28
  -1   7  10   13.34    0.83
   1  -7  10   14.76    1.16
  -1   7  10   14.51    0.88
   1  -7 -10   14.18    0.77
  -1  -7  10   12.74    1.10
  -1  -7  10   16.30    1.18
  -1   7 -10   13.87    1.33
   1   7  10   13.76    0.92
  -1  -7  10   13.73    1.19
  -1   7 -10   12.26    0.97
   1   7  10   14.10    1.01
  -2   7  10    1.24    0.43
   2  -7  10    1.66    0.56
   2   7 -10    1.62    0.50
  -2   7  10    1.58    0.41
   2  -7  10    0.58    0.55
   2   7 -10    1.49    0.61
   2   7  10    1.55    0.42
   2  -7 -10    0.96    0.34
  -2   7 -10    1.45    0.65
   2   7  10    1.14    0.43
  -2  -7  10   -0.24    0.44
  -2  -7  10    0.98    0.49
  -2  -7  10    0.56    0.57
   3   7 -10   19.44    1.33
   3  -7  10   19.80    1.56
  -3   7  10   20.13    1.02
   3   7 -10   18.20    1.40
  -3   7  10   19.34    1.31
   3  -7  10   18.25    1.37
   3  -7 -10   18.77    1.06
  -3  -7  10   19.24    1.28
  -3  -7  10   19.01    1.21
  -3  -7  10   18.45    1.42
  -3   7 -10   19.46    1.61
   3   7  10   18.71    1.17
   4   7 -10   16.89    1.31
   4   7 -10   15.46    1.33
   4  -7  10   17.45    1.61
  -4   7  10   17.28    0.94
   4  -7  10   16.44    1.42
  -4   7  10   17.43    1.32
  -4  -7  10   16.80    1.02
   4   7  10   17.14    1.17
   4   7  10   17.32    1.12
   4  -7 -10   17.81    1.09
  -4  -7  10   15.68    1.39
  -4   7 -10   15.56    1.63
  -4  -7  10   16.12    1.19
   4   7  10   16.33    1.06
   5  -7  10   21.78    1.86
  -5   7  10   23.44    1.59
   5   7 -10   23.28    1.57
   5   7 -10   23.47    1.59
   5   7  10   20.99    1.28
  -5  -7  10   22.67    1.38
  -5   7 -10   20.04    1.91
   5  -7 -10   23.17    1.34
  -5  -7  10   16.00    1.57
   5   7  10   22.76    1.36
   6   7 -10    6.26    0.95
   6  -7  10    4.10    1.01
  -6   7  10    6.31    0.69
   6   7 -10    6.12    0.95
   6  -7 -10    7.08    0.97
  -6  -7  10    6.53    0.79
   6   7  10    5.37    0.82
   6   7  10    4.47    0.75
   7   7 -10    1.43    0.79
  -7   7  10    0.97    0.67
   7  -7  10    1.82    0.93
   7   7 -10    2.18    0.79
   7   7  10    0.72    0.68
   7  -7 -10    1.18    0.69
   7   7  10    0.85    0.74
  -7  -7  10    0.08    0.60
  -8   7  10   10.66    1.56
   8  -7  10   10.85    1.61
   8   7 -10   12.41    1.65
   8   7  10   11.16    1.55
  -8  -7  10   10.45    1.19
  -9   7  10   18.44    2.01
   9  -7  10   19.61    2.46
   9   7 -10   24.28    2.18
   9  -7 -10   22.80    1.88
   9   7  10   21.89    2.10
 -10   7  10    5.08    1.32
  10  -7  10    3.69    1.58
  10   7 -10    7.56    1.44
  10  -7 -10    6.06    1.27
   0  -8  10    4.79    0.76
   0  -8  10    4.21    0.73
   0   8  10    4.29    0.61
   0   8  10    4.50    0.57
   0   8 -10    4.42    0.65
   0   8  10    5.29    0.73
   0  -8  10    5.44    0.83
   0   8 -10    4.20    0.82
  -1   8  10    9.05    0.66
  -1   8  10   10.14    0.94
   1   8 -10    9.82    0.95
   1  -8  10    9.02    1.14
  -1   8  10    9.09    0.85
   1  -8  10   10.92    1.16
   1   8 -10   10.08    1.25
   1  -8 -10    9.78    0.63
  -1   8 -10   10.26    1.31
   1   8  10    9.76    0.87
  -1   8 -10   10.32    0.91
  -1  -8  10   10.46    1.05
  -1  -8  10    9.46    1.04
  -1  -8  10    9.65    1.15
   1   8  10    8.03    0.89
   1   8  10    9.72    0.69
  -2   8  10   20.16    1.32
   2  -8  10   18.75    1.40
   2  -8  10   17.82    1.52
   2   8 -10   19.45    1.29
   2   8 -10   19.22    1.54
  -2   8  10   20.30    1.12
  -2   8  10   19.90    0.95
  -2  -8  10   18.07    1.40
   2   8  10   17.17    1.17
   2  -8 -10   20.43    0.96
   2   8  10   18.51    1.21
  -2  -8  10   18.76    1.26
  -2  -8  10   19.87    1.33
   2   8  10   20.36    1.01
   3   8 -10   34.27    1.81
  -3   8  10   35.20    1.55
  -3   8  10   33.31    1.88
   3  -8  10   34.57    2.13
   3   8 -10   35.93    2.03
   3  -8  10   34.23    1.87
   3   8  10   34.59    1.48
   3   8  10   37.07    1.72
  -3  -8  10   36.29    1.81
   3  -8 -10   38.89    1.53
  -3  -8  10   36.95    1.94
  -3  -8  10   35.38    1.64
   4  -8  10   49.72    2.42
   4   8 -10   53.50    2.37
   4   8 -10   50.90    2.53
  -4   8  10   52.08    1.97
   4  -8  10   51.22    2.74
  -4   8  10   49.59    2.45
   4   8  10   48.90    2.19
   4  -8 -10   51.25    2.04
  -4  -8  10   51.36    2.26
   4   8  10   47.94    1.97
  -4  -8  10   47.54    2.34
   5   8 -10   16.66    1.41
  -5   8  10   15.39    0.99
   5   8 -10   15.64    1.43
   5   8  10   13.14    1.10
  -5  -8  10   15.04    1.24
   5  -8 -10   15.79    1.15
   5   8  10   13.68    1.07
   6  -8  10   25.28    2.14
   6   8 -10   24.11    1.81
   6   8 -10   28.75    1.89
  -6   8  10   26.20    1.27
  -6   8  10   26.60    1.85
  -6  -8  10   28.87    1.61
   6   8  10   26.70    1.56
   6  -8 -10   27.52    1.57
   6   8  10   25.82    1.59
   7   8 -10   13.76    1.61
  -7   8  10   15.72    1.53
   7  -8  10   13.27    1.88
   7   8 -10   14.33    1.59
   7  -8 -10   15.58    1.37
  -7  -8  10   14.72    1.31
   7   8  10   10.81    1.36
   7   8  10   12.48    1.44
  -8   8  10   18.70    1.80
   8  -8  10   17.02    2.19
   8   8 -10   15.35    1.87
  -8  -8  10   19.28    1.47
   8   8  10   18.77    1.69
   9   8 -10    3.04    1.12
   9  -8  10    2.29    1.02
  -9   8  10    1.05    1.03
   9  -8  10    1.39    1.32
   9   8  10    2.24    1.10
   9  -8 -10    0.73    0.91
  -9  -8  10    1.34    0.81
  10  -8  10   -1.19    1.55
 -10   8  10    1.06    1.20
  10   8 -10    1.57    1.36
  10  -8 -10    3.99    1.27
   0  -9  10   -0.56    0.63
   0   9 -10   -0.17    0.41
   0   9 -10   -0.37    0.68
   0   9  10    0.79    0.49
   0  -9  10    0.19    0.53
   0  -9  10    0.27    0.52
   0   9  10    0.10    0.26
   1  -9  10  138.78    5.24
   1  -9  10  129.02    4.71
  -1   9  10  142.55    4.52
   1  -9  10  137.33    4.77
  -1   9  10  133.24    4.16
   1   9 -10  134.37    5.34
   1   9 -10  133.59    4.65
  -1   9 -10  132.50    4.61
   1   9  10  138.91    4.17
   1   9  10  129.48    4.51
  -1  -9  10  132.99    4.73
   1  -9 -10  139.35    4.16
  -1   9 -10  119.91    5.35
  -1  -9  10  132.94    4.72
  -1  -9  10  137.37    5.04
   2  -9  10   21.11    1.64
   2   9 -10   19.83    1.34
  -2   9  10   20.63    1.22
   2   9 -10   19.07    1.64
   2  -9  10   20.14    1.42
   2  -9  10   17.37    1.46
   2  -9 -10   20.17    0.94
   2   9  10   21.13    1.23
   2   9  10   19.23    0.96
   2   9  10   17.52    1.37
  -2  -9  10   19.89    1.38
  -2  -9  10   20.48    1.27
  -2  -9  10   18.24    1.50
  -3   9  10   -0.79    0.47
   3  -9  10   -1.14    0.69
   3  -9  10   -0.53    0.51
   3  -9  10    0.22    0.65
   3   9 -10    0.01    0.68
   3   9 -10    1.01    0.56
  -3  -9  10    0.19    0.52
   3   9  10    0.75    0.44
  -3  -9  10   -0.32    0.70
  -3  -9  10    0.36    0.40
   3   9  10   -0.29    0.38
   3  -9 -10    0.39    0.35
   4  -9  10    1.90    0.81
   4  -9  10    1.10    0.76
  -4   9  10    0.27    0.51
   4   9 -10    1.39    0.60
   4  -9  10   -0.14    0.56
   4  -9 -10    0.73    0.44
  -4  -9  10    0.19    0.58
   4   9  10    0.33    0.43
  -4  -9  10    0.26    0.80
   5  -9  10   58.84    3.34
  -5   9  10   68.20    2.51
   5   9 -10   65.42    2.97
  -5   9  10   68.04    3.15
   5   9 -10   62.96    3.12
   5  -9 -10   68.90    2.63
   5   9  10   73.44    2.82
   5   9  10   75.30    2.59
  -5  -9  10   66.58    2.78
   6  -9  10    0.49    0.89
  -6   9  10    0.44    0.64
  -6   9  10   -0.38    0.58
   6   9 -10   -0.13    0.81
   6  -9  10    1.26    0.76
   6   9  10   -0.16    0.68
   6  -9 -10   -0.27    0.57
  -6  -9  10   -0.63    0.66
   6   9  10   -0.30    0.56
   7  -9  10   -0.74    0.77
   7  -9  10   -2.14    0.91
   7   9 -10   -0.03    0.82
  -7   9  10   -0.12    0.72
   7   9 -10   -0.53    0.97
   7   9  10   -0.65    0.69
   7  -9 -10   -1.49    0.65
   7   9  10    0.81    0.84
  -7  -9  10   -1.19    0.74
   8  -9  10    8.90    1.53
   8   9 -10   13.83    1.86
  -8   9  10    8.51    1.31
  -8  -9  10   11.43    1.44
   8   9  10   12.31    1.59
   9  -9  10    8.18    1.76
   9   9 -10   12.41    1.62
   9  -9  10   12.07    1.43
  -9   9  10   13.96    2.02
   9  -9 -10   11.75    1.40
   0  10 -10  101.02    3.72
   0  10  10  107.54    3.75
   0 -10  10  103.66    4.12
   0 -10  10  104.00    3.89
   0 -10  10  104.33    3.87
   0  10 -10   95.37    4.43
   1 -10  10    0.92    0.62
   1  10 -10    0.53    0.51
   1 -10  10    1.03    0.61
  -1  10  10    1.51    0.64
   1 -10  10    0.77    0.74
   1  10 -10    0.42    0.79
   1  10  10   -0.35    0.64
  -1 -10  10    0.68    0.55
  -1 -10  10    1.16    0.73
  -1  10 -10   -0.75    0.83
  -1 -10  10    1.94    0.67
   2  10 -10   90.81    3.40
   2 -10  10   89.61    3.51
   2 -10  10   88.67    3.86
   2  10 -10   87.63    3.92
  -2  10  10   86.61    3.24
   2 -10  10   87.47    3.48
  -2 -10  10   88.87    3.46
  -2 -10  10   90.64    3.39
   2 -10 -10   88.83    2.83
  -2 -10  10   84.73    3.44
   3  10 -10   23.04    1.90
   3 -10  10   23.06    1.85
  -3  10  10   24.76    1.43
   3  10 -10   22.95    1.52
   3 -10  10   25.96    1.64
   3 -10  10   24.84    1.78
   3  10  10   22.93    1.35
  -3 -10  10   25.99    1.62
  -3 -10  10   18.53    1.72
   3 -10 -10   22.95    1.10
   3  10  10   24.19    1.11
   4 -10  10   90.94    3.65
   4  10 -10   93.51    4.08
  -4  10  10   92.26    3.33
   4  10 -10   91.43    3.64
  -4 -10  10   94.69    3.62
   4  10  10   97.09    3.62
   4  10  10   91.41    3.13
   4 -10 -10   94.34    3.22
   5  10 -10    3.09    0.82
   5  10 -10    2.69    0.98
   5 -10  10    3.19    0.84
   5 -10  10    2.05    0.93
  -5  10  10    4.06    0.73
  -5 -10  10    3.63    0.85
   5  10  10    3.23    0.65
   5 -10 -10    3.08    0.64
   5  10  10    4.57    0.67
   6 -10  10   47.60    2.46
   6  10 -10   42.71    2.46
   6  10 -10   44.90    2.67
   6 -10  10   43.79    2.85
  -6  10  10   46.02    2.03
  -6  10  10   50.10    2.64
   6  10  10   49.39    2.23
   6  10  10   49.45    2.11
   6 -10 -10   50.01    2.18
  -7  10  10    5.68    1.06
   7 -10  10    6.76    1.33
   7  10 -10    3.28    1.01
  -7 -10  10    6.79    1.02
   7 -10 -10    4.99    0.93
   7  10  10    5.04    0.91
   8 -10  10   12.24    1.87
   8  10 -10   16.92    1.98
  -8  10  10   13.81    1.83
   8 -10  10   14.38    1.70
  -8 -10  10   12.37    1.57
   8  10  10   13.59    1.54
   9 -10  10   20.61    2.02
  -9  10  10   24.94    2.45
   9  10 -10   25.95    2.62
   9 -10  10   15.87    2.19
  -9 -10  10   24.45    1.91
   9  10  10   20.30    1.96
   9 -10 -10   21.83    1.99
   0 -11  10    1.04    0.81
   0 -11  10    0.69    0.62
   0 -11  10   -0.66    0.59
   0  11 -10   -0.21    0.46
   1 -11  10   18.46    1.66
   1  11 -10   15.25    1.89
   1 -11  10   17.22    1.48
  -1  11  10   16.04    1.43
   1 -11  10   18.08    1.56
   1  11 -10   17.72    1.27
  -1 -11  10   20.99    1.52
  -1 -11  10   18.05    1.63
   2 -11  10    0.56    0.74
  -2  11  10   -0.47    0.71
   2  11 -10   -0.63    0.92
   2 -11  10    0.02    0.61
   2  11 -10    0.11    0.55
   2 -11  10    1.50    0.89
  -2 -11  10    0.25    0.86
  -2 -11  10    0.86    0.68
   3 -11  10    1.25    0.73
   3  11 -10   -0.59    0.94
  -3  11  10    0.93    0.71
   3 -11  10   -0.30    0.75
   3  11 -10    0.64    0.61
   3 -11 -10   -0.44    0.35
  -3 -11  10   -1.09    0.82
   4 -11  10   -1.08    0.79
   4  11 -10    2.35    1.05
   4  11 -10   -0.02    0.66
  -4  11  10    1.25    0.75
  -4 -11  10   -0.67    0.69
   4  11  10    0.23    0.46
   4 -11 -10    0.28    0.45
   4  11  10    0.37    0.48
   5  11 -10   26.67    1.93
  -5  11  10   26.54    1.72
   5  11 -10   28.28    2.24
   5 -11  10   25.97    2.23
   5 -11  10   23.86    1.80
   5  11  10   26.22    1.55
   5  11  10   27.53    1.30
   5 -11 -10   23.92    1.43
  -5 -11  10   29.41    1.84
   6 -11  10    1.96    1.11
   6 -11  10    0.78    0.83
  -6  11  10    0.97    0.81
   6  11 -10    0.34    0.89
   6 -11 -10    0.63    0.68
   6  11  10    0.62    0.59
  -6 -11  10    0.95    0.81
   6  11  10    0.39    0.64
   7 -11  10    2.49    1.28
  -7  11  10    1.12    0.90
   7  11 -10    2.55    1.05
   7 -11  10    3.14    0.97
   7 -11 -10    1.83    0.85
  -7 -11  10    3.39    0.97
   7  11  10    1.30    0.85
   7  11  10    2.71    0.77
   8 -11  10   11.93    1.83
   8  11 -10   14.29    1.70
  -8  11  10   10.95    1.54
   8 -11  10   15.64    1.76
   8  11  10   14.42    1.66
  -8 -11  10   14.79    1.80
   0 -12  10    3.03    0.99
   0  12 -10    2.79    0.64
   0 -12  10    2.22    0.78
   1 -12  10    3.95    0.89
   1 -12  10    2.27    1.03
   1  12 -10    3.70    0.72
   1 -12  10    3.84    0.83
  -1 -12  10    4.02    0.86
  -1 -12  10    6.04    1.06
   2 -12  10    9.97    1.49
   2 -12  10   10.28    1.25
   2 -12  10    7.00    1.19
   2  12 -10    8.23    0.98
  -2 -12  10    6.37    1.15
  -2 -12  10    8.42    1.13
   3 -12  10   24.20    1.73
   3  12 -10   19.22    1.56
  -3  12  10   24.85    1.70
  -3 -12  10   24.23    1.71
   4  12 -10   47.43    2.42
  -4  12  10   47.83    2.35
   4 -12  10   49.06    2.46
   4 -12  10   44.61    2.78
   4 -12 -10   47.40    1.79
   4  12  10   46.83    2.20
  -4 -12  10   49.59    2.45
   5 -12  10    0.34    0.76
   5 -12  10    0.30    0.97
  -5  12  10   -0.10    0.96
   5  12  10    0.26    0.62
   5  12  10    0.27    0.51
   5 -12 -10    1.44    0.60
  -5 -12  10   -1.12    0.79
   6  12 -10   41.49    2.45
   6 -12  10   40.70    2.30
   6 -12  10   38.91    2.87
   6  12  10   35.17    2.06
   6 -12 -10   43.10    2.03
  -6 -12  10   43.27    2.36
   6  12  10   38.66    1.82
  -7  12  10    8.70    1.36
   7 -12  10   10.68    1.39
   7  12 -10    9.75    1.43
  -7 -12  10   12.69    1.38
   7 -12 -10    9.42    1.12
   8  12 -10   14.94    1.86
  -8  12  10   15.17    1.80
   8 -12  10   13.90    1.61
  -8 -12  10   18.21    1.97
   0 -13  10    0.93    1.06
   0 -13  10    0.38    0.72
   1  13 -10   57.52    2.45
   1 -13  10   54.34    2.69
  -1 -13  10   56.86    2.68
  -1 -13  10   49.46    2.78
   2  13 -10    3.70    0.81
   2 -13  10    4.29    0.96
  -2 -13  10    2.82    0.86
   3 -13  10   -0.27    0.78
   3  13 -10   -0.71    0.66
  -3 -13  10   -0.85    0.81
   4  13 -10    1.29    0.83
   4 -13  10    2.25    0.88
  -4 -13  10    2.64    0.93
   5  13 -10   18.07    1.78
   5 -13  10   19.39    1.81
   5  13  10   18.28    1.49
  -5 -13  10   20.57    1.85
   6 -13  10    0.19    0.98
   6  13 -10    1.45    1.00
  -6 -13  10    0.08    1.03
   7  13 -10    6.88    1.38
  -7  13  10    4.98    1.28
   7 -13  10    6.40    1.27
  -7 -13  10    6.07    1.33
   0 -14  10   51.32    2.67
   1 -14  10    5.46    1.04
   1  14 -10    4.24    0.84
  -1 -14  10    8.53    1.24
   2  14 -10   44.87    2.28
   2 -14  10   50.28    2.61
  -2 -14  10   46.53    2.57
   3 -14  10    8.65    1.24
   3  14 -10   11.98    1.46
  -3 -14  10   10.32    1.32
   4  14 -10   13.39    1.65
   4 -14  10   14.21    1.77
  -4 -14  10   16.34    1.82
   5  14 -10    4.11    1.08
   5 -14  10    7.18    1.27
  -5 -14  10    5.38    1.23
   5  14  10    6.20    0.93
   6 -14  10    9.95    1.41
   6  14 -10    8.93    1.40
  -6 -14  10    9.26    1.44
   0 -15  10    0.55    0.95
   1 -15  10   30.03    2.22
  -1 -15  10   32.18    2.25
   2 -15  10   26.18    2.11
   2  15 -10   21.71    1.73
  -2 -15  10   22.14    2.07
   3 -15  10    0.47    1.02
  -3 -15  10   -0.06    1.02
   4 -15  10    4.54    1.19
   4  15 -10    3.37    1.09
  -4 -15  10    3.96    1.19
   5 -15  10   33.54    2.43
   5  15 -10   36.19    2.43
  -5 -15  10   31.66    2.51
   0 -16  10   37.08    2.51
   1 -16  10    0.96    1.12
  -1 -16  10    1.68    1.07
   2 -16  10   25.48    2.22
  -2 -16  10   24.24    2.24
   3 -16  10    1.23    1.10
   3  16 -10    0.35    0.95
  -3 -16  10    3.23    1.19
   4 -16  10    0.00    1.13
   4  16 -10    2.75    1.07
  -4 -16  10    3.05    1.33
   0 -17  10   -0.51    1.20
   1 -17  10   -1.32    1.16
  -1 -17  10    0.59    1.25
   0   0 -11    0.05    0.30
   0   0  11    0.22    0.39
   0   0 -11   -0.10    0.27
   0   0  11    0.07    0.37
  -1   0  11    0.14    0.39
   1   0 -11   -0.20    0.29
  -1   0 -11    0.25    0.30
   1   0 -11    0.06    0.30
   1   0  11   -0.46    0.34
   1   0  11   -0.05    0.39
  -1   0  11   -0.24    0.40
  -1   0 -11   -0.11    0.32
   2   0  11   -0.05    0.40
   2   0  11    0.38    0.42
   2   0 -11   -0.37    0.31
  -2   0  11   -0.04    0.39
  -2   0  11   -0.66    0.35
   2   0 -11    0.14    0.32
  -2   0 -11   -0.05    0.32
   3   0  11   -0.42    0.39
  -3   0  11    0.37    0.41
  -3   0  11   -0.14    0.41
   3   0 -11    0.24    0.33
   3   0 -11   -0.30    0.35
   4   0  11    1.01    0.55
   4   0  11    0.28    0.40
  -4   0  11    0.66    0.54
   4   0 -11   -0.15    0.41
  -4   0  11   -0.56    0.42
   4   0 -11    0.21    0.38
  -4   0 -11   -0.07    0.35
   5   0  11    0.31    0.54
  -5   0  11    0.35    0.49
   5   0  11    0.52    0.59
  -5   0  11    0.59    0.50
   5   0 -11    0.65    0.49
   6   0 -11    0.11    0.51
  -6   0  11    0.94    0.69
  -6   0  11   -0.14    0.54
   6   0  11   -1.00    0.63
  -6   0 -11   -0.29    0.36
   6   0  11   -0.99    0.61
  -6   0  11   -0.39    0.38
   7   0 -11   -0.13    0.58
  -7   0  11   -0.01    0.62
   7   0  11    0.86    0.76
  -7   0 -11   -0.14    0.32
  -7   0  11   -0.50    0.38
   8   0  11    0.44    0.89
  -8   0  11    1.33    0.90
  -8   0  11   -0.84    0.69
   8   0 -11    0.98    0.70
   9   0  11    5.17    1.24
   9   0 -11    2.27    0.84
  -9   0  11    1.79    1.09
  -9   0  11   -0.25    0.76
  10   0 -11   -0.36    0.94
  10   0  11    1.85    1.31
  11   0 -11    0.85    1.16
  11   0  11   -0.70    1.56
   0  -1 -11   -0.12    0.29
   0   1 -11   -0.30    0.29
   0  -1 -11    0.41    0.31
   0   1 -11   -0.25    0.32
   0  -1  11   -0.30    0.36
   0  -1  11   -0.28    0.36
   0   1  11    0.10    0.35
   0   1  11    0.79    0.38
  -1  -1 -11  402.27   13.07
   1  -1  11  395.78   11.96
  -1  -1 -11  390.77   11.83
   1   1 -11  377.24   11.90
  -1   1  11  390.16   11.93
  -1   1  11  387.38   13.33
   1  -1  11  373.86   13.36
   1   1 -11  400.60   13.18
  -1  -1  11  378.02   13.35
   1   1  11  390.87   11.91
   1  -1 -11  399.85   13.12
   1  -1 -11  371.15   11.84
   1   1  11  366.23   13.30
  -1   1 -11  411.27   13.18
  -1   1 -11  386.81   11.89
  -1  -1  11  394.25   11.99
   2   1 -11   41.60    1.87
   2  -1  11   37.82    1.74
  -2   1  11   37.41    1.75
   2   1 -11   40.20    1.77
   2  -1  11   39.91    2.05
  -2   1  11   36.93    1.95
  -2  -1 -11   41.35    1.73
   2   1  11   36.60    1.94
  -2  -1  11   40.40    2.01
   2   1  11   39.27    1.72
   2  -1 -11   38.22    1.77
  -2  -1  11   38.63    1.81
   2  -1 -11   35.26    1.66
  -2   1 -11   39.17    1.82
   3  -1  11    2.17    0.62
   3  -1  11    2.13    0.56
  -3   1  11    1.70    0.50
   3   1 -11    2.43    0.48
  -3   1  11    2.54    0.55
   3  -1 -11    2.42    0.47
   3  -1 -11    2.00    0.46
   3   1  11    2.18    0.51
   3   1  11    2.10    0.55
  -3  -1  11    3.92    0.61
  -3   1 -11    2.23    0.46
  -4   1  11   72.86    2.91
   4  -1  11   71.02    3.33
   4   1 -11   75.26    3.11
  -4   1  11   75.14    3.27
   4   1 -11   72.68    2.97
   4  -1  11   75.69    2.93
  -4  -1 -11   81.21    2.88
   4   1  11   78.83    3.34
  -4   1 -11   87.38    3.11
   4  -1 -11   76.00    2.96
  -4  -1  11   77.72    3.25
   4   1  11   75.35    2.89
  -4  -1  11   76.72    2.98
  -5  -1 -11   15.04    0.84
  -5   1  11   13.77    1.23
  -5   1  11   14.91    1.24
   5   1 -11   14.43    1.14
   5  -1  11   11.60    1.17
   5  -1  11   15.85    1.42
   5   1 -11   15.40    1.22
  -5  -1  11   13.32    1.23
   5  -1 -11   14.63    1.19
  -5  -1  11   16.77    1.29
   5   1  11   15.21    1.36
  -5   1 -11   14.42    1.09
   5   1  11   14.46    1.19
   6  -1  11   56.27    2.53
   6   1 -11   57.32    2.56
  -6   1  11   52.42    2.46
  -6   1  11   54.09    2.65
   6  -1  11   55.40    2.86
  -6  -1  11   55.90    2.56
   6   1  11   57.80    2.50
  -6  -1  11   53.46    2.60
  -6   1 -11   56.27    2.35
   6  -1 -11   54.95    2.49
  -6  -1  11   52.34    2.05
   6   1  11   64.39    2.87
   7  -1  11   30.79    2.16
   7   1 -11   26.17    1.81
  -7   1  11   28.40    1.84
  -7  -1  11   28.29    1.26
   7   1  11   28.70    2.03
   7  -1 -11   28.19    1.81
  -7  -1  11   27.26    1.74
  -7   1 -11   30.97    1.55
   8   1 -11    8.60    1.09
   8  -1  11    8.14    1.36
  -8   1  11    9.28    1.17
  -8   1  11    7.89    1.17
  -8   1 -11    9.01    0.82
   8   1  11    6.92    1.20
  -8  -1  11    8.09    1.02
   8  -1 -11    9.88    1.21
  -8  -1  11    9.05    1.22
   9  -1  11  132.25    5.67
  -9   1  11  132.29    5.25
   9   1 -11  132.02    5.07
  -9   1  11  128.99    5.09
   9  -1 -11  129.68    5.01
  -9  -1  11  123.72    4.82
  10   1 -11    4.56    1.17
  10  -1  11    5.04    1.49
  10   1  11    0.78    1.30
  10  -1 -11    5.77    1.16
  11  -1  11   48.08    3.63
  11   1 -11   44.27    2.94
  11   1  11   37.95    3.42
  11  -1 -11   41.29    2.86
   0   2 -11   12.89    0.99
   0   2 -11   13.37    0.93
   0   2  11   13.31    1.07
   0   2  11   13.03    0.95
   0  -2  11   12.47    1.13
   0  -2 -11   11.90    0.83
   0  -2  11   13.52    1.02
   0  -2 -11   14.57    0.91
   1  -2  11    0.36    0.44
   1   2 -11   -0.07    0.30
  -1   2  11   -0.08    0.34
   1   2 -11   -0.34    0.32
  -1  -2 -11   -0.04    0.27
  -1  -2 -11   -0.17    0.27
  -1   2  11    0.42    0.37
   1  -2  11    0.01    0.36
  -1   2 -11    0.17    0.31
   1  -2 -11    0.08    0.30
   1   2  11    0.05    0.35
  -1  -2  11    0.09    0.39
  -1   2 -11   -0.21    0.37
   1   2  11   -0.31    0.33
  -1  -2  11   -0.75    0.38
   2  -2  11    2.13    0.50
  -2   2  11    2.41    0.51
   2   2 -11    2.87    0.53
  -2   2  11    2.11    0.53
   2  -2  11    2.54    0.61
   2   2 -11    2.66    0.50
  -2  -2  11    2.52    0.57
  -2   2 -11    2.23    0.52
  -2  -2  11    2.45    0.55
   2   2  11    2.66    0.54
   2  -2 -11    2.37    0.46
   2   2  11    2.72    0.47
  -3   2  11    2.14    0.55
   3  -2  11    2.19    0.63
   3   2 -11    2.15    0.51
   3  -2  11    1.50    0.53
  -3  -2 -11    2.22    0.37
   3   2 -11    1.96    0.52
  -3   2  11    1.26    0.50
   3   2  11    2.19    0.54
   3   2  11    2.37    0.53
  -3  -2  11    1.25    0.52
   3  -2 -11    2.11    0.51
  -3   2 -11    1.85    0.52
  -3  -2  11    1.97    0.59
   4   2 -11    9.46    1.01
  -4   2  11   10.40    1.08
   4   2 -11   11.84    1.00
   4  -2  11   11.08    1.23
  -4   2  11   10.42    1.01
   4  -2  11   10.32    1.06
  -4  -2  11    9.51    1.11
   4   2  11    9.20    0.92
  -4  -2  11    9.41    1.06
   4  -2 -11   11.09    0.97
  -4   2 -11   11.42    1.04
   4   2  11   13.10    1.15
   5   2 -11    1.17    0.54
   5  -2  11   -0.33    0.60
  -5   2  11    1.51    0.57
   5   2 -11    1.36    0.58
   5  -2  11    1.00    0.59
  -5   2  11    1.27    0.56
  -5  -2  11    0.41    0.43
  -5  -2  11    0.71    0.54
   5  -2 -11    1.37    0.54
   5   2  11    1.47    0.62
  -5  -2  11    2.74    0.65
  -5   2 -11    1.83    0.58
   5   2  11    0.85    0.54
  -6   2  11    2.90    0.71
  -6   2  11    3.31    0.72
   6  -2  11    3.14    0.89
   6   2 -11    3.63    0.70
   6   2 -11    3.16    0.72
   6   2  11    2.65    0.70
   6  -2 -11    3.07    0.73
  -6  -2  11    3.62    0.54
   6   2  11    3.91    0.81
  -6  -2  11    3.56    0.70
  -6   2 -11    2.36    0.67
   7   2 -11   35.50    2.16
  -7   2  11   40.21    2.20
   7  -2  11   36.15    2.45
  -7   2 -11   39.66    1.92
   7  -2 -11   41.08    2.10
  -7  -2  11   36.43    1.54
  -7  -2  11   37.09    1.95
   7   2  11   32.76    2.25
   8   2 -11    1.02    0.72
  -8   2  11    1.20    1.07
  -8   2  11    0.75    0.72
   8   2  11   -1.37    0.85
  -8  -2  11    0.82    0.65
  -8  -2  11    1.28    0.46
  -8   2 -11    1.29    0.67
  -8  -2  11    0.32    0.73
   8  -2 -11    0.37    0.67
  -9   2  11    0.87    1.30
   9  -2  11   -0.61    1.04
  -9   2  11    0.99    0.86
   9   2 -11    0.18    0.78
   9  -2 -11    2.73    0.87
   9   2  11    1.12    1.12
  10  -2  11    5.47    1.53
 -10   2  11    6.76    1.22
  10   2 -11    6.48    1.28
  10   2  11    5.11    1.48
  10  -2 -11    6.74    1.30
  11  -2  11    4.23    1.73
  11   2 -11    0.21    1.14
  11  -2 -11    2.94    1.24
  11   2  11    1.07    1.61
   0  -3 -11    0.10    0.28
   0   3 -11    0.17    0.31
   0  -3  11   -0.11    0.44
   0   3 -11   -0.10    0.39
   0  -3  11    0.49    0.42
   0   3  11    0.35    0.36
   0   3  11    0.09    0.35
  -1   3  11   48.30    1.93
   1   3 -11   46.64    2.16
   1  -3  11   45.41    2.02
  -1  -3 -11   45.18    1.81
   1   3 -11   48.00    2.01
  -1   3  11   50.67    2.24
   1  -3  11   46.28    2.31
  -1  -3  11   46.49    2.05
  -1   3 -11   46.86    2.19
   1   3  11   42.80    2.14
   1  -3 -11   45.14    1.84
  -1  -3  11   45.27    2.27
   1   3  11   50.69    1.93
  -1   3 -11   46.76    1.96
   2  -3  11    4.60    0.78
  -2   3  11    4.16    0.67
   2  -3  11    3.17    0.56
  -2   3  11    4.21    0.59
   2   3 -11    4.90    0.68
   2   3 -11    3.19    0.56
  -2   3 -11    4.28    0.67
  -2  -3  11    4.76    0.68
  -2  -3  11    3.95    0.71
   2   3  11    4.53    0.59
   2   3  11    3.80    0.64
   2  -3 -11    4.68    0.59
   3   3 -11   73.65    2.94
   3  -3  11   75.15    2.94
   3  -3  11   81.31    3.43
  -3   3  11   75.34    2.83
  -3   3  11   72.80    3.22
   3   3 -11   78.86    3.17
  -3  -3  11   73.67    3.20
   3  -3 -11   75.14    2.83
   3   3  11   85.53    2.86
  -3  -3  11   76.63    2.98
   3   3  11   74.36    3.18
  -3   3 -11   73.34    3.16
   4   3 -11   12.80    1.08
  -4   3  11   13.69    1.17
   4   3 -11   13.43    1.13
   4  -3  11   14.02    1.35
   4  -3  11   13.16    1.14
  -4   3  11   12.08    1.04
   4  -3 -11   11.60    1.01
  -4  -3  11   13.13    1.18
  -4  -3  11   12.16    1.14
   4   3  11   15.18    1.04
   4   3  11   14.50    1.18
  -4   3 -11   13.41    1.19
  -5   3  11   46.56    2.37
  -5   3  11   44.18    2.09
   5  -3  11   49.90    2.61
   5   3 -11   48.42    2.25
   5   3 -11   51.24    2.28
  -5   3 -11   47.92    2.31
   5   3  11   45.55    2.07
  -5  -3  11   48.90    2.27
   5   3  11   44.72    2.31
  -5  -3  11   45.09    1.93
   5  -3 -11   46.66    2.13
  -6   3  11    3.74    0.79
   6  -3  11    4.72    1.01
   6   3 -11    4.28    0.75
   6   3 -11    3.62    0.72
  -6   3 -11    2.71    0.75
   6   3  11    3.34    0.76
   6  -3 -11    3.19    0.69
   6   3  11    3.39    0.72
  -6  -3  11    4.68    0.73
  -6  -3  11    3.60    0.56
  -7   3  11  121.58    5.02
   7  -3  11  129.40    5.34
   7   3 -11  123.22    4.84
   7  -3 -11  127.85    4.63
  -7  -3  11  124.94    4.08
   7   3  11  136.33    5.10
  -7  -3  11  121.23    4.53
  -7  -3  11  121.00    4.60
  -7   3 -11  119.40    4.77
   8  -3  11    1.33    0.97
   8   3 -11    1.04    0.76
  -8   3  11   -0.44    0.71
  -8   3  11    0.64    1.24
  -8  -3  11   -0.12    0.49
   8   3  11   -0.19    0.86
   8  -3 -11    0.16    0.66
  -8   3 -11    0.53    0.82
   9  -3  11   15.17    2.17
  -9   3  11   16.36    1.82
   9   3 -11   18.48    1.88
   9   3  11   19.16    2.15
   9  -3 -11   16.85    1.74
  -9  -3  11   19.39    1.01
 -10   3  11   18.78    2.14
  10   3 -11   20.83    2.14
  10  -3  11   15.96    2.01
  10   3  11   18.64    2.08
  10  -3 -11   18.75    2.04
  11  -3  11    6.07    1.85
  11   3 -11   10.01    1.61
  11   3  11    8.25    1.83
  11  -3 -11    6.63    1.44
   0  -4 -11  105.62    3.52
   0  -4  11  111.08    3.84
   0  -4  11   97.79    4.20
   0   4 -11  108.20    3.75
   0   4 -11   98.89    4.11
   0   4  11  104.08    4.11
   0   4  11  113.75    3.63
   1  -4  11    4.44    0.67
   1   4 -11    3.47    0.55
  -1   4  11    5.34    0.73
  -1   4  11    4.45    0.66
  -1  -4 -11    4.62    0.56
   1   4 -11    4.50    0.70
   1  -4  11    4.08    0.75
  -1   4 -11    5.94    0.71
  -1  -4  11    4.26    0.71
  -1  -4  11    5.08    0.70
   1   4  11    5.03    0.70
  -1   4 -11    4.20    0.68
   1   4  11    4.50    0.66
   1  -4 -11    4.49    0.59
   2  -4  11    2.25    0.55
   2  -4  11    3.80    0.71
  -2   4  11    3.32    0.52
  -2   4  11    3.58    0.60
  -2   4 -11    2.82    0.60
   2   4  11    3.08    0.54
   2  -4 -11    2.88    0.49
   2   4  11    2.70    0.56
   3   4 -11   45.53    2.16
   3  -4  11   43.43    2.37
  -3   4  11   41.92    2.17
   3  -4  11   42.08    2.03
  -3   4  11   48.11    1.93
   3   4 -11   45.05    2.06
  -3  -4  11   44.81    2.18
  -3  -4  11   45.42    2.10
   3   4  11   46.43    1.88
   3  -4 -11   46.67    1.91
  -3   4 -11   44.83    2.24
   3   4  11   46.05    2.15
   4   4 -11    2.11    0.58
  -4   4  11    1.14    0.48
   4  -4  11    1.50    0.65
  -4   4  11    0.88    0.46
   4  -4  11    0.31    0.54
   4   4 -11    1.47    0.56
   4   4  11    1.46    0.55
  -4  -4  11    1.90    0.55
  -4   4 -11    0.80    0.61
  -4  -4  11    1.87    0.53
  -4  -4  11    1.59    0.60
   4  -4 -11    1.00    0.47
   4   4  11    1.53    0.52
  -5   4  11    3.26    0.73
  -5   4  11    3.79    0.61
   5   4 -11    2.78    0.70
   5  -4  11    3.52    0.93
   5   4 -11    3.76    0.69
  -5   4 -11    4.07    0.80
   5   4  11    2.48    0.63
  -5  -4  11    4.68    0.65
  -5  -4  11    3.08    0.65
   5   4  11    3.30    0.70
   5  -4 -11    4.09    0.67
   6   4 -11    0.59    0.59
  -6   4  11    0.07    0.29
  -6   4  11    0.35    0.57
   6  -4  11   -0.18    0.74
   6   4 -11    0.62    0.60
   6   4  11    0.36    0.63
  -6  -4  11    0.43    0.51
  -6  -4  11    0.85    0.51
   6  -4 -11   -1.12    0.48
  -6   4 -11    0.53    0.75
   6   4  11    0.44    0.63
   7   4 -11   17.71    1.54
  -7   4  11   20.49    1.64
   7   4 -11   19.39    1.66
   7   4  11   20.19    1.70
  -7   4 -11   16.51    1.73
  -7  -4  11   21.26    1.20
   7  -4 -11   17.35    1.48
   8  -4  11    1.19    1.02
   8   4 -11    1.41    0.77
   8   4  11    1.12    0.93
  -8  -4  11    0.39    0.55
   8  -4 -11    1.96    0.73
  -8   4 -11    0.18    0.94
   9   4 -11   21.95    1.99
  -9   4  11   20.55    1.96
   9  -4  11   22.22    2.44
  -9  -4  11   23.34    1.23
   9   4  11   20.63    2.25
   9  -4 -11   22.72    1.87
  10   4 -11    4.67    1.22
 -10   4  11    5.56    1.26
  10  -4  11    8.96    1.69
  10  -4 -11    5.66    1.22
  11   4 -11    2.57    1.37
  11  -4  11    1.17    1.69
  11   4  11    0.48    1.69
  11  -4 -11    1.68    1.25
   0  -5 -11    0.05    0.27
   0   5 -11    0.69    0.51
   0   5 -11    0.09    0.34
   0  -5  11   -1.04    0.44
   0   5  11    0.14    0.34
   0  -5  11   -0.99    0.46
  -1   5  11   15.94    1.22
   1  -5  11   20.15    1.46
   1   5 -11   19.65    1.36
   1  -5  11   20.14    1.32
   1   5 -11   19.68    1.21
  -1   5  11   20.11    1.10
   1   5  11   20.49    1.12
   1   5  11   19.55    1.24
   1  -5 -11   19.64    1.01
  -1  -5  11   18.43    1.38
  -1   5 -11   20.35    1.41
  -1   5 -11   21.37    1.21
  -1  -5  11   19.07    1.36
  -2   5  11   10.96    1.01
   2  -5  11   12.32    1.11
   2   5 -11   12.50    1.03
   2   5 -11   12.75    1.13
  -2   5  11   11.78    0.91
   2  -5  11   11.07    1.21
   2   5  11   10.11    0.96
  -2  -5  11    9.67    1.13
   2  -5 -11   10.36    0.82
   2   5  11   12.94    0.90
  -2   5 -11   10.59    1.16
  -2  -5  11   12.94    1.13
   3  -5  11   75.57    2.91
   3   5 -11   73.11    3.10
  -3   5  11   72.15    3.13
   3  -5  11   73.85    3.33
   3   5 -11   68.91    2.85
  -3   5  11   72.08    2.66
  -3   5 -11   74.98    3.23
   3   5  11   67.88    2.62
   3  -5 -11   69.09    2.65
  -3  -5  11   70.17    2.89
  -3  -5  11   68.48    3.00
   3   5  11   75.14    3.01
  -4   5  11   14.75    1.24
   4  -5  11   13.81    1.29
  -4   5  11   14.53    1.04
   4  -5  11   13.47    1.46
   4   5 -11   12.72    1.20
   4   5 -11   13.11    1.19
  -4   5  11   13.24    0.76
   4   5  11   12.86    1.12
   4  -5 -11   14.78    1.07
   4   5  11   13.71    1.04
  -4  -5  11   13.31    1.30
  -4  -5  11   12.61    1.05
  -4   5 -11   14.95    1.41
  -4  -5  11   12.64    1.15
   5   5 -11  277.18    8.75
   5  -5  11  276.20    9.83
  -5   5  11  261.84    9.56
  -5   5  11  263.01    7.97
   5   5 -11  275.96    9.41
  -5  -5  11  262.35    8.30
  -5   5 -11  249.76    9.51
   5   5  11  259.64    9.36
   5  -5 -11  271.68    8.51
   5   5  11  259.65    8.40
  -5  -5  11  269.38    9.15
  -6   5  11   30.53    1.19
   6   5 -11   29.04    1.86
   6  -5  11   29.77    2.27
  -6   5  11   29.94    1.93
   6   5 -11   29.85    1.83
  -6   5 -11   31.72    2.11
   6   5  11   28.07    1.67
  -6  -5  11   27.81    1.52
   6   5  11   30.57    1.85
   6  -5 -11   30.11    1.70
  -6  -5  11   30.01    1.44
   7  -5  11   44.03    2.84
   7   5 -11   50.15    2.54
   7   5 -11   44.70    2.42
  -7  -5  11   45.56    2.00
  -7   5 -11   46.51    2.72
   7   5  11   47.80    2.34
   7   5  11   50.86    2.56
   7  -5 -11   48.22    2.33
   8   5 -11    0.25    0.83
   8  -5  11    0.67    1.01
  -8   5  11    1.44    0.83
   8   5  11    0.99    0.89
   8  -5 -11    1.08    0.76
  -8  -5  11    0.49    0.60
  -8   5 -11   -0.42    1.15
   9   5 -11    2.49    1.02
   9  -5  11    0.53    1.19
  -9   5  11    0.32    0.96
   9  -5 -11   -1.22    0.79
   9   5  11   -0.89    1.07
  -9  -5  11   -0.75    0.63
 -10   5  11    2.14    1.19
  10   5 -11    3.54    1.28
  10  -5  11    1.75    1.54
  10  -5 -11    4.93    1.23
  10   5  11    1.84    1.40
   0   6  11    7.26    0.83
   0   6  11    6.10    0.70
   0   6 -11    6.93    0.96
   0  -6  11    6.01    0.90
   0  -6  11    9.03    1.08
   0  -6 -11    5.96    0.59
   0   6 -11    6.94    0.82
   1   6 -11   -0.05    0.51
   1  -6  11    0.42    0.52
   1   6 -11    0.38    0.40
   1  -6  11   -0.17    0.50
  -1   6  11    0.80    0.43
   1   6  11   -0.05    0.37
   1  -6 -11   -0.20    0.28
  -1  -6  11   -0.08    0.47
  -1  -6  11    1.10    0.60
  -1   6 -11    0.04    0.55
  -1   6 -11    0.54    0.39
  -2   6  11   20.83    1.37
  -2   6  11   20.29    1.02
   2   6 -11   19.64    1.42
   2   6 -11   20.47    1.31
   2  -6  11   22.74    1.44
   2  -6  11   21.04    1.59
  -2   6  11   20.75    1.12
  -2  -6  11   20.38    1.41
  -2   6 -11   17.89    1.53
   2   6  11   20.00    1.11
   2   6  11   21.13    1.29
  -2  -6  11   21.29    1.46
   2  -6 -11   20.55    1.08
   3   6 -11    3.37    0.71
   3  -6  11    2.91    0.75
   3  -6  11    3.23    0.72
  -3   6  11    2.87    0.43
  -3   6  11    1.76    0.54
   3   6 -11    2.25    0.58
  -3   6  11    2.84    0.50
  -3  -6  11    1.24    0.59
   3   6  11    2.32    0.52
   3  -6 -11    1.72    0.44
  -3   6 -11    2.90    0.78
  -3  -6  11    3.01    0.60
  -3  -6  11    3.17    0.74
   4  -6  11    3.76    0.84
  -4   6  11    3.58    0.48
   4   6 -11    3.33    0.71
   4   6 -11    3.06    0.67
   4  -6  11    3.11    0.87
  -4   6  11    3.13    0.73
  -4  -6  11    4.00    0.67
  -4  -6  11    3.34    0.63
   4   6  11    4.24    0.62
   4   6  11    3.08    0.61
  -4  -6  11    2.78    0.75
   4  -6 -11    3.27    0.57
  -4   6 -11    3.18    0.87
  -5   6  11    1.23    0.61
   5   6 -11    1.10    0.64
   5  -6  11    0.97    0.75
   5   6 -11    0.46    0.57
  -5   6  11    0.32    0.41
  -5   6 -11    0.03    0.85
   5   6  11    0.31    0.54
   5  -6 -11    0.86    0.54
  -5  -6  11    0.70    0.52
   5   6  11    0.21    0.49
  -5  -6  11    0.32    0.46
   6  -6  11    2.86    1.00
   6   6 -11    2.31    0.82
  -6   6  11    3.54    0.48
   6  -6 -11    2.44    0.68
   6   6  11    2.86    0.77
  -6  -6  11    3.26    0.69
  -6   6 -11    2.24    1.00
   6   6  11    3.69    0.78
   7  -6  11    0.60    0.94
   7   6 -11   -0.91    0.70
   7   6 -11   -1.18    0.74
  -7   6  11   -0.14    0.67
   7   6  11   -1.89    0.78
   7   6  11   -0.42    0.70
  -7  -6  11   -0.09    0.60
   7  -6 -11    0.39    0.64
  -8   6  11    4.54    0.97
   8   6 -11    4.42    1.03
   8  -6  11    4.62    1.21
  -8  -6  11    4.01    0.77
   8   6  11    5.37    1.05
   8  -6 -11    4.25    0.90
   9   6 -11   11.01    1.46
   9  -6  11    9.49    1.69
  -9   6  11    7.04    1.27
  -9  -6  11    9.49    0.96
   9  -6 -11   10.30    1.29
   9   6  11    8.59    1.43
  10   6 -11    6.23    1.43
 -10   6  11    7.43    1.51
  10  -6  11    6.13    1.69
  10   6  11    5.57    1.57
  10  -6 -11    9.44    1.41
   0  -7  11    0.25    0.61
   0   7  11    0.36    0.36
   0   7  11    0.13    0.39
   0   7 -11    0.48    0.62
   0  -7 -11   -0.12    0.27
   0   7 -11    0.50    0.40
   0   7  11    0.16    0.38
   0  -7  11   -0.62    0.53
   1   7 -11   -0.31    0.56
   1  -7  11    0.55    0.58
  -1   7  11    0.26    0.37
  -1   7  11    0.41    0.39
   1  -7  11    0.97    0.55
   1   7 -11   -0.22    0.39
  -1   7  11    0.26    0.36
   1  -7 -11    0.30    0.30
  -1  -7  11    0.38    0.61
   1   7  11    0.11    0.39
  -1  -7  11    0.32    0.52
   1   7  11    0.37    0.41
  -1   7 -11    0.55    0.41
   1   7  11    0.33    0.36
  -1   7 -11   -0.50    0.61
  -2   7  11   28.46    1.32
   2   7 -11   27.35    1.59
  -2   7  11   29.13    1.33
   2   7 -11   29.28    1.82
  -2   7  11   29.60    1.70
   2  -7  11   31.88    1.96
   2  -7  11   29.76    1.74
   2   7  11   31.17    1.60
  -2  -7  11   26.00    1.70
  -2  -7  11   29.48    1.68
  -2  -7  11   27.46    1.60
   2  -7 -11   31.86    1.32
   2   7  11   29.14    1.44
   3  -7  11   79.64    3.66
  -3   7  11   81.78    2.86
  -3   7  11   77.46    3.42
   3   7 -11   81.37    3.48
   3  -7  11   78.61    3.22
   3   7 -11   80.82    3.19
  -3   7  11   82.40    2.80
   3   7  11   87.71    3.30
  -3   7 -11   75.10    3.64
  -3  -7  11   81.22    3.26
  -3  -7  11   82.88    3.26
  -3  -7  11   78.65    3.11
   3  -7 -11   77.65    2.86
   3   7  11   84.36    2.90
  -4   7  11    7.14    0.73
   4   7 -11    8.02    1.07
  -4   7  11    5.07    0.83
   4   7 -11    5.93    0.92
   4  -7  11    4.46    0.85
   4  -7  11    5.76    1.03
   4   7  11    9.16    0.91
  -4  -7  11    7.10    0.98
   4   7  11    7.06    0.89
  -4   7 -11    4.54    1.06
  -4  -7  11    5.68    0.87
  -4  -7  11    6.72    0.85
   4  -7 -11    5.49    0.70
  -5   7  11  192.16    7.73
   5   7 -11  197.48    6.85
  -5   7  11  206.41    6.21
   5   7 -11  196.43    7.37
   5   7  11  213.89    7.26
   5   7  11  199.92    6.48
  -5  -7  11  197.19    6.54
   5  -7 -11  202.67    6.58
  -6   7  11   22.26    1.10
   6   7 -11   19.80    1.71
   6  -7  11   23.40    2.08
  -6   7  11   23.06    1.73
   6   7  11   20.24    1.53
   6  -7 -11   19.76    1.45
   6   7  11   21.70    1.46
  -6  -7  11   18.25    1.39
   7  -7  11   44.02    2.83
  -7   7  11   37.50    2.36
   7   7 -11   43.05    2.40
   7  -7 -11   41.18    2.17
  -7  -7  11   43.72    2.01
   7   7  11   38.42    2.26
   7   7  11   39.35    2.17
  -8   7  11   12.52    1.73
   8   7 -11   12.71    1.59
   8  -7  11   15.09    2.16
  -8  -7  11   13.65    1.32
   8  -7 -11   14.07    1.57
   8   7  11   12.41    1.76
   9   7 -11    3.46    1.19
  -9   7  11    4.86    1.20
   9  -7  11    5.30    1.48
   9   7  11    2.80    1.26
   9  -7 -11    3.02    1.01
  -9  -7  11    3.40    0.86
 -10   7  11    4.07    1.34
  10  -7  11    3.12    1.60
  10   7 -11    2.78    1.40
  10  -7 -11    1.95    1.14
   0  -8  11   16.23    1.26
   0  -8  11   14.42    1.37
   0   8 -11   13.62    1.08
   0   8  11   13.74    1.03
   0   8 -11   14.16    1.51
   0  -8  11   14.17    1.31
   0   8  11   12.08    1.07
   0   8  11   12.93    0.88
  -1   8  11    6.06    0.82
   1  -8  11    3.77    0.79
  -1   8  11    8.45    0.92
   1   8 -11    5.17    0.90
   1   8 -11    6.13    0.80
   1  -8  11    6.56    0.94
  -1  -8  11    6.05    0.87
   1   8  11    5.59    0.84
  -1  -8  11    5.33    0.85
  -1   8 -11    5.17    0.96
   1   8  11    5.47    0.57
  -1  -8  11    5.23    0.82
   1   8  11    6.65    0.74
  -1   8 -11    5.18    0.72
  -2   8  11    0.11    0.45
  -2   8  11    0.05    0.46
   2   8 -11   -1.00    0.45
   2   8 -11    0.44    0.69
   2  -8  11    0.97    0.64
   2  -8  11   -0.23    0.64
  -2  -8  11   -0.57    0.68
   2  -8 -11   -0.21    0.34
   2   8  11   -0.22    0.38
  -2  -8  11   -0.82    0.51
  -2  -8  11    0.51    0.54
   2   8  11   -0.32    0.52
   2   8  11   -0.19    0.40
   3   8 -11    3.71    0.83
   3  -8  11    4.49    0.93
   3  -8  11    6.63    0.98
   3   8 -11    4.42    0.75
  -3   8  11    6.37    0.69
  -3   8  11    5.28    0.84
  -3  -8  11    5.17    0.70
  -3  -8  11    6.64    0.86
   3  -8 -11    6.55    0.74
   3   8  11    6.27    0.88
  -3  -8  11    4.87    0.94
  -4   8  11    0.14    0.46
  -4   8  11    0.03    0.54
   4  -8  11   -0.10    0.76
   4   8 -11   -1.21    0.52
   4   8 -11    0.65    0.70
   4   8  11   -0.01    0.46
   4  -8 -11    0.13    0.44
   4   8  11   -0.14    0.50
  -4  -8  11    0.73    0.59
  -4  -8  11    0.10    0.42
   5   8 -11   -0.95    0.62
   5   8 -11   -0.45    0.75
  -5   8  11   -0.78    0.50
   5  -8  11    0.05    0.77
  -5   8  11    0.56    0.60
  -5  -8  11    0.12    0.63
   5  -8 -11   -0.06    0.53
   5   8  11    0.14    0.56
   5   8  11    0.79    0.56
   6   8 -11    1.82    0.83
   6  -8  11    0.79    0.88
   6   8 -11    0.72    0.85
  -6   8  11    1.53    0.71
   6   8  11    1.09    0.71
  -6  -8  11    2.64    0.75
   6   8  11    1.20    0.68
   6  -8 -11    2.35    0.68
  -7   8  11   25.27    2.00
   7  -8  11   27.10    2.45
   7   8 -11   26.14    1.99
   7   8  11   25.72    1.86
  -7  -8  11   24.04    1.65
   7   8  11   23.67    1.80
   7  -8 -11   26.39    1.78
  -8   8  11   -0.01    0.92
   8  -8  11    0.65    1.18
   8   8 -11   -0.09    0.95
   8   8  11    0.95    0.99
   8  -8 -11   -0.03    0.83
  -8  -8  11    0.51    0.81
   9  -8  11    5.47    1.58
  -9   8  11    4.19    1.31
   9   8 -11    6.33    1.40
  -9  -8  11    7.42    1.08
   9  -8 -11    7.01    1.26
   9   8  11    7.13    1.42
   0   9  11   -0.26    0.42
   0  -9  11   -0.55    0.57
   0   9  11   -0.15    0.33
   0   9 -11    0.93    0.80
   0   9  11    0.62    0.53
   0   9 -11    0.46    0.46
   0  -9  11   -0.38    0.58
   0  -9  11    0.21    0.72
   1   9 -11  144.94    5.04
  -1   9  11  151.83    4.85
  -1   9  11  148.18    4.56
   1  -9  11  147.09    5.15
   1   9 -11  138.44    5.73
   1  -9  11  145.88    5.66
   1  -9  11  149.02    5.16
  -1   9  11  147.51    5.49
   1   9  11  136.02    4.86
   1   9  11  150.29    5.42
  -1  -9  11  150.01    5.15
   1   9  11  144.41    4.55
   1  -9 -11  146.79    4.52
  -1   9 -11  127.49    5.74
  -1  -9  11  145.22    5.47
  -1  -9  11  147.23    5.13
  -1   9 -11  148.92    5.02
   2  -9  11    1.96    0.73
  -2   9  11    2.30    0.60
   2   9 -11    2.29    0.60
  -2   9  11    1.37    0.57
   2  -9  11    1.03    0.63
   2  -9  11    3.08    0.83
   2   9 -11    4.10    0.90
   2  -9 -11    1.34    0.38
  -2  -9  11    2.08    0.84
   2   9  11    2.52    0.47
   2   9  11    2.33    0.56
  -2  -9  11    2.02    0.69
  -2  -9  11    1.83    0.62
   3   9 -11   21.44    1.48
   3  -9  11   19.77    1.76
  -3   9  11   20.34    1.52
  -3   9  11   19.03    1.24
   3   9 -11   20.85    1.73
   3   9  11   20.12    1.33
  -3  -9  11   22.23    1.52
   3  -9 -11   22.57    1.13
  -3  -9  11   21.04    1.27
   3   9  11   22.42    1.13
  -3  -9  11   22.30    1.80
  -4   9  11    1.42    0.58
   4   9 -11    0.25    0.63
   4   9  11    1.40    0.54
  -4  -9  11    1.35    0.70
   4   9  11    1.39    0.53
   4  -9 -11    0.80    0.49
  -5   9  11   31.78    1.99
   5  -9  11   28.00    2.29
   5   9 -11   29.08    1.95
   5   9 -11   30.49    2.12
  -5   9  11   31.78    1.55
  -5  -9  11   25.62    1.74
   5   9  11   31.69    1.74
   5  -9 -11   31.51    1.63
   5   9  11   29.85    1.58
   6  -9  11    2.49    1.04
   6   9 -11    2.19    0.87
   6   9 -11    3.00    1.22
  -6   9  11    2.79    0.75
  -6   9  11    2.86    0.85
   6  -9 -11    4.07    0.79
  -6  -9  11    1.70    0.82
   6   9  11    3.22    0.80
   6   9  11    3.77    0.78
   7   9 -11   15.85    1.81
   7  -9  11   14.96    2.18
  -7   9  11   17.60    1.81
   7   9  11   15.80    1.70
   7  -9 -11   17.85    1.56
  -7  -9  11   13.93    1.61
   7   9  11   15.43    1.61
  -8   9  11    1.20    1.02
   8  -9  11    2.77    1.34
   8   9 -11    0.27    1.06
   8  -9  11    0.68    0.95
   8   9  11    1.16    1.02
   8  -9 -11   -1.16    0.87
   9  -9  11   12.79    1.95
   9  -9  11   13.27    1.49
  -9   9  11   14.41    2.19
   9   9 -11   14.23    1.81
  -9  -9  11   12.93    1.71
   9  -9 -11   14.80    1.90
   0 -10  11   33.07    2.07
   0 -10  11   34.43    1.99
   0 -10  11   35.59    1.94
   0  10  11   33.71    1.85
   0  10 -11   33.33    1.76
   1 -10  11   15.94    1.45
   1  10 -11   18.15    1.87
  -1  10  11   16.41    1.35
   1 -10  11   16.67    1.66
   1 -10  11   15.09    1.52
   1  10 -11   15.12    1.25
  -1 -10  11   19.83    1.70
   1  10  11   18.49    1.27
  -1 -10  11   18.49    1.48
  -1 -10  11   21.25    1.44
   2  10 -11   11.09    1.18
   2 -10  11    9.56    1.27
  -2  10  11   10.04    1.14
   2 -10  11    9.89    1.43
   2 -10  11    8.35    1.14
   2  10 -11    9.01    1.24
  -2 -10  11    9.13    1.12
  -2 -10  11   11.66    1.11
   2  10  11   10.32    0.74
   2 -10 -11    9.41    0.68
   2  10  11   10.99    1.02
  -2 -10  11    8.49    1.10
   3 -10  11    7.07    1.18
   3  10 -11    8.53    1.22
   3  10 -11    6.67    0.92
   3 -10  11    9.24    1.17
  -3  10  11    8.52    1.11
  -3  10  11    6.40    1.00
   3  10  11    6.74    0.97
   3  10  11    7.72    0.81
   3 -10 -11    6.25    0.74
  -3 -10  11    8.11    1.09
   4 -10  11   11.32    1.70
   4  10 -11   13.14    1.40
   4  10 -11   10.95    1.40
  -4  10  11   11.67    1.20
  -4  10  11   12.92    1.33
   4  10  11   10.41    1.12
  -4 -10  11   13.20    1.53
   4 -10 -11   11.55    0.98
  -5  10  11    8.36    1.29
  -5  10  11   10.60    1.18
   5 -10  11   12.02    1.77
   5 -10  11    7.24    1.20
   5  10  11    8.60    1.11
   5  10  11    7.23    1.09
   5 -10 -11    9.00    1.09
  -6  10  11    3.88    0.97
   6 -10  11    5.08    1.02
   6 -10  11    5.23    1.23
   6  10 -11    2.57    0.95
   6  10  11    4.53    0.89
   6 -10 -11    6.59    0.90
   6  10  11    4.50    0.88
  -6 -10  11    4.70    0.97
   7  10 -11   11.67    1.45
  -7  10  11   13.69    1.76
   7 -10  11   11.81    1.73
   7 -10  11   11.24    1.36
   7  10  11   10.01    1.49
   7 -10 -11   10.75    1.46
  -7 -10  11   11.24    1.26
   8  10 -11    4.44    1.28
  -8  10  11    3.28    1.19
   8 -10  11    4.23    1.15
   8 -10  11    6.26    1.54
  -8 -10  11    6.98    1.10
   8 -10 -11    7.18    1.13
   9 -10  11   24.25    2.28
   9 -10  11   25.93    3.24
  -9  10  11   27.24    2.64
   9  10 -11   31.15    2.74
   9  10  11   29.61    2.16
  -9 -10  11   27.73    2.12
   9 -10 -11   27.34    2.34
   0 -11  11   -0.70    0.72
   0  11 -11   -0.62    0.49
   0 -11  11   -0.81    0.65
   0 -11  11    1.08    0.96
   1 -11  11   90.04    3.86
   1 -11  11   91.68    3.81
   1  11 -11   93.48    3.58
   1 -11  11  100.14    4.07
  -1 -11  11   94.67    3.82
  -1 -11  11   96.98    3.80
  -1 -11  11   92.21    3.78
   2 -11  11   13.02    1.36
   2 -11  11   14.45    1.63
  -2  11  11   11.81    1.38
   2  11 -11   12.11    1.25
   2  11  11   10.41    1.11
  -2 -11  11   14.05    1.42
  -3  11  11   11.10    1.35
   3 -11  11   13.91    1.66
   3  11 -11   11.43    1.33
   3 -11  11   14.58    1.45
  -3 -11  11   12.89    1.45
   3 -11 -11   13.09    0.82
   3  11  11   11.27    1.17
  -4  11  11    3.22    0.81
   4  11 -11    2.88    0.81
   4 -11  11    4.08    0.95
  -4  11  11    3.75    0.86
   4 -11  11    3.68    1.04
   4  11  11    3.27    0.71
   4 -11 -11    3.30    0.58
  -4 -11  11    4.92    0.95
   4  11  11    3.62    0.60
  -5  11  11    6.33    1.02
   5  11 -11    5.03    1.00
   5 -11  11    6.48    1.05
  -5  11  11    5.22    0.98
   5 -11  11    4.83    1.22
  -5 -11  11    6.59    1.07
   5  11  11    5.75    0.87
   5 -11 -11    5.83    0.73
   6  11 -11    0.95    0.94
  -6  11  11    1.93    0.89
   6 -11  11    0.40    1.19
   6 -11  11    1.77    0.84
   6 -11 -11    1.35    0.77
  -6 -11  11    3.81    0.95
   6  11  11    1.52    0.80
  -7  11  11   35.77    2.59
   7 -11  11   36.91    3.06
   7  11 -11   35.45    2.48
   7 -11  11   33.91    2.25
   7  11  11   33.35    2.19
   7 -11 -11   37.65    2.14
  -7 -11  11   34.84    2.25
   7  11  11   37.88    1.93
  -8  11  11    3.04    1.24
   8 -11  11    1.91    1.15
   8  11 -11    3.58    1.30
   8 -11  11    2.50    1.58
   8 -11 -11    2.24    1.09
   8  11  11    2.95    1.06
  -8 -11  11    1.26    1.11
   0  12 -11   -0.03    0.61
   0 -12  11   -0.76    0.70
   0 -12  11    0.17    0.70
   1 -12  11   26.75    1.83
   1  12 -11   26.87    1.66
   1 -12  11   26.67    1.94
  -1 -12  11   25.32    1.83
   2 -12  11    2.24    0.82
   2  12 -11    0.01    0.65
   2 -12  11    0.90    0.89
  -2 -12  11    1.27    0.75
   3 -12  11   -0.42    0.87
   3 -12  11   -1.03    0.69
   3  12 -11   -0.17    0.68
   3  12  11   -0.63    0.57
  -3 -12  11   -0.95    0.74
   4 -12  11   17.19    1.63
  -4  12  11   15.89    1.71
   4 -12  11   15.64    2.02
   4  12  11   18.58    1.43
   4 -12 -11   16.13    1.04
  -4 -12  11   16.54    1.68
  -5  12  11    2.59    0.92
   5 -12  11    1.33    1.14
   5 -12  11    2.44    0.90
   5  12 -11    1.29    0.89
  -5 -12  11    0.88    0.93
   5  12  11    2.03    0.75
   5 -12 -11    0.55    0.66
   5  12  11    1.59    0.59
   6 -12  11   12.45    1.44
   6  12 -11   10.71    1.35
   6 -12  11   12.72    1.70
  -6  12  11   11.22    1.74
  -6 -12  11   13.97    1.79
   6  12  11   10.56    1.46
   6 -12 -11   10.32    1.40
   7  12 -11    0.68    1.16
   7 -12  11   -0.01    1.36
   7 -12  11   -0.29    1.05
  -7  12  11    0.83    0.99
  -7 -12  11    2.45    1.14
   7 -12 -11    0.88    0.99
   0 -13  11   -0.30    0.80
   1 -13  11   70.52    3.26
   1  13 -11   75.05    3.04
  -1 -13  11   72.70    3.28
   2 -13  11    1.27    0.83
   2  13 -11    0.10    0.71
  -2 -13  11    0.53    0.87
   3 -13  11    3.53    0.96
   3  13  11    2.76    0.77
  -3 -13  11    2.91    0.95
   4 -13  11    2.84    0.94
   4  13 -11    3.35    0.95
   4  13  11    1.95    0.74
  -4 -13  11    2.16    0.99
   5 -13  11    0.20    0.89
   5  13 -11   -0.26    0.96
  -5 -13  11   -0.49    0.96
   5  13  11   -0.11    0.78
  -6  13  11   20.39    2.18
   6  13 -11   21.97    2.14
   6 -13  11   25.07    2.11
  -6 -13  11   23.60    2.22
   7 -13  11   29.52    2.38
  -7  13  11   28.07    2.52
   7  13 -11   26.98    2.53
  -7 -13  11   31.74    2.47
   0 -14  11    1.24    0.98
   1  14 -11    2.75    0.83
   1 -14  11    4.38    1.04
  -1 -14  11    6.45    1.17
   2 -14  11   10.22    1.35
  -2 -14  11    6.76    1.16
   3 -14  11   23.21    2.08
   3  14 -11   28.47    1.96
  -3 -14  11   29.03    2.19
   4  14 -11    0.70    0.95
   4 -14  11    1.74    1.05
  -4 -14  11    0.71    1.05
   4  14  11    2.65    0.88
   5  14 -11   -0.83    1.01
   5 -14  11   -1.04    1.07
   5  14  11    1.19    0.95
  -5 -14  11   -0.58    1.12
  -6  14  11   -2.01    1.13
   6 -14  11   -0.89    1.16
   6  14 -11   -0.58    1.27
  -6 -14  11    1.96    1.29
   0 -15  11    0.81    0.99
   1 -15  11    9.31    1.37
  -1 -15  11    9.90    1.38
   2  15 -11    0.44    0.82
   2 -15  11    0.39    0.98
  -2 -15  11   -0.88    1.04
   3 -15  11   33.01    2.43
   3  15 -11   32.11    2.10
  -3 -15  11   34.56    2.44
   4  15 -11   14.26    1.88
   4 -15  11   15.11    1.99
  -4 -15  11   18.22    2.13
   5  15 -11    8.04    1.41
   5 -15  11    6.62    1.42
  -5 -15  11    6.53    1.49
   0 -16  11   -0.12    1.14
   1 -16  11    5.07    1.34
  -1 -16  11    3.41    1.23
   2  16 -11    0.48    0.91
   2 -16  11   -1.76    1.13
  -2 -16  11    0.25    1.19
   3 -16  11    2.67    1.32
   3  16 -11    5.97    1.14
  -3 -16  11    4.03    1.39
   0   0 -12  161.87    5.58
   0   0  12  153.96    5.80
   0   0  12  150.94    5.15
   0   0 -12  146.78    5.05
  -1   0 -12   -0.68    0.32
   1   0 -12   -0.03    0.37
  -1   0  12   -0.81    0.43
   1   0  12    0.13    0.43
   1   0 -12    0.36    0.39
   1   0  12   -0.45    0.41
  -1   0 -12   -0.15    0.36
  -1   0  12    0.55    0.46
  -2   0  12  324.10    9.99
   2   0 -12  301.31   10.88
   2   0  12  313.53    9.94
   2   0  12  309.95   11.16
   2   0 -12  309.53    9.91
  -2   0 -12  328.36   10.86
  -2   0  12  338.72   11.22
   3   0  12   19.02    1.26
  -3   0  12   14.32    1.24
   3   0 -12   18.46    1.21
  -3   0  12   20.30    1.43
  -3   0 -12   19.25    1.15
   3   0  12   17.76    1.46
   3   0 -12   20.04    1.24
   4   0 -12  213.92    7.13
  -4   0  12  222.11    7.13
   4   0  12  217.00    8.02
   4   0  12  220.66    7.10
   4   0 -12  210.44    7.69
  -4   0  12  222.70    7.96
  -4   0 -12  214.59    7.54
  -5   0 -12    1.39    0.44
  -5   0  12    1.43    0.60
   5   0  12    3.52    0.73
  -5   0  12    2.73    0.68
   5   0  12    1.95    0.70
   5   0 -12    2.13    0.62
  -6   0  12    4.05    0.82
   6   0 -12    4.63    0.81
  -6   0 -12    3.83    0.54
   6   0  12    3.51    0.95
  -7   0 -12   29.37    1.34
   7   0  12   29.41    2.24
  -7   0  12   32.18    1.97
  -7   0  12   31.52    1.34
   8   0 -12   29.67    2.00
  -8   0  12   27.92    1.98
  -8   0  12   30.18    2.15
   9   0  12   32.32    2.63
  -9   0  12   29.29    2.05
   9   0 -12   29.29    2.19
  10   0  12    4.92    1.56
  10   0 -12    6.22    1.34
  11   0 -12    3.80    1.37
  11   0  12    3.68    1.84
   0  -1  12    0.40    0.44
   0  -1 -12   -0.35    0.32
   0   1 -12   -0.53    0.34
   0   1  12   -0.20    0.39
   0   1  12   -0.62    0.41
   0  -1  12    0.41    0.46
   0   1 -12   -0.07    0.40
   0  -1 -12    0.18    0.35
   1  -1  12   71.40    3.23
  -1   1  12   72.81    2.82
   1   1 -12   77.06    2.82
  -1   1  12   75.48    3.21
  -1  -1 -12   72.01    2.89
   1   1 -12   75.61    3.02
  -1  -1 -12   68.57    2.68
   1  -1  12   73.29    2.84
  -1  -1  12   75.94    2.89
   1   1  12   68.33    3.16
  -1  -1  12   82.12    3.29
  -1   1 -12   66.23    2.71
   1  -1 -12   76.33    2.97
   1  -1 -12   74.15    2.74
   1   1  12   75.25    2.81
  -1   1 -12   73.04    3.00
  -2  -1 -12    1.75    0.38
  -2   1  12    2.32    0.57
  -2   1  12    1.94    0.57
   2  -1  12    1.53    0.56
   2  -1  12    1.50    0.55
   2   1 -12    1.66    0.46
   2   1 -12    1.41    0.46
   2   1  12    1.55    0.51
   2  -1 -12    1.19    0.45
  -2  -1  12    0.91    0.52
  -2   1 -12    1.14    0.47
   2  -1 -12    1.36    0.41
  -2  -1  12    1.91    0.61
  -3  -1 -12    1.55    0.42
   3   1 -12    2.56    0.55
  -3   1  12    1.73    0.54
   3   1 -12    1.44    0.54
   3  -1  12    1.86    0.60
  -3   1  12    1.30    0.55
   3  -1  12    2.48    0.59
  -3  -1  12    1.45    0.58
  -3   1 -12    1.69    0.50
   3  -1 -12    0.80    0.44
   3  -1 -12    1.00    0.50
  -3  -1  12    1.58    0.58
   3   1  12    1.15    0.48
   3   1  12    2.03    0.62
   4   1 -12   38.14    1.92
   4   1 -12   38.72    1.91
   4  -1  12   36.05    2.13
  -4   1  12   35.79    1.86
   4  -1  12   35.85    1.86
  -4   1  12   35.49    2.05
   4  -1 -12   38.52    1.87
  -4  -1  12   38.95    2.09
   4   1  12   37.88    1.83
  -4   1 -12   34.86    1.82
   4   1  12   37.88    2.12
  -4  -1  12   40.86    1.95
   5   1 -12    0.34    0.51
   5   1 -12    0.04    0.51
   5  -1  12    0.65    0.65
  -5   1  12   -0.27    0.63
  -5   1  12   -0.50    0.51
  -5  -1 -12    0.35    0.34
   5  -1  12    0.67    0.61
   5  -1 -12   -0.37    0.46
   5   1  12    0.84    0.66
  -5  -1  12   -0.12    0.54
  -5  -1  12    1.07    0.64
  -5   1 -12    0.85    0.51
   5   1  12    0.52    0.58
  -6   1  12    2.82    0.77
   6  -1  12    2.44    0.86
   6   1 -12    3.35    0.79
  -6   1 -12    2.82    0.59
  -6  -1  12    2.15    0.73
   6  -1 -12    3.23    0.75
  -6  -1  12    3.70    0.57
   6   1  12    2.47    0.80
   6   1  12    2.51    0.83
   7   1 -12    1.99    0.79
  -7   1  12    1.30    0.75
  -7   1  12    2.74    0.46
   7  -1  12    0.93    0.92
   7   1  12    1.75    0.87
  -7  -1  12    1.19    0.75
  -7  -1  12    3.08    0.53
   8   1 -12    1.03    0.77
  -8   1  12    1.31    1.08
   8  -1  12    1.48    1.04
  -8   1  12    1.22    0.81
  -8  -1  12    1.38    0.47
  -8  -1  12    0.03    0.77
  -8   1 -12    0.04    0.45
  -8  -1  12    1.73    0.94
   8   1  12   -1.02    0.95
   8  -1 -12    0.25    0.71
   9  -1  12   21.59    2.41
   9   1 -12   25.95    2.09
  -9   1  12   22.35    1.94
   9   1  12   22.50    2.42
  -9  -1  12   20.73    1.76
   9  -1 -12   23.18    2.00
  10  -1  12    3.46    1.49
 -10   1  12    1.36    1.14
  10   1 -12    0.33    1.05
  10   1  12    0.31    1.42
  10  -1 -12    1.35    1.05
  11   1 -12    7.51    1.67
  11  -1  12   10.01    2.02
  11   1  12    8.71    2.07
  11  -1 -12   11.51    1.60
   0  -2 -12   18.81    1.06
   0   2 -12   18.81    1.25
   0   2  12   21.44    1.39
   0  -2  12   18.64    1.26
   0   2  12   19.20    1.19
   0   2 -12   19.90    1.16
   0  -2 -12   18.06    1.10
   0  -2  12   17.72    1.39
  -1   2  12    9.59    0.99
  -1  -2 -12   10.31    0.80
   1  -2  12    8.70    0.96
  -1   2  12    8.24    0.92
   1   2 -12    8.25    0.86
   1   2 -12    9.25    0.94
  -1  -2 -12   10.29    0.80
   1  -2  12    9.08    1.09
  -1  -2  12    8.65    1.02
  -1  -2  12    9.67    1.09
   1   2  12   10.09    1.03
   1   2  12    9.49    0.91
  -1   2 -12    9.19    0.94
   1  -2 -12    8.63    0.79
  -1   2 -12    9.36    0.84
  -2   2  12   79.46    2.93
   2   2 -12   77.36    3.17
  -2  -2 -12   79.40    2.94
   2  -2  12   69.40    3.34
   2  -2  12   76.81    2.98
  -2   2  12   77.21    3.32
   2   2 -12   77.75    2.95
   2   2  12   72.24    3.26
  -2  -2  12   75.44    2.99
   2  -2 -12   80.61    2.88
  -2   2 -12   76.94    3.17
   2   2  12   77.48    2.89
  -2  -2  12   77.48    3.34
   3  -2  12    0.39    0.51
  -3   2  12    0.05    0.48
  -3   2  12    0.16    0.43
   3   2 -12    0.06    0.39
   3   2 -12   -0.02    0.41
   3  -2  12    0.09    0.54
  -3  -2  12   -0.18    0.51
   3   2  12    0.37    0.45
   3   2  12   -0.61    0.43
   3  -2 -12   -0.10    0.40
  -3  -2  12    0.03    0.47
  -3   2 -12   -0.23    0.44
   4  -2  12   56.39    2.35
  -4   2  12   49.37    2.51
  -4   2  12   49.82    2.22
   4  -2  12   51.22    2.68
   4   2 -12   49.75    2.31
   4   2 -12   49.71    2.36
  -4  -2  12   47.58    2.29
   4   2  12   50.81    2.20
  -4   2 -12   53.13    2.39
  -4  -2  12   48.52    2.46
   4   2  12   53.25    2.57
   4  -2 -12   50.23    2.24
  -5   2  12    9.17    1.14
   5  -2  12    5.64    0.80
   5   2 -12    4.95    0.81
   5  -2  12    6.63    1.09
  -5   2  12   10.05    1.18
   5   2 -12    7.67    1.03
  -5   2 -12    9.05    1.12
   5  -2 -12   10.41    1.07
  -5  -2  12    6.50    0.94
   5   2  12    8.98    1.22
   5   2  12    6.89    0.84
   6   2 -12   40.86    2.16
   6   2 -12   39.88    2.18
  -6   2  12   39.17    2.28
  -6   2  12   44.01    2.37
   6  -2  12   41.62    2.52
   6  -2 -12   39.60    2.12
  -6  -2  12   40.53    1.85
   6   2  12   43.74    2.42
  -6   2 -12   43.15    2.10
  -6  -2  12   41.08    2.18
   6   2  12   39.34    2.11
  -7   2  12    0.47    0.43
   7   2 -12    1.62    0.71
   7  -2  12   -0.04    0.93
  -7   2  12    0.26    0.70
   7  -2 -12    0.38    0.68
   7   2  12    0.27    0.82
  -7  -2  12    0.24    0.52
  -7   2 -12   -0.86    0.62
  -8   2  12   -0.91    0.77
   8   2 -12    0.04    0.75
   8  -2  12    1.08    1.00
   8  -2 -12   -0.59    0.68
  -8  -2  12   -0.38    0.86
  -8   2 -12    0.61    0.70
   8   2  12   -0.36    0.99
  -8  -2  12   -0.27    0.48
  -8  -2  12   -0.03    0.74
  -9   2  12    8.11    1.76
   9   2 -12    8.06    1.32
   9  -2  12    6.08    1.39
  -9   2  12    7.72    1.25
   9  -2 -12    7.05    1.15
 -10   2  12   17.40    2.14
  10  -2  12   14.59    2.03
  10   2 -12   13.26    1.65
  10  -2 -12   14.85    1.97
  10   2  12   14.47    1.89
   0   3 -12   -0.30    0.42
   0   3  12   -0.07    0.41
   0  -3  12    0.02    0.47
   0   3 -12    0.00    0.35
   0  -3  12    0.01    0.47
   0   3  12    0.11    0.42
   0  -3 -12   -0.06    0.31
  -1   3  12   95.52    3.86
   1   3 -12   91.68    3.42
   1  -3  12  101.93    4.01
  -1   3  12   92.42    3.35
  -1  -3 -12   97.62    3.27
   1  -3  12   96.38    3.51
   1   3 -12   91.86    3.75
  -1  -3  12   97.86    3.94
   1  -3 -12   91.06    3.27
  -1   3 -12   90.09    3.75
  -1   3 -12   87.84    3.37
   1   3  12   92.51    3.82
  -1  -3  12   94.63    3.53
   1   3  12   96.54    3.37
   2   3 -12   12.96    1.09
  -2   3  12   10.27    1.04
   2  -3  12   13.88    1.28
  -2   3  12   12.85    1.15
   2  -3  12   11.75    1.13
   2   3 -12   11.77    1.03
  -2   3 -12   13.95    1.20
  -2  -3  12   12.06    1.19
   2   3  12   13.87    1.02
   2   3  12   13.41    1.15
  -2  -3  12   13.99    1.19
   2  -3 -12   12.06    0.92
   3  -3  12   61.27    3.03
   3   3 -12   61.75    2.76
  -3   3  12   63.64    2.52
   3  -3  12   63.12    2.63
  -3   3  12   61.00    2.87
   3   3 -12   61.01    2.60
   3  -3 -12   64.55    2.50
  -3   3 -12   66.02    2.85
  -3  -3  12   64.75    2.90
   3   3  12   65.26    2.87
  -3  -3  12   60.95    2.64
   3   3  12   63.59    2.49
  -4   3  12   43.75    1.97
  -4   3  12   43.45    2.27
   4   3 -12   43.50    2.13
   4  -3  12   41.07    2.37
   4   3 -12   41.15    2.04
   4   3  12   40.55    1.92
  -4   3 -12   40.43    2.15
   4  -3 -12   42.61    1.96
   4   3  12   42.13    2.21
  -4  -3  12   40.59    2.16
  -5   3  12  105.47    3.91
  -5   3  12  109.64    4.46
   5   3 -12  102.32    4.23
   5  -3  12  113.55    4.70
   5   3 -12  111.36    4.11
  -5   3 -12  105.99    4.27
   5  -3 -12  104.72    3.95
  -5  -3  12  104.87    3.71
  -5  -3  12  109.15    4.29
   5   3  12  110.37    4.42
   5   3  12  105.71    3.88
   6   3 -12   22.13    1.64
  -6   3  12   26.19    1.79
   6   3 -12   24.26    1.74
   6  -3  12   28.96    2.11
  -6   3  12   25.39    1.69
  -6   3 -12   26.63    1.72
  -6  -3  12   26.55    1.68
   6  -3 -12   23.77    1.60
  -6  -3  12   24.99    1.34
   6   3  12   21.82    1.76
   6   3  12   20.27    1.63
   7   3 -12   69.70    3.18
   7  -3  12   67.28    3.89
  -7   3  12   70.57    3.35
  -7   3 -12   75.04    3.19
   7  -3 -12   70.64    3.09
  -7  -3  12   72.00    3.01
  -7  -3  12   67.05    2.58
   7   3  12   72.12    3.40
   8   3 -12    8.94    1.28
   8  -3  12    8.08    1.36
   8   3  12    8.45    1.35
   8  -3 -12    8.29    1.11
  -8  -3  12    7.79    1.13
  -8   3 -12    8.52    1.10
  -8  -3  12    8.56    0.95
   9   3 -12   39.10    2.52
  -9   3  12   36.86    2.52
   9  -3  12   38.76    2.94
   9  -3 -12   36.00    2.33
   9   3  12   35.00    3.03
  -9  -3  12   35.07    1.52
  10  -3  12    0.00    1.47
  10   3 -12   -0.56    1.06
 -10   3  12    0.13    1.16
  10  -3 -12    1.81    1.05
  10   3  12    1.81    1.47
   0  -4 -12    7.36    0.68
   0   4 -12    6.76    0.90
   0   4 -12    6.25    0.79
   0  -4  12    7.47    0.90
   0   4  12    8.07    0.93
   0  -4  12    4.88    0.84
   0   4  12    9.33    0.86
   1   4 -12    6.95    0.82
  -1  -4 -12    5.14    0.63
   1   4 -12    5.62    0.79
   1  -4  12    4.41    0.84
   1  -4  12    4.16    0.68
  -1   4  12    5.12    0.65
  -1   4  12    4.60    0.72
   1  -4 -12    4.59    0.62
   1   4  12    5.72    0.84
   1   4  12    5.85    0.69
  -1   4 -12    5.26    0.75
  -1  -4  12    5.20    0.80
  -1   4 -12    6.39    0.78
  -1  -4  12    6.27    0.83
   2   4 -12   27.14    1.64
  -2   4  12   27.67    1.66
  -2   4  12   27.52    1.45
   2   4 -12   26.15    1.51
   2  -4  12   30.33    1.88
   2  -4  12   28.75    1.62
  -2   4 -12   25.04    1.67
  -2  -4  12   24.73    1.61
  -2  -4  12   27.48    1.69
   2  -4 -12   26.46    1.34
   2   4  12   28.34    1.42
   2   4  12   29.15    1.65
   3  -4  12   15.08    1.33
   3   4 -12   20.98    1.36
  -3   4  12   19.93    1.43
  -3   4  12   17.73    1.23
   3  -4  12   19.41    1.62
   3   4 -12   21.69    1.42
   3  -4 -12   19.05    1.18
   3   4  12   18.38    1.24
   3   4  12   21.55    1.42
  -3  -4  12   21.09    1.47
  -3   4 -12   20.22    1.48
  -3  -4  12   19.29    1.45
  -4   4  12   31.94    1.67
   4   4 -12   31.33    1.78
   4  -4  12   32.76    2.10
   4   4 -12   31.18    1.83
  -4   4  12   33.71    1.96
  -4   4 -12   33.39    1.94
   4   4  12   30.25    1.63
   4  -4 -12   34.17    1.67
   4   4  12   32.54    1.87
  -4  -4  12   32.95    1.87
  -5   4  12    8.33    1.17
   5   4 -12    8.34    1.06
   5  -4  12   10.23    1.49
  -5   4  12    8.26    1.11
   5   4 -12    9.38    1.15
  -5  -4  12    7.93    0.97
   5   4  12    8.34    1.22
  -5  -4  12    8.02    0.97
   5   4  12    8.22    1.06
  -5   4 -12    6.74    1.01
   5  -4 -12    9.21    1.05
   6   4 -12   38.69    2.19
  -6   4  12   40.81    1.40
   6   4 -12   36.94    2.11
   6  -4  12   35.17    2.53
  -6   4  12   37.21    2.26
  -6  -4  12   35.11    1.74
   6   4  12   38.42    2.05
  -6  -4  12   40.28    1.99
  -6   4 -12   39.03    2.30
   6   4  12   36.93    2.20
   6  -4 -12   37.48    2.00
   7   4 -12    7.03    1.09
   7  -4  12    6.57    1.20
   7  -4 -12    4.52    0.86
  -7   4 -12    6.85    1.07
  -7  -4  12    6.15    0.75
   7   4  12    5.16    1.06
  -7  -4  12    5.26    0.72
  -7  -4  12    4.96    0.72
  -8   4  12   72.28    3.56
   8   4 -12   73.10    3.44
   8  -4  12   74.17    3.92
   8   4  12   71.29    3.62
  -8   4 -12   79.80    3.49
   8  -4 -12   72.81    3.26
  -8  -4  12   74.64    2.70
   9  -4  12    1.44    1.27
   9   4 -12    0.82    1.00
  -9   4  12    1.83    1.03
   9  -4 -12    2.52    0.93
  -9  -4  12    0.55    0.64
   9   4  12   -0.62    1.23
  10  -4  12   34.75    3.24
  10   4 -12   38.21    2.70
 -10   4  12   31.37    2.61
  10  -4 -12   30.90    2.47
  10   4  12   35.52    3.08
   0   5 -12   -0.18    0.50
   0  -5  12    0.22    0.57
   0  -5  12   -0.34    0.52
   0   5  12    0.12    0.38
   0   5 -12   -0.11    0.35
   0  -5 -12    0.38    0.31
   0   5  12   -0.62    0.40
   1  -5  12   26.49    1.87
   1   5 -12   34.04    1.66
   1   5 -12   30.24    1.80
   1  -5  12   30.71    1.73
  -1   5  12   30.62    1.50
  -1   5  12   33.91    1.80
  -1   5 -12   33.51    1.89
  -1  -5  12   33.03    1.81
  -1  -5  12   31.31    1.88
  -1   5 -12   31.45    1.60
   1   5  12   33.16    1.77
   1  -5 -12   33.00    1.43
   1   5  12   31.17    1.50
   2   5 -12   10.27    1.16
   2  -5  12    9.63    1.14
  -2   5  12   10.58    1.07
   2  -5  12    9.38    1.23
   2   5 -12   10.72    1.02
  -2   5  12    9.84    0.93
   2   5  12    9.62    1.02
   2  -5 -12   10.44    0.84
   2   5  12    9.73    0.91
  -2  -5  12   10.66    1.22
  -2  -5  12    9.38    1.14
  -2   5 -12   10.63    1.24
   3  -5  12    0.22    0.63
  -3   5  12   -0.22    0.44
  -3   5  12    0.23    0.45
   3  -5  12    0.45    0.61
   3   5 -12    0.45    0.56
  -3  -5  12    1.22    0.67
   3   5  12   -0.15    0.44
   3   5  12   -0.01    0.49
  -3   5 -12   -0.31    0.64
   3  -5 -12    0.28    0.40
  -4   5  12   11.72    1.25
   4  -5  12   12.76    1.50
  -4   5  12   13.43    1.11
   4   5 -12   12.34    1.27
   4   5 -12   12.32    1.22
  -4  -5  12   14.13    1.12
  -4  -5  12   14.47    1.25
  -4  -5  12   11.04    1.42
   4  -5 -12   13.42    1.08
  -4   5 -12   14.52    1.49
   5   5 -12    5.08    0.90
  -5   5  12    4.92    0.60
  -5   5  12    6.71    1.00
  -5   5  12    5.93    0.82
   5  -5  12    6.42    1.13
   5   5 -12    4.84    0.82
   5   5  12    5.15    0.86
   5  -5 -12    6.54    0.84
  -5   5 -12    5.81    1.06
   5   5  12    4.86    0.77
  -5  -5  12    6.33    0.77
  -6   5  12    3.56    0.46
   6   5 -12    2.55    0.81
   6  -5  12    2.05    0.99
  -6  -5  12    3.37    0.68
  -6   5 -12    3.40    1.03
  -6  -5  12    2.62    0.64
   6  -5 -12    3.61    0.75
   6   5  12    2.21    0.82
   6   5  12    1.08    0.74
  -7   5  12   -0.21    0.70
   7  -5  12   -0.18    0.93
   7   5 -12    0.62    0.75
  -7  -5  12    0.12    0.60
   7  -5 -12    0.02    0.68
  -7   5 -12   -0.90    1.05
   7   5  12    0.00    0.79
  -8   5  12    2.64    0.96
   8   5 -12    2.69    0.96
   8  -5  12    2.54    1.16
   8   5  12    1.98    1.07
  -8  -5  12    3.00    0.71
  -8   5 -12    1.52    1.29
   8  -5 -12    1.38    0.82
   9   5 -12   17.60    2.16
  -9   5  12   19.74    2.13
   9  -5  12   18.24    2.62
   9  -5 -12   22.89    1.99
  -9  -5  12   16.56    1.37
   9   5  12   18.07    2.35
  10  -5  12    2.02    1.63
  10   5 -12   -1.34    1.26
 -10   5  12    0.36    1.27
  10  -5 -12    1.73    1.14
  10   5  12    0.72    1.53
   0   6  12   82.23    3.39
   0   6 -12   77.90    3.49
   0  -6  12   80.91    3.53
   0  -6  12   79.46    3.22
   0  -6 -12   79.66    2.77
   0   6 -12   81.35    3.09
   1  -6  12   53.79    2.84
   1   6 -12   60.17    2.51
  -1   6  12   62.88    2.76
   1  -6  12   57.75    2.61
   1   6 -12   58.63    2.80
  -1   6 -12   58.51    2.46
   1   6  12   59.47    2.66
   1  -6 -12   63.00    2.22
  -1  -6  12   61.63    2.83
  -1  -6  12   59.19    2.63
  -2   6  12    2.77    0.67
   2   6 -12    2.48    0.69
   2  -6  12    4.10    0.80
   2   6 -12    1.89    0.57
   2  -6  12    3.68    0.84
  -2   6 -12    2.07    0.70
  -2  -6  12    2.94    0.76
   2   6  12    2.54    0.59
   2  -6 -12    2.75    0.48
  -2  -6  12    3.17    0.70
  -3   6  12   15.34    0.91
   3  -6  12   13.85    1.49
   3   6 -12   14.59    1.24
   3  -6  12   14.14    1.33
  -3   6  12   14.95    1.30
   3   6 -12   16.55    1.43
  -3  -6  12   14.97    1.46
  -3  -6  12   14.34    1.29
  -3  -6  12   16.01    1.22
  -3   6 -12   14.63    1.55
   3   6  12   13.95    1.12
   3  -6 -12   13.45    1.02
   3   6  12   15.11    1.22
  -4   6  12   56.57    2.00
  -4   6  12   54.98    2.72
  -4   6  12   54.24    2.25
   4  -6  12   52.22    2.92
   4   6 -12   52.12    2.63
   4   6 -12   51.59    2.50
  -4  -6  12   52.74    2.35
   4  -6 -12   54.70    2.28
  -4   6 -12   57.04    2.90
   4   6  12   56.85    2.28
  -4  -6  12   55.46    2.47
   4   6  12   55.15    2.57
   5   6 -12   -0.47    0.58
  -5   6  12    0.78    0.42
   5   6 -12    0.65    0.70
   5   6  12    0.74    0.59
   5   6  12    0.79    0.63
  -5  -6  12    0.76    0.60
  -5  -6  12   -0.77    0.55
   5  -6 -12    0.16    0.53
   6  -6  12   71.37    3.69
  -6   6  12   72.93    2.49
   6   6 -12   73.48    3.26
  -6   6  12   71.31    3.44
   6  -6 -12   73.01    3.00
  -6  -6  12   70.39    2.87
   6   6  12   77.67    3.31
   6   6  12   71.90    2.96
   7   6 -12   27.82    2.06
  -7   6  12   29.01    2.05
   7  -6  12   29.75    2.45
   7   6  12   25.73    1.96
   7  -6 -12   29.12    1.89
  -7  -6  12   25.54    1.60
   8  -6  12   57.01    3.44
  -8   6  12   47.11    2.93
   8   6 -12   55.68    2.97
   8   6  12   49.76    2.91
  -8  -6  12   51.11    2.28
   8  -6 -12   54.61    2.71
   9   6 -12   17.85    2.12
  -9   6  12   10.88    1.56
   9  -6  12   10.15    1.75
   9  -6 -12   12.04    1.50
   9   6  12   14.76    1.81
  -9  -6  12   11.36    1.43
 -10   6  12   33.49    2.88
  10  -6  12   31.18    3.49
  10   6 -12   38.70    2.88
  10  -6 -12   35.00    2.58
   0   7 -12   -0.59    0.66
   0  -7  12    0.27    0.61
   0  -7 -12   -0.18    0.30
   0  -7  12    0.50    0.71
   0   7  12    0.22    0.41
   0   7  12    0.66    0.45
   0   7 -12    0.36    0.44
  -1   7  12   70.49    2.57
  -1   7  12   73.58    3.12
   1   7 -12   73.01    2.87
  -1   7  12   71.54    2.57
   1  -7  12   72.94    3.30
   1  -7  12   69.26    2.95
   1   7 -12   71.92    3.26
   1   7  12   72.34    3.06
  -1  -7  12   70.66    2.99
   1  -7 -12   68.77    2.48
  -1  -7  12   67.35    3.13
  -1   7 -12   67.61    2.79
   1   7  12   70.01    2.59
   1   7  12   69.52    2.62
   2  -7  12   11.91    1.49
  -2   7  12   15.28    1.01
  -2   7  12   16.33    1.31
   2  -7  12   14.07    1.45
   2   7 -12   14.78    1.44
  -2   7  12   15.11    0.98
   2   7 -12   14.16    1.23
   2   7  12   15.31    1.21
   2  -7 -12   14.47    0.94
  -2  -7  12   13.81    1.26
  -2  -7  12   12.47    1.48
  -2  -7  12   16.97    1.39
   2   7  12   16.73    1.10
   2   7  12   13.34    1.11
   3   7 -12    1.70    0.72
  -3   7  12    3.07    0.51
   3  -7  12    3.19    0.83
   3  -7  12    1.91    0.80
   3   7 -12    3.43    0.70
  -3   7  12    1.99    0.64
  -3   7  12    2.98    0.58
  -3  -7  12    1.22    0.63
  -3  -7  12    3.30    0.70
   3   7  12    1.70    0.59
  -3  -7  12    2.68    0.87
   3  -7 -12    3.45    0.55
   3   7  12    2.87    0.60
   4  -7  12    1.96    0.84
   4   7 -12    0.99    0.76
  -4   7  12    0.11    0.55
  -4   7  12    1.43    0.46
   4   7 -12   -0.37    0.58
   4  -7 -12    0.16    0.45
  -4  -7  12    0.88    0.59
  -4  -7  12   -0.42    0.57
   4   7  12    0.67    0.57
   4   7  12    0.17    0.55
   5   7 -12    3.75    0.86
  -5   7  12    4.04    0.86
  -5   7  12    4.86    0.60
   5  -7  12    3.46    1.02
   5   7 -12    3.46    0.89
   5  -7 -12    4.17    0.74
   5   7  12    1.90    0.68
  -5  -7  12    3.78    0.58
   5   7  12    4.52    0.79
  -5  -7  12    3.12    0.74
   6   7 -12    7.11    1.07
  -6   7  12    7.74    1.18
   6  -7  12    7.97    1.30
   6   7  12   11.13    1.32
   6   7  12    7.13    1.04
   6  -7 -12    7.54    0.95
  -6  -7  12   10.08    1.19
   7   7 -12    0.61    0.80
  -7   7  12    0.64    0.82
   7  -7  12    2.49    1.18
   7   7  12    1.26    0.85
  -7  -7  12    1.48    0.78
   7  -7 -12    1.77    0.77
  -8   7  12    1.37    0.93
   8  -7  12    0.23    1.24
   8   7 -12    1.36    1.01
   8   7  12    0.02    1.05
  -8  -7  12    1.07    0.83
   8  -7 -12    0.71    0.88
  -9   7  12   10.73    1.63
   9  -7  12   13.96    1.98
   9   7 -12   13.82    1.72
   9   7  12   13.45    1.78
   9  -7 -12   14.30    1.91
  -9  -7  12   11.28    1.55
   0   8  12  104.18    3.72
   0   8 -12  108.13    4.59
   0   8 -12  105.95    3.95
   0  -8  12  106.75    4.12
   0   8  12  112.37    4.33
   0  -8  12  110.31    4.46
   0   8  12  109.80    3.60
   1   8 -12   23.21    1.48
   1   8 -12   22.03    1.89
  -1   8  12   26.15    1.61
   1  -8  12   25.55    1.82
   1  -8  12   24.61    1.79
  -1   8  12   24.58    1.35
   1   8  12   25.84    1.24
  -1  -8  12   26.65    1.80
   1   8  12   23.07    1.39
   1   8  12   23.56    1.52
  -1  -8  12   24.77    1.69
  -1  -8  12   22.63    1.58
  -1   8 -12   27.73    1.53
   1  -8 -12   24.58    1.13
   2  -8  12  121.69    5.07
  -2   8  12  123.00    4.13
   2   8 -12  121.23    5.01
   2  -8  12  112.94    4.53
  -2   8  12  125.22    4.91
   2   8 -12  125.18    4.48
  -2   8  12  126.52    4.08
  -2  -8  12  123.98    4.49
  -2  -8  12  120.36    4.56
   2  -8 -12  131.28    4.06
  -2  -8  12  124.37    4.77
   3   8 -12    2.07    0.78
  -3   8  12    1.35    0.52
  -3   8  12    0.55    0.48
   3  -8  12    0.36    0.77
   3   8 -12    0.13    0.58
  -3   8  12    0.95    0.58
  -3  -8  12    1.21    0.61
   3   8  12    0.99    0.53
  -3  -8  12    0.03    0.64
   3   8  12    0.96    0.51
  -4   8  12   35.58    2.17
   4   8 -12   34.10    2.25
   4   8 -12   36.68    2.08
  -4   8  12   37.24    1.64
  -4  -8  12   38.84    1.98
  -4  -8  12   37.27    1.76
   4  -8 -12   36.83    1.73
   4   8  12   37.08    1.74
   4   8  12   37.43    1.98
  -5   8  12    0.64    0.59
   5   8 -12   -0.22    0.91
  -5   8  12    0.89    0.68
   5  -8  12    0.76    0.89
   5   8  12    1.05    0.66
   5   8  12    0.00    0.67
  -5  -8  12    1.55    0.68
   5  -8 -12    0.16    0.59
  -6   8  12   30.97    1.53
   6   8 -12   31.66    2.09
   6  -8  12   32.84    2.52
  -6   8  12   30.78    2.14
  -6  -8  12   29.18    1.82
   6   8  12   31.46    1.89
   6  -8 -12   30.54    1.83
   6   8  12   31.19    1.98
   7   8 -12    2.23    0.98
   7  -8  12    2.32    1.16
  -7   8  12    2.34    1.00
   7   8  12    1.49    0.88
   7   8  12    2.28    1.04
   7  -8 -12    3.53    0.89
  -7  -8  12    3.65    0.88
   8   8 -12   18.32    2.06
   8  -8  12   16.70    2.54
  -8   8  12   16.08    2.07
   8   8  12   17.80    2.04
   8  -8 -12   13.83    1.72
  -8  -8  12   16.17    1.67
   9   8 -12    1.48    1.27
  -9   8  12    3.29    1.28
   9  -8  12    3.36    1.60
  -9  -8  12    1.57    1.04
   9  -8 -12    3.51    1.12
   0  -9  12   -1.11    0.58
   0  -9  12    0.54    0.65
   0   9  12   -0.04    0.38
   0   9  12   -0.32    0.47
   0   9  12    0.30    0.60
   0  -9  12    0.25    0.85
   0   9 -12   -0.47    0.47
  -1   9  12   17.56    0.95
   1   9 -12   18.00    1.33
   1  -9  12   17.61    1.47
  -1   9  12   17.20    1.37
   1  -9  12   15.45    1.59
  -1   9  12   19.34    1.31
   1   9 -12   17.22    1.85
   1  -9 -12   18.64    0.92
  -1   9 -12   17.69    1.31
  -1  -9  12   19.68    1.52
  -1  -9  12   16.52    1.46
   1   9  12   17.47    1.32
   1   9  12   16.92    1.01
  -1  -9  12   16.65    1.70
   2   9 -12   10.15    1.56
   2   9 -12    8.68    1.13
  -2   9  12   10.46    1.11
   2  -9  12    9.83    1.48
  -2   9  12    7.96    1.18
   2   9  12   10.38    0.86
   2  -9 -12   10.22    0.78
  -2  -9  12    9.28    1.19
   2   9  12    8.63    1.03
  -2  -9  12    9.90    1.24
   3   9 -12   32.64    1.91
   3   9 -12   27.02    2.16
  -3   9  12   29.92    2.11
  -3   9  12   31.97    1.63
   3  -9 -12   34.57    1.45
   3   9  12   31.10    1.50
  -3  -9  12   29.39    1.85
   3   9  12   28.99    1.73
  -3  -9  12   32.08    1.69
  -4   9  12   13.00    1.38
  -4   9  12   14.57    1.19
   4  -9  12   12.56    1.79
   4   9 -12   12.54    1.43
   4   9  12   15.05    1.28
   4  -9 -12   13.24    1.08
  -4  -9  12   13.08    1.40
   4   9  12   12.67    1.16
   5   9 -12   84.53    3.51
  -5   9  12   81.75    3.76
  -5   9  12   77.54    2.95
   5  -9  12   79.63    3.98
   5   9  12   83.81    3.47
   5   9  12   81.95    3.07
   5  -9 -12   79.67    3.09
  -5  -9  12   81.16    3.34
  -6   9  12    0.66    0.76
   6  -9  12    1.47    1.13
   6   9 -12   -0.61    0.82
   6   9  12    0.07    0.80
   6   9  12    0.43    0.73
   6  -9 -12    0.84    0.68
  -7   9  12    0.27    0.88
   7  -9  12    2.33    1.31
   7   9 -12    0.04    0.95
   7  -9 -12    0.63    0.83
   7   9  12   -0.47    0.94
  -7  -9  12   -0.17    0.87
   8  -9  12    6.92    1.65
   8   9 -12    4.89    1.32
  -8   9  12    4.29    1.24
   8  -9 -12    5.95    1.13
   8   9  12    6.38    1.32
  -8  -9  12    7.03    1.14
  -9   9  12    7.73    1.54
   9   9 -12    9.13    1.55
   9  -9  12    9.19    1.90
   9  -9  12    8.95    1.48
  -9  -9  12   10.59    1.32
   9  -9 -12    9.58    1.42
   0  10  12   26.75    1.71
   0  10 -12   25.69    1.60
   0  10  12   25.93    1.11
   0 -10  12   27.21    1.87
   1  10 -12    5.62    0.82
   1 -10  12    7.93    1.12
  -1  10  12    7.28    1.09
  -1 -10  12    9.59    1.28
   1  10  12    7.07    0.72
   1  10  12    7.41    1.04
  -2  10  12   16.27    1.35
   2  10 -12   15.61    1.43
   2 -10  12   17.61    1.77
   2  10  12   19.09    1.02
  -2 -10  12   14.67    1.35
   2  10  12   16.99    1.35
   2 -10 -12   16.74    0.91
   3 -10  12   16.52    1.82
   3  10 -12   17.70    1.51
  -3  10  12   12.44    1.31
   3 -10  12   16.49    1.54
  -3  10  12   15.49    1.44
  -3 -10  12   13.79    1.14
   3  10  12   14.57    1.06
  -3 -10  12   17.07    1.60
   3 -10 -12   15.35    0.98
   3  10  12   14.53    1.30
   4 -10  12   21.67    1.73
  -4  10  12   20.08    1.52
   4 -10  12   26.70    2.19
  -4  10  12   23.06    1.76
   4  10  12   20.66    1.33
   4 -10 -12   24.20    1.32
  -4 -10  12   23.77    1.76
   4  10  12   22.10    1.59
  -5  10  12    1.11    0.79
   5  10 -12    0.14    0.79
   5 -10  12   -0.24    0.78
  -5  10  12    1.47    0.77
   5 -10  12    0.59    1.04
  -5 -10  12    0.17    0.79
   5  10  12   -0.13    0.66
   5  10  12   -0.81    0.73
   5 -10 -12    0.31    0.62
   6 -10  12    6.08    1.06
   6  10 -12    6.29    1.13
  -6  10  12    5.05    1.04
   6 -10  12    3.56    1.21
   6 -10 -12    3.62    0.88
  -6 -10  12    4.89    0.99
   6  10  12    4.94    0.97
   7 -10  12    9.04    1.60
   7  10 -12    8.20    1.36
   7 -10  12    8.76    1.25
  -7  10  12    7.09    1.36
  -7 -10  12    8.63    1.17
   7  10  12    9.08    1.27
   7 -10 -12    8.45    1.15
   8 -10  12    3.36    1.56
  -8  10  12    5.94    1.35
   8  10 -12    3.64    1.31
   8 -10  12    2.24    1.13
  -8 -10  12    2.87    1.15
   8 -10 -12    1.32    1.09
   0  11  12   -0.30    0.56
   0 -11  12   -0.87    0.69
   0 -11  12    0.86    0.75
   0  11 -12    0.29    0.58
   1 -11  12   37.42    2.28
   1 -11  12   34.03    2.07
   1  11 -12   34.38    1.92
  -1 -11  12   33.93    2.00
   1  11  12   36.40    1.99
  -1 -11  12   34.65    2.09
  -2  11  12   22.84    1.68
   2  11 -12   21.89    1.62
   2 -11  12   21.90    1.75
  -2 -11  12   22.97    1.51
  -2 -11  12   23.97    1.77
   2  11  12   23.50    1.62
   3 -11  12    4.32    1.10
  -3  11  12    5.76    0.95
   3 -11  12    3.93    0.93
  -3 -11  12    5.06    1.01
   3  11  12    6.00    0.87
   3 -11 -12    6.86    0.77
   3  11  12    5.15    0.59
  -4  11  12   17.79    1.67
   4  11 -12   21.58    1.77
   4 -11  12   20.24    2.05
   4 -11  12   19.25    1.72
  -4  11  12   18.37    1.65
   4  11  12   19.69    1.56
   4 -11 -12   21.62    1.22
   4  11  12   19.26    1.38
  -4 -11  12   17.57    1.67
   5  11 -12    4.17    1.03
   5 -11  12    2.66    1.03
  -5  11  12    4.98    1.08
   5 -11  12    5.06    1.32
  -5 -11  12    5.81    1.08
   5  11  12    4.73    0.91
   5 -11 -12    4.43    0.78
   6 -11  12    0.98    0.91
  -6  11  12    0.54    0.92
   6  11 -12   -0.09    1.00
   6  11  12    0.39    0.85
  -6 -11  12   -0.54    0.92
   6 -11 -12   -1.24    0.76
  -7  11  12   -0.39    1.05
   7 -11  12    0.15    1.02
   7  11 -12    3.09    1.15
   7 -11  12    0.73    1.39
   7 -11 -12    3.56    1.05
  -7 -11  12    1.72    1.13
   7  11  12    0.57    1.11
   8  11 -12    4.49    1.40
  -8  11  12    4.17    1.41
   8 -11  12    4.87    1.82
   8 -11  12    5.26    1.38
  -8 -11  12    6.84    1.34
   8 -11 -12    3.28    1.23
   0  12  12   12.65    1.47
   0 -12  12   11.28    1.49
   0  12 -12   11.75    1.34
   0 -12  12   14.00    1.59
  -1  12  12   27.68    1.82
   1 -12  12   27.28    2.06
   1 -12  12   26.68    1.88
   1  12 -12   23.76    1.69
  -1 -12  12   25.06    1.88
   1  12  12   24.68    1.75
  -2  12  12   29.39    1.96
   2 -12  12   30.69    2.06
   2 -12  12   31.47    2.29
  -2 -12  12   28.90    2.04
   2  12  12   27.35    1.81
   3 -12  12    9.23    1.30
   3  12 -12    9.40    1.16
  -3  12  12    9.79    1.42
   3 -12  12    9.46    1.39
   3  12  12   11.27    1.34
  -3 -12  12    9.07    1.26
   4 -12  12   53.98    3.22
   4 -12  12   56.19    2.82
   4  12 -12   54.84    2.73
  -4  12  12   55.64    2.94
   4  12  12   49.68    2.63
  -4 -12  12   57.06    2.79
   4 -12 -12   56.77    2.05
  -5  12  12   -0.07    0.83
   5  12 -12   -0.02    0.94
   5 -12  12    0.50    1.15
   5 -12  12    0.20    0.95
  -5 -12  12    1.41    1.03
   5 -12 -12    1.52    0.70
   5  12  12    2.37    0.87
   6 -12  12   15.19    1.93
  -6  12  12   18.68    2.11
   6  12 -12   18.81    2.07
   6 -12  12   17.00    1.97
  -6 -12  12   18.09    1.96
   6  12  12   20.14    1.84
   7 -12  12   11.50    1.94
   7  12 -12   11.73    1.67
  -7  12  12    8.44    1.56
   7 -12  12   11.75    1.52
  -7 -12  12   12.29    1.54
   0 -13  12    0.97    0.93
   1 -13  12    5.39    1.09
   1  13  12    5.25    0.96
  -1 -13  12    6.52    1.16
   2 -13  12   22.56    2.11
   2 -13  12   18.17    1.82
   2  13 -12   20.59    1.69
  -2 -13  12   22.36    1.91
   3 -13  12    4.16    1.19
  -3  13  12    3.37    1.00
   3  13 -12    5.91    1.07
   3 -13  12    5.42    1.08
   3  13  12    6.20    0.98
  -3 -13  12    7.26    1.23
   4 -13  12    9.99    1.34
   4 -13  12   15.18    2.17
   4  13 -12   11.99    1.65
  -4  13  12   13.00    1.73
  -4 -13  12   13.79    1.83
   4  13  12   14.58    1.57
   5 -13  12   15.50    1.85
  -5  13  12   11.88    1.81
   5 -13  12   11.10    1.66
   5  13 -12   11.06    1.39
   5  13  12   12.05    1.37
  -5 -13  12   10.62    1.48
  -6  13  12    3.96    1.23
   6 -13  12   -0.70    1.10
   6  13 -12    1.52    1.20
   6 -13  12   -0.47    1.40
  -6 -13  12    2.05    1.26
   0 -14  12   29.86    2.24
   1  14 -12    2.16    0.84
   1 -14  12    1.18    1.10
  -1 -14  12    2.09    1.07
   2  14 -12   70.79    3.13
   2 -14  12   73.26    3.47
   2  14  12   69.27    3.28
  -2 -14  12   73.74    3.45
   3 -14  12    2.20    1.07
   3  14 -12   -0.26    0.84
  -3 -14  12   -0.66    1.02
   3  14  12    1.05    0.85
  -4  14  12   16.31    2.01
   4 -14  12   15.99    1.99
   4  14 -12   14.11    1.86
  -4 -14  12   15.83    1.69
   5 -14  12    0.49    1.15
  -5  14  12    1.74    1.14
   5  14 -12    0.01    1.11
  -5 -14  12    1.99    1.29
   0 -15  12    1.17    1.09
   1 -15  12    2.29    1.17
  -1 -15  12    2.57    1.15
   2  15 -12    5.22    1.07
   2 -15  12    7.58    1.37
  -2 -15  12    3.72    1.25
   2  15  12    4.61    1.07
   3 -15  12    3.63    1.23
   3  15 -12    2.15    1.07
  -3 -15  12    3.26    1.28
   3  15  12    4.91    1.09
   4  15 -12    8.41    1.38
   4 -15  12   12.25    1.70
  -4 -15  12    8.67    1.53
   4  15  12   10.99    1.37
   0 -16  12   26.14    2.44
   1 -16  12   14.01    1.74
  -1 -16  12   18.00    2.29
   2 -16  12    8.81    1.54
   2  16 -12    8.36    1.25
   2  16  12    8.44    1.34
  -2 -16  12    6.56    1.61
   0   0 -13    0.09    0.40
   0   0  13    0.14    0.47
   0   0  13   -0.25    0.50
   0   0 -13   -0.68    0.34
   1   0  13   -0.12    0.44
   1   0  13    0.42    0.51
  -1   0 -13   -0.28    0.38
   1   0 -13    0.01    0.38
  -1   0  13    0.18    0.51
  -1   0 -13    0.42    0.37
   1   0 -13    0.15    0.40
  -1   0  13   -0.24    0.45
   2   0 -13    0.11    0.41
  -2   0  13    0.39    0.51
   2   0  13    0.09    0.49
   2   0 -13   -0.16    0.41
   2   0  13   -0.15    0.50
  -2   0  13   -0.19    0.55
  -2   0 -13   -0.34    0.42
  -3   0 -13   -0.22    0.45
   3   0 -13    0.27    0.47
  -3   0  13   -0.71    0.59
   3   0 -13   -0.15    0.44
  -3   0  13   -0.07    0.53
   3   0  13    0.49    0.58
   3   0  13    0.54    0.58
   4   0  13   -0.18    0.60
   4   0  13    0.06    0.59
  -4   0  13    1.24    0.62
   4   0 -13   -0.07    0.46
  -4   0 -13   -0.08    0.44
   4   0 -13    0.03    0.47
   5   0  13   -0.43    0.69
  -5   0  13    0.88    0.68
   5   0  13   -0.59    0.64
  -5   0 -13   -0.17    0.48
  -5   0  13    1.01    0.76
   5   0 -13    1.04    0.62
  -6   0  13    0.03    0.64
   6   0 -13   -0.14    0.61
   6   0  13    0.27    0.81
  -7   0 -13   -0.03    0.42
  -7   0  13    1.33    0.79
  -7   0  13    0.85    0.50
   7   0  13    0.21    0.91
   7   0 -13    1.28    0.75
   8   0  13   -1.00    1.05
  -8   0  13    0.11    0.87
   8   0 -13    0.45    0.87
   9   0 -13    1.30    0.96
  -9   0  13    0.40    0.98
   9   0  13    0.85    1.27
  10   0  13    1.09    1.56
  10   0 -13   -2.47    1.08
   0  -1 -13   -0.47    0.38
   0   1 -13   -0.02    0.36
   0   1 -13   -0.41    0.41
   0   1  13    0.13    0.49
   0  -1  13    0.05    0.55
   0   1  13    0.00    0.44
   0  -1  13   -0.21    0.48
   0  -1 -13   -0.25    0.33
  -1  -1 -13    0.62    0.36
   1  -1  13    0.55    0.56
   1  -1  13    0.79    0.52
  -1  -1 -13    0.17    0.39
  -1   1  13    0.76    0.51
   1   1 -13    0.58    0.47
  -1   1  13    0.77    0.51
   1   1 -13   -0.26    0.35
  -1  -1  13   -0.14    0.48
   1  -1 -13    0.98    0.40
  -1   1 -13    0.22    0.37
   1   1  13    0.36    0.49
   1  -1 -13    0.82    0.42
   1   1  13    0.68    0.53
  -1  -1  13   -0.04    0.51
  -1   1 -13    0.23    0.44
   2  -1  13   12.96    1.20
  -2   1  13   14.09    1.28
   2   1 -13   14.46    1.13
  -2   1  13   15.94    1.27
   2   1 -13   13.13    1.14
  -2  -1 -13   14.61    1.03
   2  -1  13   15.37    1.39
   2  -1 -13   14.81    1.10
   2  -1 -13   13.99    1.06
   2   1  13   12.99    1.16
  -2   1 -13   14.64    1.15
   2   1  13   15.31    1.37
  -2  -1  13   17.32    1.40
  -2  -1  13   15.35    1.30
   3   1 -13  114.52    4.06
  -3  -1 -13  119.26    4.14
   3  -1  13  105.22    4.60
  -3   1  13  108.26    4.54
   3   1 -13  112.76    4.33
   3  -1  13  111.00    4.07
  -3   1  13  110.86    4.05
  -3  -1  13  111.51    4.56
  -3   1 -13  111.28    4.26
   3  -1 -13  100.19    4.24
   3   1  13  112.08    4.02
   3  -1 -13  112.30    4.00
  -3  -1  13  111.26    4.09
   3   1  13  113.69    4.59
  -4   1  13   14.18    1.35
   4   1 -13   14.39    1.19
  -4  -1 -13   14.11    1.00
  -4   1  13   14.17    1.34
   4   1 -13   12.02    1.19
   4  -1  13   13.64    1.34
   4  -1  13   17.30    1.55
  -4  -1  13   15.02    1.41
  -4  -1  13   13.83    1.39
   4   1  13   17.76    1.49
   4  -1 -13   15.20    1.20
   4   1  13   14.09    1.28
  -4   1 -13   13.85    1.19
  -5   1  13  111.19    4.19
   5  -1  13  111.16    4.82
  -5   1  13  117.40    4.71
   5   1 -13  108.96    4.43
   5   1 -13  115.33    4.27
  -5  -1  13  114.14    4.65
   5   1  13  120.09    4.81
  -5   1 -13  107.10    4.26
   5   1  13  109.42    4.18
   5  -1 -13  116.12    4.23
   6   1 -13   -0.01    0.65
  -6   1  13    0.28    0.70
   6  -1  13   -1.54    0.83
   6  -1 -13    0.70    0.64
  -6  -1  13    1.36    0.55
  -6   1 -13   -0.94    0.56
  -6  -1  13    0.55    0.69
   6   1  13   -0.51    0.75
  -7   1  13   73.44    3.42
  -7   1  13   70.02    2.44
   7   1 -13   68.81    3.16
  -7  -1  13   66.47    2.50
  -7   1 -13   73.66    2.81
   7  -1 -13   71.09    3.15
  -7  -1  13   64.59    3.19
   7   1  13   65.36    3.51
  -8   1  13    2.33    0.97
   8   1 -13    0.72    0.84
   8  -1  13    3.56    1.16
   8  -1 -13    1.73    0.90
  -8  -1  13    1.80    1.10
  -8  -1  13    2.73    0.58
  -8  -1  13    2.87    0.93
   9  -1  13   -1.41    1.23
  -9   1  13    1.57    1.11
   9  -1 -13    0.41    0.94
   9   1  13    1.57    1.21
  -9  -1  13    0.98    0.98
  10  -1  13    0.23    1.59
  10   1 -13    1.21    1.18
  10  -1 -13    0.15    1.08
  10   1  13   -0.85    1.54
   0   2 -13   -0.09    0.49
   0  -2  13    0.00    0.53
   0  -2 -13   -0.32    0.33
   0  -2  13    0.25    0.54
   0   2  13   -0.18    0.48
   0   2  13    0.09    0.47
   0  -2 -13    0.43    0.39
   0   2 -13   -0.49    0.36
  -1   2  13   72.09    2.82
   1  -2  13   70.24    3.30
  -1  -2 -13   69.56    2.67
   1   2 -13   73.79    2.83
   1  -2  13   71.59    2.91
  -1  -2 -13   76.25    2.88
   1   2 -13   76.27    3.11
  -1   2  13   74.32    3.26
   1   2  13   69.07    2.78
   1   2  13   70.00    3.20
  -1  -2  13   71.48    3.27
  -1  -2  13   71.99    2.93
  -1   2 -13   71.11    2.79
  -1   2 -13   72.63    3.06
   1  -2 -13   71.95    2.72
  -2   2  13   13.51    1.24
   2  -2  13   11.81    1.21
   2   2 -13   13.37    1.15
   2  -2  13   12.51    1.34
  -2  -2 -13   13.40    0.94
  -2   2  13   13.11    1.17
   2   2 -13   13.23    1.08
  -2  -2  13   13.62    1.31
   2   2  13   12.86    1.27
   2  -2 -13   12.11    1.00
  -2   2 -13   10.65    1.12
   2   2  13   12.00    1.10
  -2  -2  13   15.37    1.28
   3   2 -13  132.43    5.01
   3  -2  13  128.00    5.28
  -3   2  13  135.78    4.60
   3   2 -13  132.00    4.63
  -3   2  13  133.32    5.21
   3  -2  13  133.34    4.67
  -3  -2  13  131.40    4.68
   3  -2 -13  131.39    4.55
  -3   2 -13  114.71    4.88
   3   2  13  128.67    4.54
  -3  -2  13  129.36    5.16
   3   2  13  134.32    5.21
   4  -2  13    1.53    0.74
  -4   2  13   -0.55    0.52
   4  -2  13    1.59    0.76
  -4   2  13   -0.84    0.57
   4   2 -13    0.90    0.59
   4   2 -13    0.94    0.52
  -4  -2  13    1.21    0.72
  -4  -2  13    0.60    0.59
   4  -2 -13    0.33    0.48
   4   2  13   -0.05    0.57
  -4   2 -13    0.28    0.58
   4   2  13    1.26    0.65
   5   2 -13    5.20    0.85
  -5   2  13    4.86    0.88
   5  -2  13    4.46    0.95
  -5   2  13    4.13    0.83
   5  -2 -13    5.65    0.85
  -5   2 -13    4.21    0.79
   5   2  13    5.47    0.88
   5   2  13    4.74    0.94
   6  -2  13    0.53    0.89
  -6   2  13    1.86    0.72
  -6   2 -13    1.66    0.72
  -6  -2  13    0.50    0.58
   6   2  13    2.06    0.81
  -6  -2  13    0.12    0.73
   6  -2 -13    2.23    0.70
   7   2 -13   19.18    1.70
  -7   2  13   18.91    1.09
  -7   2  13   18.68    1.81
   7  -2  13   20.93    2.16
  -7   2 -13   16.99    1.55
  -7  -2  13   22.17    1.68
  -7  -2  13   23.57    1.28
   7   2  13   17.47    1.99
   7  -2 -13   19.05    1.67
  -8   2  13    1.74    1.02
   8  -2  13   -0.16    1.06
   8   2 -13    0.07    0.82
  -8  -2  13   -0.47    1.03
  -8  -2  13   -0.44    0.81
  -8  -2  13    0.00    0.58
   8  -2 -13    0.35    0.83
   9  -2  13   27.53    2.80
   9   2 -13   28.45    2.33
   9   2  13   25.08    2.60
   9  -2 -13   25.88    2.16
  10   2 -13    1.02    1.20
  10  -2  13    2.46    1.63
  10   2  13    1.62    1.64
  10  -2 -13    3.25    1.20
   0   3  13   -0.11    0.47
   0  -3 -13    0.14    0.35
   0   3  13    0.71    0.46
   0  -3  13   -1.05    0.53
   0  -3  13   -0.18    0.53
   0   3 -13    0.49    0.38
   0   3 -13    0.04    0.48
   1  -3  13   52.01    2.53
   1   3 -13   43.35    2.03
  -1   3  13   44.49    2.33
  -1   3  13   45.58    2.04
  -1  -3 -13   46.32    1.90
   1  -3  13   46.37    2.18
   1   3 -13   43.22    2.20
   1   3  13   45.42    2.04
   1  -3 -13   44.27    1.92
   1   3  13   46.18    2.35
  -1  -3  13   45.31    2.41
  -1   3 -13   46.55    2.04
  -1   3 -13   47.80    2.30
  -1  -3  13   45.42    2.21
   2  -3  13    1.48    0.61
   2  -3  13    1.64    0.66
   2   3 -13    0.96    0.55
   2   3 -13    1.64    0.50
  -2   3  13    1.60    0.61
  -2   3  13    1.04    0.53
   2   3  13    1.30    0.53
   2   3  13    1.48    0.59
  -2  -3  13    1.37    0.65
  -2   3 -13    0.86    0.58
  -2  -3  13    1.96    0.66
   2  -3 -13    1.32    0.48
   3  -3  13   79.65    3.79
   3   3 -13   86.36    3.54
   3   3 -13   85.70    3.32
   3  -3  13   71.80    3.24
  -3   3  13   88.66    3.72
  -3   3  13   85.99    3.23
   3   3  13   86.57    3.19
  -3  -3  13   83.01    3.67
   3  -3 -13   89.40    3.21
   3   3  13   86.37    3.68
  -3   3 -13   84.91    3.57
  -4   3  13    2.82    0.74
   4   3 -13    4.14    0.79
   4  -3  13    2.63    0.82
  -4   3  13    4.34    0.75
   4   3 -13    2.77    0.67
  -4  -3  13    2.88    0.78
   4   3  13    3.67    0.74
   4  -3 -13    3.78    0.70
   4   3  13    3.70    0.79
  -4   3 -13    3.00    0.78
   5   3 -13   62.54    3.01
   5  -3  13   69.36    3.45
   5   3 -13   62.80    2.93
  -5   3  13   62.76    2.83
  -5   3  13   66.89    3.24
  -5  -3  13   65.25    2.65
  -5   3 -13   76.13    3.16
   5  -3 -13   67.99    2.86
  -5  -3  13   67.23    3.10
   5   3  13   77.34    3.31
   5   3  13   68.92    2.83
  -6   3  13    0.49    0.71
   6  -3 -13   -0.73    0.58
  -6  -3  13   -0.17    0.54
   6   3  13    2.93    0.89
  -6   3 -13    0.76    0.81
  -6  -3  13    1.33    0.72
   7   3 -13   43.19    2.45
  -7   3  13   44.11    1.54
   7  -3  13   42.24    2.81
  -7   3 -13   41.96    2.38
   7   3  13   45.16    2.69
   7  -3 -13   45.68    2.39
  -7  -3  13   42.90    1.93
  -7  -3  13   44.18    2.31
   8   3 -13   12.72    1.68
   8  -3  13   12.18    1.66
  -8   3  13    9.86    1.42
  -8  -3  13   10.37    1.12
   8  -3 -13    9.44    1.30
   8   3  13   10.86    1.57
  -8  -3  13   15.41    1.46
  -8   3 -13   11.48    1.73
   9  -3  13   42.55    3.22
  -9   3  13   42.25    2.76
   9   3 -13   39.20    2.70
   9  -3 -13   45.18    2.63
   9   3  13   39.07    3.07
 -10   3  13   13.99    1.72
  10   3 -13    6.77    1.54
  10  -3  13    9.86    1.88
  10   3  13   11.09    1.91
  10  -3 -13   11.78    1.55
   0   4  13   26.34    1.45
   0   4 -13   23.59    1.64
   0  -4  13   28.02    1.84
   0  -4  13   26.16    1.65
   0  -4 -13   26.93    1.30
   0   4 -13   25.56    1.46
   0   4  13   25.09    1.63
   1  -4  13   26.35    1.78
   1   4 -13   21.61    1.35
  -1  -4 -13   18.60    1.11
  -1   4  13   21.42    1.52
   1  -4  13   19.89    1.45
   1   4 -13   21.95    1.53
  -1   4  13   22.86    1.35
   1   4  13   20.03    1.48
  -1  -4  13   16.49    1.46
   1   4  13   22.46    1.33
  -1  -4  13   23.01    1.64
  -1   4 -13   22.52    1.34
  -1   4 -13   19.54    1.55
   1  -4 -13   23.00    1.20
  -2   4  13   23.55    1.44
   2  -4  13   26.36    1.86
  -2   4  13   26.69    1.68
   2   4 -13   25.15    1.62
   2   4 -13   22.43    1.44
   2  -4 -13   25.21    1.31
  -2  -4  13   24.43    1.73
   2   4  13   23.47    1.39
   2   4  13   23.89    1.60
  -2   4 -13   24.28    1.72
  -3   4  13   21.82    1.40
  -3   4  13   19.25    1.53
   3  -4  13   19.98    1.72
   3   4 -13   20.85    1.44
   3   4 -13   19.61    1.53
  -3   4 -13   17.63    1.54
   3   4  13   22.06    1.54
   3  -4 -13   20.31    1.26
  -3  -4  13   21.89    1.61
   3   4  13   20.23    1.36
  -4   4  13    0.70    0.58
   4  -4  13   -0.09    0.69
   4   4 -13    0.06    0.53
  -4   4  13    0.20    0.59
   4   4 -13   -0.05    0.63
   4  -4 -13    0.28    0.50
  -4   4 -13   -0.31    0.70
   4   4  13    2.41    0.63
   4   4  13    0.30    0.60
  -4  -4  13    0.22    0.64
  -5   4  13    0.01    0.71
  -5   4  13   -0.45    0.60
   5  -4  13    0.96    0.86
   5   4 -13    0.51    0.68
   5   4 -13   -0.25    0.61
  -5  -4  13    0.37    0.58
  -5   4 -13    0.84    0.81
  -5  -4  13    1.22    0.68
   5   4  13    0.07    0.68
   5   4  13   -0.41    0.63
   5  -4 -13   -0.73    0.53
   6   4 -13    1.87    0.72
   6  -4  13    2.74    1.06
   6   4  13    2.97    0.89
   6   4  13    2.60    0.87
  -6   4 -13    5.28    1.03
  -6  -4  13    2.57    0.67
   6  -4 -13    1.30    0.69
  -6  -4  13    3.58    0.83
   7   4 -13    5.20    1.05
  -7   4  13    8.10    1.23
   7  -4  13    6.39    1.32
  -7  -4  13    8.43    1.24
  -7   4 -13    5.76    1.18
   7   4  13    6.01    1.17
   7  -4 -13    6.15    0.96
  -7  -4  13    5.46    0.79
  -8   4  13   -0.21    0.90
   8  -4  13   -0.05    1.13
   8   4 -13    0.87    0.91
  -8   4 -13   -1.45    1.13
  -8  -4  13    0.12    0.68
   8  -4 -13    0.35    0.86
   8   4  13    1.45    1.15
   9  -4  13   -0.47    1.41
  -9   4  13    0.81    1.13
   9   4 -13    0.59    1.07
   9   4  13   -0.50    1.36
   9  -4 -13    1.42    0.97
  10  -4  13    0.86    1.64
  10   4 -13    3.79    1.40
 -10   4  13    2.87    1.44
  10  -4 -13    4.53    1.31
  10   4  13    2.52    1.69
   0  -5  13    0.01    0.60
   0   5 -13    0.20    0.41
   0  -5  13   -0.30    0.64
   0  -5 -13   -0.14    0.36
   0   5  13    0.53    0.51
   0   5  13   -0.62    0.41
   1   5 -13  146.53    5.71
  -1   5  13  157.63    4.99
  -1   5  13  148.12    5.72
   1  -5  13  126.28    5.19
   1  -5  13  154.99    5.91
   1   5 -13  154.27    5.18
  -1   5 -13  154.15    5.15
  -1  -5  13  149.21    5.26
   1  -5 -13  143.10    4.85
   1   5  13  156.17    4.99
   1   5  13  149.16    5.68
  -1  -5  13  142.78    5.75
   2   5 -13    7.81    0.98
   2  -5  13    5.69    1.01
  -2   5  13    7.86    0.95
  -2   5  13    5.56    0.85
   2   5 -13    5.90    0.94
  -2  -5  13    6.88    0.94
   2  -5 -13    6.43    0.79
  -2   5 -13    4.91    0.92
   2   5  13    7.52    1.01
   2   5  13    5.21    0.69
  -3   5  13    9.71    1.17
  -3   5  13    9.83    1.04
   3   5 -13    9.55    1.10
   3  -5  13    7.51    1.16
   3   5 -13    8.18    1.07
  -3  -5  13    8.29    1.07
  -3   5 -13   10.03    1.39
   3  -5 -13    8.59    0.95
   3   5  13   12.54    1.22
   4   5 -13   16.12    1.52
   4   5 -13   15.31    1.39
   4  -5  13   17.56    1.75
  -4   5  13   16.10    1.47
   4  -5 -13   16.89    1.24
  -4  -5  13   16.19    1.28
  -4  -5  13   16.78    1.46
   4   5  13   19.84    1.37
  -4   5 -13   15.90    1.66
   4   5  13   14.39    1.40
  -5   5  13    5.15    0.65
   5   5 -13    3.97    0.83
   5   5 -13    5.16    0.95
  -5   5  13    5.11    0.85
  -5  -5  13    4.08    0.81
  -5  -5  13    3.76    0.72
   5  -5 -13    3.81    0.76
   5   5  13    4.02    0.89
  -5   5 -13    3.40    1.02
   5   5  13    4.53    0.84
   6  -5  13    6.10    1.25
  -6   5  13    6.21    1.06
   6   5 -13    5.96    0.99
   6   5  13    4.82    0.98
   6   5  13    6.34    0.97
  -6  -5  13    6.88    0.89
   6  -5 -13    6.49    0.91
  -6  -5  13    6.22    0.86
  -7   5  13    0.89    0.82
   7   5 -13    1.46    0.80
   7  -5  13    3.09    1.10
   7  -5 -13    1.73    0.97
   7   5  13    0.28    0.95
  -7  -5  13    0.65    0.70
  -8   5  13    1.14    0.99
   8  -5  13    3.29    1.28
   8   5 -13    0.09    0.90
  -8  -5  13    1.11    0.75
   8   5  13    1.56    1.16
   8  -5 -13   -0.25    0.83
  -9   5  13   68.79    3.76
   9  -5  13   70.02    4.22
   9   5 -13   73.18    3.70
   9  -5 -13   68.07    3.42
  10   5 -13    7.22    1.63
  10  -5  13    6.49    1.92
 -10   5  13    8.84    1.65
  10   5  13    8.32    1.84
  10  -5 -13    9.32    1.54
   0   6  13    0.21    0.50
   0  -6  13    0.39    0.66
   0   6  13    0.39    0.48
   0   6 -13    1.16    0.47
   0  -6 -13    0.87    0.38
   0  -6  13    0.08    0.69
   1   6 -13    2.46    0.74
   1  -6  13    1.40    0.75
   1  -6  13    1.97    0.72
  -1   6  13    2.25    0.63
  -1   6  13    2.73    0.60
   1   6 -13    2.74    0.61
  -1   6 -13    2.14    0.56
   1   6  13    1.97    0.57
   1   6  13    2.31    0.59
   1  -6 -13    2.31    0.46
  -1  -6  13    2.34    0.74
  -1  -6  13    2.33    0.79
   2  -6  13    5.67    1.02
   2   6 -13    6.30    0.90
  -2   6  13    6.20    0.75
  -2   6  13    6.90    1.04
   2  -6  13    5.15    0.90
   2   6 -13    5.54    0.96
  -2  -6  13    5.99    0.98
  -2  -6  13    5.75    0.88
   2   6  13    5.66    0.84
   2   6  13    6.19    0.76
   3   6 -13    5.63    0.87
  -3   6  13    8.00    0.99
   3   6 -13    6.67    1.00
  -3   6  13    9.57    1.15
   3  -6  13    8.08    1.22
  -3   6  13    7.38    0.77
   3   6  13    7.74    1.01
   3  -6 -13    7.84    0.89
  -3  -6  13    7.37    0.94
  -3  -6  13    6.26    0.97
   3   6  13    8.57    1.09
   4   6 -13    4.04    0.90
   4   6 -13    4.07    0.77
  -4   6  13    5.08    1.01
  -4   6  13    4.95    0.58
  -4   6  13    4.25    0.76
   4  -6  13    2.65    1.07
  -4  -6  13    5.28    0.82
   4  -6 -13    4.19    0.70
   4   6  13    3.24    0.71
  -4  -6  13    3.88    0.78
   4   6  13    4.33    0.82
   5  -6  13    1.31    0.99
  -5   6  13    1.81    0.74
  -5   6  13    1.21    0.48
  -5  -6  13    1.16    0.68
   5  -6 -13    1.84    0.64
  -5  -6  13    1.47    0.66
   5   6  13    1.69    0.77
   5   6  13    1.09    0.72
   6  -6  13   -1.47    0.94
   6   6 -13   -0.78    0.72
  -6   6  13    0.03    0.52
  -6   6  13    0.74    0.69
   6   6  13   -1.06    0.85
  -6  -6  13   -0.23    0.59
  -6  -6  13    0.12    0.66
   6  -6 -13   -0.05    0.66
   6   6  13    0.24    0.76
   7   6 -13    2.30    0.93
   7  -6  13    0.81    1.20
  -7   6  13    2.27    0.95
   7   6  13    1.87    0.98
  -7  -6  13    2.57    0.81
   8  -6  13   -0.37    1.28
   8   6 -13    0.47    1.00
  -8   6  13   -1.12    0.96
  -8  -6  13    0.88    0.81
   8   6  13    0.75    1.15
   8  -6 -13    1.87    0.89
   9  -6  13    2.83    1.50
  -9   6  13    3.15    1.26
   9   6 -13    2.37    1.21
  -9  -6  13    2.54    1.00
   9  -6 -13    0.47    1.02
   0   7  13   -0.07    0.50
   0   7 -13    0.17    0.48
   0  -7  13   -0.57    0.64
   0  -7 -13   -0.38    0.34
   0  -7  13    0.19    0.82
   0   7  13   -0.30    0.50
   0   7 -13   -0.51    0.74
   0   7  13   -0.67    0.46
   1  -7  13  200.30    7.39
  -1   7  13  192.09    6.18
   1   7 -13  186.16    7.26
   1   7 -13  189.63    6.49
  -1   7  13  204.28    6.16
  -1   7  13  193.03    7.20
   1   7  13  195.69    6.20
   1   7  13  208.79    7.17
  -1  -7  13  191.38    7.21
  -1  -7  13  167.63    6.52
   1  -7 -13  202.29    6.12
  -1   7 -13  186.95    6.46
  -2   7  13    1.63    0.64
   2   7 -13    1.53    0.81
  -2   7  13    2.39    0.53
   2  -7  13    1.62    0.80
   2   7 -13    2.51    0.66
  -2   7  13    0.60    0.52
   2   7  13    1.58    0.59
  -2  -7  13    3.03    0.75
  -2  -7  13    2.26    0.70
   2  -7 -13    2.44    0.48
   2   7  13    2.05    0.56
  -3   7  13   48.72    2.51
   3   7 -13   46.39    2.30
   3   7 -13   44.06    2.54
   3  -7  13   44.66    2.75
  -3   7  13   47.78    2.02
  -3   7  13   50.49    1.90
   3   7  13   44.70    2.01
   3   7  13   45.02    2.34
  -3  -7  13   43.90    2.23
  -3  -7  13   44.57    2.34
   3  -7 -13   45.60    1.96
  -4   7  13    1.97    0.52
   4   7 -13    1.52    0.73
   4  -7  13    1.38    0.92
  -4   7  13    2.13    0.74
  -4   7  13    1.95    0.68
  -4  -7  13    0.69    0.67
   4   7  13    2.19    0.66
   4  -7 -13    2.36    0.58
   4   7  13    1.49    0.70
  -4  -7  13    2.40    0.70
   5  -7  13   -0.28    0.88
  -5   7  13    0.81    0.57
  -5   7  13    1.32    0.74
   5   7 -13    0.24    0.68
  -5  -7  13    0.36    0.67
   5   7  13    0.93    0.72
   5   7  13    1.37    0.74
  -5  -7  13   -0.81    0.59
   5  -7 -13    0.85    0.60
   6  -7  13    4.02    1.19
   6   7 -13    5.64    1.00
  -6   7  13    5.45    0.73
  -6   7  13    3.93    0.99
   6   7  13    4.86    1.01
  -6  -7  13    6.08    0.95
   6   7  13    3.18    0.95
   6  -7 -13    5.24    0.89
   7   7 -13    0.52    0.88
   7  -7  13    2.53    1.20
  -7   7  13   -0.02    0.86
   7   7  13    0.28    0.97
  -7  -7  13    1.49    0.82
  -8   7  13   -0.28    1.04
   8   7 -13    0.17    1.01
   8  -7  13   -0.59    1.25
   8   7  13    0.33    1.27
   8  -7 -13    0.60    0.91
  -8  -7  13    0.46    0.90
   9  -7  13   32.82    3.24
   9   7 -13   33.33    2.82
  -9   7  13   28.72    2.76
  -9  -7  13   32.06    2.14
   9   7  13   35.40    3.21
   9  -7 -13   33.69    2.47
   0   8  13    9.13    1.12
   0   8  13    8.70    0.92
   0   8 -13    8.53    1.09
   0  -8  13    7.78    1.10
   0   8  13    7.95    1.00
  -1   8  13   66.26    2.49
  -1   8  13   67.10    3.11
  -1   8  13   65.06    2.57
   1  -8  13   66.16    3.28
   1   8 -13   67.83    2.87
  -1  -8  13   68.52    3.16
   1   8  13   66.76    3.03
  -1   8 -13   67.61    2.81
   1   8  13   67.80    2.50
  -1  -8  13   64.56    2.89
   1  -8 -13   68.48    2.41
   2   8 -13    5.81    0.91
  -2   8  13    4.56    0.86
   2  -8  13    4.30    1.04
  -2   8  13    6.47    0.78
  -2   8  13    7.53    0.89
   2   8  13    7.39    0.78
  -2  -8  13    4.81    0.94
  -2  -8  13    5.89    0.98
   2  -8 -13    6.01    0.66
   2   8  13    7.21    0.94
   3   8 -13   74.78    3.15
  -3   8  13   70.22    2.70
  -3   8  13   68.64    2.70
  -3   8  13   73.32    3.44
   3  -8 -13   74.96    2.71
  -3  -8  13   78.05    3.18
  -3  -8  13   71.53    3.06
   3   8  13   73.26    2.75
   3   8  13   71.58    3.20
   4  -8  13    2.25    1.01
  -4   8  13    1.76    0.71
  -4   8  13    1.82    0.63
   4   8  13    2.13    0.71
  -4  -8  13    1.75    0.74
   4   8  13    1.63    0.72
   4  -8 -13    2.68    0.60
  -4  -8  13    1.89    0.67
   5   8 -13    1.48    0.73
  -5   8  13    2.58    0.67
   5  -8  13    1.18    1.00
  -5   8  13    4.00    0.89
   5  -8 -13    1.33    0.64
  -5  -8  13    0.95    0.77
   5   8  13    2.40    0.77
   5   8  13    2.71    0.81
  -6   8  13    4.65    1.12
   6  -8  13    4.32    1.27
   6   8 -13    3.34    0.97
   6   8  13    2.75    0.99
   6  -8 -13    3.89    0.85
  -6  -8  13    4.02    0.93
   6   8  13    4.22    1.00
   7   8 -13   17.75    1.96
  -7   8  13   16.35    1.98
   7  -8  13   16.38    2.37
   7   8  13   16.55    1.93
  -8   8  13    4.41    1.19
   8  -8  13    4.51    1.50
   8   8 -13    3.66    1.21
   8   8  13    4.59    1.39
   8  -8 -13    2.70    1.07
  -9   8  13   17.19    2.58
   9  -8  13   16.01    2.24
   9   8 -13   22.22    2.55
   9  -8 -13   23.32    2.26
   0  -9  13    0.80    0.75
   0  -9  13    1.14    0.78
   0   9  13   -0.41    0.47
   0   9 -13    0.58    0.57
   0   9  13   -0.38    0.54
  -1   9  13   77.55    3.41
   1   9 -13   70.79    3.08
   1  -9  13   77.56    3.57
   1  -9 -13   73.62    2.58
   1   9  13   75.28    3.31
  -1  -9  13   79.24    3.42
  -1  -9  13   74.40    3.30
  -1   9 -13   73.33    3.08
   2  -9  13   16.03    1.78
   2   9 -13   16.24    1.46
  -2   9  13   19.94    1.37
  -2   9  13   15.25    1.09
   2   9  13   16.64    1.43
   2  -9 -13   17.23    1.03
   2   9  13   18.31    1.20
  -2  -9  13   18.12    1.53
   3   9 -13   16.31    1.53
   3  -9  13   12.09    1.84
  -3   9  13   16.62    1.34
  -3   9  13   15.77    1.54
   3   9  13   16.44    1.40
   3  -9 -13   16.31    1.09
   3   9  13   17.45    1.29
  -3  -9  13   16.07    1.40
  -4   9  13    0.35    0.68
   4   9 -13   -0.63    0.66
  -4   9  13   -0.01    0.69
   4  -9  13    0.79    0.97
  -4  -9  13    0.56    0.56
   4   9  13    0.27    0.64
   4   9  13    0.43    0.66
   4  -9 -13    0.05    0.57
  -5   9  13   17.48    1.76
   5   9 -13   15.85    1.71
   5  -9  13   15.70    2.16
  -5   9  13   17.73    1.42
   5   9  13   20.17    1.60
   5   9  13   20.08    1.67
   5  -9 -13   21.77    1.45
  -5  -9  13   22.02    1.71
   6   9 -13    1.39    0.93
   6  -9  13   -1.37    1.09
  -6   9  13   -0.52    0.84
   6  -9 -13   -0.41    0.77
  -6  -9  13    0.74    0.86
   6   9  13   -0.26    0.85
   7  -9  13   -0.02    1.31
   7   9 -13    0.56    1.04
  -7   9  13    0.03    0.98
  -7  -9  13    2.17    0.98
   7   9  13    2.52    1.12
   8   9 -13    6.21    1.36
   8  -9  13    0.28    1.46
  -8   9  13    3.26    1.33
   8  -9 -13    3.84    1.14
  -8  -9  13    4.84    1.12
   8   9  13    4.55    1.39
   0 -10  13    6.06    1.08
   0  10 -13    3.14    0.74
   0 -10  13    4.12    0.92
   0  10  13    2.47    0.76
   0  10  13    3.65    0.53
  -1  10  13    5.67    0.76
   1  10 -13    6.08    0.92
   1 -10  13    6.08    1.11
   1 -10  13    7.40    1.11
  -1 -10  13    7.12    1.02
   1  10  13    5.29    0.91
  -1 -10  13    8.24    1.14
   1  10  13    6.88    0.82
  -2  10  13    1.01    0.66
   2 -10  13    0.52    0.72
   2  10 -13    1.17    0.69
  -2 -10  13    0.81    0.77
  -2 -10  13    1.61    0.75
   2  10  13    1.36    0.53
   2  10  13    1.55    0.66
   2 -10 -13    1.59    0.44
   3 -10  13    8.51    1.30
  -3  10  13    8.92    1.19
   3  10 -13    8.07    1.07
  -3  10  13    9.29    1.06
   3 -10  13    7.80    1.14
   3  10  13    8.75    1.26
  -3 -10  13    8.62    1.19
   3 -10 -13    8.44    0.89
  -3 -10  13    6.15    1.02
  -4  10  13   -0.37    0.72
   4 -10  13   -0.17    0.80
  -4  10  13   -1.45    0.78
   4 -10  13   -1.27    0.96
   4  10 -13    0.30    0.76
   4  10  13    0.93    0.71
   4  10  13    0.61    0.72
  -4 -10  13    1.60    0.83
   4 -10 -13    0.28    0.59
   5 -10  13   -0.65    0.86
   5  10 -13    1.43    0.88
   5 -10  13    1.69    1.14
  -5  10  13    0.04    0.84
   5  10  13    0.02    0.79
  -5 -10  13    0.58    0.89
   5 -10 -13    0.93    0.71
   6 -10  13    1.55    0.99
   6 -10  13    3.05    1.33
  -6  10  13    1.19    0.95
   6  10 -13    1.46    1.02
   6  10  13    1.77    0.94
   6 -10 -13    1.42    0.84
  -6 -10  13    2.86    1.02
   7 -10  13    7.41    1.37
  -7  10  13    7.37    1.37
   7  10 -13    9.56    1.43
   7 -10  13    6.36    1.61
   7 -10 -13    6.70    1.26
  -7 -10  13    8.04    1.27
   7  10  13    6.66    1.37
   8 -10  13   16.30    2.11
   8  10 -13   22.75    2.52
   8 -10  13   16.25    2.27
  -8  10  13   13.26    1.90
  -8 -10  13   17.30    2.04
   8 -10 -13   20.88    2.13
   0 -11  13   -0.19    0.85
   0  11  13   -0.84    0.65
   0 -11  13   -0.51    0.77
  -1  11  13    1.20    0.68
   1 -11  13   -0.34    0.90
   1 -11  13    1.02    0.82
  -1 -11  13    0.59    0.75
   1  11  13    0.47    0.69
  -1 -11  13   -0.03    0.79
   2 -11  13    0.48    0.81
   2  11 -13    0.33    0.72
  -2  11  13    1.02    0.72
   2 -11  13    1.15    0.97
  -2 -11  13    0.95    0.76
   2  11  13   -0.04    0.68
  -2 -11  13   -0.06    0.78
   3 -11  13   77.59    3.44
  -3  11  13   76.80    3.63
   3 -11  13   80.42    3.92
   3  11 -13   78.96    3.37
  -3 -11  13   79.01    3.39
   3  11  13   72.50    3.39
   3 -11 -13   75.40    2.66
   4  11 -13    6.90    1.10
   4 -11  13    5.03    1.26
   4 -11  13    7.69    1.25
  -4  11  13    5.97    1.14
  -4 -11  13    4.73    1.10
   4  11  13    7.56    1.09
   4 -11 -13    5.44    0.73
   5  11 -13  134.38    5.12
   5 -11  13  126.02    5.07
  -5  11  13  126.39    5.56
   5 -11  13  131.54    5.88
   5  11  13  139.52    5.31
   5 -11 -13  138.66    4.57
  -5 -11  13  131.53    4.97
   6 -11  13    4.32    1.15
   6 -11  13    5.20    1.51
  -6  11  13    4.83    1.22
   6  11 -13    5.22    1.20
   6 -11 -13    6.79    1.02
   6  11  13    4.48    1.16
  -6 -11  13    7.30    1.25
  -7  11  13   98.58    4.77
   7  11 -13   98.26    4.45
   7 -11  13   99.03    4.26
   7 -11  13   95.89    5.15
  -7 -11  13  103.28    4.13
   7 -11 -13  102.02    4.00
   0 -12  13    0.97    0.92
   0  12  13    0.48    0.70
   0  12 -13   -0.83    0.63
   0 -12  13    0.87    0.86
   1 -12  13    0.90    0.87
   1  12 -13    1.18    0.72
  -1  12  13    0.53    0.69
  -1 -12  13    1.14    0.88
  -1 -12  13    0.49    0.85
   1  12  13    0.73    0.72
   2  12 -13    0.50    0.74
   2 -12  13   -0.47    0.86
   2 -12  13    0.37    0.99
  -2  12  13   -0.05    0.72
  -2 -12  13   -0.15    0.89
   3 -12  13   21.40    2.24
   3  12 -13   19.20    1.75
   3 -12  13   21.91    1.90
  -3  12  13   20.29    1.89
  -3 -12  13   23.40    1.98
   3  12  13   19.98    1.76
   4 -12  13    9.42    1.49
  -4  12  13    7.85    1.26
   4  12 -13    6.72    1.11
   4 -12  13    8.06    1.32
   4  12  13    8.30    1.21
  -4 -12  13    8.09    1.29
   5  12 -13   -0.02    1.04
   5 -12  13    2.77    1.13
   5 -12  13    3.47    1.38
  -5  12  13    0.16    0.95
   5  12  13    1.06    0.96
  -5 -12  13    0.17    1.10
   6 -12  13   -0.02    1.43
   6 -12  13    0.36    1.15
  -6  12  13    2.53    1.15
   6  12 -13   -0.89    1.13
  -6 -12  13    0.27    1.17
   6  12  13   -0.63    1.09
   0 -13  13   -0.06    0.89
   0  13  13    0.31    0.75
   1 -13  13    3.15    0.98
   1  13 -13    3.98    0.90
  -1  13  13    4.33    0.98
  -1 -13  13    3.41    1.10
   1  13  13    4.04    0.92
   2 -13  13    2.11    1.11
   2 -13  13    0.20    1.00
  -2  13  13    0.59    0.83
   2  13 -13    0.41    0.81
  -2 -13  13    0.65    1.01
   2  13  13    0.94    0.85
   3  13 -13    6.14    1.11
   3 -13  13    5.91    1.30
  -3  13  13    6.43    1.12
   3 -13  13    7.13    1.44
   3  13  13    8.43    1.21
  -3 -13  13    6.97    1.33
  -4  13  13   13.73    1.88
   4 -13  13   13.41    1.82
   4 -13  13   16.30    1.99
   4  13 -13   12.88    1.54
  -4 -13  13   12.92    1.57
   5  13 -13   56.18    3.04
  -5  13  13   50.54    3.22
   5 -13  13   52.81    3.63
   5 -13  13   53.78    3.05
  -5 -13  13   57.04    3.06
   6 -13  13   -2.56    1.56
  -6  13  13    0.49    1.25
   6  13 -13    1.85    1.29
   6 -13  13   -3.34    1.20
  -6 -13  13   -0.76    1.31
   0 -14  13    1.00    1.06
   0  14  13   -0.80    0.85
  -1  14  13   32.11    2.24
   1 -14  13   29.54    2.37
   1  14 -13   28.77    2.03
   1  14  13   28.90    2.11
  -1 -14  13   28.58    2.31
  -2  14  13    6.47    1.20
   2  14 -13    2.82    0.96
   2 -14  13    2.77    1.20
  -2 -14  13    4.33    1.29
   2  14  13    2.77    0.99
  -3  14  13   11.73    1.56
   3 -14  13   15.40    2.03
   3  14 -13   10.30    1.35
  -3 -14  13   12.70    1.62
   3  14  13   10.86    1.35
  -4  14  13   -0.59    1.06
   4  14 -13    0.20    1.11
   4 -14  13    4.07    1.29
  -4 -14  13    0.56    1.24
   4  14  13   -0.63    1.01
   0 -15  13    1.20    1.23
   0  15  13    0.57    1.00
  -1  15  13   17.25    2.02
   1 -15  13   19.24    2.26
  -1 -15  13   16.62    2.20
   1  15  13   17.18    1.96
   2 -15  13    3.02    1.26
   2  15 -13   -0.86    0.97
  -2  15  13    0.88    1.06
   2  15  13   -0.54    1.02
  -2 -15  13    2.93    1.30
   3 -15  13   44.35    3.12
  -3  15  13   51.91    3.22
   3  15 -13   56.66    2.91
   3  15  13   53.19    3.07
  -3 -15  13   59.38    3.26
   0   0 -14   81.53    3.37
   0   0 -14   85.70    3.15
   0   0  14   83.74    3.28
   0   0  14   82.50    3.72
  -1   0  14   39.37    1.99
   1   0  14   37.45    1.92
   1   0 -14   36.69    1.78
  -1   0 -14   38.07    1.77
   1   0 -14   36.04    1.86
   1   0  14   33.12    2.12
  -1   0  14   37.86    2.18
  -1   0 -14   36.60    1.87
   2   0 -14  169.76    5.77
   2   0 -14  167.31    6.29
   2   0  14  173.44    6.67
  -2   0  14  174.53    6.62
  -2   0  14  176.31    5.91
   2   0  14  171.42    5.85
  -2   0 -14  173.52    6.23
   3   0  14    2.96    0.75
  -3   0  14    4.06    0.86
  -3   0  14    4.52    0.88
   3   0  14    4.24    0.89
   3   0 -14    3.65    0.66
  -3   0 -14    3.47    0.64
  -4   0 -14   43.36    2.07
   4   0  14   51.82    2.69
  -4   0  14   42.84    2.31
  -4   0  14   44.70    2.48
   4   0 -14   44.98    2.18
   4   0  14   42.84    2.26
  -5   0 -14   38.32    1.85
  -5   0  14   39.48    2.32
   5   0  14   35.16    2.38
   5   0 -14   38.29    2.09
  -6   0 -14   35.18    1.66
   6   0  14   30.38    2.39
   6   0 -14   31.28    2.05
  -6   0  14   29.43    2.14
   7   0  14   85.15    4.19
   7   0 -14   84.78    3.65
  -7   0  14   84.47    3.92
  -7   0  14   82.61    2.97
  -8   0  14   18.52    2.03
   8   0  14   19.43    2.40
  -8   0  14   20.56    1.17
   8   0 -14   19.43    1.94
   9   0  14    1.60    1.46
   9   0 -14    4.07    1.11
  -9   0  14    1.92    1.21
  10   0  14    1.44    1.77
  10   0 -14    3.80    1.33
   0  -1  14    0.57    0.62
   0  -1  14    0.13    0.62
   0   1 -14    0.70    0.50
   0   1 -14    0.19    0.42
   0   1  14    0.22    0.55
   0  -1 -14    0.56    0.47
   0  -1 -14    0.96    0.42
   0   1  14   -0.73    0.57
  -1   1  14   25.36    1.63
   1   1 -14   25.58    1.49
  -1  -1 -14   26.84    1.51
   1  -1  14   27.28    1.69
   1   1 -14   28.26    1.64
  -1   1  14   27.31    1.84
   1  -1  14   27.51    1.90
  -1  -1 -14   32.49    1.50
   1   1  14   25.25    1.80
   1  -1 -14   25.91    1.45
   1   1  14   29.82    1.66
   1  -1 -14   26.80    1.55
  -1   1 -14   28.67    1.63
  -1  -1  14   26.40    1.85
  -1   1 -14   26.10    1.48
  -1  -1  14   27.91    1.72
  -2   1  14    0.35    0.65
  -2  -1 -14    0.57    0.45
   2  -1  14    0.72    0.64
   2   1 -14    0.52    0.46
  -2   1  14    0.22    0.57
   2  -1  14   -0.21    0.57
  -2  -1  14    1.25    0.66
  -2   1 -14    0.59    0.57
  -2  -1  14    0.31    0.60
   2   1  14    0.30    0.59
   2  -1 -14    0.14    0.46
   2   1  14    0.49    0.57
   2  -1 -14    0.56    0.43
  -3   1  14   21.10    1.55
   3  -1  14   18.12    1.53
  -3  -1 -14   19.95    1.25
   3  -1  14   17.60    1.67
  -3   1  14   19.24    1.64
   3   1 -14   20.13    1.40
  -3  -1  14   21.88    1.69
   3   1  14   23.18    1.54
   3   1  14   21.09    1.70
  -3   1 -14   21.07    1.44
  -3  -1  14   21.62    1.62
   3  -1 -14   18.33    1.33
   4  -1  14    1.06    0.77
   4  -1  14    0.57    0.75
   4   1 -14    1.02    0.64
   4   1 -14    3.34    0.71
  -4   1  14   -0.64    0.73
  -4   1  14    1.07    0.65
  -4  -1 -14    1.20    0.49
  -4   1 -14    1.88    0.61
   4   1  14   -1.04    0.68
   4   1  14    1.80    0.75
  -4  -1  14    2.30    0.77
   4  -1 -14    0.06    0.50
  -5   1  14   13.18    1.54
   5   1 -14   12.32    1.33
   5  -1  14   11.92    1.68
  -5  -1 -14   13.16    0.96
  -5  -1  14   12.56    1.51
   5   1  14   13.13    1.64
  -5   1 -14   11.57    1.22
   5  -1 -14   10.86    1.31
  -6   1  14    7.30    1.14
   6   1 -14   12.31    1.41
  -6  -1  14    9.87    1.49
   6   1  14    9.05    1.36
  -6   1 -14    8.01    1.15
   7   1 -14    3.29    0.89
  -7   1  14    3.80    1.04
  -7   1  14    1.86    0.61
   7  -1  14    1.96    1.09
   7  -1 -14    3.17    0.86
  -7  -1  14    3.13    0.65
  -7  -1  14    4.55    1.01
  -7   1 -14    1.63    0.68
   8  -1  14   -0.24    1.19
   8   1 -14    2.60    0.94
  -8   1  14    1.64    1.06
  -8  -1  14    1.25    0.63
  -8  -1  14    0.24    1.00
   8  -1 -14    0.25    0.88
   8   1  14    1.35    1.21
   9  -1  14    9.37    1.77
   9   1 -14   10.55    1.56
   9  -1 -14    9.49    1.44
  -9  -1  14    9.35    1.38
   9   1  14   11.67    1.81
  10  -1  14    3.07    1.71
  10   1 -14    0.74    1.29
  10  -1 -14   -0.85    1.22
  10   1  14    4.37    1.89
   0  -2  14   41.12    2.13
   0  -2  14   42.19    2.36
   0   2  14   40.90    2.28
   0  -2 -14   41.86    1.85
   0   2  14   40.97    2.02
   0   2 -14   41.95    2.12
   0   2 -14   40.59    1.93
  -1   2  14    4.22    0.74
   1  -2  14    5.33    0.94
   1   2 -14    5.54    0.77
  -1  -2 -14    4.84    0.66
   1   2 -14    3.11    0.65
  -1  -2 -14    6.35    0.79
   1  -2  14    5.14    0.83
  -1   2  14    3.65    0.78
   1  -2 -14    3.51    0.61
   1   2  14    6.06    0.85
  -1  -2  14    3.85    0.76
   1   2  14    3.36    0.76
  -1   2 -14    4.72    0.70
  -1  -2  14    4.53    0.90
  -1   2 -14    4.36    0.77
  -2   2  14   14.75    1.44
   2  -2  14   14.70    1.39
  -2  -2 -14   15.20    1.08
  -2   2  14   13.12    1.29
   2   2 -14   16.51    1.24
   2  -2  14   13.30    1.49
   2  -2 -14   16.27    1.13
  -2   2 -14   16.93    1.35
   2   2  14   14.72    1.39
   2   2  14   14.32    1.28
  -2  -2  14   14.03    1.44
  -2  -2  14   15.09    1.48
  -3   2  14   93.89    3.54
   3   2 -14   92.15    3.55
  -3   2  14   91.43    4.02
   3  -2  14   93.28    4.13
   3   2 -14   92.05    3.82
   3  -2  14   91.32    3.63
   3   2  14   91.57    3.52
  -3   2 -14   84.97    3.71
  -3  -2  14   93.75    4.00
   3   2  14   91.37    4.02
   3  -2 -14   90.66    3.45
  -3  -2  14   92.88    3.65
   4   2 -14   33.18    1.94
  -4   2  14   33.45    2.16
   4   2 -14   36.38    1.94
   4  -2  14   29.99    2.24
  -4   2  14   36.61    1.97
   4  -2 -14   34.27    1.82
  -4  -2  14   34.38    2.12
   4   2  14   33.54    1.90
  -4   2 -14   30.97    1.93
   4   2  14   37.53    2.24
  -5   2  14   -0.40    0.69
   5  -2  14    0.59    0.87
   5   2 -14    0.60    0.63
  -5  -2  14   -0.42    0.73
  -5   2 -14   -0.21    0.68
   5   2  14    0.32    0.75
   5  -2 -14    0.31    0.58
  -6   2  14   48.97    2.77
   6   2 -14   48.83    2.54
   6  -2  14   50.64    2.99
  -6   2 -14   51.87    2.47
  -6  -2  14   47.86    2.13
   6   2  14   48.40    2.82
  -6  -2  14   44.82    2.59
   7  -2  14   27.24    2.49
   7   2 -14   26.80    2.03
   7   2  14   28.68    2.45
  -7   2 -14   31.74    1.88
  -7  -2  14   29.52    1.58
   7  -2 -14   28.93    2.01
  -7  -2  14   29.93    2.10
   8   2 -14   19.78    2.05
   8  -2  14   28.08    2.64
  -8   2  14   22.98    2.27
   8  -2 -14   24.14    2.02
   8   2  14   23.31    2.46
  -8  -2  14   23.23    1.41
  -8  -2  14   19.51    1.96
  -9   2  14    1.85    1.20
   9  -2  14    0.24    1.48
   9   2 -14    2.65    1.10
   9  -2 -14    2.03    1.07
   9   2  14    0.74    1.42
  10  -2  14   -0.44    1.74
  10   2 -14   -0.19    1.25
 -10   2  14    0.87    1.60
  10  -2 -14    1.02    1.27
  10   2  14    2.21    1.82
   0   3 -14    0.11    0.55
   0  -3 -14    0.38    0.40
   0   3  14    0.17    0.53
   0   3  14    0.32    0.53
   0  -3  14    1.22    0.67
   0  -3  14   -0.34    0.59
   0   3 -14    0.44    0.46
  -1   3  14    8.32    1.07
  -1  -3 -14    8.47    0.83
  -1   3  14    7.69    1.13
   1  -3  14    8.54    1.29
   1  -3  14    6.37    0.88
   1   3 -14    7.62    0.96
   1   3  14    8.51    1.16
  -1   3 -14    8.54    1.15
  -1  -3  14    6.25    0.97
   1  -3 -14    6.58    0.84
  -1  -3  14    6.72    1.04
  -1   3 -14    7.63    0.94
   1   3  14    8.49    1.07
   2  -3  14   -0.19    0.65
   2  -3  14    1.22    0.66
   2   3 -14    0.94    0.54
  -2   3  14    0.33    0.56
  -2   3  14    0.42    0.59
   2  -3 -14    0.64    0.44
   2   3  14   -0.22    0.58
  -2  -3  14    0.54    0.64
   2   3  14   -0.47    0.52
  -2   3 -14    1.14    0.62
   3   3 -14    2.38    0.67
  -3   3  14    3.06    0.78
   3  -3  14    2.38    0.82
   3   3 -14    2.91    0.73
  -3   3  14    1.94    0.69
   3   3  14    2.70    0.71
   3   3  14    2.94    0.75
  -3   3 -14    1.60    0.72
   3  -3 -14    1.56    0.58
  -3  -3  14    1.26    0.73
   4  -3  14   16.18    1.77
  -4   3  14   15.05    1.45
   4   3 -14   14.06    1.36
   4   3 -14   17.82    1.52
  -4   3  14   16.91    1.58
   4   3  14   15.04    1.55
  -4  -3  14   15.87    1.55
   4  -3 -14   15.39    1.28
  -4   3 -14   17.39    1.60
   4   3  14   15.19    1.40
  -5   3  14   42.16    2.57
   5   3  14   42.52    2.30
   5   3  14   43.05    2.56
  -5   3 -14   49.16    2.46
   5  -3 -14   46.38    2.26
  -5  -3  14   43.93    2.46
   6  -3  14   25.92    2.29
   6   3 -14   26.28    1.88
  -6   3  14   25.65    2.04
   6   3  14   23.95    2.12
   6  -3 -14   24.66    1.81
  -6   3 -14   23.20    1.93
  -6  -3  14   26.19    1.93
  -6  -3  14   24.43    1.53
   7  -3  14    2.58    1.18
  -7   3  14    3.38    0.50
   7   3 -14    3.93    1.00
  -7   3  14    3.65    1.01
  -7  -3  14    4.83    0.95
  -7  -3  14    4.49    0.77
   7  -3 -14    3.84    0.90
  -7   3 -14    3.72    1.04
   7   3  14    4.44    1.20
  -8   3  14    1.39    1.06
   8   3 -14    1.94    1.03
   8  -3  14    1.96    1.30
  -8  -3  14    1.42    0.75
   8  -3 -14    3.61    0.99
   8   3  14    1.61    1.25
  -8  -3  14    1.28    0.94
   9  -3  14    1.85    1.49
  -9   3  14    1.04    1.29
   9   3 -14    0.82    1.11
   9  -3 -14    0.97    1.04
   9   3  14    0.92    1.51
 -10   3  14   13.15    1.81
  10  -3  14    9.42    2.06
  10   3 -14   10.83    1.72
  10  -3 -14   12.41    1.69
  10   3  14   11.25    2.15
   0   4  14   58.12    2.40
   0   4 -14   55.27    2.41
   0  -4  14   54.86    2.88
   0   4  14   56.01    2.76
   0  -4 -14   54.05    2.20
  -1   4  14    7.80    1.11
  -1  -4 -14    8.14    0.80
   1   4 -14    8.16    1.00
   1  -4  14    6.98    1.07
  -1   4  14   10.52    1.10
  -1   4 -14    8.67    1.00
   1  -4 -14    6.73    0.81
   1   4  14    6.99    0.86
  -1   4 -14    6.84    1.03
  -1  -4  14    5.85    0.98
   1   4  14    7.26    1.10
  -2   4  14   67.82    3.19
   2   4 -14   64.09    3.04
   2  -4  14   66.13    3.34
  -2   4  14   68.21    2.76
   2   4 -14   70.73    2.88
  -2   4 -14   68.52    3.14
  -2  -4  14   73.04    3.28
   2   4  14   63.62    2.70
   2  -4 -14   64.97    2.62
   2   4  14   70.76    3.18
   3   4 -14   14.96    1.32
   3   4 -14   16.46    1.46
  -3   4  14   16.26    1.33
  -3   4  14   15.87    1.47
   3  -4  14   14.09    1.67
   3   4  14   12.73    1.44
   3  -4 -14   14.98    1.15
  -3  -4  14   12.96    1.51
  -3   4 -14   14.96    1.55
   3   4  14   14.66    1.32
  -4   4  14   32.23    2.18
   4   4 -14   33.96    2.00
   4  -4  14   38.59    2.48
  -4   4  14   34.21    1.91
  -4  -4  14   33.64    2.15
   4  -4 -14   38.78    1.88
   4   4  14   38.08    2.21
  -4   4 -14   33.00    2.20
   5  -4  14    0.47    0.92
  -5  -4  14    0.68    0.63
   5   4  14    1.43    0.80
  -5   4 -14    2.92    0.93
  -5  -4  14    0.68    0.77
   5  -4 -14    1.43    0.65
   5   4  14    2.59    0.89
   6   4 -14   65.90    3.11
  -6   4  14   67.87    2.30
   6  -4  14   70.39    3.67
  -6   4  14   65.15    3.34
  -6  -4  14   66.07    2.68
  -6  -4  14   66.05    3.08
  -6   4 -14   60.64    3.28
   6  -4 -14   67.94    2.99
   6   4  14   64.91    3.37
   7  -4  14   54.37    3.36
   7   4 -14   51.79    2.79
  -7   4  14   51.20    3.00
  -7  -4  14   53.10    2.56
   7   4  14   47.86    3.03
  -7   4 -14   57.40    3.09
  -7  -4  14   51.04    2.31
   7  -4 -14   52.75    2.68
  -8   4  14   94.87    4.46
   8  -4  14  100.49    4.90
   8   4 -14   92.20    4.22
  -8  -4  14   91.64    3.43
   8  -4 -14   96.12    4.05
   9   4 -14    8.37    1.47
   9  -4  14    4.51    1.68
  -9   4  14    4.85    1.44
   9   4  14    8.03    1.71
   9  -4 -14    7.61    1.38
   0   5 -14    0.27    0.46
   0  -5 -14   -0.24    0.39
   0  -5  14    0.16    0.68
   0   5  14   -0.29    0.50
   1  -5  14    1.81    0.81
   1   5 -14    0.94    0.53
  -1   5  14    1.17    0.58
   1   5  14    0.83    0.59
   1  -5 -14    0.64    0.43
  -1   5 -14    2.10    0.56
  -1  -5  14    1.03    0.71
  -2   5  14   20.46    1.62
   2   5 -14   19.48    1.45
   2  -5  14   19.99    1.86
   2   5 -14   21.51    1.67
  -2  -5  14   20.02    1.74
   2   5  14   22.88    1.45
   2  -5 -14   22.32    1.27
   2   5  14   21.09    1.62
   3  -5  14   -0.62    0.75
   3   5 -14   -0.72    0.72
  -3   5  14   -0.06    0.57
  -3   5  14   -0.76    0.59
   3   5 -14    0.29    0.55
   3   5  14    0.04    0.65
  -3  -5  14    0.00    0.70
   3   5  14    0.26    0.61
   3  -5 -14    0.59    0.52
   4   5 -14    0.44    0.63
  -4   5  14   -0.44    0.67
   4   5  14    0.55    0.71
  -4  -5  14   -0.52    0.72
   4  -5 -14   -1.03    0.50
  -4  -5  14    0.96    0.64
   4   5  14   -0.56    0.68
   5  -5  14   18.44    2.04
   5   5 -14   16.90    1.58
  -5   5  14   16.53    1.59
  -5   5  14   18.23    1.72
  -5   5  14   18.40    1.04
  -5  -5  14   16.65    1.41
   5  -5 -14   16.83    1.44
   5   5  14   23.62    1.79
   5   5  14   20.83    1.60
  -5  -5  14   16.55    1.60
  -6   5  14    2.15    0.88
   6   5 -14   -0.01    0.73
   6  -5  14    1.37    1.08
  -6   5  14    0.99    0.52
   6   5  14    0.67    0.90
  -6  -5  14    0.16    0.76
   6  -5 -14   -0.15    0.72
  -6  -5  14    1.44    0.78
   7   5 -14    0.44    0.87
   7  -5  14   -0.11    1.18
  -7   5  14   -0.49    0.91
  -7  -5  14    0.36    0.75
   7   5  14   -0.73    1.06
   7  -5 -14    0.60    0.79
  -7  -5  14    0.67    0.74
  -8   5  14    4.35    1.25
   8   5 -14    5.85    1.24
   8  -5  14    6.99    1.65
   8  -5 -14    4.01    1.06
  -8  -5  14    6.16    0.98
   9   5 -14    5.91    1.43
   9  -5  14    7.21    1.73
  -9   5  14    7.69    1.52
   9   5  14    6.12    1.65
   9  -5 -14    2.80    1.21
   0   6 -14   81.23    3.25
   0  -6  14   80.96    3.75
   0   6  14   82.48    3.61
   0   6  14   81.92    3.05
   0  -6 -14   81.28    2.91
  -1   6  14   14.66    1.25
   1  -6  14   17.71    1.74
  -1   6  14   18.60    1.53
   1   6 -14   15.85    1.69
   1   6 -14   18.74    1.37
   1   6  14   16.19    1.42
   1  -6 -14   18.56    1.12
   1   6  14   18.32    1.30
  -1  -6  14   15.38    1.60
  -1   6 -14   15.14    1.28
   2   6 -14    9.71    1.33
  -2   6  14    8.73    1.07
   2   6 -14    7.23    0.95
  -2   6  14   10.33    1.26
   2  -6  14    7.92    1.25
   2   6  14    8.15    0.92
   2  -6 -14    8.37    0.89
  -2  -6  14    7.54    1.10
   2   6  14    7.86    1.13
  -3   6  14   90.21    3.32
   3   6 -14   88.69    3.57
   3  -6 -14   84.78    3.25
  -3  -6  14   99.15    3.90
   3   6  14   80.62    3.77
   3   6  14   89.34    3.33
  -3  -6  14   86.59    3.48
  -4   6  14    1.12    0.47
  -4   6  14    2.26    0.72
  -4   6  14   -0.48    0.64
   4  -6  14    0.59    0.89
   4   6  14    1.45    0.77
  -4  -6  14    0.95    0.68
  -4  -6  14    0.27    0.75
   4  -6 -14    1.61    0.57
   4   6  14    0.86    0.67
  -5   6  14    5.03    1.01
  -5   6  14    6.08    1.01
   5   6 -14    7.85    1.11
   5  -6  14    5.46    1.24
  -5   6  14    7.05    0.88
  -5  -6  14    7.06    0.98
   5  -6 -14    5.89    0.88
   5   6  14    6.61    1.04
  -5  -6  14    7.00    0.96
   5   6  14    5.19    1.09
  -6   6  14   27.04    2.15
  -6   6  14   26.45    1.39
   6   6 -14   25.99    2.01
   6  -6  14   26.44    2.49
  -6  -6  14   27.83    1.80
   6  -6 -14   30.49    1.88
  -6  -6  14   26.17    1.69
   6   6  14   26.37    2.14
  -7   6  14   52.14    3.11
   7   6 -14   54.85    2.97
   7  -6  14   51.80    3.50
  -7  -6  14   53.03    2.49
   7   6  14   57.84    3.21
   7  -6 -14   54.82    2.72
   8  -6  14    8.13    1.65
   8   6 -14    6.05    1.35
  -8   6  14    6.94    1.41
   8  -6 -14    4.69    1.17
  -8  -6  14    5.91    1.05
   9   6 -14   11.67    1.65
  -9   6  14    9.16    1.66
   9  -6  14   11.54    1.97
   9   6  14   10.18    1.92
   9  -6 -14    7.95    1.45
   0   7 -14   -0.20    0.54
   0  -7  14   -0.55    0.75
   0   7  14   -1.11    0.55
   0  -7 -14   -0.42    0.38
   0   7  14    0.50    0.56
  -1   7  14   16.99    1.48
  -1   7  14   15.18    1.20
   1   7 -14   16.93    1.38
   1  -7  14   15.21    1.70
  -1   7  14   15.34    1.15
   1  -7 -14   12.73    0.99
   1   7  14   14.31    1.38
  -1   7 -14   16.97    1.34
  -1  -7  14   15.72    1.60
   1   7  14   13.64    1.22
  -2   7  14    6.13    1.08
  -2   7  14    8.14    1.04
   2  -7  14    6.03    1.17
  -2   7  14    6.07    0.71
   2   7 -14    4.61    0.82
  -2  -7  14    6.66    1.07
   2   7  14    5.10    0.89
   2   7  14    4.89    0.79
  -3   7  14    9.47    0.98
  -3   7  14    9.89    1.33
   3  -7  14    9.49    1.39
  -3   7  14   10.16    1.12
   3   7 -14   10.31    1.32
   3   7  14    8.81    1.19
  -3  -7  14   10.66    1.32
  -3  -7  14    8.23    1.07
   3   7  14    7.19    1.04
   3  -7 -14    7.90    0.97
  -4   7  14    5.43    0.98
  -4   7  14    4.85    0.85
   4   7 -14    4.35    0.90
   4  -7  14    5.97    1.18
  -4   7  14    4.54    0.72
  -4  -7  14    5.40    0.96
   4  -7 -14    4.88    0.74
  -4  -7  14    4.64    0.90
   4   7  14    6.92    1.03
   4   7  14    5.46    0.92
  -5   7  14   18.05    1.22
  -5   7  14   17.24    1.74
   5   7 -14   15.15    1.62
   5  -7  14   17.58    2.08
   5   7  14   15.74    1.69
   5   7  14   16.37    1.62
  -5  -7  14   16.44    1.53
   5  -7 -14   18.48    1.46
  -5  -7  14   16.36    1.48
  -6   7  14    1.05    0.86
   6   7 -14    0.14    0.81
   6  -7  14   -0.73    1.16
   6   7  14    0.91    0.91
  -6  -7  14   -0.22    0.82
   6  -7 -14    0.22    0.74
  -7   7  14    0.27    1.00
   7   7 -14    0.83    0.98
   7  -7  14    1.60    1.35
  -7  -7  14    0.38    0.91
   7   7  14    1.60    1.14
   7  -7 -14    1.10    0.91
   8  -7  14    0.86    1.42
  -8   7  14    0.74    1.18
   8   7 -14    0.29    1.12
  -8  -7  14    2.88    1.03
   8  -7 -14   -0.14    1.03
   9  -7  14    1.01    1.75
   9   7 -14    0.97    1.36
  -9   7  14    3.56    1.53
   9   7  14    1.23    1.69
   9  -7 -14   -1.16    1.20
   0   8  14  178.89    5.78
   0   8  14  175.88    6.78
   0  -8  14  184.31    6.96
   0   8 -14  177.24    6.17
   1  -8  14    1.67    0.87
  -1   8  14    0.82    0.65
  -1   8  14    2.36    0.59
   1   8 -14    0.13    0.59
   1  -8 -14    1.89    0.46
  -1  -8  14    1.57    0.84
  -1  -8  14    1.22    0.78
   1   8  14    0.31    0.58
   1   8  14    0.54    0.61
  -1   8 -14    0.96    0.61
  -2   8  14   16.35    1.23
  -2   8  14   18.13    1.28
   2   8 -14   19.82    1.54
  -2   8  14   18.55    1.60
   2   8  14   16.92    1.31
   2  -8 -14   17.21    1.13
   2   8  14   17.35    1.52
  -2  -8  14   18.27    1.60
  -3   8  14    8.38    1.09
  -3   8  14    9.13    1.13
   3  -8  14    9.13    1.39
  -3   8  14    9.49    1.36
  -3  -8  14    9.20    1.13
   3   8  14   10.04    1.26
   3   8  14    9.90    1.32
  -3  -8  14   10.06    1.32
   3  -8 -14   10.41    1.03
   4   8 -14   41.32    2.36
   4  -8  14   46.67    2.91
  -4   8  14   46.78    1.97
  -4   8  14   40.64    2.53
   4   8  14   41.39    2.14
   4   8  14   40.60    2.39
  -4  -8  14   44.12    2.22
   4  -8 -14   42.10    2.00
   5   8 -14    0.27    0.79
  -5   8  14   -0.28    0.77
  -5   8  14    0.97    0.72
   5   8  14    0.39    0.82
  -5  -8  14    0.63    0.65
   5   8  14    2.30    0.90
   5  -8 -14    0.06    0.70
   6   8 -14   21.24    1.98
   6  -8  14   15.86    2.37
  -6   8  14   17.66    1.98
  -6  -8  14   18.87    1.75
   6   8  14   17.72    1.96
   6  -8 -14   19.31    1.67
   7  -8  14    5.12    1.59
  -7   8  14    6.02    1.27
   7   8 -14    6.53    1.26
   7  -8 -14    5.68    1.12
  -7  -8  14    5.70    1.13
   7   8  14    3.38    1.30
   8  -8  14   31.43    3.27
   8   8 -14   33.57    2.69
  -8   8  14   29.09    2.76
   8  -8 -14   28.72    2.35
  -8  -8  14   30.99    2.21
   0  -9  14   -0.40    0.72
   0   9  14   -0.13    0.63
   0  -9  14   -0.15    0.83
   0   9  14   -0.11    0.56
   1  -9  14    1.29    0.94
  -1   9  14    0.34    0.54
  -1   9  14    0.65    0.66
   1   9  14    1.11    0.61
  -1  -9  14   -0.06    0.83
   1  -9 -14    1.03    0.44
   1   9  14    0.51    0.67
  -1  -9  14   -0.69    0.74
  -2   9  14    4.92    0.95
  -2   9  14    3.99    0.69
   2  -9  14    5.81    1.20
   2   9 -14    5.29    1.01
   2   9  14    5.21    0.77
  -2  -9  14    5.07    1.01
   2   9  14    3.51    0.82
   2  -9 -14    4.88    0.63
  -2  -9  14    4.17    0.92
   3  -9  14   19.78    2.05
   3   9 -14   17.23    1.62
  -3   9  14   17.70    1.67
  -3   9  14   16.83    1.45
   3  -9 -14   16.68    1.16
  -3  -9  14   19.46    1.66
  -3  -9  14   17.43    1.56
   3   9  14   18.10    1.58
   3   9  14   15.84    1.37
   4  -9  14   25.67    2.34
  -4   9  14   26.74    1.60
  -4   9  14   25.51    2.03
   4   9 -14   23.61    1.80
   4  -9 -14   23.46    1.49
  -4  -9  14   25.68    1.85
   4   9  14   24.87    1.90
   4   9  14   22.62    1.63
  -4  -9  14   22.92    1.58
   5   9 -14   26.12    2.07
  -5   9  14   28.72    2.26
   5  -9  14   30.79    2.62
  -5  -9  14   28.77    2.03
   5   9  14   30.76    2.15
   5  -9 -14   30.78    1.77
   5   9  14   26.94    2.07
   6   9 -14    0.39    1.00
  -6   9  14   -0.54    0.97
   6  -9  14    1.22    1.28
  -6  -9  14    0.28    0.94
   6  -9 -14   -0.70    0.79
   6   9  14   -0.72    1.00
   7   9 -14   19.48    2.22
  -7   9  14   14.39    2.18
   7  -9  14   20.12    2.81
   7   9  14   14.43    2.20
  -7  -9  14   18.93    1.90
   7  -9 -14   17.76    1.90
  -8   9  14    4.46    1.43
   8  -9  14    2.87    1.72
   8   9 -14    5.11    1.52
   8  -9 -14    6.74    1.32
  -8  -9  14    3.57    1.22
   0  10  14   49.41    1.94
   0  10 -14   44.10    2.34
   0 -10  14   49.27    2.80
   0  10  14   49.24    2.62
   0 -10  14   49.08    2.55
   1 -10  14    3.41    0.94
   1  10 -14    4.64    0.89
  -1  10  14    3.27    0.86
   1  10  14    2.90    0.63
  -1 -10  14    4.01    0.94
  -1 -10  14    3.86    0.95
   2  10 -14   42.05    2.24
   2 -10  14   37.19    2.62
  -2  10  14   42.59    2.42
   2 -10  14   40.88    2.34
   2  10  14   35.94    2.27
  -2 -10  14   39.11    2.27
   2 -10 -14   40.40    1.64
  -2 -10  14   38.53    2.25
  -3  10  14    7.51    1.23
   3  10 -14   10.95    1.47
   3 -10  14    9.50    1.33
   3 -10  14    8.01    1.37
   3  10  14    7.81    0.90
   3  10  14    7.07    1.10
  -3 -10  14   10.11    1.22
   3 -10 -14    8.41    0.98
  -3 -10  14   11.09    1.37
  -4  10  14    7.92    1.15
   4  10 -14    6.32    1.07
  -4  10  14    8.50    1.29
   4 -10  14    6.23    1.12
   4 -10  14    6.67    1.41
   4  10  14    7.11    1.14
   4 -10 -14    9.22    1.10
  -4 -10  14    8.69    1.23
  -5  10  14    0.22    0.95
   5  10 -14   -0.88    0.90
   5 -10  14   -0.82    1.23
   5  10  14    1.13    0.95
  -5 -10  14   -0.14    0.93
   5 -10 -14    2.18    0.78
   6  10 -14   15.18    2.00
   6 -10  14   17.41    2.59
   6 -10  14   15.05    1.89
  -6  10  14   11.88    1.63
   6  10  14   15.00    2.05
  -6 -10  14   16.41    1.90
   6 -10 -14   16.45    1.67
  -7  10  14    9.04    1.53
   7  10 -14    6.74    1.47
   7 -10  14    9.43    1.77
   7 -10  14    5.93    1.36
   7  10  14    4.97    1.48
   7 -10 -14    6.65    1.28
  -7 -10  14    6.32    1.32
   0  11 -14    0.17    0.68
   0 -11  14    0.86    0.95
   0 -11  14   -1.01    0.80
   0  11  14    0.12    0.70
   1  11 -14    0.08    0.68
   1 -11  14   -0.36    0.99
  -1  11  14    0.21    0.73
   1 -11  14    0.32    0.85
   1  11  14    0.09    0.71
  -1 -11  14    0.46    0.81
  -1 -11  14    0.70    0.89
   2  11 -14    0.74    0.77
   2 -11  14    2.32    1.10
  -2  11  14    0.50    0.78
   2 -11  14    1.65    0.92
  -2 -11  14    1.02    0.85
  -2 -11  14    0.68    0.94
   3 -11  14    4.04    1.07
   3 -11  14    4.25    1.25
   3  11 -14    1.35    0.90
  -3  11  14    1.88    0.87
  -3 -11  14    3.21    0.78
  -3 -11  14    2.14    0.99
   3 -11 -14    3.64    0.62
  -4  11  14   14.08    1.80
   4 -11  14    9.78    1.61
   4  11 -14   10.29    1.34
   4 -11  14   12.99    1.74
   4 -11 -14   11.27    1.17
  -4 -11  14   10.63    1.39
   4  11  14   11.80    1.67
   5  11 -14    0.16    0.99
  -5  11  14   -0.99    0.94
   5 -11  14   -0.30    0.99
   5 -11  14    1.33    1.32
  -5 -11  14   -0.74    1.01
   5  11  14   -0.65    1.02
   6  11 -14    1.02    1.19
   6 -11  14    0.33    1.45
  -6  11  14    0.35    1.17
   6 -11  14   -2.83    1.09
   6 -11 -14   -1.69    0.91
   6  11  14    0.05    1.19
  -6 -11  14    1.51    1.23
   7 -11  14   -1.66    1.22
   7 -11  14    0.22    1.68
   7  11 -14    3.54    1.38
  -7  11  14    1.88    1.38
  -7 -11  14    1.05    1.31
   0 -12  14    5.10    1.14
   0  12 -14    3.87    0.92
   0  12  14    2.13    0.88
   0 -12  14    1.27    1.06
   1 -12  14   18.52    1.90
   1  12 -14   21.58    1.71
   1 -12  14   17.82    2.10
  -1  12  14   20.69    1.86
  -1 -12  14   18.42    1.88
   1  12  14   19.69    1.76
  -1 -12  14   14.81    1.85
   2 -12  14   46.51    2.75
  -2  12  14   49.41    2.85
   2 -12  14   55.01    3.13
   2  12 -14   50.79    2.61
   2  12  14   48.84    2.74
  -2 -12  14   51.66    2.82
   3  12 -14   88.11    3.69
  -3  12  14   90.10    4.12
   3 -12  14   85.52    4.27
   3 -12  14   87.35    3.85
   3  12  14   78.78    3.83
  -3 -12  14   83.64    3.77
   4 -12  14   31.21    2.81
  -4  12  14   30.61    2.39
   4  12 -14   27.94    2.21
   4 -12  14   29.36    2.34
   4  12  14   25.45    2.15
  -4 -12  14   27.75    2.26
   5  12 -14    2.74    1.13
  -5  12  14   -0.87    1.04
   5 -12  14    0.41    1.38
   5 -12  14   -1.34    1.08
  -5 -12  14    0.63    1.18
  -6  12  14   51.95    3.41
   6  12 -14   51.97    3.11
   6 -12  14   49.52    3.77
   6 -12  14   52.53    3.09
  -6 -12  14   47.87    2.98
   0 -13  14   -0.83    0.96
   0  13  14    0.70    0.90
   0 -13  14    1.10    1.09
   1  13 -14   -1.42    0.78
   1 -13  14   -0.64    1.02
   1 -13  14   -0.36    1.12
  -1  13  14    0.11    0.89
   1  13  14   -0.45    0.87
  -1 -13  14    1.38    1.05
   2 -13  14    2.57    1.13
   2 -13  14    3.76    1.32
   2  13 -14    2.06    0.96
  -2  13  14    2.24    1.05
   2  13  14    2.50    1.01
  -2 -13  14    3.57    1.14
   3 -13  14    0.69    1.38
   3  13 -14    4.01    1.06
   3 -13  14    2.86    1.21
  -3  13  14    1.59    1.03
   3  13  14    3.14    1.04
  -3 -13  14    4.84    1.21
   4 -13  14    4.85    1.26
   4 -13  14    0.85    1.44
   4  13 -14    0.81    1.06
  -4  13  14    0.76    1.08
   4  13  14    2.40    1.07
  -4 -13  14    0.26    1.26
   5  13 -14   -0.06    1.18
   5 -13  14   -1.09    1.26
  -5  13  14   -0.01    1.22
   5 -13  14   -0.87    1.53
   5  13  14   -0.16    1.16
  -5 -13  14   -0.33    1.32
   0 -14  14    6.92    1.43
   0  14  14    5.56    1.25
  -1  14  14    0.61    1.00
   1  14 -14    1.00    0.95
   1 -14  14    0.33    1.22
  -1 -14  14    0.76    1.17
   1  14  14    2.28    1.06
   2  14 -14    4.98    1.10
   2 -14  14    7.04    1.44
  -2  14  14    8.53    1.43
  -2 -14  14    7.48    1.45
   2  14  14    6.79    1.26
   3 -14  14    2.80    1.47
  -3  14  14   -0.23    1.13
   3 -14  14    3.38    1.32
   3  14 -14   -0.46    1.02
   3  14  14    0.86    1.10
  -3 -14  14   -1.34    1.24
  -4  14  14   15.80    2.38
   4  14 -14   23.77    2.28
   4 -14  14   19.49    2.39
   4 -14  14   18.96    2.89
  -4 -14  14   21.47    2.48
   4  14  14   19.23    2.29
   0  15  14    0.17    1.15
   0 -15  14   -2.66    1.28
   1 -15  14    7.64    1.55
  -1  15  14    8.42    1.47
  -1 -15  14    7.36    1.50
   1  15  14   10.47    1.48
   0   0  15   -0.29    0.63
   0   0 -15   -0.77    0.40
   0   0  15   -0.44    0.65
   0   0 -15    0.09    0.51
  -1   0 -15   -0.13    0.42
   1   0  15   -0.32    0.63
   1   0  15   -0.33    0.68
   1   0 -15    0.22    0.53
  -1   0  15    0.39    0.68
  -1   0  15    1.15    0.69
   1   0 -15    0.78    0.51
  -1   0 -15   -0.62    0.50
   2   0  15    2.02    0.74
   2   0  15    1.21    0.71
   2   0 -15    0.28    0.50
  -2   0  15   -0.13    0.76
  -2   0  15    0.77    0.68
  -2   0 -15    0.24    0.55
  -3   0  15    0.32    0.67
  -3   0 -15   -0.06    0.57
   3   0 -15    1.18    0.58
  -3   0  15    0.57    0.81
   3   0  15    0.54    0.73
   3   0  15   -0.55    0.76
   4   0  15    0.36    0.78
  -4   0 -15    0.55    0.57
  -4   0  15   -0.18    0.70
   4   0 -15    0.31    0.60
  -5   0 -15   -0.24    0.58
  -5   0  15   -1.12    0.75
   5   0  15   -0.25    0.90
   6   0 -15   -0.38    0.68
  -6   0 -15   -0.34    0.60
   6   0  15   -0.71    1.00
  -6   0  15    0.33    0.93
   7   0 -15    0.99    0.84
   7   0  15    0.24    1.08
  -7   0  15   -0.16    1.02
  -7   0  15    0.84    0.68
   8   0  15   -1.15    1.26
  -8   0  15    0.85    1.20
   8   0 -15    1.36    1.00
   9   0  15   -2.19    1.58
  -9   0  15   -0.70    1.33
   9   0 -15    1.34    1.18
   0   1  15   -1.15    0.64
   0  -1 -15    0.20    0.42
   0   1  15   -0.49    0.59
   0   1 -15    0.03    0.45
   0  -1 -15   -0.75    0.48
   0  -1  15   -0.81    0.68
   0  -1  15   -0.81    0.61
   0   1 -15   -0.25    0.54
   1   1 -15  108.69    4.02
  -1  -1 -15  111.13    4.25
   1  -1  15  111.64    4.20
  -1   1  15  112.35    4.13
   1  -1  15  110.25    4.74
  -1  -1 -15  108.45    3.93
  -1   1  15  112.90    4.72
   1   1 -15  110.08    4.37
  -1  -1  15  113.32    4.21
  -1   1 -15  108.63    3.99
   1   1  15  108.37    4.69
  -1  -1  15  113.77    4.74
   1  -1 -15  107.98    3.96
   1  -1 -15  114.20    4.30
   1   1  15  110.34    4.12
  -1   1 -15  102.23    4.31
   2  -1  15   15.60    1.69
  -2   1  15   18.85    1.68
  -2  -1 -15   20.40    1.35
   2   1 -15   17.52    1.33
  -2   1  15   18.22    1.60
   2  -1  15   17.94    1.60
  -2  -1  15   19.18    1.74
   2   1  15   18.56    1.50
   2  -1 -15   19.11    1.39
   2   1  15   19.16    1.70
  -2   1 -15   19.00    1.43
   2  -1 -15   18.37    1.31
  -2  -1  15   20.83    1.72
  -3   1  15  130.11    4.71
  -3  -1 -15  123.62    4.71
  -3   1  15  120.36    5.25
   3  -1  15  126.62    5.37
   3   1 -15  126.70    4.63
   3   1  15  130.04    5.35
  -3   1 -15  134.17    4.91
  -3  -1  15  130.55    5.30
   3  -1 -15  127.03    4.58
   3   1  15  122.75    4.63
   4  -1  15   -0.06    0.79
   4   1 -15   -0.23    0.59
  -4   1  15   -0.66    0.69
  -4  -1 -15   -0.37    0.50
  -4   1 -15    0.56    0.67
   4   1  15   -1.21    0.77
   4  -1 -15    0.36    0.63
  -4  -1  15    0.55    0.78
  -5  -1 -15   -0.66    0.50
  -5   1  15   -0.36    0.78
   5   1  15    0.69    0.90
  -5  -1  15    0.19    0.84
  -5   1 -15    0.11    0.67
   5  -1 -15   -0.44    0.64
   6   1 -15    3.61    0.84
   6  -1  15    0.31    1.02
  -6  -1  15    0.97    0.93
   6  -1 -15    2.58    0.85
  -6   1 -15    1.59    0.77
  -7   1  15   19.29    1.32
   7  -1  15   18.36    2.30
   7   1 -15   13.19    1.69
  -7   1  15   18.38    1.95
  -7  -1  15   15.33    1.31
  -7   1 -15   12.82    1.50
   7  -1 -15   20.75    1.83
   7   1  15   17.39    2.28
  -7  -1  15   15.66    1.90
   8  -1  15   16.38    2.04
  -8   1  15   15.45    2.17
   8   1 -15   20.61    2.13
  -8  -1  15   17.46    2.09
  -8  -1  15   18.99    1.38
   8   1  15   20.22    2.62
   8  -1 -15   16.41    1.97
   9   1 -15   26.76    2.49
   9  -1  15   25.08    3.08
  -9   1  15   25.07    2.64
   9  -1 -15   23.88    2.39
   9   1  15   21.19    3.05
   0  -2 -15   33.83    1.69
   0   2 -15   33.26    1.95
   0  -2  15   33.83    2.06
   0   2  15   37.78    2.23
   0   2  15   34.04    1.91
   0   2 -15   33.10    1.77
   0  -2  15   34.39    2.25
   1   2 -15   19.38    1.38
  -1   2  15   16.59    1.49
  -1  -2 -15   20.17    1.26
  -1   2  15   19.47    1.65
   1  -2  15   20.40    1.69
   1  -2  15   20.47    1.79
   1  -2 -15   18.22    1.25
  -1   2 -15   18.81    1.32
   1   2  15   19.03    1.51
  -1   2 -15   20.54    1.55
  -1  -2  15   20.40    1.75
   1   2  15   20.69    1.71
  -1  -2  15   19.56    1.71
   2  -2  15   15.09    1.55
   2   2 -15   10.72    1.16
  -2   2  15   13.19    1.39
   2  -2  15   10.43    1.49
  -2   2  15   12.41    1.44
   2   2  15   16.27    1.38
   2  -2 -15   11.64    1.09
  -2  -2  15    9.83    1.49
  -2  -2  15    9.75    1.22
   2   2  15   13.40    1.49
  -2   2 -15   11.78    1.33
   3  -2  15   87.18    3.93
  -3   2  15   79.01    3.26
  -3   2  15   77.58    3.69
   3   2 -15   79.45    3.25
  -3   2 -15   82.46    3.46
   3   2  15   69.76    3.62
   3  -2 -15   76.94    3.12
  -3  -2  15   79.07    3.70
   3   2  15   79.92    3.24
  -4   2  15    6.52    1.11
   4  -2  15    7.24    1.29
   4   2 -15    6.93    0.96
   4   2  15    7.97    1.26
  -4   2 -15    9.49    1.40
   4   2  15    5.98    1.03
  -4  -2  15    5.48    1.09
   4  -2 -15    6.92    0.96
   5   2 -15    3.65    0.85
   5  -2  15    6.31    1.23
  -5  -2  15    4.70    1.06
   5  -2 -15    4.75    0.88
   5   2  15    1.84    0.97
  -5   2 -15    3.53    0.90
   6  -2  15    6.99    1.35
  -6   2  15    4.89    1.23
   6   2 -15    7.96    1.14
   6  -2 -15    7.17    1.05
  -6   2 -15    6.98    1.06
  -6  -2  15    7.15    1.22
  -6  -2  15    6.69    0.92
   7  -2  15   92.23    4.53
   7   2 -15   89.21    3.89
  -7   2  15   85.59    4.21
   7  -2 -15   84.20    3.76
  -7  -2  15   88.77    4.01
  -7  -2  15   80.72    3.20
   7   2  15   87.48    4.37
  -7   2 -15   91.97    3.69
   8  -2  15    7.86    1.66
   8   2 -15    6.36    1.34
  -8   2  15    6.71    1.37
  -8  -2  15    6.71    1.32
   8   2  15    8.28    1.61
  -8  -2  15    7.59    0.92
   8  -2 -15    6.10    1.25
  -9   2  15   30.97    2.72
   9  -2  15   28.77    3.21
   9   2 -15   29.48    2.64
   9  -2 -15   29.58    2.50
   9   2  15   26.76    3.18
   0   3 -15    0.04    0.69
   0  -3 -15   -0.56    0.44
   0   3  15    0.78    0.63
   0   3 -15    0.14    0.46
   0  -3  15    0.46    0.70
   0   3  15    0.29    0.68
   1  -3  15    1.33    0.89
  -1  -3 -15    2.46    0.55
   1   3 -15    1.51    0.58
   1  -3  15    2.30    0.83
  -1   3  15    2.35    0.76
  -1   3  15    2.38    0.77
   1  -3 -15    2.10    0.55
  -1  -3  15    1.17    0.78
   1   3  15    3.14    0.79
   1   3  15    2.51    0.78
  -1   3 -15    1.40    0.70
  -1   3 -15    1.72    0.59
  -2   3  15    5.82    0.98
   2   3 -15    7.51    0.99
   2  -3  15    5.60    1.11
  -2   3  15    8.09    1.07
   2  -3 -15    7.99    0.97
  -2  -3  15    8.48    1.20
   2   3  15    8.42    1.02
   2   3  15    7.88    1.18
  -2   3 -15    8.57    1.08
   3  -3  15   23.14    2.08
  -3   3  15   24.12    1.90
   3   3 -15   22.80    1.60
  -3   3  15   24.49    1.67
   3   3  15   24.86    1.68
   3  -3 -15   21.95    1.46
   3   3  15   24.30    1.86
  -3  -3  15   21.29    1.89
  -3   3 -15   21.67    1.79
  -4   3  15   -1.46    0.77
   4  -3 -15    0.21    0.57
  -4   3 -15    0.12    0.82
   4   3  15    0.67    0.80
   4   3  15   -1.21    0.71
  -4  -3  15   -1.15    0.72
  -5   3  15   56.83    3.09
   5   3 -15   56.91    2.77
   5  -3  15   60.23    3.35
  -5  -3  15   57.13    3.02
   5   3  15   58.34    3.17
   5  -3 -15   55.59    2.66
  -5   3 -15   57.94    2.93
   6   3 -15    2.68    0.85
  -6   3  15    1.39    0.89
   6  -3  15    1.63    1.07
  -6  -3  15    0.83    0.90
   6   3  15    1.84    1.13
  -6  -3  15    0.99    0.72
  -6   3 -15    1.32    1.02
   6  -3 -15    0.37    0.77
   7   3 -15    7.86    1.21
  -7   3  15    8.59    1.41
   7  -3  15    5.92    1.44
  -7   3 -15    9.29    1.32
   7  -3 -15    8.86    1.20
  -7  -3  15   12.71    1.83
   7   3  15    8.84    1.51
   8  -3  15    0.56    1.45
   8   3 -15    1.41    1.09
  -8   3  15    1.49    1.25
  -8  -3  15    1.62    0.83
  -8  -3  15    0.73    1.05
   8   3  15   -0.12    1.29
   8  -3 -15   -0.37    0.95
   9  -3  15   34.35    3.38
  -9   3  15   36.47    3.07
   9   3 -15   31.71    2.78
   9  -3 -15   32.98    2.63
   9   3  15   31.87    3.30
   0  -4  15    0.78    0.76
   0   4  15    1.36    0.70
   0   4  15    1.16    0.68
   0   4 -15    1.06    0.53
   0  -4 -15    0.70    0.47
  -1   4  15   10.27    1.09
  -1   4  15   11.28    1.39
   1  -4  15   10.70    1.59
   1   4 -15   10.83    1.14
  -1   4 -15   14.78    1.20
   1   4  15    8.53    1.34
   1   4  15    9.57    1.08
  -1  -4  15   10.19    1.54
   1  -4 -15   10.84    1.01
  -2   4  15    2.81    0.79
   2  -4  15    1.75    0.89
   2   4 -15    2.48    0.68
  -2   4  15    2.68    0.78
  -2  -4  15    2.55    0.88
   2  -4 -15    3.27    0.64
   2   4  15    2.23    0.78
   3   4 -15   35.35    2.05
   3  -4 -15   32.11    1.81
  -3  -4  15   34.53    2.28
   3   4  15   40.80    2.36
   3   4  15   42.18    2.19
  -4   4  15    0.84    0.73
   4  -4  15    2.40    1.03
   4   4 -15    0.12    0.75
  -4  -4  15    0.58    0.80
   4  -4 -15   -0.14    0.57
   4   4  15    0.42    0.73
   4   4  15    1.68    0.86
  -5   4  15    0.02    0.74
   5  -4  15    0.12    0.96
   5   4 -15    0.70    0.69
   5   4  15    0.72    0.91
  -5  -4  15    0.76    0.88
  -5  -4  15    1.33    0.70
   5  -4 -15    0.06    0.68
   6  -4  15    1.01    1.10
   6   4 -15    0.81    0.80
  -6   4  15   -0.93    0.88
  -6  -4  15    0.19    0.74
  -6  -4  15    0.26    0.91
   6  -4 -15    0.10    0.75
   6   4  15    0.81    0.99
   7   4 -15   47.25    2.77
  -7   4  15   46.65    2.97
   7  -4  15   45.88    3.23
  -7  -4  15   46.88    2.28
   7  -4 -15   48.70    2.64
  -7  -4  15   46.12    2.57
   7   4  15   47.35    3.13
   8   4 -15    7.15    1.28
   8  -4  15    6.15    1.63
  -8   4  15    5.55    1.39
   8   4  15    5.53    1.55
   8  -4 -15    5.39    1.19
  -8  -4  15    5.46    1.02
  -9   4  15    1.98    1.46
   9   4 -15   -0.99    1.21
   9  -4  15    1.18    1.72
   9  -4 -15   -0.49    1.20
   9   4  15    0.24    1.68
   0   5 -15    0.38    0.55
   0   5  15   -0.14    0.62
   0  -5 -15   -0.85    0.43
   0   5  15    0.77    0.67
   0  -5  15    0.45    0.76
   1  -5  15    5.59    1.12
   1   5 -15    4.48    0.74
  -1   5  15    5.41    0.85
  -1   5  15    5.48    0.99
  -1   5 -15    5.54    0.87
   1  -5 -15    5.53    0.73
   1   5  15    5.96    1.01
   1   5  15    4.91    0.87
  -1  -5  15    8.38    1.15
   2  -5  15   11.68    1.55
  -2   5  15    9.85    1.42
  -2   5  15    8.05    1.02
   2   5 -15   11.12    1.23
   2  -5 -15   10.07    1.00
  -2  -5  15    9.37    1.27
   2   5  15   11.13    1.42
   2   5  15   11.90    1.38
   3  -5  15   29.49    2.38
  -3   5  15   31.24    1.82
  -3   5  15   27.57    2.06
  -3  -5  15   27.13    2.09
   3  -5 -15   30.72    1.64
   3   5  15   28.57    2.06
   3   5  15   28.71    1.78
   4  -5  15    0.32    0.94
  -4   5  15    0.76    0.79
  -4   5  15    0.95    0.79
   4   5 -15    0.40    0.69
  -4  -5  15    0.42    0.83
   4   5  15    1.61    0.86
  -4  -5  15   -0.59    0.66
   4   5  15   -0.40    0.78
   4  -5 -15   -0.08    0.59
   5  -5  15  127.37    5.68
  -5   5  15  131.79    5.51
   5   5 -15  131.31    4.97
  -5  -5  15  127.73    4.64
   5  -5 -15  131.71    4.74
  -5  -5  15  128.57    5.16
   5   5  15  127.06    5.42
  -6   5  15    7.77    0.78
   6  -5  15    6.38    1.38
  -6   5  15    6.68    1.17
   6   5 -15    6.97    1.21
   6  -5 -15    6.27    1.04
   6   5  15    5.40    1.25
  -6  -5  15    4.61    1.03
  -6  -5  15    7.43    0.98
   7  -5  15   23.21    2.73
   7   5 -15   20.93    2.02
  -7   5  15   23.22    2.25
   7  -5 -15   21.44    1.94
  -7  -5  15   20.64    1.75
  -7  -5  15   23.34    1.78
   8  -5  15    0.52    1.50
   8   5 -15    1.50    1.13
  -8   5  15   -1.00    1.16
  -8  -5  15    1.31    0.99
   8   5  15    0.55    1.39
   8  -5 -15    0.25    1.02
  -9   5  15    4.94    1.54
   9  -5  15    2.64    1.82
   9   5 -15    4.32    1.42
   9   5  15    5.49    1.90
   9  -5 -15    5.12    1.39
   0  -6 -15   -0.43    0.42
   0  -6  15    1.60    0.85
   0   6  15   -0.60    0.61
   0   6 -15   -0.57    0.56
   0   6  15   -1.14    0.63
  -1   6  15    8.40    0.94
   1   6 -15    6.18    0.89
  -1   6  15    8.54    1.20
   1  -6  15    7.02    1.23
   1   6  15    8.06    1.24
  -1  -6  15    6.99    1.16
  -1   6 -15    5.91    0.90
   1   6  15    6.93    0.93
   1  -6 -15    8.01    0.88
   2   6 -15    0.61    0.67
  -2   6  15   -0.48    0.65
  -2   6  15    0.02    0.71
   2  -6 -15    0.84    0.50
   2   6  15    0.17    0.71
   2   6  15    0.20    0.67
  -2  -6  15   -1.45    0.76
   3  -6  15   30.85    2.42
  -3   6  15   27.97    2.05
  -3   6  15   27.81    1.75
   3   6 -15   26.33    1.91
   3  -6 -15   31.02    1.63
  -3  -6  15   29.04    2.11
   3   6  15   31.56    1.82
   3   6  15   31.06    2.08
  -4   6  15    7.77    1.18
  -4   6  15   11.48    1.03
   4   6 -15    8.39    1.10
  -4   6  15   11.55    1.44
   4  -6  15   12.54    1.88
   4   6  15    8.77    1.26
   4  -6 -15    8.87    1.17
   4   6  15    7.05    1.09
  -4  -6  15   10.50    1.23
  -4  -6  15   10.95    1.56
   5   6 -15    6.53    1.05
   5  -6  15    6.76    1.34
  -5   6  15    9.13    0.98
  -5   6  15    5.06    1.12
   5  -6 -15    6.91    1.04
  -5  -6  15    5.91    1.07
   5   6  15    6.25    1.15
  -5  -6  15    5.69    0.98
   5   6  15    6.73    1.24
   6  -6  15   -1.44    1.16
   6   6 -15    0.69    0.94
  -6   6  15   -0.19    0.90
   6   6  15    0.54    1.03
  -6  -6  15    0.31    0.83
  -6  -6  15    0.08    0.83
   7   6 -15   -1.00    0.98
   7  -6  15   -1.22    1.33
  -7   6  15    0.72    1.05
   7  -6 -15    0.19    0.93
  -7  -6  15    1.98    0.95
   8  -6  15   -0.64    1.55
   8   6 -15   -0.16    1.14
  -8   6  15   -1.26    1.17
  -8  -6  15    1.30    1.05
   8  -6 -15    1.03    1.09
   8   6  15    0.10    1.40
   0   7 -15   -0.51    0.63
   0  -7  15    0.11    0.85
   0   7  15    0.93    0.67
   0   7  15    1.65    0.71
  -1   7  15   28.00    1.62
   1  -7 -15   27.93    1.40
   1   7  15   22.20    1.54
   1   7  15   25.66    1.88
  -1  -7  15   26.05    2.09
   2   7 -15   22.01    1.78
  -2   7  15   21.45    1.83
  -2   7  15   22.84    1.39
  -2   7  15   22.48    1.52
   2  -7  15   22.90    2.06
   2   7  15   22.89    1.78
   2  -7 -15   21.38    1.32
   2   7  15   20.02    1.54
  -2  -7  15   23.69    1.92
   3  -7  15   81.30    4.07
  -3   7  15   80.54    3.15
  -3   7  15   76.46    2.94
  -3   7  15   82.61    3.82
   3   7 -15   82.61    3.47
  -3  -7  15   78.77    3.66
   3   7  15   83.44    3.24
   3  -7 -15   82.52    3.08
   3   7  15   81.11    3.73
  -3  -7  15   77.23    3.61
   4   7 -15    3.66    0.88
  -4   7  15    4.14    0.71
  -4   7  15    3.99    0.89
   4  -7  15    2.35    1.16
  -4   7  15    4.66    1.01
   4  -7 -15    3.39    0.78
   4   7  15    3.53    0.96
  -4  -7  15    4.39    0.93
   4   7  15    3.17    0.98
   5   7 -15   90.01    3.82
   5  -7  15   90.21    4.48
  -5   7  15   88.36    4.19
  -5   7  15   88.74    3.15
   5  -7 -15   89.33    3.48
   5   7  15   81.30    3.58
  -5  -7  15   87.93    3.63
   5   7  15   79.92    3.99
   6   7 -15   15.78    1.88
  -6   7  15   14.65    1.96
   6  -7  15   15.58    2.33
   6   7  15   10.90    1.59
   7  -7  15   42.58    3.39
  -7   7  15   46.94    3.06
   7   7 -15   42.43    2.82
  -7  -7  15   41.22    2.41
   7  -7 -15   41.64    2.49
   8   7 -15    6.52    1.48
  -8   7  15    9.85    1.68
   8  -7  15    8.05    1.86
   8  -7 -15   10.89    1.49
   8   7  15    8.92    1.75
  -8  -7  15    9.57    1.34
   0   8 -15   13.61    1.38
   0  -8  15   11.83    1.76
   0   8  15    9.25    1.20
  -1   8  15   20.76    1.76
   1   8 -15   22.04    1.67
  -1   8  15   22.85    1.44
  -1  -8  15   17.79    1.97
   1  -8 -15   22.62    1.25
   1   8  15   23.11    1.48
   1   8  15   20.89    1.81
  -1   8 -15   21.42    1.61
   2   8 -15    0.80    0.74
  -2   8  15    0.73    0.71
   2  -8  15    1.50    0.97
  -2   8  15    0.83    0.69
   2   8  15    1.87    0.81
  -2  -8  15    0.06    0.86
  -2  -8  15    0.04    0.76
   2   8  15    1.11    0.74
   2  -8 -15    0.28    0.55
   3   8 -15   91.08    3.81
  -3   8  15   94.03    4.24
  -3   8  15   89.39    3.39
   3  -8  15   97.25    4.54
  -3   8  15   90.34    3.46
  -3  -8  15   94.80    3.81
  -3  -8  15   99.61    4.07
   3   8  15   90.34    4.08
   3   8  15   90.51    3.52
   3  -8 -15   94.83    3.39
   4   8 -15    2.74    0.89
  -4   8  15    2.30    0.91
   4  -8  15    4.05    1.20
  -4   8  15    3.84    0.87
  -4   8  15    2.82    0.79
  -4  -8  15    2.17    0.89
   4  -8 -15    2.70    0.73
  -4  -8  15    2.97    0.95
   4   8  15    1.95    0.94
   4   8  15    2.99    0.95
   5  -8  15   -1.76    1.14
   5   8 -15   -1.11    0.85
  -5   8  15    1.59    0.95
   5  -8 -15    0.20    0.76
   5   8  15    0.22    1.07
  -5  -8  15    0.73    0.82
   5   8  15   -0.05    0.95
  -5  -8  15    0.92    0.88
  -6   8  15    6.94    1.34
   6   8 -15    6.89    1.22
   6  -8  15    5.55    1.54
  -6  -8  15    6.45    1.17
   7   8 -15   55.36    3.20
   7  -8  15   59.00    3.94
  -7   8  15   56.19    3.49
  -7  -8  15   55.76    2.80
   7   8  15   55.31    3.46
   7  -8 -15   55.26    2.86
   8  -8  15    5.75    1.92
  -8   8  15    5.54    1.54
   8   8 -15    5.28    1.48
   8  -8 -15    5.15    1.36
  -8  -8  15    4.46    1.27
   8   8  15    8.07    1.82
   0   9  15    0.55    0.66
   0   9 -15    0.02    0.66
   0  -9  15    0.26    0.82
   0   9  15   -0.33    0.70
   0  -9  15    0.45    0.98
  -1   9  15   46.92    2.64
   1   9 -15   49.75    2.44
  -1   9  15   49.04    2.07
   1  -9  15   45.13    2.83
   1   9  15   47.29    2.09
  -1  -9  15   44.10    2.75
  -1  -9  15   48.48    2.54
   1   9  15   43.51    2.59
  -1   9 -15   46.61    2.37
  -2   9  15    2.08    0.74
   2   9 -15    2.26    0.77
   2  -9  15    2.17    1.03
  -2   9  15    2.69    0.88
   2  -9 -15    1.23    0.55
   2   9  15    0.63    0.72
  -2  -9  15    1.82    0.83
  -2  -9  15    4.11    1.00
  -3   9  15   17.30    1.84
   3  -9  15   16.95    2.22
   3   9 -15   20.26    1.73
  -3   9  15   21.11    1.48
  -3  -9  15   20.64    1.75
   3   9  15   19.35    1.61
   3  -9 -15   20.24    1.32
   3   9  15   18.93    1.84
  -3  -9  15   18.79    1.79
   4   9 -15    1.07    0.88
  -4   9  15   -0.11    0.83
   4  -9  15   -0.60    1.15
  -4   9  15    0.16    0.91
   4  -9 -15    0.80    0.69
  -4  -9  15    1.16    0.92
   4   9  15    0.33    0.93
  -4  -9  15   -0.67    0.81
   5   9 -15   21.73    2.02
   5  -9  15   22.87    2.59
  -5   9  15   20.76    2.19
   5  -9 -15   21.30    1.69
  -5  -9  15   24.18    2.04
   6   9 -15    1.72    1.18
  -6   9  15    1.37    1.12
   6  -9  15   -0.10    1.38
   6  -9 -15    1.40    0.99
  -6  -9  15    1.82    1.07
   7   9 -15    6.87    1.43
   7  -9  15    5.23    1.68
  -7   9  15    3.80    1.35
  -7  -9  15    9.69    1.39
   7  -9 -15    8.60    1.29
   7   9  15    5.88    1.58
   0  10  15   10.36    1.53
   0 -10  15   11.26    1.37
   0  10 -15    9.62    1.34
   0  10  15   10.47    1.10
   1 -10  15    5.74    1.05
  -1  10  15    4.34    1.12
   1 -10  15    3.08    1.12
   1  10 -15    4.94    1.00
  -1  10  15    5.34    0.76
  -1 -10  15    6.35    1.18
   1  10  15    5.83    0.81
   1  10  15    5.19    1.00
  -1 -10  15    6.14    1.09
  -2  10  15   11.54    1.57
   2 -10  15   14.03    1.73
   2  10 -15   10.84    1.47
   2 -10  15   12.53    1.61
  -2 -10  15   10.17    1.30
   2  10  15   12.94    1.58
   2 -10 -15   11.66    1.00
  -2 -10  15   11.90    1.61
  -3  10  15  102.15    4.73
   3  10 -15  106.51    4.34
   3 -10  15  105.04    5.00
  -3 -10  15  110.02    4.35
   3 -10 -15  115.25    3.76
  -3 -10  15  111.16    4.35
   3  10  15  103.01    4.69
   4 -10  15    0.07    1.19
   4  10 -15    1.50    1.00
  -4  10  15   -0.26    0.97
   4 -10 -15    1.03    0.70
  -4 -10  15    2.43    1.02
  -4 -10  15    1.02    0.86
   5 -10  15    1.58    1.34
   5  10 -15    2.11    1.08
  -5  10  15    3.45    1.20
   5 -10 -15    3.49    0.90
  -5 -10  15    1.58    1.08
   6  10 -15    3.50    1.22
   6 -10  15    1.84    1.54
  -6  10  15    2.44    1.20
   6  10  15   -0.19    1.28
  -6 -10  15    3.88    1.20
   6 -10 -15    0.80    1.01
   7 -10  15   14.67    2.24
   7 -10  15   17.48    2.34
   7  10 -15   16.43    1.92
  -7  10  15   16.66    2.11
   7 -10 -15   15.66    1.61
   7  10  15   13.67    1.95
  -7 -10  15   18.92    1.81
   0  11 -15   -0.77    0.77
   0 -11  15   -1.17    0.90
   0  11  15    0.84    0.79
   1  11 -15   40.64    2.41
   1 -11  15   43.36    2.86
  -1  11  15   45.80    2.71
   1 -11  15   45.35    2.64
  -1 -11  15   51.75    2.69
  -1 -11  15   46.00    2.73
   1  11  15   40.04    2.56
   2 -11  15    0.27    0.99
   2 -11  15    1.52    1.18
  -2  11  15    1.00    0.87
   2  11 -15    0.16    0.80
  -2 -11  15    0.50    0.96
  -2 -11  15    0.33    0.95
   2  11  15    0.70    0.88
   3 -11  15   12.34    1.56
   3 -11  15   11.09    1.73
  -3  11  15   12.60    1.61
   3  11 -15   10.92    1.36
   3 -11 -15   10.64    1.12
  -3 -11  15   11.25    1.57
  -3 -11  15    9.29    1.36
   3  11  15   12.33    1.74
   4 -11  15    1.62    1.35
   4  11 -15    0.92    0.99
   4 -11  15    0.17    1.11
  -4  11  15   -1.79    0.96
  -4 -11  15   -0.01    1.08
   4  11  15   -0.61    1.01
   4 -11 -15    0.30    0.74
   5 -11  15    4.11    1.23
   5 -11  15    2.83    1.51
  -5  11  15    2.94    1.20
   5  11 -15    0.87    1.17
  -5 -11  15    1.38    1.21
   5  11  15    4.95    1.29
   6 -11  15   10.17    1.58
  -6  11  15    9.27    1.68
   6  11 -15   11.06    1.64
   6 -11  15    8.09    1.85
   6  11  15   10.16    1.65
  -6 -11  15   13.44    1.70
   0 -12  15   -0.97    1.03
   0  12  15    0.25    0.89
   0 -12  15    0.13    1.13
   0  12 -15    0.59    0.86
  -1  12  15   -0.75    0.85
   1  12 -15    0.32    0.83
   1 -12  15   -1.05    1.00
   1 -12  15   -0.68    1.15
   1  12  15    0.48    0.85
  -1 -12  15    0.13    1.08
  -1 -12  15    0.21    1.10
  -2  12  15    5.30    1.21
   2  12 -15    6.72    1.20
   2 -12  15    6.22    1.45
   2 -12  15    2.98    1.18
   2  12  15    5.89    1.22
  -2 -12  15    4.33    1.21
   3  12 -15    4.30    1.11
   3 -12  15    3.31    1.42
   3 -12  15    2.61    1.18
  -3  12  15    2.53    1.10
  -3 -12  15    1.07    1.18
   3  12  15    2.08    1.05
   4 -12  15    1.43    1.42
   4 -12  15    1.40    1.19
  -4  12  15    0.31    1.09
   4  12 -15    0.79    1.07
   4  12  15    1.89    1.10
  -4 -12  15    3.27    1.27
   5 -12  15   -2.57    1.52
   5 -12  15   -0.20    1.26
  -5  12  15    2.97    1.30
   5  12 -15    0.55    1.18
   5  12  15    2.40    1.26
  -5 -12  15    2.17    1.33
   0 -13  15   -1.57    1.07
   0 -13  15   -2.10    1.23
   0  13  15   -1.00    0.96
   1 -13  15   28.92    2.42
   1  13 -15   27.50    2.14
   1 -13  15   29.45    2.63
  -1  13  15   25.00    2.28
   1  13  15   28.13    2.32
  -1 -13  15   29.69    2.43
   2  13 -15    2.73    1.10
  -2  13  15    2.97    1.14
   2 -13  15    3.77    1.25
   2 -13  15    3.62    1.45
  -2 -13  15    5.72    1.35
   2  13  15    2.69    1.13
  -3  13  15   20.99    2.32
   3 -13  15   25.53    2.86
   3 -13  15   19.79    2.31
   3  13 -15   21.60    2.11
   3  13  15   23.82    2.28
  -3 -13  15   20.13    2.33
   4 -13  15    9.00    1.57
  -4  13  15    6.14    1.47
   4 -13  15    7.01    1.74
   4  13 -15    9.46    1.44
  -4 -13  15    8.10    1.54
   4  13  15    5.80    1.38
   0 -14  15    1.57    1.33
   0  14  15   -0.30    1.11
   1  14 -15    1.22    1.12
   1 -14  15    1.30    1.33
  -1  14  15   -0.53    1.12
  -1 -14  15    2.43    1.30
   1  14  15   -1.67    1.07
   2 -14  15    4.69    1.50
   2  14 -15    6.33    1.32
   2 -14  15    2.92    1.53
  -2  14  15    5.92    1.37
   2  14  15    5.40    1.31
  -2 -14  15    5.37    1.49
   0   0  16   -0.08    0.69
   0   0 -16    0.39    0.51
   0   0 -16   -0.26    0.61
   0   0  16   -0.59    0.85
   1   0  16   71.96    3.67
  -1   0  16   79.11    3.72
  -1   0 -16   73.56    3.00
  -1   0  16   72.13    3.27
   1   0 -16   77.68    3.05
  -1   0 -16   80.80    3.27
   1   0  16   74.20    3.27
  -2   0 -16    2.82    0.74
  -2   0  16    2.13    0.90
   2   0  16    3.78    1.05
   2   0 -16    3.36    0.72
  -3   0  16  106.19    4.64
   3   0  16  106.43    4.78
   3   0 -16  106.18    3.95
  -3   0 -16   91.42    4.00
  -4   0 -16   20.92    1.51
   5   0  16    5.63    1.24
  -5   0 -16    6.41    0.86
   5   0 -16    5.33    0.93
  -6   0 -16   23.24    1.51
   6   0  16   19.06    2.34
  -6   0  16   18.97    2.15
   6   0 -16   21.33    1.83
  -7   0  16   74.04    2.92
  -7   0  16   75.84    3.91
   7   0 -16   72.96    3.53
   7   0  16   78.39    4.19
  -8   0  16   26.94    2.54
   8   0  16   20.09    2.91
   8   0 -16   26.62    2.28
   9   0  16    3.27    1.82
  -9   0  16    7.48    1.70
   9   0 -16    4.15    1.41
   0   1  16    0.06    0.81
   0  -1 -16   -0.41    0.47
   0  -1  16   -0.39    0.74
   0  -1 -16   -0.06    0.58
   0   1 -16   -0.44    0.52
   0   1  16   -0.48    0.69
   1   1 -16    0.21    0.51
  -1  -1 -16    0.51    0.50
  -1   1  16   -0.09    0.69
   1  -1  16    0.70    0.83
  -1   1  16   -0.91    0.81
  -1  -1 -16    0.02    0.55
  -1   1 -16   -0.48    0.49
   1  -1 -16    1.32    0.53
  -1  -1  16    0.43    0.79
  -1   1 -16    0.99    0.68
   1   1  16    0.35    0.74
   1   1  16   -0.71    0.80
  -2   1  16    1.87    0.86
  -2   1  16    2.19    0.92
   2   1 -16    1.14    0.60
   2  -1  16    0.74    0.84
  -2  -1 -16    1.10    0.63
   2  -1 -16    2.03    0.64
   2   1  16    0.40    0.83
  -2   1 -16    1.26    0.75
  -2  -1  16    1.91    0.92
   2   1  16    2.01    0.88
  -3  -1 -16   10.66    1.16
   3   1 -16   12.26    1.33
   3  -1 -16   12.37    1.28
   3   1  16    8.90    1.36
  -3   1 -16    9.63    1.11
  -3  -1  16   11.07    1.66
   4  -1  16    6.93    1.24
  -4  -1 -16    8.52    1.08
  -4   1 -16    5.51    0.92
  -4  -1  16    6.16    1.19
   4  -1 -16    7.05    1.00
   5  -1  16    4.87    1.22
  -5   1  16    4.29    1.09
   5   1 -16    4.02    0.91
   5   1  16    3.37    1.12
  -5   1 -16    4.45    0.91
   5  -1 -16    5.64    1.00
  -5  -1  16    3.96    1.12
   6  -1  16    0.76    1.18
   6   1 -16   -0.20    0.82
  -6   1  16    1.21    1.01
  -6   1 -16   -0.19    0.84
   6   1  16   -0.46    1.11
   6  -1 -16    1.36    0.78
  -7   1  16   -0.35    1.07
   7  -1  16    1.97    1.34
   7   1 -16    3.78    1.07
  -7   1  16    0.14    0.78
   7   1  16   -0.57    1.27
  -7  -1  16    0.44    0.81
   7  -1 -16    1.97    1.00
   8  -1  16    2.67    1.66
   8   1 -16    6.84    1.30
  -8   1  16    7.41    1.54
   8   1  16    4.67    1.70
   8  -1 -16    8.46    1.29
   9   1 -16    6.16    1.49
  -9   1  16    7.02    1.75
   9  -1  16    6.07    1.91
   9  -1 -16    2.78    1.39
   9   1  16    5.21    1.96
   0   2  16   60.70    3.27
   0  -2 -16   66.97    2.66
   0  -2  16   62.79    3.35
   0   2 -16   65.34    2.77
   0   2  16   65.53    2.88
  -1   2  16   31.45    2.22
  -1   2  16   31.46    1.99
   1   2 -16   31.08    1.79
   1  -2  16   27.96    2.28
  -1  -2 -16   30.07    1.64
   1   2  16   30.96    2.18
   1  -2 -16   30.95    1.69
   1   2  16   31.22    1.98
  -1  -2  16   32.20    2.27
  -1   2 -16   31.77    1.76
   2   2 -16   85.88    3.49
  -2   2  16   83.47    3.58
   2  -2  16   77.35    4.15
  -2   2  16   86.64    4.13
  -2  -2  16   97.32    4.20
   2  -2 -16   89.24    3.40
   2   2  16  100.19    4.24
   2   2  16   84.27    3.57
   3   2 -16   35.71    2.07
   3  -2  16   34.05    2.76
   3  -2 -16   37.32    1.96
   3   2  16   38.65    2.51
  -3   2 -16   29.19    2.09
  -3  -2  16   38.02    2.47
   4   2 -16   40.72    2.28
  -4   2  16   43.28    2.69
   4  -2  16   43.43    2.86
   4  -2 -16   41.55    2.21
  -4  -2  16   43.06    2.66
  -4   2 -16   43.80    2.40
  -5   2  16    3.78    1.08
   5  -2  16    2.25    1.12
   5   2 -16    2.58    0.85
  -5  -2  16    2.48    1.02
   5  -2 -16    3.24    0.83
   5   2  16    3.09    1.16
  -5   2 -16    2.77    0.95
   6  -2  16   44.10    3.08
   6   2 -16   38.78    2.44
  -6   2  16   40.45    2.78
   6   2  16   41.94    2.90
  -6  -2  16   40.36    2.11
  -6  -2  16   42.03    2.71
   6  -2 -16   41.88    2.35
  -6   2 -16   36.56    2.36
   7   2 -16    2.11    0.98
   7  -2  16    3.16    1.42
  -7   2  16    1.48    1.18
  -7  -2  16    1.77    1.18
   7  -2 -16    2.02    0.97
   7   2  16    1.85    1.34
  -7  -2  16    1.86    0.84
   8   2 -16   39.39    2.73
   8  -2  16   40.73    3.43
  -8   2  16   36.22    2.95
   8   2  16   40.52    3.29
   8  -2 -16   39.31    2.72
  -8  -2  16   36.28    2.86
   9   2 -16    9.92    1.51
   9  -2  16    6.56    2.03
  -9   2  16    9.94    1.87
   9  -2 -16    7.85    1.62
   9   2  16   11.28    2.11
   0   3 -16    0.03    0.56
   0  -3  16    0.30    0.78
   0  -3 -16    0.12    0.51
   0   3  16    0.49    0.75
   0   3  16   -0.95    0.75
  -1   3  16   53.84    2.92
   1   3 -16   48.86    2.38
   1  -3  16   49.98    2.97
  -1   3  16   53.15    2.48
  -1  -3 -16   48.91    2.19
  -1   3 -16   51.37    2.38
   1   3  16   52.37    2.87
   1  -3 -16   49.86    2.24
  -1  -3  16   51.98    2.94
   1   3  16   47.16    2.45
  -2   3  16   45.48    2.43
   2   3 -16   48.79    2.33
   2   3  16   52.65    2.84
   2   3  16   43.74    2.39
   2  -3 -16   46.93    2.16
  -2  -3  16   44.58    2.77
  -3   3  16    1.28    0.81
   3  -3  16    0.41    0.92
   3   3  16    0.71    0.81
  -3  -3  16    0.61    0.86
   3  -3 -16    0.85    0.63
   4   3 -16   -0.13    0.65
   4  -3  16   -0.21    0.94
  -4   3  16    0.13    0.80
   4  -3 -16    0.31    0.66
   4   3  16    0.04    0.88
  -4  -3  16    0.41    0.93
   5   3 -16   31.87    2.06
   5  -3  16   32.75    2.72
  -5   3  16   34.16    2.40
   5  -3 -16   31.01    2.13
  -5  -3  16   29.00    2.36
  -6   3  16    2.62    1.02
   6  -3  16   -0.27    1.19
   6   3 -16    2.20    0.94
  -6  -3  16    1.19    0.80
   6   3  16    1.29    1.17
   6  -3 -16    1.41    0.81
  -7   3  16    1.24    1.18
   7   3 -16    2.69    1.04
   7  -3  16    2.36    1.40
   7   3  16    0.66    1.31
  -7  -3  16    5.42    1.24
  -7  -3  16    2.55    0.86
   7  -3 -16    1.93    1.00
  -8   3  16   12.49    1.81
   8  -3  16    8.61    1.91
   8   3 -16    8.89    1.47
  -8  -3  16   12.72    1.57
   8   3  16   11.87    1.92
   8  -3 -16    8.59    1.44
   9  -3  16   14.03    2.27
   9   3 -16   14.68    1.82
   9  -3 -16   16.66    1.99
   9   3  16   12.26    2.31
   0  -4 -16   10.82    1.05
   0   4 -16   10.55    1.24
   0  -4  16   11.83    1.76
   0   4  16   11.28    1.53
   0   4  16   10.15    1.35
   1   4 -16   12.49    1.33
  -1   4  16   13.33    1.48
  -1  -4  16   15.19    1.84
   1  -4 -16   14.71    1.18
   1   4  16   13.65    1.60
  -1   4 -16   12.64    1.32
   1   4  16   15.33    1.49
   2  -4  16   40.25    2.70
  -2   4  16   40.69    2.18
  -2   4  16   36.50    2.40
   2   4  16   41.55    2.52
   2  -4 -16   37.64    1.91
   2   4  16   38.20    2.21
  -2  -4  16   36.67    2.52
   3  -4  16   16.66    1.99
  -3   4  16   16.97    1.66
   3   4 -16   19.41    1.57
  -3   4  16   16.95    1.75
  -3  -4  16   18.11    1.94
   3  -4 -16   17.78    1.37
   3   4  16   14.60    1.69
   3   4  16   21.38    1.95
  -4   4  16   21.54    1.96
   4   4 -16   22.15    1.77
   4  -4  16   24.79    2.29
  -4  -4  16   23.13    2.15
   4   4  16   24.89    2.27
   4  -4 -16   23.74    1.66
  -5   4  16    6.13    1.21
   5   4 -16    8.00    1.17
   5  -4  16    8.68    1.54
  -5  -4  16    8.43    1.11
  -5  -4  16    6.45    1.23
  -6   4  16   24.89    2.22
   6  -4  16   23.55    2.62
   6   4 -16   22.54    2.03
   6  -4 -16   24.88    1.91
   6   4  16   22.58    2.45
  -6  -4  16   20.07    2.15
  -6  -4  16   23.21    1.77
   7  -4  16    3.04    1.49
   7   4 -16    6.92    1.30
  -7   4  16    2.88    1.27
   7  -4 -16    2.80    1.05
  -7  -4  16    5.59    1.04
  -7  -4  16    2.61    1.15
   7   4  16    3.61    1.36
   8   4 -16   18.88    2.31
   8  -4  16   17.51    2.30
  -8   4  16   21.06    2.64
  -8  -4  16   19.03    1.77
   8  -4 -16   18.20    2.22
   8   4  16   16.08    2.22
   0   5  16   -0.15    0.73
   0  -5 -16    0.12    0.47
   0  -5  16    0.65    0.91
  -1   5  16    4.49    0.90
  -1   5  16    4.22    0.98
   1  -5 -16    5.86    0.74
   1   5  16    5.25    0.95
  -1  -5  16    3.45    1.05
   1   5  16    3.77    1.01
  -2   5  16    0.32    0.82
  -2   5  16    0.09    0.72
   2   5 -16   -1.39    0.58
   2  -5  16    0.43    0.95
  -2  -5  16    0.38    0.88
   2   5  16    0.34    0.82
   2  -5 -16    0.39    0.57
   2   5  16    0.00    0.79
   3   5 -16   10.39    1.39
  -3   5  16   10.63    1.20
   3  -5  16   10.18    1.47
  -3   5  16   10.76    1.51
   3  -5 -16    8.65    1.16
   3   5  16   10.54    1.21
   3   5  16    8.82    1.31
  -3  -5  16    8.32    1.31
   4   5 -16   -0.04    0.70
   4  -5  16   -0.79    1.01
  -4   5  16   -0.32    0.79
   4   5  16    1.13    1.04
  -4  -5  16    0.22    0.95
   4  -5 -16    0.59    0.69
   4   5  16   -0.61    0.99
   5   5 -16    6.15    1.07
  -5   5  16    6.85    1.29
   5  -5  16    6.79    1.45
  -5  -5  16    6.38    1.19
  -5  -5  16    7.08    1.06
  -6   5  16    1.71    1.07
   6  -5  16    2.14    1.33
   6   5 -16    1.44    1.00
   6   5  16   -0.52    1.12
   6  -5 -16    2.54    0.92
  -6  -5  16    1.11    1.01
  -6  -5  16    1.87    0.92
  -7   5  16    9.71    1.69
   7   5 -16    8.57    1.36
   7  -5  16    8.47    1.74
   7  -5 -16    9.44    1.28
  -7  -5  16   11.18    1.33
   7   5  16    8.83    1.68
   8  -5  16   -2.58    1.59
  -8   5  16   -0.04    1.31
   8   5 -16    0.10    1.20
   8  -5 -16   -0.37    1.16
   8   5  16    0.31    1.63
  -8  -5  16   -1.62    1.09
   0   6  16  107.99    4.91
   0   6 -16  112.72    4.31
   0  -6 -16  114.31    3.94
   0   6  16  115.17    4.13
   1  -6  16    7.90    1.31
  -1   6  16    8.24    1.06
   1   6 -16    8.12    1.04
  -1   6  16   10.28    1.37
   1   6  16   10.45    1.11
  -1  -6  16   10.07    1.41
   1  -6 -16    9.14    1.03
  -1   6 -16    9.80    1.23
   2  -6  16   33.47    2.53
  -2   6  16   31.75    1.91
   2   6 -16   32.06    1.98
  -2   6  16   29.28    2.20
   2  -6 -16   32.62    1.68
   2   6  16   30.38    1.94
  -2  -6  16   29.77    2.33
  -3   6  16  117.16    5.23
   3   6 -16  121.22    4.70
   3  -6  16  125.01    5.51
  -3   6  16  119.64    4.44
   3   6  16  125.62    5.45
   3   6  16  119.61    4.50
  -3  -6  16  122.21    5.16
   3  -6 -16  131.38    4.42
  -4   6  16   43.35    2.67
   4  -6  16   38.56    2.91
  -4   6  16   40.17    1.87
   4   6 -16   40.99    2.38
  -4  -6  16   42.01    2.57
   4   6  16   40.54    2.38
   4  -6 -16   41.81    2.14
   5  -6  16   16.68    2.31
  -5   6  16   11.93    1.19
   5   6 -16   11.80    1.41
  -5   6  16    8.93    1.45
  -5  -6  16   11.50    1.37
   5  -6 -16   14.55    1.52
  -6   6  16   24.61    2.42
   6  -6  16   24.41    2.78
   6   6 -16   28.49    2.20
  -6  -6  16   24.24    2.02
   6   6  16   22.33    2.42
   6  -6 -16   21.99    1.89
   7   6 -16   17.10    2.23
  -7   6  16   20.90    2.44
   7  -6  16   22.17    2.96
   7  -6 -16   21.06    2.03
   7   6  16   19.42    2.61
   8   6 -16    7.94    1.56
   8  -6  16    8.50    1.98
  -8   6  16   10.24    1.92
   8   6  16    9.80    1.92
   8  -6 -16    9.33    1.60
   0   7 -16   -0.88    0.65
   0   7  16    0.56    0.77
   0   7  16    0.09    0.76
   1  -7  16    5.45    1.18
  -1   7  16    4.92    0.90
   1   7 -16    4.92    0.96
  -1   7  16    4.53    1.05
  -1  -7  16    6.76    1.21
  -1   7 -16    5.37    0.95
   1   7  16    5.69    1.06
   1   7  16    6.22    0.96
   1  -7 -16    5.31    0.75
  -2   7  16    6.79    1.00
   2   7 -16    6.75    1.06
  -2   7  16    7.77    1.22
   2  -7  16    4.72    1.18
   2  -7 -16    8.62    1.07
   2   7  16    6.10    1.05
  -2  -7  16    7.65    1.28
   3   7 -16    2.75    0.82
  -3   7  16    2.84    0.93
  -3   7  16    1.80    0.85
   3  -7  16    3.15    1.20
   3   7  16    2.08    1.03
   3  -7 -16    2.58    0.72
  -3  -7  16    3.10    1.08
  -3  -7  16    3.82    0.97
  -4   7  16    1.72    0.74
   4  -7  16   -0.03    1.19
   4   7 -16    1.25    0.85
  -4   7  16    0.61    0.88
  -4   7  16   -2.30    0.96
  -4  -7  16    0.31    0.92
   4  -7 -16    0.64    0.72
  -4  -7  16    0.36    0.95
   4   7  16    0.21    1.04
  -5   7  16   15.34    2.03
   5   7 -16   19.78    1.95
   5  -7  16   13.93    1.93
  -5  -7  16   18.69    1.86
   5   7  16   15.21    2.09
   5  -7 -16   14.36    1.63
  -5  -7  16   16.92    1.71
   6  -7  16    3.34    1.45
  -6   7  16    1.23    1.14
   6   7 -16    2.06    1.17
  -6  -7  16    2.67    1.04
   6  -7 -16    1.36    0.93
   6   7  16    0.93    1.22
  -7   7  16    6.67    1.49
   7  -7  16    4.12    1.70
   7   7 -16    7.51    1.38
   7  -7 -16    6.73    1.22
   7   7  16    6.58    1.55
  -7  -7  16    4.42    1.19
   8  -7  16    0.93    1.89
   8   7 -16    4.06    1.46
  -8   7  16    3.98    1.52
   8   7  16    4.59    1.89
  -8  -7  16    6.36    1.35
   8  -7 -16    5.16    1.46
   0   8  16   67.18    3.38
   0   8  16   66.57    2.77
   0  -8  16   66.90    3.56
   0   8 -16   69.26    3.04
   1   8 -16    6.92    0.96
   1  -8  16    7.82    1.34
  -1   8  16    6.57    0.98
  -1   8  16    8.27    1.20
   1   8  16    9.31    1.05
   1   8  16    7.96    1.24
  -1   8 -16    8.32    1.11
   1  -8 -16    6.93    0.97
   2   8 -16    3.82    0.87
   2  -8  16    3.96    1.20
  -2   8  16    2.42    0.85
  -2   8  16    3.26    1.01
   2   8  16    2.90    0.98
  -2  -8  16    4.03    1.13
   2   8  16    4.75    1.00
   2  -8 -16    3.40    0.69
  -2  -8  16    4.55    0.98
   3  -8  16    1.02    1.18
  -3   8  16    0.58    0.88
  -3   8  16    1.54    0.89
   3   8 -16    0.88    0.78
  -3  -8  16    1.94    0.86
  -3  -8  16    0.78    1.01
   3  -8 -16    0.13    0.65
   3   8  16    0.05    0.91
   3   8  16    1.30    0.89
   4  -8  16   10.81    1.69
  -4   8  16   11.98    1.64
   4   8 -16   13.06    1.52
  -4   8  16    8.07    1.38
   4   8  16   11.62    1.55
   4   8  16   11.47    1.40
   4  -8 -16   10.01    1.36
  -4  -8  16   10.87    1.33
  -4  -8  16   12.60    1.77
   5   8 -16   -0.76    0.96
   5  -8  16    1.71    1.32
  -5   8  16   -0.95    1.01
  -5  -8  16   -0.08    0.95
   5   8  16    1.50    1.09
  -5  -8  16    0.27    0.93
   5  -8 -16   -0.91    0.83
   6   8 -16    1.76    1.10
   6  -8  16    2.52    1.46
  -6   8  16    3.16    1.21
   6  -8 -16    2.32    1.00
  -6  -8  16    2.97    1.12
   6   8  16    2.78    1.32
  -7   8  16    3.71    1.41
   7  -8  16    4.71    1.80
   7   8 -16    6.25    1.49
   7   8  16    4.48    1.59
   7  -8 -16    7.22    1.30
  -7  -8  16    5.89    1.27
   0   9  16    0.04    0.78
   0  -9  16    0.70    0.95
   0  -9  16    0.28    1.02
   0   9  16    2.39    0.81
   0   9 -16   -1.06    0.68
  -1   9  16   12.25    1.34
   1   9 -16   10.55    1.44
  -1   9  16    8.78    1.33
   1  -9  16    8.81    1.41
  -1  -9  16   10.02    1.36
   1   9  16    9.05    1.30
   1   9  16   12.87    1.46
  -2   9  16    9.85    1.04
   2  -9  16    9.47    1.49
  -2   9  16    9.26    1.37
   2   9 -16    9.73    1.22
  -2  -9  16    9.98    1.31
   2   9  16    9.11    1.13
  -2  -9  16    9.51    1.39
   2   9  16    9.80    1.34
   2  -9 -16    9.88    1.12
  -3   9  16    1.37    0.95
   3  -9  16   -0.82    1.20
   3   9 -16   -0.35    0.86
  -3  -9  16   -0.09    0.99
  -3  -9  16    0.47    0.94
   3  -9 -16   -0.74    0.68
   3   9  16    0.80    0.93
   4   9 -16    1.27    0.95
  -4   9  16    1.77    1.05
   4  -9  16    2.05    1.30
  -4  -9  16    0.92    0.94
  -4  -9  16    1.45    0.98
   4  -9 -16    0.74    0.75
   4   9  16    0.31    1.06
  -5   9  16    9.43    1.49
   5  -9  16    7.57    1.75
   5   9 -16   10.32    1.46
   5  -9 -16    9.18    1.17
  -5  -9  16    9.16    1.36
   5   9  16    7.57    1.43
   6   9 -16    2.66    1.26
   6  -9  16   -0.20    1.54
  -6   9  16    0.90    1.26
   6   9  16    0.97    1.38
   6  -9 -16    2.81    1.07
  -6  -9  16    4.01    1.27
  -7   9  16   10.02    1.84
   7  -9  16    9.67    2.07
   7   9 -16   10.34    1.71
   7   9  16   16.23    2.04
  -7  -9  16    9.21    1.55
   7  -9 -16   14.88    1.62
   0 -10  16   33.00    2.60
   0  10  16   35.40    2.39
   0  10 -16   30.62    2.11
   0 -10  16   33.15    2.38
   1 -10  16   10.07    1.48
  -1  10  16    8.13    1.31
   1 -10  16    9.43    1.38
   1  10 -16    8.74    1.27
   1  10  16    8.89    1.31
  -1 -10  16    9.52    1.39
   2 -10  16   46.70    3.10
   2 -10  16   44.87    2.64
  -2  10  16   40.61    2.70
   2  10 -16   38.30    2.43
   2 -10 -16   41.31    1.86
  -2 -10  16   42.72    2.66
  -2 -10  16   38.11    2.52
   2  10  16   42.64    2.66
   3 -10  16   10.37    1.63
  -3  10  16   12.36    1.88
   3  10 -16    9.43    1.35
   3 -10 -16    9.08    1.22
   3  10  16    9.33    1.32
  -3 -10  16   13.56    1.83
  -3 -10  16    7.14    1.30
   4 -10  16   38.99    3.25
  -4  10  16   45.04    2.91
   4  10 -16   42.54    2.63
   4 -10 -16   38.61    2.10
   4  10  16   47.16    2.85
  -4 -10  16   44.77    2.68
   5 -10  16    0.81    1.50
  -5  10  16    0.94    1.16
   5  10 -16    1.21    1.12
   5 -10 -16    1.87    0.97
  -5 -10  16   -0.39    1.15
   5  10  16    0.32    1.19
   6  10 -16   50.69    3.18
  -6  10  16   48.39    3.41
   6 -10  16   45.99    3.89
   6  10  16   56.56    3.49
  -6 -10  16   51.10    3.01
   0  11  16   -1.43    0.91
   0 -11  16    1.71    1.11
   0 -11  16   -1.54    1.15
   0  11 -16   -0.22    0.83
  -1  11  16   12.18    1.56
   1  11 -16   13.71    1.69
   1 -11  16    8.06    1.53
   1 -11  16   10.74    1.55
  -1 -11  16   13.12    1.60
   1  11  16   11.59    1.75
  -2  11  16    4.24    1.25
   2 -11  16    2.90    1.20
   2 -11  16    6.78    1.49
   2  11 -16    2.56    1.07
   2  11  16    5.10    1.19
  -2 -11  16    3.62    1.19
  -2 -11  16    7.41    1.32
   3 -11  16    2.50    1.42
   3 -11  16    3.92    1.24
  -3  11  16    2.75    1.13
   3  11 -16    1.61    1.00
  -3 -11  16    1.53    1.21
   3  11  16    2.84    1.11
  -4  11  16   -0.07    1.10
   4 -11  16   -0.41    1.18
   4 -11  16   -1.05    1.40
   4  11 -16   -1.06    1.08
  -4 -11  16   -0.81    1.18
   4  11  16   -0.42    1.17
   5 -11  16    1.04    1.62
  -5  11  16    3.26    1.31
   5  11 -16    5.85    1.32
   5 -11  16    3.13    1.31
   5  11  16   -0.56    1.36
  -5 -11  16    6.80    1.44
   0  12 -16    2.41    0.99
   0 -12  16    4.97    1.35
   0  12  16    5.30    1.25
   0 -12  16    4.60    1.32
   1 -12  16   17.01    2.45
  -1  12  16   17.12    2.10
   1 -12  16   14.23    1.73
   1  12 -16   15.35    1.78
  -1 -12  16   16.04    2.10
   1  12  16   15.30    2.07
  -2  12  16   27.79    2.49
   2 -12  16   30.62    2.55
   2  12 -16   30.15    2.25
   2 -12  16   25.73    2.92
  -2 -12  16   35.22    2.60
   2  12  16   27.54    2.42
  -2 -12  16   32.05    2.52
   3  12 -16   14.61    1.69
   3 -12  16   16.46    2.05
  -3  12  16   14.94    2.20
   3 -12  16   17.71    1.99
  -3 -12  16   20.70    2.28
   3  12  16   18.72    2.25
   4 -12  16    2.83    1.67
   4 -12  16    5.64    1.44
   4  12 -16    5.20    1.37
  -4  12  16    5.70    1.48
  -4 -12  16    6.94    1.48
   4  12  16    3.05    1.38
   0  13  16    1.60    1.18
   0 -13  16    1.00    1.26
   1 -13  16   20.87    2.70
  -1  13  16   22.22    2.36
   1 -13  16   20.04    2.36
   1  13 -16   22.05    2.11
   1  13  16   19.99    2.33
  -1 -13  16   21.64    2.45
  -2  13  16    3.81    1.29
   2 -13  16    5.22    1.47
   2  13 -16    2.85    1.20
   2 -13  16    4.30    1.66
   2  13  16    5.70    1.39
  -2 -13  16    1.72    1.38
   3 -13  16   14.37    2.00
   3 -13  16   11.98    1.81
  -3  13  16   10.44    1.73
   3  13 -16   11.51    1.61
  -3 -13  16   15.88    1.88
   3  13  16   16.90    2.37
   0   0 -17   -0.23    0.57
  -1   0 -17    0.38    0.60
   1   0  17   -0.34    0.80
   1   0 -17    0.45    0.60
  -1   0  17   -0.48    0.79
   2   0  17    0.43    0.92
   2   0 -17   -0.84    0.55
  -2   0 -17    0.85    0.73
  -2   0  17   -1.50    0.82
   3   0  17    0.70    1.03
  -3   0  17   -0.76    0.87
  -3   0 -17    1.10    0.75
  -4   0  17   -0.84    0.95
   4   0  17   -0.34    0.96
  -4   0 -17    1.11    0.78
   4   0 -17    0.08    0.73
   5   0  17   -0.21    1.07
  -5   0 -17   -0.51    0.77
   5   0 -17    2.16    0.84
  -5   0  17    2.55    1.10
   6   0  17   -0.03    1.27
   6   0 -17    1.08    0.90
  -6   0  17    0.04    1.14
   7   0  17   -1.05    1.41
   7   0 -17    1.53    1.06
  -7   0  17    1.27    1.27
  -7   0  17    2.64    0.96
  -8   0  17    0.66    1.44
   8   0  17   -1.51    1.64
   8   0 -17    0.44    1.18
   0  -1 -17   -0.31    0.56
   0   1 -17   -0.76    0.56
   0   1  17   -0.90    0.79
   0  -1  17   -1.41    0.83
   1  -1  17    0.21    0.87
  -1   1  17   -0.05    0.79
  -1  -1 -17    0.16    0.56
   1   1 -17   -1.10    0.55
  -1  -1 -17    1.02    0.71
  -1   1 -17    0.08    0.58
  -1  -1  17    0.56    0.87
   1  -1 -17    0.80    0.62
   1   1  17   -0.26    0.82
   2  -1  17    5.21    1.19
  -2  -1 -17    4.43    0.81
  -2   1  17    4.24    1.05
   2   1  17    3.62    1.09
   2  -1 -17    5.10    0.87
  -2  -1  17    6.08    1.23
   3  -1  17   74.54    3.87
  -3  -1 -17   71.26    3.12
   3   1 -17   75.05    3.22
  -3   1  17   76.58    3.82
   3   1  17   78.07    3.92
  -3  -1  17   72.40    3.78
   4   1 -17    0.02    0.72
  -4   1  17    0.95    0.94
  -4  -1 -17    0.49    0.69
   4  -1  17    0.32    1.00
  -4   1 -17    0.65    0.88
   4  -1 -17    1.07    0.74
  -4  -1  17    0.78    0.95
   4   1  17    1.24    1.05
  -5   1  17   79.03    3.96
   5  -1  17   82.46    4.23
   5   1 -17   77.41    3.46
   5  -1 -17   79.37    3.41
   5   1  17   77.28    4.09
  -5  -1  17   76.93    3.94
  -5   1 -17   69.86    3.34
   6  -1  17   10.17    1.73
   6   1 -17    8.37    1.29
  -6   1  17    9.29    1.54
  -6  -1  17    8.60    1.48
   6   1  17    7.56    1.66
   6  -1 -17    8.76    1.24
   7   1 -17   78.57    3.75
  -7   1  17   79.46    4.21
   7  -1  17   80.39    4.55
   7   1  17   74.58    4.39
  -7  -1  17   80.22    4.06
   7  -1 -17   82.64    3.75
  -7  -1  17   70.36    3.13
  -8   1  17   -2.45    1.43
   8   1 -17   -0.77    1.12
   8  -1  17    0.97    1.71
   8  -1 -17   -0.88    1.13
  -8  -1  17   -0.82    1.46
   8   1  17   -0.42    1.71
   0   2  17   52.63    3.03
   0   2 -17   53.01    2.65
   0  -2  17   59.18    3.28
   0  -2 -17   54.02    2.41
  -1  -2 -17    0.54    0.54
  -1   2  17    1.53    0.86
   1  -2  17   -0.39    0.87
  -1  -2  17   -0.24    0.96
   1  -2 -17    0.29    0.57
   1   2  17    1.67    0.92
  -2   2  17   34.84    2.48
   2  -2  17   33.00    2.52
   2   2 -17   33.89    2.09
   2  -2 -17   33.52    1.89
   2   2  17   34.63    2.45
   3   2 -17   22.60    1.70
   3  -2  17   21.75    2.20
  -3   2  17   20.02    2.06
   3   2  17   21.42    2.11
  -3  -2  17   24.21    2.35
   3  -2 -17   18.78    1.58
   4  -2  17    5.49    1.31
  -4   2  17    3.45    1.10
   4   2 -17    2.10    0.79
   4   2  17    3.96    1.18
  -4  -2  17    3.73    1.18
   4  -2 -17    3.23    0.86
  -5   2  17    1.39    1.10
   5   2 -17    3.04    0.95
   5  -2  17    2.92    1.23
  -5  -2  17    4.19    1.17
   5  -2 -17    1.95    0.83
   5   2  17    0.53    1.11
  -6   2  17    2.83    1.20
   6   2 -17    1.76    0.97
   6  -2  17    2.36    1.35
  -6   2 -17    2.53    1.13
   6   2  17    3.22    1.32
   6  -2 -17    2.00    0.94
  -6  -2  17    2.74    1.30
  -6  -2  17    4.62    1.01
  -7   2  17   10.55    1.72
   7  -2  17   10.67    1.89
   7   2 -17   15.37    2.06
   7   2  17    7.99    1.82
   7  -2 -17   14.89    1.92
  -7  -2  17   14.63    1.66
  -8   2  17   -3.19    1.43
   8  -2  17    0.85    1.71
   8   2 -17   -0.20    1.18
   8  -2 -17    1.47    1.18
   8   2  17    0.17    1.75
  -8  -2  17    2.17    1.57
   0  -3  17    0.05    0.90
   0  -3 -17   -0.88    0.54
   0   3  17   -0.89    0.75
   1  -3  17  108.71    4.90
  -1   3  17  106.85    4.77
  -1  -3 -17  105.14    3.86
   1   3 -17  106.83    4.23
   1  -3 -17  105.52    3.90
  -1  -3  17  102.64    4.92
   1   3  17   98.01    4.70
  -1   3 -17  106.42    4.22
   2   3 -17    4.76    0.91
   2  -3  17    4.16    1.16
  -2   3  17    4.89    1.09
   2   3  17    4.51    1.06
   2  -3 -17    3.59    0.77
   3  -3  17   19.03    2.21
  -3   3  17   17.51    1.98
   3   3 -17   24.55    1.75
   3  -3 -17   20.58    1.56
   3   3  17   19.73    2.05
   4   3 -17    2.23    0.83
   4  -3  17   -1.29    1.04
  -4   3  17   -0.67    0.90
   4   3  17    0.89    0.98
  -5   3  17    6.87    1.33
   5   3 -17    6.53    1.12
   5  -3  17    7.64    1.62
   5  -3 -17    7.04    1.03
   5   3  17    7.43    1.41
   6  -3  17    1.71    1.41
   6   3 -17    1.42    0.97
  -6   3  17   -0.25    1.17
   6   3  17    3.17    1.30
  -6  -3  17    1.33    0.94
   6  -3 -17    2.05    0.96
  -6  -3  17    1.98    1.29
  -7   3  17    9.25    1.74
   7  -3  17    7.31    1.80
   7   3 -17   11.68    1.57
   7   3  17    9.69    1.83
  -7  -3  17   11.61    1.66
   7  -3 -17    9.91    1.43
  -7  -3  17   11.28    1.23
   8  -3  17    6.81    1.93
  -8   3  17    6.93    1.83
   8   3 -17    6.50    1.45
   8  -3 -17    5.03    1.30
   8   3  17    6.28    1.93
   0   4  17   11.38    1.66
   0  -4 -17    9.96    1.11
   0  -4  17   11.17    1.59
   0   4 -17   10.51    1.31
   0   4  17   10.50    1.26
  -1   4  17   27.24    2.21
   1  -4  17   27.91    2.40
  -1   4  17   25.68    2.04
   1   4 -17   29.96    1.86
   1  -4 -17   29.54    1.67
  -1  -4  17   27.81    2.36
   1   4  17   28.28    2.06
  -1   4 -17   31.42    1.87
   1   4  17   28.14    2.19
   2  -4  17    0.25    0.99
   2   4 -17    1.73    0.73
  -2   4  17    0.86    0.87
   2  -4 -17    0.09    0.62
   2   4  17   -1.33    0.82
   2   4  17   -0.31    0.94
   3  -4  17    1.38    1.07
   3   4 -17    0.37    0.69
  -3   4  17    2.02    0.94
   3  -4 -17    0.33    0.67
   3   4  17    0.70    0.93
   4   4 -17    7.55    1.13
   4  -4  17    8.07    1.50
  -4   4  17    8.69    1.39
   4   4  17    9.13    1.41
  -4  -4  17    7.66    1.45
  -5   4  17    1.28    1.05
   5  -4  17    0.90    1.25
   5   4 -17    0.99    0.86
  -5  -4  17    2.60    1.21
  -5  -4  17    1.43    0.98
   5  -4 -17    1.48    0.83
   5   4  17    0.68    1.06
   6   4 -17   15.40    1.93
  -6   4  17   10.16    1.62
   6  -4  17   13.06    1.96
  -6  -4  17   11.43    1.66
   6  -4 -17   14.85    1.76
   6   4  17   12.13    1.81
  -6  -4  17   15.88    1.74
   7  -4  17   20.40    2.98
   7   4 -17   21.82    2.28
  -7   4  17   14.42    1.96
   7  -4 -17   22.54    2.15
   7   4  17   16.59    2.20
  -7  -4  17   16.80    1.91
  -7  -4  17   22.75    2.34
   8  -4  17   -2.25    1.72
   8   4 -17    2.08    1.29
  -8   4  17    1.18    1.63
   8  -4 -17    2.35    1.32
   8   4  17   -1.80    1.75
   0  -5 -17   -0.03    0.54
   0   5 -17   -0.01    0.60
   0   5  17    0.12    0.92
   0  -5  17   -0.86    0.94
   0   5  17   -0.42    0.81
   1   5 -17  103.07    4.01
   1  -5  17  101.06    4.76
  -1   5  17  101.38    4.58
  -1   5  17   95.89    3.91
   1   5  17  103.90    4.58
  -1   5 -17   99.19    3.95
   1   5  17   97.43    3.93
  -1  -5  17  101.54    4.69
   1  -5 -17  100.64    3.70
  -2   5  17    1.75    1.02
   2  -5  17   -0.51    1.03
  -2   5  17    2.25    0.92
   2   5 -17    1.43    0.81
   2  -5 -17    0.63    0.66
   2   5  17    0.33    0.88
   2   5  17   -0.04    0.97
   3  -5  17   -0.33    1.08
   3   5 -17    2.66    0.87
  -3   5  17    0.81    0.91
   3   5  17    1.03    0.93
   3  -5 -17    2.01    0.72
   4  -5  17    1.65    1.23
  -4   5  17    1.63    1.03
   4   5 -17    1.83    0.81
   4   5  17    1.56    1.04
  -4  -5  17    4.13    1.16
   4  -5 -17    2.04    0.83
   5   5 -17   19.56    1.96
  -5   5  17   16.75    2.16
   5  -5  17   20.74    2.56
   5   5  17   16.05    2.19
   5  -5 -17   15.28    1.68
  -5  -5  17   19.38    2.17
   6   5 -17    0.27    1.03
  -6   5  17   -1.02    1.14
   6  -5  17    0.22    1.40
   6   5  17    2.54    1.34
   6  -5 -17    0.79    0.93
  -6  -5  17   -1.34    1.15
  -7   5  17   23.01    2.69
   7   5 -17   27.67    2.51
   7  -5  17   25.69    3.18
   7   5  17   24.48    3.04
   7  -5 -17   26.84    2.30
  -8   5  17    3.86    1.68
   8   5 -17    2.82    1.40
   8  -5  17    3.35    1.87
   8   5  17    3.22    1.86
   8  -5 -17    4.07    1.36
   0  -6  17    2.61    1.08
   0   6  17    0.48    0.82
   0   6 -17    1.18    0.69
   0   6  17    1.32    0.90
   0  -6 -17    1.02    0.58
   1  -6  17    0.74    1.05
  -1   6  17    1.24    0.86
  -1   6  17    0.97    0.89
   1   6 -17    0.35    0.69
   1   6  17    0.06    0.83
  -1   6 -17    1.33    0.70
  -1  -6  17    0.11    1.04
   1  -6 -17    0.83    0.62
   1   6  17    0.09    0.92
  -2   6  17    8.16    1.17
   2  -6  17    5.73    1.32
   2   6 -17    8.90    1.18
  -2   6  17   11.15    1.62
   2  -6 -17    7.10    0.92
   2   6  17    7.45    1.27
   2   6  17    9.11    1.20
   3   6 -17   -0.53    0.73
   3  -6  17   -0.59    1.13
  -3   6  17   -0.31    0.84
   3   6  17    0.26    0.98
  -3  -6  17    0.54    1.08
   3  -6 -17    1.35    0.70
   3   6  17    0.73    1.15
   4  -6  17    3.61    1.34
   4   6 -17    6.62    1.15
  -4   6  17    5.05    1.26
  -4  -6  17    3.81    1.22
  -4  -6  17    4.71    1.07
   4   6  17    4.02    1.21
   4  -6 -17    4.40    0.93
  -5   6  17    1.23    1.13
   5  -6  17    2.87    1.47
   5   6 -17    2.70    1.05
  -5  -6  17    3.16    1.04
  -5  -6  17    1.56    1.21
   5   6  17    5.16    1.33
   5  -6 -17    1.20    0.92
   6   6 -17    0.95    1.10
   6  -6  17    0.63    1.51
  -6   6  17    1.81    1.22
  -6  -6  17    2.34    1.18
   6  -6 -17    1.14    0.98
  -6  -6  17    1.67    1.07
   6   6  17   -0.21    1.30
  -7   6  17    4.27    1.51
   7   6 -17    6.79    1.43
   7  -6  17    5.87    1.86
   7  -6 -17    5.52    1.29
  -7  -6  17    6.30    1.31
   7   6  17    7.41    1.77
   0   7  17    0.71    0.93
   0   7  17    0.06    0.84
   0  -7  17   -0.28    1.03
   0   7 -17    0.13    0.74
  -1   7  17  100.90    4.55
   1   7 -17   99.97    4.02
   1  -7  17   97.82    4.72
  -1   7  17   92.42    3.77
   1   7  17   97.60    4.49
  -1   7 -17   98.94    3.99
  -1  -7  17  102.34    4.65
   1   7  17   90.21    3.77
   1  -7 -17  104.79    3.60
  -2   7  17    1.61    0.99
  -2   7  17    0.19    0.89
   2  -7  17   -0.85    1.12
   2   7 -17    1.01    0.75
   2   7  17   -0.01    0.99
   2   7  17    0.61    0.92
   2  -7 -17   -0.11    0.63
   3   7 -17    0.45    0.82
   3  -7  17   -0.44    1.20
  -3   7  17    0.07    1.01
  -3   7  17   -0.40    0.92
  -3  -7  17   -0.90    1.09
   3   7  17    1.55    1.08
  -3  -7  17    0.40    0.89
   3   7  17    0.69    0.95
   3  -7 -17   -0.83    0.68
  -4   7  17   22.72    2.25
   4   7 -17   21.23    2.01
   4  -7  17   21.82    2.61
  -4  -7  17   21.51    1.91
  -4  -7  17   18.80    2.17
   4  -7 -17   20.32    1.69
   4   7  17   22.32    2.23
  -5   7  17    5.02    1.30
   5  -7  17    3.10    1.54
   5   7 -17    4.14    1.20
   5   7  17    6.14    1.41
  -5  -7  17    7.09    1.25
  -5  -7  17    5.57    1.26
   5  -7 -17    7.19    1.13
   6   7 -17   -2.19    1.06
   6  -7  17    0.37    1.52
  -6   7  17    0.42    1.26
   6  -7 -17    0.82    1.01
   6   7  17   -1.81    1.29
  -6  -7  17    3.58    1.13
  -7   7  17    3.14    1.53
   7  -7  17    4.76    1.96
   7   7 -17    2.80    1.31
  -7  -7  17    4.19    1.32
   7   7  17    2.83    1.76
   7  -7 -17    3.42    1.27
   0  -8  17    7.14    1.37
   0   8 -17    7.52    1.08
   0   8  17    8.34    1.11
   0   8  17    9.73    1.41
   1   8 -17   12.75    1.57
  -1   8  17   12.65    1.59
  -1   8  17   14.85    1.86
   1  -8  17   12.87    1.69
  -1  -8  17   15.74    2.14
   1  -8 -17   14.89    1.22
   1   8  17   12.62    1.80
  -1   8 -17   12.77    1.54
   1   8  17   14.24    1.37
   2  -8  17   -0.21    1.21
  -2   8  17   -1.16    0.89
   2   8 -17   -0.06    0.83
  -2   8  17    0.11    0.92
   2   8  17   -1.71    1.00
  -2  -8  17    2.09    0.98
   2   8  17   -0.31    0.95
   2  -8 -17    0.44    0.66
  -3   8  17    3.88    1.11
  -3   8  17    3.81    1.14
   3  -8  17    3.28    1.35
   3   8 -17    2.57    0.98
  -3  -8  17    2.71    1.05
   3  -8 -17    3.27    0.82
   3   8  17    3.24    1.09
  -3  -8  17    4.05    1.21
   4  -8  17    0.46    1.36
  -4   8  17    3.16    1.13
   4   8 -17    0.93    0.95
  -4  -8  17   -0.48    1.03
  -4  -8  17    0.25    1.16
   4  -8 -17    1.78    0.91
   4   8  17    2.01    1.17
   5  -8  17   -0.41    1.45
   5   8 -17    0.46    1.07
  -5   8  17    1.06    1.17
  -5  -8  17    0.13    1.09
   5   8  17   -0.53    1.25
  -6   8  17    7.59    1.60
   6  -8  17    5.63    1.80
   6   8 -17    4.70    1.30
   6  -8 -17    6.94    1.23
   6   8  17    5.15    1.61
  -6  -8  17    5.44    1.37
   0   9 -17   -1.03    0.79
   0  -9  17   -0.44    0.91
   0   9  17   -0.82    0.88
   0  -9  17    0.04    1.17
   1  -9  17    8.40    1.55
   1   9 -17    8.19    1.25
  -1   9  17   10.19    1.48
   1   9  17    9.60    1.42
  -1  -9  17    7.46    1.31
  -1  -9  17    8.63    1.43
   2   9 -17   -1.43    0.85
   2  -9  17   -0.54    1.20
  -2   9  17   -0.50    0.90
   2   9  17    0.65    0.97
   2  -9 -17    0.06    0.66
  -2  -9  17   -0.74    0.97
   3  -9  17   33.42    3.02
  -3   9  17   33.93    2.64
   3   9 -17   32.92    2.33
   3  -9 -17   35.38    1.91
  -3  -9  17   31.77    2.36
   3   9  17   34.92    2.61
  -3  -9  17   31.09    2.57
   4  -9  17    1.69    1.51
  -4   9  17   -1.55    1.09
   4   9 -17    1.77    1.07
   4  -9 -17    1.63    0.89
  -4  -9  17   -0.07    1.09
  -4  -9  17    0.62    1.13
   4   9  17    0.50    1.15
   5  -9  17   48.21    3.90
  -5   9  17   58.32    3.61
   5   9 -17   60.26    3.30
  -5  -9  17   58.33    3.15
   5   9  17   59.92    3.60
  -6   9  17    3.27    1.48
   6  -9  17    4.02    1.89
   6   9 -17    5.58    1.43
  -6  -9  17    5.37    1.40
   6   9  17    6.62    1.71
   6  -9 -17    4.11    1.22
   0 -10  17    2.39    1.30
   0  10 -17    2.37    0.94
   0 -10  17    4.17    1.24
   0  10  17    1.40    1.08
   1 -10  17   24.16    2.31
   1 -10  17   31.29    2.70
   1  10 -17   23.70    2.03
  -1  10  17   23.68    2.33
  -1 -10  17   28.08    2.31
  -1 -10  17   23.46    2.48
   1  10  17   26.69    2.34
   2 -10  17   -1.75    1.07
   2 -10  17    1.78    1.38
  -2  10  17    1.30    1.03
   2  10 -17   -0.44    0.89
  -2 -10  17    2.35    1.12
   2 -10 -17    1.35    0.71
   2  10  17    0.70    1.06
   3 -10  17   14.18    1.96
   3  10 -17   17.46    2.00
  -3  10  17   15.42    2.19
  -3 -10  17   15.97    1.79
   3 -10 -17   17.49    1.48
  -3 -10  17   14.96    2.17
   3  10  17   16.77    2.20
   4 -10  17    7.43    1.76
  -4  10  17    3.77    1.31
   4  10 -17    5.23    1.29
  -4 -10  17    6.56    1.36
   4  10  17    4.86    1.39
   4 -10 -17    6.19    1.01
   5 -10  17   -2.70    1.65
   5  10 -17    1.90    1.33
  -5  10  17    0.29    1.30
  -5 -10  17    1.89    1.35
   5 -10 -17    1.31    1.14
   5  10  17   -0.31    1.43
   0 -11  17    1.04    1.36
   0  11 -17   -0.48    0.94
   0 -11  17    0.20    1.20
   0  11  17    0.27    1.06
   1  11 -17   -0.03    0.99
  -1  11  17   -0.66    1.09
   1 -11  17   -1.38    1.13
   1 -11  17    1.19    1.38
   1  11  17   -0.78    1.04
  -1 -11  17    1.00    1.17
  -1 -11  17   -0.63    1.32
   2 -11  17   17.33    2.32
  -2  11  17   23.26    2.45
   2 -11  17   26.60    2.91
   2  11 -17   22.90    2.12
   2  11  17   27.17    2.42
  -2 -11  17   23.86    2.30
  -2 -11  17   24.52    2.51
  -3  11  17   30.95    2.72
   3  11 -17   30.27    2.41
   3 -11  17   25.74    2.57
   3 -11  17   29.11    3.16
  -3 -11  17   32.80    2.57
   3  11  17   30.89    2.69
   4 -11  17    4.00    1.47
  -4  11  17    4.24    1.42
   4 -11  17    5.47    1.74
   4  11 -17    5.15    1.35
  -4 -11  17    4.90    1.46
   4  11  17    6.46    1.61
   0 -12  17    9.99    1.68
   0  12  17    7.87    1.44
   0 -12  17    8.85    1.59
   1 -12  17    1.76    1.26
  -1  12  17    1.35    1.22
   1  12 -17    1.96    1.06
   1 -12  17    4.09    1.57
   1  12  17    0.58    1.19
  -1 -12  17    0.93    1.38
  -1 -12  17    3.69    1.38
   2 -12  17    2.94    1.64
   2  12 -17    0.22    1.09
   2 -12  17    2.76    1.40
  -2  12  17    0.53    1.29
  -2 -12  17   -0.40    1.29
   2  12  17    0.70    1.27
   3  12 -17    3.15    1.23
   3 -12  17    3.88    1.77
  -3  12  17    5.02    1.47
   3 -12  17    2.97    1.47
  -3 -12  17    1.87    1.37
   3  12  17    3.82    1.51
   0 -13  17   -1.50    1.38
   0  13  17    1.41    1.33
   0 -13  17    3.21    1.60
   0   0  18   40.75    2.80
   1   0  18    3.85    1.17
  -1   0 -18    4.46    0.94
  -1   0  18    4.29    1.23
   1   0 -18    3.81    0.84
   2   0 -18   17.67    1.56
   2   0  18   21.40    2.24
  -2   0  18   20.41    2.21
   3   0  18    3.57    1.22
   3   0 -18    2.71    0.81
  -3   0  18    0.84    1.09
  -4   0 -18   23.29    1.99
   4   0  18   28.75    2.65
  -4   0  18   33.69    2.60
   4   0 -18   27.07    1.95
   5   0  18    1.97    1.28
  -5   0  18   -0.36    1.17
  -5   0 -18    0.44    0.90
   5   0 -18    0.40    0.92
  -6   0  18   16.40    2.45
   6   0  18   12.73    1.99
   6   0 -18   18.67    1.93
   7   0 -18    0.92    1.15
  -7   0  18    2.48    1.07
  -7   0  18    1.42    1.48
   7   0  18    1.15    1.65
  -8   0  18   82.52    4.62
   8   0  18   79.02    5.07
   8   0 -18   87.97    4.19
   0   1  18    0.30    0.90
   0   1 -18   -1.50    0.60
   0  -1  18    0.90    0.97
   1   1 -18   -0.64    0.63
  -1   1  18   -1.11    0.88
   1  -1  18    0.23    0.92
  -1  -1  18    1.05    0.98
  -1   1 -18    0.52    0.67
   1   1  18    0.21    0.91
   2   1 -18    0.01    0.62
   2  -1  18   -0.96    0.97
  -2   1  18    0.07    0.96
   2   1  18   -0.23    0.97
   2  -1 -18    0.26    0.68
  -2  -1  18   -0.75    0.91
  -3  -1 -18    9.72    1.46
   3   1 -18    8.90    1.10
   3  -1  18    8.45    1.55
  -3   1  18   13.03    1.98
   3   1  18    7.48    1.44
   3  -1 -18   11.31    1.40
  -3  -1  18    9.85    1.51
  -4   1  18    5.95    1.34
   4   1 -18    4.88    1.01
   4  -1  18    5.36    1.36
  -4  -1  18    6.36    1.31
   4   1  18    4.07    1.29
   4  -1 -18    5.25    0.99
   5   1 -18   20.14    1.92
  -5   1  18   20.10    2.37
   5  -1  18   22.93    2.72
  -5  -1  18   18.89    2.35
   5  -1 -18   19.74    1.86
   5   1  18   15.65    2.39
   6  -1  18    6.21    1.73
  -6   1  18    5.10    1.52
   6   1 -18    6.00    1.24
   6  -1 -18    6.63    1.24
  -6  -1  18    6.17    1.49
   6   1  18    6.82    1.67
   7   1 -18    3.84    1.24
  -7   1  18    2.64    1.55
   7  -1  18    3.58    1.77
  -7  -1  18    3.03    1.54
   7   1  18    5.11    1.80
  -7  -1  18    3.87    1.13
   7  -1 -18    3.78    1.18
   8   1 -18    5.19    1.44
  -8   1  18    3.02    1.74
   8  -1  18    2.16    1.98
  -8  -1  18    7.66    1.81
   8   1  18    3.00    2.00
   8  -1 -18    5.90    1.42
   0   2 -18   28.23    1.85
   0  -2 -18   29.12    1.78
   0   2  18   29.93    2.37
  -1  -2 -18    0.61    0.65
   1   2 -18    0.68    0.70
   1  -2  18   -0.46    0.94
  -1   2  18    1.09    0.93
   1  -2 -18    1.39    0.73
  -1   2 -18    0.35    0.65
   1   2  18    0.09    0.96
  -1  -2  18    0.38    1.00
  -2   2  18   74.26    4.00
   2  -2  18   88.97    4.24
   2   2 -18   77.25    3.38
  -2  -2  18   81.47    4.12
   2   2  18   76.10    4.02
  -3   2  18    4.73    1.31
   3  -2  18    5.59    1.36
   3   2 -18    7.01    1.11
  -3  -2  18    3.81    1.20
   3  -2 -18    5.43    0.95
   3   2  18    4.27    1.24
  -4   2  18    2.45    1.16
   4   2 -18    3.49    0.93
   4  -2  18    4.14    1.36
  -4  -2  18    4.44    1.18
   4   2  18    2.79    1.27
   4  -2 -18    3.17    0.85
   5  -2  18    1.25    1.29
   5   2 -18    1.04    0.99
  -5   2  18   -0.62    1.14
   5   2  18    1.34    1.28
   5  -2 -18    0.53    0.89
  -5  -2  18    3.62    1.19
  -6   2  18   -0.87    1.23
   6  -2  18    1.65    1.52
   6   2 -18    2.43    1.10
  -6  -2  18    1.14    1.33
   6  -2 -18    2.63    1.04
  -6  -2  18    0.09    1.08
   6   2  18    3.31    1.57
  -7   2  18    2.73    1.56
   7  -2  18    6.16    1.86
   7   2 -18    6.89    1.40
  -7  -2  18    2.69    1.16
   7  -2 -18    3.51    1.24
  -7  -2  18    6.03    1.64
   7   2  18    0.98    1.68
  -8   2  18   22.07    3.29
   8   2 -18   25.32    2.73
   8  -2  18   25.03    3.70
   8  -2 -18   28.70    2.69
   8   2  18   29.08    3.62
   0   3  18   -1.63    0.88
   0  -3 -18   -0.36    0.60
   0  -3  18   -1.20    0.96
   0   3 -18    0.49    0.70
   1   3 -18  120.41    4.72
   1  -3  18  135.01    5.76
  -1   3  18  119.15    5.52
  -1   3 -18  124.22    4.72
   1   3  18  130.69    5.58
  -1  -3  18  125.03    5.60
   1  -3 -18  131.74    4.61
   2   3 -18    1.55    0.68
  -2   3  18   -0.07    0.96
   2  -3  18    2.73    1.21
  -2  -3  18    1.43    1.08
   2   3  18    0.78    0.98
   3  -3  18    7.61    1.52
  -3   3  18    7.99    1.39
   3   3 -18    9.92    1.27
   3   3  18    8.02    1.40
  -3  -3  18    9.96    1.57
   3  -3 -18   10.45    1.34
  -4   3  18    0.39    1.08
   4  -3  18   -0.39    1.30
   4   3 -18    1.50    0.88
   4   3  18    3.89    1.27
   4  -3 -18    3.35    0.86
  -4  -3  18    3.42    1.27
   5  -3  18   31.53    3.00
  -5   3  18   27.68    2.70
   5   3 -18   27.88    2.27
  -5  -3  18   36.13    2.85
   5   3  18   32.47    2.86
   5  -3 -18   34.12    2.20
   6   3 -18    6.26    1.29
  -6   3  18    8.81    1.69
   6  -3  18    6.41    1.66
  -6  -3  18    6.91    1.53
  -6  -3  18    7.54    1.30
   6  -3 -18    7.28    1.28
   6   3  18    6.12    1.58
  -7   3  18    7.70    1.72
   7   3 -18    5.02    1.37
   7  -3  18    4.49    1.81
   7   3  18    2.04    1.80
  -7  -3  18    4.73    1.24
  -7  -3  18    6.17    1.78
   7  -3 -18    7.55    1.34
   0  -4 -18    1.53    0.67
   0  -4  18    1.29    1.07
   0   4 -18    0.84    0.71
   0   4  18    0.98    0.94
   1   4 -18    5.75    0.99
  -1   4  18    5.92    1.22
   1  -4  18    5.04    1.35
  -1   4 -18    5.33    0.92
   1   4  18    6.05    1.29
   1  -4 -18    3.09    0.75
  -1  -4  18    3.59    1.18
   2   4 -18   19.73    1.75
  -2   4  18   21.44    2.21
   2  -4  18   21.73    2.48
   2   4  18   21.28    2.18
   2  -4 -18   24.03    1.68
  -2  -4  18   27.22    2.40
   3   4 -18    1.13    0.81
  -3   4  18    2.22    1.10
   3  -4  18    0.33    1.15
   3   4  18    3.35    1.12
  -3  -4  18    3.40    1.27
   4   4 -18   41.62    2.52
  -4   4  18   44.97    3.02
   4  -4  18   44.31    3.27
   4   4  18   38.58    2.98
  -4  -4  18   46.68    3.11
   4  -4 -18   41.28    2.31
   5  -4  18    0.08    1.38
   5   4 -18    0.85    0.99
  -5   4  18    0.87    1.13
   5  -4 -18    0.69    0.95
  -5  -4  18   -0.77    1.30
  -5  -4  18    0.30    1.01
   5   4  18   -0.44    1.23
   6   4 -18   13.53    1.69
  -6   4  18   16.87    2.56
   6  -4  18   15.25    2.18
  -6  -4  18   20.22    1.97
   6  -4 -18   19.09    1.97
   6   4  18   18.86    2.80
   7   4 -18   12.05    1.72
  -7   4  18   13.57    2.10
   7  -4  18    9.98    2.10
   7   4  18   13.25    2.18
  -7  -4  18   14.13    1.56
   7  -4 -18   11.00    1.54
   0  -5 -18    0.71    0.65
   0   5  18   -0.53    0.87
   0  -5  18   -0.04    1.05
   0   5 -18   -0.47    0.69
  -1   5  18   -1.09    0.86
   1  -5  18   -0.69    1.08
   1   5 -18   -0.39    0.70
  -1   5 -18   -0.09    0.72
   1   5  18   -0.12    0.95
  -1  -5  18    0.35    1.07
   1  -5 -18   -0.06    0.68
   2  -5  18    2.10    1.21
  -2   5  18    1.60    1.01
   2   5 -18    1.60    0.76
   2  -5 -18    0.50    0.75
  -2  -5  18    3.12    1.25
   2   5  18    1.51    1.10
   3   5 -18    1.02    0.85
   3  -5  18   -0.57    1.26
  -3   5  18    2.98    1.12
  -3  -5  18    1.32    1.20
   3   5  18    2.10    1.07
  -4   5  18    1.28    1.09
   4  -5  18    1.68    1.30
   4   5 -18    2.76    1.02
   4   5  18    3.00    1.27
   4  -5 -18    1.36    0.87
  -4  -5  18    3.92    1.30
   5  -5  18   32.20    3.22
  -5   5  18   34.25    2.90
   5   5 -18   36.43    2.54
  -5  -5  18   33.82    2.30
   5   5  18   32.36    2.91
   5  -5 -18   37.13    2.30
   6  -5  18    1.92    1.57
   6   5 -18   -0.16    1.13
  -6   5  18   -2.08    1.25
   6   5  18    0.08    1.41
   6  -5 -18    0.04    1.04
  -6  -5  18   -1.18    1.40
  -6  -5  18    0.46    1.11
   7   5 -18    0.28    1.28
  -7   5  18   -1.23    1.49
   7  -5  18    2.65    1.94
   7   5  18   -0.59    1.75
  -7  -5  18   -1.27    1.22
   7  -5 -18   -1.61    1.21
   0   6  18   13.74    1.54
   0  -6  18   14.51    1.81
   0   6 -18   16.13    1.63
   0   6  18   15.49    1.93
   1   6 -18    5.71    1.04
  -1   6  18    3.35    1.08
   1  -6  18    5.05    1.35
   1  -6 -18    4.64    0.85
  -1   6 -18    3.83    0.90
   1   6  18    4.78    1.17
  -1  -6  18    4.73    1.31
  -2   6  18   17.27    2.04
   2   6 -18   18.86    1.76
   2  -6  18   12.36    1.83
   2   6  18   15.21    2.12
   2  -6 -18   18.19    1.51
  -2  -6  18   16.09    2.26
   3   6 -18   13.39    1.70
  -3   6  18   10.26    1.59
   3  -6  18   10.35    1.67
   3  -6 -18   12.09    1.47
   3   6  18   10.00    1.52
  -3  -6  18   11.15    1.62
   4  -6  18  150.35    6.69
  -4   6  18  141.82    6.39
   4   6 -18  152.00    5.66
  -4  -6  18  137.53    6.27
   4  -6 -18  139.26    5.25
   4   6  18  146.31    6.28
  -4  -6  18  160.37    5.55
  -5   6  18   -0.28    1.22
   5   6 -18    1.40    1.05
   5  -6  18   -1.35    1.44
   5   6  18    0.71    1.32
  -5  -6  18    0.37    1.39
  -5  -6  18   -1.38    1.04
   5  -6 -18    2.76    1.02
   6   6 -18   41.92    2.98
   6  -6  18   45.09    3.90
  -6   6  18   46.45    3.46
   6   6  18   41.89    3.44
  -6  -6  18   43.41    2.70
   6  -6 -18   47.81    2.76
  -7   6  18   -0.48    1.47
   7  -6  18    1.36    1.93
   7   6 -18   -1.02    1.40
   7  -6 -18    2.23    1.32
  -7  -6  18    0.59    1.37
   7   6  18    0.82    1.85
   0   7 -18   -0.46    0.79
   0   7  18    0.18    1.08
   0   7  18    0.21    0.95
   0  -7  18    0.84    1.25
   1  -7  18   12.25    1.72
  -1   7  18   11.90    1.63
  -1   7  18   13.07    1.43
   1   7 -18   15.10    1.71
   1   7  18   10.23    1.53
   1   7  18   14.54    1.93
  -1   7 -18   13.28    1.62
  -1  -7  18   11.71    1.65
   1  -7 -18   10.08    1.07
  -2   7  18    5.29    1.21
   2   7 -18    3.92    1.04
   2  -7  18    3.92    1.41
  -2  -7  18    5.74    1.35
   2  -7 -18    5.70    0.93
   2   7  18    6.33    1.30
   2   7  18    4.03    1.29
  -3   7  18    5.03    1.32
   3  -7  18    7.46    1.60
   3   7 -18    3.68    1.11
  -3  -7  18    6.22    1.41
   3  -7 -18    3.10    0.92
  -3  -7  18    3.45    1.10
   3   7  18    2.37    1.29
   4   7 -18    6.46    1.29
  -4   7  18    8.30    1.54
   4  -7  18    3.99    1.67
  -4  -7  18    7.07    1.29
   4   7  18    5.87    1.57
   4  -7 -18    6.49    1.06
   5  -7  18   44.06    3.78
   5   7 -18   46.60    2.94
  -5   7  18   46.78    3.35
   5  -7 -18   52.16    2.60
  -5  -7  18   49.47    2.81
   5   7  18   41.80    3.35
  -5  -7  18   42.79    3.09
   6  -7  18    6.14    1.97
   6   7 -18    7.24    1.48
  -6   7  18    7.75    1.77
   6  -7 -18    8.99    1.34
   6   7  18    6.40    1.76
  -6  -7  18   11.66    1.55
   0  -8  18   19.40    2.52
   0   8  18   15.92    2.06
   0   8 -18   16.66    1.79
   1   8 -18   -0.15    0.84
   1  -8  18    1.84    1.30
  -1   8  18    0.97    1.08
  -1  -8  18   -0.93    1.20
   1  -8 -18    1.70    0.73
   1   8  18    0.78    1.08
  -2   8  18   16.92    2.21
   2  -8  18   13.98    1.92
   2   8 -18   13.26    1.56
   2  -8 -18   15.84    1.45
   2   8  18   14.61    2.13
  -2  -8  18   15.08    1.69
  -2  -8  18   13.06    1.69
   3   8 -18   -0.88    0.97
   3  -8  18    2.24    1.46
  -3   8  18    1.07    1.14
   3   8  18    0.24    1.14
  -3  -8  18    2.24    1.32
  -3  -8  18    1.80    1.22
   3  -8 -18    2.91    0.92
   4   8 -18   66.20    3.34
   4  -8  18   60.69    4.16
  -4   8  18   61.62    3.76
  -4  -8  18   66.50    3.32
  -4  -8  18   60.91    3.54
   4   8  18   64.72    3.81
   5  -8  18    3.41    1.79
   5   8 -18    1.16    1.15
  -5   8  18    3.41    1.39
  -5  -8  18   -0.69    1.22
   5  -8 -18    1.56    1.08
   5   8  18    0.42    1.43
   6   8 -18   41.53    3.03
  -6   8  18   40.87    3.44
   6  -8  18   32.23    3.97
   6   8  18   47.69    3.60
  -6  -8  18   36.91    2.92
   6  -8 -18   40.48    2.71
   0   9  18    1.06    1.09
   0  -9  18    2.07    1.38
   0   9 -18    0.73    0.91
   1   9 -18   24.35    2.11
   1  -9  18   27.72    2.83
  -1   9  18   24.21    2.43
   1   9  18   22.24    2.31
  -1  -9  18   23.94    2.29
  -1  -9  18   22.20    2.59
  -2   9  18    2.20    1.19
   2   9 -18    6.73    1.22
   2  -9  18   -0.08    1.45
  -2  -9  18    3.17    1.39
  -2  -9  18    4.29    1.33
   2  -9 -18    2.68    0.83
   2   9  18    3.95    1.33
   3   9 -18    0.86    1.02
  -3   9  18    2.08    1.24
   3  -9  18    4.12    1.63
  -3  -9  18    1.66    1.24
   3  -9 -18    3.35    0.94
   3   9  18    1.70    1.32
   4  -9  18    2.24    1.70
  -4   9  18    1.38    1.31
   4   9 -18    0.81    1.18
  -4  -9  18    0.86    1.26
   4   9  18    1.52    1.36
   4  -9 -18    2.83    1.07
   5  -9  18    7.33    2.00
   5   9 -18   13.42    1.73
  -5   9  18   10.71    1.92
   5  -9 -18   11.67    1.38
   5   9  18    9.67    1.96
  -5  -9  18   12.09    1.67
   0 -10  18   -0.08    1.14
   0  10 -18    1.76    1.04
   0 -10  18    0.55    1.43
   0  10  18    2.64    1.18
   1 -10  18    0.64    1.26
   1 -10  18    0.74    1.44
   1  10 -18    0.59    0.97
  -1  10  18    0.33    1.19
  -1 -10  18    1.05    1.24
   1  10  18    2.08    1.26
  -1 -10  18    3.22    1.47
  -2  10  18    8.37    1.57
   2 -10  18    3.79    1.33
   2  10 -18    5.53    1.21
   2 -10  18    7.15    1.69
   2  10  18    6.03    1.51
  -2 -10  18    9.73    1.55
  -2 -10  18    9.57    1.57
  -3  10  18    0.79    1.30
   3  10 -18    0.02    1.16
   3 -10  18   -1.07    1.57
  -3 -10  18    1.36    1.50
   3  10  18    1.44    1.37
  -3 -10  18    0.49    1.23
   4  10 -18   14.48    1.80
   4 -10  18   11.16    2.12
  -4  10  18   11.23    1.80
   4  10  18   10.07    1.90
  -4 -10  18   17.66    2.39
   0 -11  18    1.67    1.52
   0  11 -18    0.31    1.05
   0 -11  18   -2.44    1.26
   1  11 -18    0.52    1.04
  -1  11  18    1.36    1.36
   1 -11  18    1.36    1.37
   1 -11  18   -0.42    1.63
  -1 -11  18    2.09    1.49
  -1 -11  18    2.21    1.35
   1  11  18    1.14    1.30
  -2  11  18    3.07    1.33
   2  11 -18    2.99    1.22
   2 -11  18    0.89    1.36
   2 -11  18   -0.50    1.67
  -2 -11  18    0.74    1.31
  -2 -11  18    1.83    1.49
   2  11  18    1.41    1.35
   3 -11  18    1.56    1.79
   3 -11  18    1.38    1.49
  -3  11  18    3.23    1.51
   3  11 -18    3.06    1.25
  -3 -11  18    4.78    1.41
   3  11  18    3.03    1.48
   0 -12  18   45.02    3.18
   0 -12  18   44.79    3.52
   0  12  18   41.11    3.22
  -1  12  18    6.52    1.66
   1  12 -18    4.37    1.29
   1 -12  18    7.71    1.69
  -1 -12  18   11.09    1.75
   1  12  18    8.03    1.69
   0   0  19    0.71    1.15
   0   0 -19   -0.24    0.71
   1   0  19   -1.22    1.07
  -1   0  19    1.50    1.13
  -1   0 -19    0.58    0.72
   1   0 -19    0.83    0.71
  -2   0  19   -0.99    1.09
   2   0 -19   -0.67    0.70
   2   0  19    1.37    1.18
  -3   0  19   -0.41    1.17
   3   0 -19    0.42    0.78
   3   0  19    0.51    1.22
   4   0 -19    0.09    0.91
   4   0  19    1.39    1.32
  -4   0  19    1.75    1.22
   5   0 -19    0.36    0.98
   5   0  19    1.23    1.52
  -5   0  19    1.60    1.42
   6   0  19    0.53    1.68
   6   0 -19    0.67    1.11
  -6   0  19    0.39    1.45
   7   0  19    4.64    1.98
   7   0 -19    0.70    1.26
  -7   0  19    0.20    1.67
   0  -1 -19   -0.57    0.70
   0   1 -19   -0.45    0.66
   0   1  19    0.20    1.04
   0  -1  19   -0.86    1.04
  -1   1  19   98.21    4.90
  -1  -1 -19  105.06    3.98
   1  -1  19  103.44    5.04
   1   1 -19  102.61    4.05
   1  -1 -19  104.12    4.01
  -1  -1  19  102.97    4.97
   1   1  19  104.43    4.98
  -1   1 -19  100.43    4.02
   2  -1  19    5.93    1.45
  -2   1  19    6.52    1.46
   2   1 -19    4.14    0.89
   2   1  19    6.07    1.42
   2  -1 -19    6.29    1.01
  -2  -1  19    4.22    1.33
   3   1 -19   12.21    1.50
   3  -1  19    7.43    1.59
  -3   1  19    8.95    1.58
   3   1  19    8.00    1.55
  -3  -1  19    6.26    1.48
   3  -1 -19   11.56    1.43
   4   1 -19    5.86    1.17
  -4   1  19    4.48    1.37
   4  -1  19    7.27    1.63
   4  -1 -19    5.32    1.08
   4   1  19    3.96    1.51
  -4  -1  19    6.55    1.44
  -5   1  19   17.76    2.65
   5   1 -19   13.47    1.55
   5  -1  19   14.90    2.14
   5   1  19   12.87    1.98
  -5  -1  19   13.73    1.96
   5  -1 -19   18.03    1.92
  -6   1  19   10.68    1.93
   6   1 -19   11.33    1.56
   6  -1  19    6.33    1.90
   6   1  19   12.18    2.06
   6  -1 -19    7.77    1.41
  -6  -1  19   10.36    1.77
  -7   1  19   18.43    2.36
   7   1 -19   20.34    2.48
   7  -1  19   26.13    3.58
   7  -1 -19   23.51    2.47
   7   1  19   24.76    3.52
  -7  -1  19   20.71    2.47
   0  -2 -19   56.88    2.58
   0  -2  19   57.11    3.51
   0   2 -19   52.18    2.65
   0   2  19   52.83    3.41
   1   2 -19    5.04    0.98
  -1   2  19    5.12    1.36
   1  -2  19    5.30    1.35
   1  -2 -19    5.21    0.90
  -1   2 -19    5.36    0.96
  -1  -2  19    8.19    1.48
   1   2  19    1.95    1.15
  -2   2  19    7.86    1.46
   2  -2  19    6.47    1.50
   2   2 -19    8.72    1.14
   2   2  19    5.97    1.38
   2  -2 -19    5.56    0.98
  -2  -2  19    6.27    1.44
   3  -2  19   44.19    3.32
  -3   2  19   42.72    3.08
   3   2 -19   46.01    2.51
   3   2  19   49.39    3.33
  -3  -2  19   45.76    3.18
   3  -2 -19   40.81    2.34
   4   2 -19   14.46    1.61
  -4   2  19   14.61    1.87
   4  -2  19   13.64    2.01
  -4  -2  19   12.86    1.84
   4   2  19   12.16    1.87
   4  -2 -19   11.63    1.38
  -5   2  19   19.93    2.66
   5   2 -19   16.40    2.10
   5  -2  19   18.90    2.37
  -5  -2  19   19.85    2.65
   5   2  19   17.94    2.74
   5  -2 -19   18.30    2.05
  -6   2  19    3.62    1.57
   6   2 -19    8.34    1.39
   6  -2  19    4.48    1.83
   6  -2 -19    4.82    1.27
  -6  -2  19    6.91    1.36
  -6  -2  19    5.76    1.74
   6   2  19    8.17    1.85
  -7   2  19    0.21    1.77
   7  -2  19    2.27    2.01
   7   2 -19    2.02    1.29
   7  -2 -19    0.24    1.31
  -7  -2  19   -0.20    1.71
   7   2  19   -1.82    1.89
   0  -3  19    1.12    1.16
   0  -3 -19    0.65    0.72
   0   3 -19   -0.44    0.74
   0   3  19    1.60    1.07
   1  -3  19   59.00    3.74
  -1   3  19   56.61    3.54
   1   3 -19   57.99    2.84
   1   3  19   51.95    3.45
  -1   3 -19   60.77    2.85
  -1  -3  19   62.10    3.68
   1  -3 -19   60.07    2.73
   2   3 -19    2.16    0.82
  -2   3  19    3.05    1.20
   2  -3  19    0.70    1.31
   2   3  19    2.71    1.16
   2  -3 -19    1.98    0.82
  -2  -3  19    2.39    1.24
   3  -3  19   25.52    2.85
  -3   3  19   27.38    2.67
   3   3 -19   30.08    2.08
  -3  -3  19   29.53    2.80
   3   3  19   24.35    2.58
   3  -3 -19   26.17    1.91
   4   3 -19    2.19    1.02
   4  -3  19   -0.87    1.42
  -4   3  19    3.07    1.37
   4   3  19    2.21    1.34
  -4  -3  19    0.86    1.36
   4  -3 -19    1.52    0.96
   5  -3  19   33.29    3.37
  -5   3  19   31.18    3.08
   5   3 -19   32.23    2.49
   5   3  19   32.08    3.10
  -5  -3  19   35.16    3.03
   5  -3 -19   34.46    2.36
   6  -3  19    1.45    1.75
   6   3 -19    0.28    1.18
  -6   3  19   -0.16    1.56
  -6  -3  19    0.38    1.19
  -6  -3  19   -0.18    1.58
   6  -3 -19   -1.68    1.16
   6   3  19    0.22    1.61
   7  -3  19   24.35    3.71
   7   3 -19   22.14    2.65
  -7   3  19   22.66    3.23
   7   3  19   22.78    3.48
  -7  -3  19   21.26    2.35
   7  -3 -19   23.17    2.48
  -7  -3  19   21.89    2.26
   0   4  19   16.07    2.24
   0  -4  19   18.06    2.45
   0   4 -19   16.49    1.68
   1  -4  19    0.35    1.26
   1   4 -19    0.87    0.83
  -1   4  19   -1.25    1.04
   1   4  19    2.11    1.17
   1  -4 -19    0.86    0.79
  -1  -4  19    2.25    1.30
  -1   4 -19    2.66    0.84
   2  -4  19    1.82    1.39
   2   4 -19    1.80    0.88
  -2   4  19    2.53    1.21
   2   4  19    2.72    1.26
   2  -4 -19    3.11    0.92
  -2  -4  19   -1.09    1.23
   3   4 -19    4.72    1.00
  -3   4  19    4.66    1.38
   3  -4  19    2.24    1.42
   3   4  19    4.45    1.37
  -3  -4  19    4.72    1.49
   3  -4 -19    5.39    0.99
  -4   4  19    4.95    1.45
   4  -4  19    6.60    1.66
   4   4 -19    3.66    1.10
  -4  -4  19    5.78    1.51
   4   4  19    6.99    1.57
   4  -4 -19    2.82    0.96
  -5   4  19    0.05    1.44
   5  -4  19    3.40    1.67
   5   4 -19    2.19    1.09
  -5  -4  19    1.29    1.46
  -5  -4  19    1.61    1.11
   5   4  19    0.47    1.56
   5  -4 -19    0.66    1.02
   6  -4  19    0.10    1.74
   6   4 -19    1.54    1.24
  -6   4  19    5.22    1.71
  -6  -4  19    3.70    1.24
   6   4  19   -0.63    1.65
   6  -4 -19    1.55    1.20
  -6  -4  19    0.96    1.58
   0  -5  19    1.91    1.30
   0   5 -19   -0.37    0.78
   0   5  19    0.18    1.04
   1   5 -19    1.29    0.84
   1  -5  19    2.53    1.36
  -1   5  19    1.04    1.10
  -1  -5  19    1.56    1.29
   1   5  19    0.32    1.07
  -1   5 -19   -0.41    0.78
  -2   5  19    0.81    1.08
   2   5 -19    2.75    0.99
   2  -5  19    0.14    1.31
   2   5  19    1.07    1.19
  -2  -5  19   -2.54    1.25
   2  -5 -19    0.64    0.79
  -3   5  19   34.03    2.81
   3   5 -19   29.20    2.26
   3  -5  19   30.50    3.18
  -3  -5  19   37.71    2.92
   3   5  19   34.82    2.88
   3  -5 -19   33.22    2.08
  -4   5  19   11.43    1.85
   4   5 -19   10.44    1.47
   4  -5  19   11.22    1.94
  -4  -5  19   11.16    1.69
   4   5  19    9.72    1.75
   4  -5 -19   13.92    1.71
   5   5 -19   99.10    4.41
   5  -5  19   93.95    5.35
  -5   5  19   98.32    5.11
  -5  -5  19   94.86    4.15
   5  -5 -19  100.56    4.13
   5   5  19   94.51    5.07
  -5  -5  19  108.04    4.88
   6   5 -19   -1.46    1.22
   6  -5  19   -0.52    1.73
  -6   5  19    3.35    1.58
  -6  -5  19    1.28    1.25
  -6  -5  19   -2.23    1.54
   6  -5 -19   -1.79    1.19
   6   5  19    3.25    1.78
   0  -6  19    1.17    1.32
   0   6 -19    2.29    0.92
   0   6  19    1.22    1.17
   1   6 -19    1.91    0.94
  -1   6  19    0.27    1.11
   1  -6  19   -0.26    1.33
   1  -6 -19    0.58    0.75
  -1  -6  19   -1.80    1.30
  -1   6 -19    0.69    0.81
   1   6  19   -0.37    1.13
   2  -6  19    3.07    1.44
   2   6 -19    4.68    1.06
  -2   6  19    3.72    1.26
  -2  -6  19    4.25    1.48
   2   6  19    4.10    1.32
   3   6 -19   -0.24    1.00
   3  -6  19   -1.10    1.46
  -3   6  19    0.50    1.16
   3   6  19    0.09    1.25
   3  -6 -19    0.01    0.86
  -3  -6  19   -1.13    1.34
   4   6 -19   17.51    2.10
  -4   6  19   17.81    2.42
   4  -6  19   15.80    2.19
   4   6  19   18.81    2.65
  -4  -6  19   15.57    1.90
   4  -6 -19   18.62    1.82
  -4  -6  19   18.88    2.10
   5  -6  19   -0.66    1.70
  -5   6  19    4.60    1.45
   5   6 -19    1.37    1.19
  -5  -6  19    0.51    1.53
   5  -6 -19    2.18    1.15
  -5  -6  19    2.42    1.28
   5   6  19    3.52    1.63
  -6   6  19   11.24    2.03
   6   6 -19    7.15    1.58
   6  -6  19   10.81    2.29
   6   6  19   13.51    2.15
   6  -6 -19    8.09    1.49
  -6  -6  19    5.32    1.45
   0  -7  19    2.08    1.45
   0   7  19   -1.80    1.08
   0   7 -19    0.45    0.86
  -1   7  19    1.01    1.20
   1  -7  19    3.46    1.43
   1   7 -19    0.64    0.93
   1  -7 -19    1.31    0.81
  -1  -7  19    3.49    1.44
   1   7  19    1.07    1.19
   2   7 -19    1.99    1.14
   2  -7  19    3.18    1.52
  -2   7  19    0.58    1.19
   2   7  19    0.18    1.22
  -2  -7  19   -1.43    1.34
   3   7 -19    9.09    1.38
   3  -7  19   11.87    1.92
  -3   7  19    7.48    1.57
  -3  -7  19   12.63    1.56
  -3  -7  19    8.95    1.67
   3  -7 -19    9.90    1.21
   3   7  19    8.27    1.62
   4   7 -19    2.57    1.14
   4  -7  19   -0.67    1.64
  -4   7  19    0.90    1.35
   4   7  19   -0.97    1.40
  -4  -7  19    1.27    1.50
   4  -7 -19   -0.37    0.97
  -4  -7  19   -0.78    1.19
   5   7 -19  112.87    4.93
  -5   7  19  110.05    5.60
   5  -7  19  113.52    5.96
   5  -7 -19  120.38    4.57
  -5  -7  19  115.33    4.72
   5   7  19  104.33    5.57
   0   8  19    2.95    1.28
   0   8 -19    4.69    1.13
   0  -8  19    6.95    1.64
   1  -8  19    1.11    1.57
   1   8 -19    2.08    1.04
  -1   8  19    1.12    1.24
  -1  -8  19    1.69    1.48
   1   8  19    3.69    1.34
   2   8 -19    0.62    1.02
  -2   8  19    0.90    1.25
   2  -8  19    2.51    1.60
  -2  -8  19    0.26    1.20
   2  -8 -19    2.14    0.92
   2   8  19    1.37    1.32
  -2  -8  19    2.74    1.53
   3   8 -19   21.64    2.22
  -3   8  19   19.69    2.59
   3  -8  19   30.21    3.22
   3   8  19   19.99    2.74
  -3  -8  19   21.04    2.35
  -3  -8  19   21.81    2.71
  -4   8  19   18.88    2.67
   4   8 -19   19.38    2.32
   4  -8  19   16.39    2.29
  -4  -8  19   23.39    2.37
   4   8  19   16.60    2.31
  -4  -8  19   18.71    2.73
   4  -8 -19   22.94    1.98
   5  -8  19    5.65    2.05
  -5   8  19    3.29    1.73
   5   8 -19    3.61    1.41
   5   8  19    8.23    1.92
   5  -8 -19    7.47    1.36
  -5  -8  19    7.87    1.58
   0   9 -19   -1.32    1.02
   0  -9  19   -0.43    1.56
   0   9  19   -0.32    1.23
   1  -9  19    7.25    1.76
  -1   9  19    6.14    1.56
   1   9 -19    7.15    1.34
  -1  -9  19    6.08    1.49
   1   9  19    4.62    1.48
  -1  -9  19    6.69    1.68
   2   9 -19   -1.26    1.08
   2  -9  19    1.02    1.59
  -2   9  19   -0.33    1.29
   2  -9 -19    2.42    0.95
   2   9  19   -1.87    1.25
  -2  -9  19    0.03    1.26
  -2  -9  19    0.10    1.53
  -3   9  19    8.34    1.74
   3  -9  19   10.51    2.00
   3   9 -19    9.72    1.59
  -3  -9  19   11.73    1.80
   3   9  19   11.19    1.87
   3  -9 -19   11.18    1.32
  -3  -9  19   12.23    1.73
   4  -9  19    3.97    2.00
   4   9 -19    2.26    1.32
  -4   9  19    4.04    1.64
  -4  -9  19    0.57    1.42
   4   9  19    4.82    1.67
   4  -9 -19    3.29    1.23
   0 -10  19    4.09    1.40
   0 -10  19    0.74    1.67
   0  10 -19    1.63    1.15
   0  10  19    2.00    1.42
   1 -10  19    6.81    1.85
  -1  10  19    8.16    1.68
   1 -10  19    9.97    1.74
   1  10 -19   10.37    1.48
  -1 -10  19    9.56    1.77
  -1 -10  19    6.84    1.57
   1  10  19    4.29    1.56
   2 -10  19    9.50    1.97
   2  10 -19    9.69    1.56
   2 -10  19    7.11    1.57
  -2  10  19    7.90    1.65
  -2 -10  19    9.15    1.82
   2  10  19    6.78    1.66
  -2 -10  19   10.77    1.71
   3 -10  19    3.92    1.91
  -3  10  19    1.88    1.54
   3  10 -19    0.69    1.31
   3  10  19    1.99    1.54
  -3 -10  19    2.52    1.48
   0 -11  19    2.40    1.80
   0  11  19   -1.31    1.42
   0 -11  19   -1.39    1.50
   0   0 -20    0.65    0.79
   0   0  20    1.80    1.32
   1   0  20   -1.10    1.23
   1   0 -20    0.19    0.83
  -1   0 -20    1.97    0.81
  -1   0  20    2.78    1.34
  -2   0  20   34.78    2.93
   2   0  20   25.04    2.90
   2   0 -20   30.23    2.12
   3   0  20    1.17    1.45
   3   0 -20   -1.04    0.88
  -3   0  20    1.04    1.32
  -4   0  20   45.50    3.57
   4   0 -20   49.63    2.85
   4   0  20   55.72    3.81
   5   0  20    0.50    1.68
   5   0 -20    3.19    1.18
  -5   0  20    2.51    1.65
   6   0 -20   80.34    3.91
   6   0  20   82.49    5.03
  -6   0  20   70.24    4.58
   0  -1  20    0.95    1.30
   0   1 -20    1.85    0.87
   0   1  20    0.29    1.25
   0  -1 -20   -0.47    0.73
  -1   1  20    1.18    1.30
   1  -1  20    3.24    1.40
   1   1 -20    1.69    0.92
   1   1  20    2.22    1.29
  -1   1 -20    0.95    0.82
  -1  -1  20    1.05    1.27
   1  -1 -20    1.15    0.83
  -2   1  20    2.70    1.38
   2   1 -20    2.21    0.96
   2  -1  20    1.04    1.40
  -2  -1  20    3.54    1.40
   2   1  20    1.02    1.34
   2  -1 -20    1.16    0.88
   3   1 -20    4.94    1.11
  -3   1  20    1.03    1.37
   3  -1  20    0.17    1.41
  -3  -1  20    4.70    1.53
   3   1  20    4.09    1.51
   3  -1 -20    4.15    0.98
  -4   1  20    6.86    1.70
   4  -1  20    5.28    1.75
   4   1 -20    4.24    1.20
   4   1  20    5.50    1.64
  -4  -1  20    9.10    1.72
   4  -1 -20    6.39    1.19
   5   1 -20   30.75    2.43
   5  -1  20   25.76    3.33
  -5   1  20   29.38    3.22
   5  -1 -20   26.26    2.28
  -5  -1  20   25.14    3.09
   5   1  20   20.41    3.18
  -6   1  20    4.62    1.86
   6  -1  20   -0.67    1.94
   6   1 -20    1.36    1.31
   6  -1 -20    0.55    1.26
   6   1  20   -0.95    1.82
  -6  -1  20    1.48    1.78
   0  -2 -20    1.93    0.82
   0   2  20    1.72    1.32
   0   2 -20    2.29    0.90
   0  -2  20    4.13    1.43
  -1   2  20    1.88    1.34
   1   2 -20    0.17    0.89
   1  -2  20   -0.38    1.27
   1  -2 -20    0.99    0.82
  -1  -2  20    2.60    1.35
  -1   2 -20    1.33    0.86
   1   2  20    0.57    1.26
  -2   2  20    6.86    1.58
   2  -2  20    6.60    1.72
   2   2 -20    7.19    1.15
   2   2  20    7.44    1.61
   2  -2 -20    8.00    1.15
  -2  -2  20    8.67    1.73
   3   2 -20    1.78    0.94
  -3   2  20    3.20    1.42
   3  -2  20    3.62    1.62
  -3  -2  20    5.07    1.51
   3  -2 -20    2.40    0.96
   3   2  20    1.50    1.45
   4  -2  20   28.95    3.26
   4   2 -20   29.16    2.32
  -4   2  20   31.64    3.07
   4   2  20   30.92    3.18
   4  -2 -20   28.12    2.21
  -4  -2  20   30.63    3.10
  -5   2  20   -0.46    1.53
   5  -2  20   -0.28    1.73
   5   2 -20    0.56    1.18
   5   2  20    3.68    1.64
  -5  -2  20    1.75    1.63
   5  -2 -20    0.83    1.09
   6   2 -20   14.27    1.80
  -6   2  20   15.44    2.42
   6  -2  20   14.38    2.42
   6   2  20   12.04    2.32
  -6  -2  20   16.00    2.27
   6  -2 -20   14.76    1.78
  -6  -2  20   15.06    1.73
   0   3 -20    1.53    0.85
   0   3  20    0.13    1.15
   0  -3 -20   -0.18    0.75
   0  -3  20   -1.06    1.35
   1   3 -20    3.96    1.04
   1  -3  20    3.05    1.45
  -1   3  20    2.82    1.28
  -1   3 -20    4.08    1.02
   1  -3 -20    2.58    0.92
   1   3  20    3.37    1.36
  -1  -3  20    5.67    1.47
  -2   3  20    9.09    1.68
   2  -3  20    8.82    1.83
   2   3 -20    8.36    1.24
  -2  -3  20   10.61    1.77
   2   3  20    9.84    1.77
   2  -3 -20    9.11    1.20
   3   3 -20    1.09    1.00
  -3   3  20    2.32    1.40
   3  -3  20   -0.15    1.46
   3   3  20   -0.25    1.37
  -3  -3  20    1.18    1.50
   3  -3 -20    0.78    0.92
  -4   3  20    3.37    1.59
   4  -3  20    3.00    1.69
   4   3 -20    2.59    1.14
  -4  -3  20    3.32    1.60
   4  -3 -20    3.64    1.14
   4   3  20    5.32    1.63
  -5   3  20   34.53    3.39
   5  -3  20   40.89    3.86
   5   3 -20   39.79    2.79
   5   3  20   38.49    3.68
  -5  -3  20   42.75    3.60
   5  -3 -20   38.11    2.65
   6  -3  20    7.43    2.17
  -6   3  20    6.29    1.92
   6   3 -20    6.38    1.49
   6  -3 -20    3.10    1.35
  -6  -3  20    5.69    1.48
  -6  -3  20    2.77    1.84
   6   3  20    1.70    1.94
   0  -4 -20  175.22    6.20
   0   4  20  186.14    7.67
   0   4 -20  185.21    6.54
   0  -4  20  175.68    7.68
   1  -4  20   20.61    2.79
  -1   4  20   20.02    2.62
   1   4 -20   21.96    2.02
   1  -4 -20   20.89    1.75
   1   4  20   20.37    2.52
  -1   4 -20   18.84    1.90
  -1  -4  20   21.05    2.81
   2   4 -20   57.27    2.99
  -2   4  20   56.00    3.69
   2  -4  20   57.45    3.92
   2  -4 -20   52.28    2.69
   2   4  20   49.56    3.66
  -2  -4  20   54.79    3.84
   3  -4  20    4.40    1.69
  -3   4  20    5.02    1.50
   3   4 -20    4.33    1.13
   3  -4 -20    7.28    1.18
   3   4  20    7.07    1.71
  -3  -4  20    4.64    1.64
   4  -4  20   12.35    2.19
  -4   4  20   19.92    2.81
   4   4 -20   14.16    1.60
  -4  -4  20   15.79    2.20
   4  -4 -20   17.27    1.91
   4   4  20   13.51    2.24
   5  -4  20    1.77    1.80
   5   4 -20   -0.72    1.19
  -5   4  20   -0.90    1.55
  -5  -4  20    0.57    1.33
   5  -4 -20    1.22    1.17
   5   4  20    1.40    1.70
  -5  -4  20   -3.05    1.67
   6  -4  20   11.51    2.48
  -6   4  20   12.90    2.30
   6   4 -20   13.00    1.82
   6  -4 -20   18.81    2.40
  -6  -4  20   14.90    2.20
   6   4  20   13.67    2.33
  -6  -4  20   12.46    1.66
   0  -5  20    2.01    1.46
   0   5 -20   -0.31    0.94
   0   5  20    0.67    1.30
  -1   5  20    8.26    1.60
   1   5 -20    9.79    1.37
   1  -5  20    6.38    1.72
   1  -5 -20   11.32    1.49
   1   5  20    8.15    1.78
  -1   5 -20    9.33    1.39
  -1  -5  20    8.82    1.74
   2  -5  20   24.56    3.03
   2   5 -20   20.09    2.09
  -2   5  20   21.29    2.60
   2  -5 -20   22.10    1.86
  -2  -5  20   21.90    2.77
   2   5  20   21.40    2.74
   3  -5  20   -2.75    1.54
   3   5 -20    0.78    1.06
  -3   5  20    0.09    1.36
   3   5  20    1.04    1.44
  -3  -5  20    2.71    1.52
   3  -5 -20    0.36    0.93
   4  -5  20    8.68    1.99
  -4   5  20    3.80    1.65
   4   5 -20    3.15    1.17
   4   5  20    1.88    1.59
  -4  -5  20    5.35    1.71
   4  -5 -20    5.66    1.18
   5   5 -20   -0.77    1.17
   5  -5  20   -1.04    1.80
  -5   5  20    0.05    1.58
  -5  -5  20    0.00    1.34
  -5  -5  20    4.17    1.76
   5   5  20    0.88    1.77
   5  -5 -20   -1.75    1.13
   0   6  20   80.39    4.34
   0   6 -20   78.22    3.58
   0  -6  20   67.81    4.38
   1  -6  20    3.25    1.61
   1   6 -20    0.71    1.01
  -1   6  20    2.85    1.35
   1   6  20    1.66    1.42
  -1  -6  20    2.50    1.52
   1  -6 -20    1.38    0.90
   2   6 -20   28.79    2.33
  -2   6  20   22.62    2.84
   2  -6  20   28.31    3.14
   2  -6 -20   31.49    2.02
   2   6  20   25.34    2.98
  -2  -6  20   29.10    3.13
   3   6 -20    8.60    1.46
  -3   6  20   12.41    1.98
   3  -6  20    8.23    1.99
  -3  -6  20    6.14    1.77
   3   6  20    8.64    1.78
   3  -6 -20   13.93    1.80
  -4   6  20    4.55    1.57
   4  -6  20    3.15    1.82
   4   6 -20    3.13    1.27
  -4  -6  20    3.64    1.75
   4  -6 -20    3.83    1.14
   4   6  20    0.70    1.58
  -4  -6  20    3.54    1.42
  -5   6  20    2.28    1.72
   5  -6  20   -1.69    1.87
   5   6 -20    0.03    1.31
  -5  -6  20    1.66    1.77
   5  -6 -20    1.67    1.27
  -5  -6  20    1.07    1.43
   5   6  20   -0.46    1.77
   0   7 -20   -0.28    1.04
   0  -7  20    2.24    1.57
   0   7  20   -2.53    1.28
  -1   7  20    9.03    1.74
   1  -7  20    7.05    1.78
   1   7 -20    4.05    1.12
   1   7  20    8.28    1.67
   1  -7 -20    5.65    1.02
  -1  -7  20    7.10    1.73
   2  -7  20    1.05    1.64
  -2   7  20    3.07    1.45
   2   7 -20    4.40    1.22
   2  -7 -20    2.81    1.01
  -2  -7  20    3.36    1.63
   2   7  20    5.33    1.56
   3   7 -20    1.12    1.17
  -3   7  20    1.07    1.41
   3  -7  20    3.86    1.77
   3   7  20    0.84    1.56
   3  -7 -20    3.30    1.11
  -3  -7  20    4.76    1.40
  -3  -7  20    0.32    1.63
   4   7 -20    1.38    1.23
   4  -7  20   -3.52    1.85
  -4   7  20    0.08    1.52
   4   7  20   -0.93    1.61
   4  -7 -20   -1.41    1.10
  -4  -7  20    2.44    1.69
  -4  -7  20    0.19    1.38
   0   8  20   51.11    3.55
   0   8 -20   45.78    2.91
   0  -8  20   47.17    3.79
   1   8 -20    2.82    1.19
   1  -8  20    1.29    1.73
  -1   8  20    3.61    1.51
   1   8  20    0.01    1.41
  -1  -8  20   -0.77    1.69
   2  -8  20    3.52    1.86
   2   8 -20    3.63    1.28
  -2   8  20    3.90    1.54
  -2  -8  20    3.88    1.72
   2   8  20    4.46    1.61
   2  -8 -20    2.89    1.05
  -2  -8  20    6.41    1.55
  -3   8  20   -0.38    1.45
   3  -8  20    3.35    1.85
   3   8 -20    0.50    1.29
   3   8  20    0.95    1.55
  -3  -8  20    1.51    1.39
   3  -8 -20    1.60    1.09
  -3  -8  20   -0.20    1.71
   0  -9  20    0.40    1.79
   0   9 -20    0.13    1.13
   0   9  20   -0.08    1.48
  -1   9  20   21.79    2.91
   1   9 -20   21.96    2.36
   1  -9  20   31.46    3.42
  -1  -9  20   21.51    2.61
  -1  -9  20   21.67    2.45
   1   9  20   23.40    2.93
  -2   9  20    9.30    1.91
   2  -9  20    6.16    1.96
   2   9 -20    9.97    1.58
   2   9  20   10.06    1.94
  -2  -9  20    9.15    1.71
  -2  -9  20    9.30    1.97
   0   0 -21   -1.24    0.85
   0   0  21    1.44    1.45
   1   0 -21    0.24    0.90
   1   0  21    1.61    1.49
  -1   0  21    0.19    1.49
   2   0  21    0.72    1.53
  -2   0  21   -1.06    1.42
   2   0 -21   -0.49    0.97
   3   0  21    1.79    1.67
  -3   0  21    2.53    1.60
   3   0 -21    0.48    1.00
   4   0  21    0.30    1.75
   4   0 -21    1.07    1.05
  -4   0  21    2.94    1.74
   5   0 -21    2.10    1.29
   5   0  21    0.72    1.97
  -5   0  21    4.18    1.89
   0  -1  21   -0.79    1.45
   0   1  21   -1.30    1.40
   0  -1 -21   -0.39    0.91
   0   1 -21    2.84    0.92
  -1   1  21    6.31    1.71
   1  -1  21    3.59    1.61
   1   1 -21    5.91    1.12
   1   1  21    2.34    1.59
  -1  -1  21    5.10    1.68
   1  -1 -21    6.14    1.18
   2   1 -21   25.43    2.20
  -2   1  21   24.02    2.97
   2  -1  21   20.77    3.03
   2   1  21   25.09    3.07
  -2  -1  21   25.18    3.00
   2  -1 -21   29.72    2.14
  -3   1  21   54.73    3.76
   3   1 -21   45.23    2.79
   3  -1  21   43.72    3.81
   3  -1 -21   52.73    2.84
  -3  -1  21   50.97    3.85
   3   1  21   44.94    3.84
   4  -1  21    6.29    1.98
  -4   1  21    3.90    1.73
   4   1 -21    4.87    1.19
   4   1  21    6.68    1.85
   4  -1 -21    5.23    1.23
  -4  -1  21    7.89    1.84
  -5   1  21   35.96    3.72
   5  -1  21   35.33    4.06
   5   1 -21   35.27    2.76
  -5  -1  21   42.10    3.80
   5   1  21   38.14    3.97
   5  -1 -21   40.08    2.82
   0  -2  21   -1.35    1.44
   0  -2 -21    1.21    0.89
   0   2 -21   -1.20    0.88
   0   2  21    0.54    1.39
   1  -2  21   22.41    2.97
   1   2 -21   21.17    2.03
  -1   2  21   21.94    2.87
   1   2  21   26.88    2.93
  -1  -2  21   24.41    3.06
   1  -2 -21   21.85    1.97
  -2   2  21   -0.49    1.45
   2  -2  21    0.63    1.65
   2   2 -21    0.53    1.02
   2   2  21    1.02    1.55
  -2  -2  21   -1.39    1.49
   2  -2 -21   -1.25    0.94
  -3   2  21    5.14    1.71
   3  -2  21    5.74    1.88
   3   2 -21    6.82    1.20
  -3  -2  21    7.41    1.91
   3  -2 -21    6.93    1.25
   3   2  21    3.75    1.71
   4  -2  21   17.27    2.52
   4   2 -21   19.81    2.18
  -4   2  21   14.39    2.27
   4   2  21   18.94    2.55
  -4  -2  21   17.06    2.35
   4  -2 -21   19.14    2.14
   5   2 -21    2.53    1.27
  -5   2  21    0.59    1.79
   5  -2  21   -1.51    1.96
   5   2  21   -0.49    1.84
  -5  -2  21   -0.15    1.90
   5  -2 -21   -1.56    1.20
   0   3 -21    0.79    0.95
   0  -3 -21    0.62    0.88
   0   3  21    0.71    1.46
   0  -3  21    0.10    1.59
  -1   3  21   11.54    2.01
   1   3 -21   16.00    1.95
   1  -3  21   13.88    2.19
   1  -3 -21   10.50    1.29
   1   3  21   11.16    1.97
   2  -3  21    3.93    1.78
   2   3 -21    5.32    1.21
  -2   3  21    6.94    1.78
  -2  -3  21    5.79    1.76
   2  -3 -21    6.76    1.19
   2   3  21    8.10    1.79
   3  -3  21   17.36    2.45
  -3   3  21   21.86    2.99
   3   3 -21   17.47    2.14
   3   3  21   16.56    2.33
   3  -3 -21   19.03    2.04
  -3  -3  21   19.05    2.41
  -4   3  21    2.69    1.64
   4   3 -21    2.54    1.21
   4  -3  21    2.29    1.94
  -4  -3  21    3.43    1.87
   4  -3 -21    3.47    1.20
   4   3  21    2.20    1.87
   5   3 -21   11.01    1.75
   5  -3  21    9.78    2.38
  -5   3  21   11.12    2.21
   5  -3 -21   13.25    1.68
  -5  -3  21   12.28    2.24
   5   3  21   13.14    2.34
   0  -4  21    6.42    1.80
   0   4 -21   10.70    1.40
   0   4  21    8.80    1.81
   1  -4  21    7.01    1.87
  -1   4  21    9.41    1.83
   1   4 -21    8.57    1.34
   1  -4 -21   12.93    1.70
   1   4  21    7.15    1.73
  -1  -4  21    3.60    1.76
   2  -4  21    3.64    1.78
  -2   4  21    2.53    1.53
   2   4 -21    3.44    1.11
   2  -4 -21    0.63    0.99
  -2  -4  21    4.08    1.70
   3  -4  21    5.47    1.87
   3   4 -21    5.66    1.27
  -3   4  21    6.46    1.87
   3  -4 -21    5.57    1.24
  -3  -4  21    4.91    1.87
   3   4  21    6.83    1.88
   4   4 -21    0.16    1.25
  -4   4  21    1.58    1.70
   4  -4  21    1.44    1.95
   4  -4 -21    0.10    1.15
  -4  -4  21    2.70    1.89
   4   4  21    0.52    1.73
   0   5  21   -1.97    1.43
   0   5 -21    0.68    1.00
   0  -5  21    1.49    1.66
   1  -5  21   27.98    3.46
  -1   5  21   40.16    3.38
   1   5 -21   30.74    2.41
  -1  -5  21   34.51    3.49
   1   5  21   32.38    3.22
   1  -5 -21   29.50    2.16
   2  -5  21    8.57    2.02
   2   5 -21    5.32    1.34
  -2   5  21    8.19    1.88
   2  -5 -21    9.04    1.32
  -2  -5  21    4.36    1.81
   2   5  21    8.45    1.88
   3  -5  21   28.89    3.53
   3   5 -21   29.41    2.49
  -3   5  21   24.26    3.26
   3  -5 -21   29.82    2.31
  -3  -5  21   25.51    3.37
   3   5  21   23.47    3.22
   4  -5  21    3.46    2.10
   4   5 -21    2.08    1.26
  -4   5  21    0.30    1.80
  -4  -5  21    2.04    1.93
   4  -5 -21    3.38    1.28
   4   5  21    1.72    1.75
   0   6  21    1.94    1.57
   0   6 -21    1.14    1.18
   0  -6  21    0.31    1.75
   1  -6  21    1.18    1.81
   1   6 -21   -0.38    1.09
  -1   6  21   -0.76    1.48
   1   6  21   -1.25    1.56
   1  -6 -21    0.37    0.99
  -1  -6  21    0.20    1.73
  -2   6  21    1.16    1.56
   2  -6  21   -1.50    1.76
   2   6 -21   -0.27    1.10
  -2  -6  21    3.17    1.83
   2  -6 -21    1.97    1.08
   2   6  21    1.46    1.64
  -3   6  21    4.89    1.76
   3  -6  21    2.96    2.01
   3   6 -21    1.86    1.26
  -3  -6  21    0.43    1.86
   3  -6 -21    1.00    1.15
   3   6  21    0.83    1.75
   0  -7  21    0.43    1.82
   0   7 -21   -1.28    1.10
   0   7  21   -0.12    1.52
  -1   7  21   31.46    3.47
   1   7 -21   36.96    2.78
   1  -7  21   43.27    3.82
   1   7  21   34.89    3.51
  -1  -7  21   41.75    3.79
   2   7 -21   23.76    2.50
   2  -7  21   20.39    2.59
  -2   7  21   16.08    2.40
  -2  -7  21   18.88    2.37
   2  -7 -21   21.50    2.00
   2   7  21   17.16    2.43
  -3   7  21   19.00    2.72
   3   7 -21   18.25    2.48
   3  -7 -21   16.70    2.14
   3   7  21   17.65    2.44
   0   8 -21   11.01    1.63
   0  -8  21   10.05    2.14
   0   8  21    9.77    1.94
  -1   8  21    0.90    1.61
   1  -8  21    1.87    2.01
   1   8 -21    3.27    1.32
  -1  -8  21    0.24    1.89
   1   8  21    1.66    1.76
   0   0 -22   45.67    2.70
   0   0  22   40.62    3.74
  -1   0  22   13.39    2.26
   1   0  22   10.34    2.11
   1   0 -22   10.62    1.40
  -2   0  22   14.29    2.29
   2   0  22   16.86    2.42
   2   0 -22   18.13    2.14
  -3   0  22   74.59    4.79
   3   0 -22   75.97    3.74
   3   0  22   73.67    4.97
  -4   0  22    0.78    1.96
   4   0  22   -3.13    2.03
   4   0 -22    4.80    1.35
   0   1  22    0.46    1.71
   0  -1 -22    1.05    1.05
   0  -1  22    1.21    1.74
   0   1 -22    0.57    1.01
  -1   1  22    0.47    1.66
   1  -1  22   -0.04    1.71
   1   1 -22    1.37    1.04
   1  -1 -22    0.22    1.03
   1   1  22   -0.06    1.67
  -1  -1  22    0.83    1.70
   2  -1  22    0.00    1.75
   2   1 -22    0.70    1.13
  -2   1  22    0.51    1.70
   2   1  22   -0.19    1.75
   2  -1 -22    0.85    1.14
  -2  -1  22   -0.57    1.78
  -3   1  22    1.79    1.81
   3   1 -22    3.36    1.25
   3  -1  22   -0.69    1.93
   3   1  22    0.77    1.80
   3  -1 -22   -0.29    1.17
  -3  -1  22    0.83    1.86
   4   1 -22    1.58    1.31
   4  -1  22    3.15    2.19
  -4   1  22    0.15    1.92
   4   1  22   -2.29    1.90
   4  -1 -22    0.76    1.27
  -4  -1  22    4.43    2.03
   0  -2  22   34.33    3.63
   0   2  22   37.40    3.53
   0  -2 -22   34.42    2.42
   0   2 -22   36.24    2.56
   1   2 -22    5.46    1.25
  -1   2  22    5.81    1.81
   1  -2  22    4.27    1.95
  -1  -2  22    3.57    1.99
   1   2  22    8.52    2.06
   1  -2 -22    6.93    1.30
  -2   2  22   43.92    4.02
   2  -2  22   61.48    4.51
   2   2 -22   56.64    3.10
   2  -2 -22   51.61    2.92
   2   2  22   50.14    4.03
  -2  -2  22   42.69    4.08
   3  -2  22    2.93    1.99
  -3   2  22   -0.19    1.81
   3   2 -22    2.92    1.32
   3   2  22   -1.65    1.83
  -3  -2  22    2.19    1.91
   3  -2 -22    3.13    1.29
   4   2 -22    5.86    1.52
  -4   2  22    8.05    2.21
   4  -2  22    7.31    2.38
   4   2  22    7.97    2.26
   4  -2 -22    5.30    1.42
  -4  -2  22   10.62    2.24
   0   3  22    2.14    1.68
   0  -3  22    2.59    1.89
   0   3 -22    2.17    1.15
   1  -3  22   -2.98    1.79
  -1   3  22   -0.91    1.66
   1   3 -22    0.79    1.14
   1  -3 -22   -0.01    1.02
  -1  -3  22   -2.22    1.80
   1   3  22    1.72    1.68
   2   3 -22   63.79    3.37
   2  -3  22   55.34    4.53
  -2   3  22   64.08    4.45
   2   3  22   51.39    4.16
  -2  -3  22   63.64    4.58
   2  -3 -22   63.36    3.23
  -3   3  22    7.12    2.06
   3   3 -22    6.09    1.42
   3  -3  22    2.11    2.15
   3  -3 -22    2.51    1.29
  -3  -3  22    1.64    2.00
   3   3  22    5.85    2.01
   0   4  22   39.47    3.75
   0  -4  22   43.70    4.03
   0   4 -22   44.01    2.81
   1  -4  22    3.70    1.90
  -1   4  22    5.18    1.80
   1   4 -22    2.91    1.18
   1  -4 -22    4.34    1.14
  -1  -4  22    1.72    1.93
   1   4  22    4.42    1.88
   2   4 -22    4.42    1.32
   2  -4  22    2.93    2.12
  -2   4  22    5.47    1.91
   2  -4 -22    3.60    1.30
   2   4  22    2.22    1.79
  -2  -4  22    5.88    2.12
   3  -4  22   19.71    2.84
   3   4 -22   32.59    2.78
  -3   4  22   24.52    3.60
  -3  -4  22   27.96    3.07
   3   4  22   29.49    3.70
   3  -4 -22   33.08    2.58
   0   5 -22    0.82    1.18
   0   5  22    0.11    1.70
   0  -5  22    5.04    1.97
  -1   5  22    8.50    2.08
   1  -5  22    4.13    2.10
   1   5 -22    8.64    1.45
   1   5  22   11.46    2.14
   1  -5 -22    8.16    1.29
  -1  -5  22    3.25    2.05
  -2   5  22   -0.36    1.86
   2  -5  22    0.12    2.04
   2   5 -22    1.21    1.31
   2   5  22    1.66    1.89
   2  -5 -22    2.61    1.20
  -2  -5  22   -0.59    1.95
   0   6 -22    1.54    1.21
   0  -6  22   -1.38    1.97
   0   6  22    2.46    1.93
  -1   6  22   29.75    3.69
   1  -6  22   38.25    3.98
   1   6 -22   32.99    2.74
   1   6  22   25.40    3.48
  -1  -6  22   23.43    2.83
   1  -6 -22   32.81    2.36
   0   0  23   -0.74    2.00
   0   0 -23    1.74    1.19
   1   0 -23    1.74    1.21
  -1   0  23   -2.24    1.92
   1   0  23   -1.64    2.01
   2   0 -23   -1.00    1.21
  -2   0  23    0.03    2.04
   2   0  23   -1.26    2.06
   0   1 -23    0.15    1.17
   0   1  23   -1.14    1.94
   0  -1 -23    2.67    1.20
   0  -1  23    2.05    1.99
   1   1 -23   16.29    2.21
  -1   1  23   11.33    2.45
   1  -1  23   11.06    2.40
   1  -1 -23   13.23    1.59
  -1  -1  23   10.91    2.45
   1   1  23   11.65    2.34
   2   1 -23    5.33    1.44
   2  -1  23    3.86    2.31
  -2   1  23    5.58    2.24
   2   1  23   12.23    2.48
  -2  -1  23    8.51    2.33
   2  -1 -23    7.63    1.44
   0   2 -23   17.54    2.30
   0   2  23   15.82    2.62
   0  -2  23   13.11    2.57
   1   2 -23    0.41    1.21
  -1   2  23    2.35    2.05
   1  -2  23    2.41    2.25
   1  -2 -23    0.53    1.16
   1   2  23    2.12    2.12
  -1  -2  23    2.45    2.07
   0  -3  23    0.34    2.22
   0   3 -23    1.88    1.32
   0   3  23    4.17    2.07
   0   0   0    0.00    0.00
;
_shelx_hkl_checksum              79941
loop_
_space_group_symop_operation_xyz
'x, y, z'
'-x+1/2, -y, z+1/2'
'-x, y+1/2, -z+1/2'
'x+1/2, -y+1/2, -z'
'-x, -y, -z'
'x-1/2, y, -z-1/2'
'x, -y-1/2, z-1/2'
'-x-1/2, y-1/2, z'
loop_
_atom_site_label
_atom_site_type_symbol
_atom_site_fract_x
_atom_site_fract_y
_atom_site_fract_z
_atom_site_U_iso_or_equiv
_atom_site_adp_type
_atom_site_occupancy
_atom_site_site_symmetry_order
_atom_site_calc_flag
_atom_site_refinement_flags_posn
_atom_site_refinement_flags_adp
_atom_site_refinement_flags_occupancy
_atom_site_disorder_assembly
_atom_site_disorder_group
Mn Mn 0.5000 0.0000 0.5000 0.00688(7) Uani 1 2 d S . P . .
S S 0.59906(3) 0.41415(2) 0.73160(2) 0.01073(8) Uani 1 1 d . . . . .
N1 N 0.37988(11) 0.41112(7) 0.62360(6) 0.00722(19) Uani 1 1 d . . . . .
N3 N 0.48945(11) 0.25915(8) 0.65141(6) 0.0080(2) Uani 1 1 d . . . . .
O1 O 0.43749(10) 0.12143(6) 0.57708(5) 0.01094(18) Uani 1 1 d . . . . .
O2 O 0.20035(10) 0.42553(7) 0.52821(6) 0.01234(19) Uani 1 1 d . . . . .
C2 C 0.48157(13) 0.35838(9) 0.66548(7) 0.0075(2) Uani 1 1 d . . . . .
C4 C 0.41196(13) 0.21183(9) 0.58790(7) 0.0080(2) Uani 1 1 d . . . . .
C5 C 0.31260(14) 0.26945(9) 0.54494(7) 0.0096(2) Uani 1 1 d . . . . .
H5 H 0.2599 0.2407 0.5031 0.012 Uiso 1 1 calc R U . . .
C6 C 0.28990(13) 0.36901(9) 0.56287(7) 0.0083(2) Uani 1 1 d . . . . .
C7 C 0.35961(14) 0.51806(9) 0.63958(8) 0.0100(2) Uani 1 1 d . . . . .
H7A H 0.3904 0.5326 0.6943 0.012 Uiso 1 1 calc R U . . .
H7B H 0.2565 0.5343 0.6351 0.012 Uiso 1 1 calc R U . . .
C8 C 0.44631(15) 0.58200(10) 0.58130(8) 0.0139(3) Uani 1 1 d . . . . .
H8A H 0.4302 0.6506 0.5937 0.017 Uiso 1 1 calc R U . . .
H8B H 0.5487 0.5671 0.5863 0.017 Uiso 1 1 calc R U . . .
H8C H 0.4148 0.5688 0.5271 0.017 Uiso 1 1 calc R U . . .
C9 C 0.57949(14) 0.19462(9) 0.70394(8) 0.0103(2) Uani 1 1 d . . . . .
H9A H 0.5322 0.1306 0.7088 0.012 Uiso 1 1 calc R U . . .
H9B H 0.5844 0.2236 0.7574 0.012 Uiso 1 1 calc R U . . .
C10 C 0.73388(14) 0.17985(10) 0.67231(8) 0.0142(3) Uani 1 1 d . . . . .
H10A H 0.7872 0.1376 0.7085 0.017 Uiso 1 1 calc R U . . .
H10B H 0.7299 0.1498 0.6199 0.017 Uiso 1 1 calc R U . . .
H10C H 0.7822 0.2428 0.6685 0.017 Uiso 1 1 calc R U . . .
O O 0.39676(11) 0.07128(7) 0.39390(6) 0.0147(2) Uani 1 1 d D . . . .
H1 H 0.4521(19) 0.0819(13) 0.3547(10) 0.018 Uiso 1 1 d D U . . .
H2 H 0.3130(18) 0.0624(12) 0.3754(10) 0.018 Uiso 1 1 d D U . . .
loop_
_atom_site_aniso_label
_atom_site_aniso_U_11
_atom_site_aniso_U_22
_atom_site_aniso_U_33
_atom_site_aniso_U_23
_atom_site_aniso_U_13
_atom_site_aniso_U_12
Mn 0.00711(12) 0.00551(12) 0.00801(12) 0.00019(9) 0.00117(9) -0.00013(9)
S 0.00995(14) 0.01198(15) 0.01025(15) -0.00283(11) -0.00335(11) -0.00063(11)
N1 0.0077(5) 0.0054(4) 0.0086(5) -0.0016(4) -0.0008(4) 0.0006(4)
N3 0.0089(5) 0.0067(5) 0.0084(5) 0.0006(4) -0.0009(4) 0.0007(4)
O1 0.0133(4) 0.0063(4) 0.0132(4) -0.0008(3) 0.0023(3) 0.0004(3)
O2 0.0102(4) 0.0121(4) 0.0147(4) -0.0006(3) -0.0041(4) 0.0036(3)
C2 0.0071(5) 0.0083(5) 0.0072(5) -0.0006(4) 0.0008(4) -0.0003(4)
C4 0.0077(5) 0.0087(5) 0.0077(5) -0.0012(4) 0.0022(4) -0.0019(4)
C5 0.0106(5) 0.0085(5) 0.0098(5) -0.0018(4) -0.0022(4) -0.0016(4)
C6 0.0065(5) 0.0106(6) 0.0078(5) -0.0002(4) -0.0002(4) -0.0006(4)
C7 0.0120(6) 0.0062(5) 0.0117(6) -0.0027(4) -0.0010(5) 0.0022(4)
C8 0.0156(6) 0.0086(6) 0.0175(7) 0.0004(5) -0.0005(5) -0.0008(5)
C9 0.0114(6) 0.0102(6) 0.0094(6) 0.0031(4) -0.0017(5) 0.0017(4)
C10 0.0108(6) 0.0145(6) 0.0172(6) 0.0029(5) -0.0005(5) 0.0035(5)
O 0.0120(5) 0.0194(5) 0.0125(5) 0.0040(4) -0.0008(4) 0.0016(4)
loop_
_atom_type_symbol
_atom_type_description
_atom_type_scat_dispersion_real
_atom_type_scat_dispersion_imag
_atom_type_scat_source
C C 0.0033 0.0016 'International Tables Vol C Tables 4.2.6.8 and 6.1.1.4'
H H 0.0000 0.0000 'International Tables Vol C Tables 4.2.6.8 and 6.1.1.4'
N N 0.0061 0.0033 'International Tables Vol C Tables 4.2.6.8 and 6.1.1.4'
O O 0.0106 0.0060 'International Tables Vol C Tables 4.2.6.8 and 6.1.1.4'
S S 0.1246 0.1234 'International Tables Vol C Tables 4.2.6.8 and 6.1.1.4'
Mn Mn 0.3368 0.7283 'International Tables Vol C Tables 4.2.6.8 and 6.1.1.4'
loop_
_geom_angle_atom_site_label_1
_geom_angle_atom_site_label_2
_geom_angle_atom_site_label_3
_geom_angle
_geom_angle_site_symmetry_1
_geom_angle_site_symmetry_3
O2 Mn O2 180.0 8_655 4_556
O2 Mn O1 90.10(3) 8_655 .
O2 Mn O1 89.90(3) 4_556 .
O2 Mn O1 89.90(3) 8_655 5_656
O2 Mn O1 90.10(3) 4_556 5_656
O1 Mn O1 180.00(3) . 5_656
O2 Mn O 90.78(4) 8_655 .
O2 Mn O 89.22(4) 4_556 .
O1 Mn O 91.54(4) . .
O1 Mn O 88.46(4) 5_656 .
O2 Mn O 89.22(4) 8_655 5_656
O2 Mn O 90.78(4) 4_556 5_656
O1 Mn O 88.46(4) . 5_656
O1 Mn O 91.54(4) 5_656 5_656
O Mn O 180.0 . 5_656
C2 N1 C6 123.20(10) . .
C2 N1 C7 120.33(10) . .
C6 N1 C7 116.47(10) . .
C2 N3 C4 122.90(10) . .
C2 N3 C9 120.51(10) . .
C4 N3 C9 116.58(10) . .
C4 O1 Mn 150.86(8) . .
C6 O2 Mn 160.26(9) . 4_456
N1 C2 N3 117.63(11) . .
N1 C2 S 121.67(9) . .
N3 C2 S 120.68(9) . .
O1 C4 C5 126.28(11) . .
O1 C4 N3 116.79(11) . .
C5 C4 N3 116.91(11) . .
C4 C5 C6 121.87(11) . .
C4 C5 H5 119.1 . .
C6 C5 H5 119.1 . .
O2 C6 C5 125.83(12) . .
O2 C6 N1 117.23(11) . .
C5 C6 N1 116.89(11) . .
N1 C7 C8 112.08(10) . .
N1 C7 H7A 109.2 . .
C8 C7 H7A 109.2 . .
N1 C7 H7B 109.2 . .
C8 C7 H7B 109.2 . .
H7A C7 H7B 107.9 . .
C7 C8 H8A 109.5 . .
C7 C8 H8B 109.5 . .
H8A C8 H8B 109.5 . .
C7 C8 H8C 109.5 . .
H8A C8 H8C 109.5 . .
H8B C8 H8C 109.5 . .
N3 C9 C10 112.96(10) . .
N3 C9 H9A 109.0 . .
C10 C9 H9A 109.0 . .
N3 C9 H9B 109.0 . .
C10 C9 H9B 109.0 . .
H9A C9 H9B 107.8 . .
C9 C10 H10A 109.5 . .
C9 C10 H10B 109.5 . .
H10A C10 H10B 109.5 . .
C9 C10 H10C 109.5 . .
H10A C10 H10C 109.5 . .
H10B C10 H10C 109.5 . .
Mn O H1 115.7(12) . .
Mn O H2 128.4(12) . .
H1 O H2 107.1(17) . .
loop_
_geom_bond_atom_site_label_1
_geom_bond_atom_site_label_2
_geom_bond_distance
_geom_bond_site_symmetry_2
Mn O2 2.1399(9) 8_655
Mn O2 2.1399(9) 4_556
Mn O1 2.1558(9) .
Mn O1 2.1559(9) 5_656
Mn O 2.2155(10) .
Mn O 2.2155(10) 5_656
S C2 1.7088(12) .
N1 C2 1.3608(15) .
N1 C6 1.4185(15) .
N1 C7 1.4802(15) .
N3 C2 1.3623(16) .
N3 C4 1.4203(15) .
N3 C9 1.4812(15) .
O1 C4 1.2561(15) .
O2 C6 1.2577(15) .
O2 Mn 2.1399(9) 4_456
C4 C5 1.3915(17) .
C5 C6 1.3927(17) .
C5 H5 0.9300 .
C7 C8 1.5185(18) .
C7 H7A 0.9700 .
C7 H7B 0.9700 .
C8 H8A 0.9600 .
C8 H8B 0.9600 .
C8 H8C 0.9600 .
C9 C10 1.5177(18) .
C9 H9A 0.9700 .
C9 H9B 0.9700 .
C10 H10A 0.9600 .
C10 H10B 0.9600 .
C10 H10C 0.9600 .
O H1 0.835(16) .
O H2 0.833(16) .
loop_
_geom_torsion_atom_site_label_1
_geom_torsion_atom_site_label_2
_geom_torsion_atom_site_label_3
_geom_torsion_atom_site_label_4
_geom_torsion
_geom_torsion_site_symmetry_1
_geom_torsion_site_symmetry_2
_geom_torsion_site_symmetry_3
_geom_torsion_site_symmetry_4
C6 N1 C2 N3 -4.37(17) . . . .
C7 N1 C2 N3 176.33(11) . . . .
C6 N1 C2 S 173.97(9) . . . .
C7 N1 C2 S -5.33(16) . . . .
C4 N3 C2 N1 9.11(17) . . . .
C9 N3 C2 N1 -169.83(11) . . . .
C4 N3 C2 S -169.25(9) . . . .
C9 N3 C2 S 11.81(16) . . . .
Mn O1 C4 C5 55.6(2) . . . .
Mn O1 C4 N3 -126.04(15) . . . .
C2 N3 C4 O1 174.37(11) . . . .
C9 N3 C4 O1 -6.65(15) . . . .
C2 N3 C4 C5 -7.11(17) . . . .
C9 N3 C4 C5 171.87(11) . . . .
O1 C4 C5 C6 178.54(12) . . . .
N3 C4 C5 C6 0.18(18) . . . .
Mn O2 C6 C5 86.6(3) 4_456 . . .
Mn O2 C6 N1 -96.0(3) 4_456 . . .
C4 C5 C6 O2 -178.45(12) . . . .
C4 C5 C6 N1 4.09(18) . . . .
C2 N1 C6 O2 -179.72(11) . . . .
C7 N1 C6 O2 -0.40(16) . . . .
C2 N1 C6 C5 -2.04(17) . . . .
C7 N1 C6 C5 177.28(11) . . . .
C2 N1 C7 C8 95.48(13) . . . .
C6 N1 C7 C8 -83.86(13) . . . .
C2 N3 C9 C10 -92.85(14) . . . .
C4 N3 C9 C10 88.14(13) . . . .
