#------------------------------------------------------------------------------
#$Date: 2017-07-25 13:21:53 +0300 (Tue, 25 Jul 2017) $
#$Revision: 199242 $
#$URL: file:///home/coder/svn-repositories/cod/cif/1/54/66/1546648.cif $
#------------------------------------------------------------------------------
#
# This file is available in the Crystallography Open Database (COD),
# http://www.crystallography.net/. The original data for this entry
# were provided by IUCr Journals, http://journals.iucr.org/.
#
# The file may be used within the scientific community so long as
# proper attribution is given to the journal article from which the
# data were obtained.
#
data_1546648
loop_
_publ_author_name
'Viswanathan, Vijayan'
'Yasmin, Sabina'
'Jayaprakash, Venkatesan'
'Velmurugan, Devadasan'
_publ_section_title
;
 <i>N</i>,<i>N</i>-Diethyl-2-[5-(4-methoxybenzylidene)-2,4-dioxo-1,3-thiazolidin-3-yl]acetamide
;
_journal_coeditor_code           HB4137
_journal_issue                   5
_journal_name_full               IUCrData
_journal_page_first              x170716
_journal_paper_doi               10.1107/S2414314617007167
_journal_volume                  2
_journal_year                    2017
_chemical_formula_iupac          'C17 H20 N2 O4 S'
_chemical_formula_moiety         'C17 H20 N2 O4 S'
_chemical_formula_sum            'C17 H20 N2 O4 S'
_chemical_formula_weight         348.41
_chemical_name_systematic
<i>N</i>,<i>N</i>-Diethyl-2-[5-(4-methoxybenzylidene)-2,4-dioxo-1,3-thiazolidin-3-yl]acetamide
_space_group_crystal_system      monoclinic
_space_group_IT_number           14
_space_group_name_Hall           '-P 2yn'
_space_group_name_H-M_alt        'P 1 21/n 1'
_symmetry_space_group_name_Hall  '-P 2yn'
_symmetry_space_group_name_H-M   'P 1 21/n 1'
_atom_sites_solution_hydrogens   geom
_audit_creation_method           SHELXL-2016/4
_cell_angle_alpha                90
_cell_angle_beta                 95.311(4)
_cell_angle_gamma                90
_cell_formula_units_Z            4
_cell_length_a                   11.6978(6)
_cell_length_b                   7.1331(4)
_cell_length_c                   21.1822(12)
_cell_measurement_reflns_used    4146
_cell_measurement_temperature    293(2)
_cell_measurement_theta_max      27.968
_cell_measurement_theta_min      1.917
_cell_volume                     1759.89(17)
_computing_cell_refinement
;
SAINT (Bruker, 2008)
;
_computing_data_collection
;
APEX2 (Bruker, 2008)
;
_computing_data_reduction
;
SAINT (Bruker, 2008)
;
_computing_molecular_graphics
;
SHELXTL (Sheldrick, 2008)
;
_computing_publication_material
;
SHELXL2016 (Sheldrick, 2015)
;
_computing_structure_refinement
;
SHELXL2016 (Sheldrick, 2015)
;
_computing_structure_solution
;
SHELXS (Sheldrick, 2008)
;
_diffrn_ambient_temperature      293(2)
_diffrn_measured_fraction_theta_full 0.995
_diffrn_measured_fraction_theta_max 0.978
_diffrn_measurement_device_type  'Bruker SMART APEXII CCD'
_diffrn_measurement_method       '\w and \f scans'
_diffrn_radiation_type           MoK\a
_diffrn_radiation_wavelength     0.71073
_diffrn_reflns_av_R_equivalents  0.0525
_diffrn_reflns_limit_h_max       11
_diffrn_reflns_limit_h_min       -15
_diffrn_reflns_limit_k_max       9
_diffrn_reflns_limit_k_min       -9
_diffrn_reflns_limit_l_max       24
_diffrn_reflns_limit_l_min       -27
_diffrn_reflns_number            12523
_diffrn_reflns_theta_full        25.242
_diffrn_reflns_theta_max         27.968
_diffrn_reflns_theta_min         1.917
_exptl_absorpt_coefficient_mu    0.207
_exptl_absorpt_correction_T_max  0.863
_exptl_absorpt_correction_T_min  0.752
_exptl_absorpt_correction_type   multi-scan
_exptl_absorpt_process_details
;
(<i>SADABS</i>; Bruker, 2008)
;
_exptl_crystal_colour            brown
_exptl_crystal_density_diffrn    1.315
_exptl_crystal_description       block
_exptl_crystal_F_000             736
_exptl_crystal_size_max          0.28
_exptl_crystal_size_mid          0.23
_exptl_crystal_size_min          0.17
_refine_diff_density_max         0.166
_refine_diff_density_min         -0.194
_refine_ls_extinction_method     none
_refine_ls_goodness_of_fit_ref   0.844
_refine_ls_hydrogen_treatment    constr
_refine_ls_matrix_type           full
_refine_ls_number_parameters     258
_refine_ls_number_reflns         4146
_refine_ls_number_restraints     56
_refine_ls_restrained_S_all      0.862
_refine_ls_R_factor_all          0.1993
_refine_ls_R_factor_gt           0.0541
_refine_ls_shift/su_max          0.000
_refine_ls_shift/su_mean         0.000
_refine_ls_structure_factor_coef Fsqd
_refine_ls_weighting_details
'w=1/[\s^2^(Fo^2^)+(0.1074P)^2^] where P=(Fo^2^+2Fc^2^)/3'
_refine_ls_weighting_scheme      calc
_refine_ls_wR_factor_gt          0.1379
_refine_ls_wR_factor_ref         0.2116
_reflns_number_gt                1342
_reflns_number_total             4146
_reflns_threshold_expression     'I > 2\s(I)'
_cod_data_source_file            hb4137sup1.cif
_cod_data_source_block           I
_cod_database_code               1546648
_shelx_space_group_comment
;
The symmetry employed for this shelxl refinement is uniquely defined
by the following loop, which should always be used as a source of
symmetry information in preference to the above space-group names.
They are only intended as comments.
;
_shelx_estimated_absorpt_t_min   0.944
_shelx_estimated_absorpt_t_max   0.966
_shelx_hkl_file
;
   1   0   0   -0.04    0.03
   1   0   0    0.00    0.03
  -1   0   0    0.00    0.02
  -1   0   0   -0.04    0.02
  -1   0   0   -0.02    0.03
  -1   0   0    0.00    0.03
  -2   0   0    4.83    0.21
   2   0   0    5.22    0.23
  -2   0   0    4.60    0.23
   2   0   0    4.29    0.23
  -2   0   0    4.67    0.23
  -2   0   0    4.58    0.22
   3   0   0   -0.50    0.14
  -3   0   0   -0.42    0.14
  -3   0   0   -0.15    0.15
   3   0   0   -0.25    0.14
  -3   0   0   -0.16    0.14
  -3   0   0   -0.31    0.09
  -4   0   0   57.59    1.88
  -4   0   0   58.02    2.12
  -4   0   0   60.87    2.00
  -4   0   0   59.47    2.01
  -4   0   0   55.95    3.65
   4   0   0   61.05    2.02
   4   0   0   59.23    2.00
  -5   0   0    0.00    0.14
  -5   0   0   -0.01    0.10
   5   0   0   -0.10    0.15
  -5   0   0   -0.14    0.14
  -5   0   0    0.12    0.14
   5   0   0   -0.27    0.13
  -6   0   0    1.65    0.26
   6   0   0    1.64    0.25
  -6   0   0    1.90    0.21
  -6   0   0    1.80    0.27
   6   0   0    1.63    0.27
  -6   0   0    1.28    0.24
  -7   0   0   -0.11    0.19
  -7   0   0   -0.49    0.18
   7   0   0   -0.05    0.21
  -7   0   0   -0.56    0.19
  -7   0   0   -0.43    0.17
   7   0   0    0.34    0.22
  -8   0   0   -0.16    0.23
   8   0   0   -0.21    0.23
  -8   0   0   -0.32    0.24
   8   0   0    0.07    0.25
  -9   0   0   -0.06    0.27
   9   0   0   -0.11    0.28
   9   0   0   -0.07    0.26
 -10   0   0    4.85    0.52
  10   0   0    6.00    0.54
 -11   0   0    0.14    0.31
 -12   0   0   -0.18    0.30
 -13   0   0   -0.12    0.36
 -14   0   0    0.00    0.37
 -15   0   0    0.64    0.51
   0   1   0   -0.03    0.05
  -1  -1   0   60.68    1.84
  -1  -1   0   59.21    1.98
   1   1   0   62.49    1.84
   1   1   0   59.88    2.19
  -2  -1   0  110.46    3.39
  -2  -1   0  114.81    3.67
  -2  -1   0  112.04    3.66
  -2   1   0  109.56    3.37
  -2   1   0  116.33    3.99
   2   1   0  107.85    3.65
   2   1   0  116.18    4.02
  -3  -1   0   68.70    2.11
   3  -1   0   65.36    2.23
  -3  -1   0   66.90    2.26
   3  -1   0   65.82    2.22
  -3  -1   0   69.25    2.28
  -3   1   0   66.52    2.08
   3   1   0   69.25    2.28
   3   1   0   68.84    2.46
   3   1   0   66.20    2.25
  -3   1   0   68.08    2.42
  -4  -1   0   11.09    0.52
   4  -1   0   11.07    0.47
  -4  -1   0   10.82    0.51
  -4  -1   0   11.32    0.50
  -4  -1   0   11.05    0.52
   4  -1   0    9.87    0.48
   4   1   0   11.06    0.52
  -4   1   0   11.08    0.46
   4   1   0   11.10    0.51
   4   1   0   11.23    0.54
  -5  -1   0   20.06    0.84
  -5  -1   0   20.25    0.81
  -5  -1   0   21.12    0.86
   5  -1   0   20.06    0.81
   5  -1   0   19.35    0.79
  -5  -1   0   19.58    0.87
  -5   1   0   19.72    0.77
   5   1   0   21.11    0.84
   5   1   0   21.13    0.85
  -5   1   0   21.06    0.75
   5   1   0   18.82    0.87
  -5   1   0   21.76    0.76
  -6  -1   0    2.52    0.32
   6  -1   0    2.17    0.27
  -6  -1   0    2.10    0.30
   6  -1   0    2.65    0.28
  -6  -1   0    2.34    0.24
  -6  -1   0    1.90    0.28
   6   1   0    1.97    0.28
  -6   1   0    2.18    0.26
   6   1   0    2.59    0.30
  -6   1   0    2.71    0.26
  -6   1   0    2.54    0.25
  -7  -1   0    4.42    0.36
   7  -1   0    4.75    0.40
  -7  -1   0    4.35    0.42
  -7  -1   0    5.51    0.45
  -7  -1   0    4.52    0.40
   7  -1   0    4.09    0.38
  -7   1   0    4.76    0.39
   7   1   0    5.09    0.44
   7   1   0    4.54    0.40
  -7   1   0    5.33    0.37
  -7   1   0    5.43    0.37
   8  -1   0    5.21    0.46
   8  -1   0    5.41    0.46
  -8  -1   0    5.09    0.48
  -8  -1   0    5.35    0.47
  -8  -1   0    5.33    0.44
  -8   1   0    5.85    0.41
   8   1   0    5.10    0.46
  -8   1   0    4.47    0.44
   8   1   0    5.54    0.48
   9  -1   0   -0.10    0.26
  -9  -1   0   -0.09    0.26
   9   1   0    0.06    0.29
  -9   1   0    0.24    0.27
   9   1   0   -0.11    0.28
 -10  -1   0    0.32    0.33
 -10   1   0    0.36    0.30
  10   1   0    0.05    0.30
 -11  -1   0    0.99    0.36
 -11   1   0    0.46    0.32
  11   1   0    0.88    0.36
 -12  -1   0    0.27    0.35
 -12   1   0    0.38    0.35
 -13  -1   0    0.66    0.41
 -13   1   0    0.12    0.36
 -14  -1   0    0.71    0.47
 -14   1   0   -0.14    0.40
 -15   1   0    0.03    0.45
   0   2   0    2.35    0.24
   1   2   0    2.71    0.19
  -1   2   0    2.63    0.25
   1   2   0    2.90    0.27
  -2  -2   0   28.03    1.02
   2   2   0   30.96    0.98
   2   2   0   28.00    1.18
  -3  -2   0   59.32    1.88
  -3  -2   0   60.73    2.03
  -3  -2   0   57.65    2.01
  -3   2   0   59.92    2.18
  -3   2   0   58.76    1.81
   3   2   0   57.63    2.24
  -4  -2   0    2.01    0.23
  -4  -2   0    2.02    0.23
  -4  -2   0    2.12    0.25
   4   2   0    2.02    0.27
  -4   2   0    1.59    0.19
   4   2   0    2.44    0.24
  -4   2   0    1.73    0.17
  -5  -2   0    0.40    0.16
  -5  -2   0    0.40    0.19
   5  -2   0    0.67    0.18
  -5  -2   0    0.22    0.18
  -5  -2   0    0.39    0.20
   5  -2   0    0.50    0.16
   5   2   0    0.39    0.23
  -5   2   0    0.68    0.16
  -5   2   0    0.69    0.14
   5   2   0   -0.13    0.18
   6  -2   0    2.03    0.25
  -6  -2   0    2.06    0.30
  -6  -2   0    1.54    0.29
  -6  -2   0    1.97    0.31
   6  -2   0    1.56    0.23
   6   2   0    1.42    0.29
   6   2   0    1.10    0.30
  -6   2   0    1.58    0.23
  -7  -2   0   25.13    1.04
  -7  -2   0   24.65    1.08
   7  -2   0   24.70    1.01
   7  -2   0   24.59    1.02
  -7  -2   0   26.90    1.13
  -7  -2   0   26.00    1.15
   7   2   0   26.63    1.17
  -7   2   0   24.09    0.97
   7   2   0   24.73    1.06
   8  -2   0    0.03    0.25
  -8  -2   0   -0.01    0.19
  -8  -2   0    0.14    0.25
  -8  -2   0   -0.01    0.29
  -8  -2   0   -0.12    0.28
  -8   2   0   -0.10    0.22
  -9  -2   0    1.78    0.34
  -9  -2   0    2.47    0.44
  -9  -2   0    2.30    0.40
  -9   2   0    2.21    0.36
 -10  -2   0   -0.09    0.29
 -10   2   0    0.40    0.30
 -11  -2   0    2.44    0.45
 -11   2   0    1.17    0.36
 -12   2   0   -0.07    0.33
 -13   2   0    0.09    0.35
 -14   2   0    0.17    0.40
   0   3   0   -0.22    0.16
   1   3   0    0.27    0.19
  -1   3   0    0.29    0.19
  -2  -3   0   -0.21    0.11
   2   3   0   -0.40    0.14
  -2   3   0   -0.16    0.18
   2   3   0    0.22    0.20
  -3  -3   0    4.39    0.28
   3   3   0    4.05    0.39
  -3   3   0    3.23    0.30
   3   3   0    4.69    0.32
  -4  -3   0    0.84    0.19
  -4  -3   0    0.83    0.20
  -4  -3   0    0.55    0.19
   4   3   0    0.64    0.25
  -4   3   0    0.95    0.21
  -5  -3   0    1.03    0.23
  -5  -3   0    1.18    0.25
  -5  -3   0    0.91    0.23
  -5  -3   0    0.34    0.21
  -5   3   0    0.84    0.21
  -5   3   0    0.97    0.16
   5   3   0    0.83    0.28
  -6  -3   0   -0.27    0.20
  -6  -3   0   -0.27    0.20
  -6  -3   0   -0.08    0.20
  -6  -3   0   -0.03    0.15
   6  -3   0   -0.02    0.18
   6  -3   0   -0.16    0.16
  -6   3   0    0.28    0.17
  -6   3   0    0.05    0.16
   6   3   0   -0.17    0.24
  -7  -3   0    0.41    0.28
  -7  -3   0   -0.08    0.26
   7  -3   0    0.26    0.23
  -7  -3   0   -0.13    0.24
   7  -3   0    0.35    0.21
  -7  -3   0    0.12    0.21
  -7   3   0    0.37    0.22
   7   3   0   -0.17    0.30
  -8  -3   0    1.58    0.39
  -8  -3   0    1.27    0.32
  -8  -3   0    1.48    0.38
   8   3   0    1.20    0.40
  -8   3   0    1.65    0.30
  -9  -3   0   -0.29    0.16
  -9  -3   0    0.32    0.36
   9   3   0   -0.15    0.36
  -9   3   0    0.05    0.26
 -10   3   0   -0.01    0.26
 -11   3   0    0.28    0.31
 -12   3   0   -0.21    0.31
 -13   3   0    0.07    0.37
 -14   3   0   -0.39    0.38
   0   4   0   23.23    1.10
  -1   4   0   31.41    1.35
   1   4   0   29.20    1.35
  -2   4   0   47.50    1.91
   2   4   0   45.88    1.95
  -3  -4   0    0.63    0.18
  -3   4   0    0.80    0.26
   3   4   0    1.05    0.24
   3   4   0    0.92    0.32
  -4  -4   0    0.89    0.23
   4   4   0    1.04    0.34
   4   4   0    0.51    0.25
  -4   4   0    0.62    0.20
  -5  -4   0    0.12    0.20
  -5  -4   0   -0.02    0.20
   5   4   0   -0.19    0.28
  -5   4   0   -0.17    0.21
  -6  -4   0    0.40    0.23
  -6  -4   0    0.48    0.27
  -6  -4   0    0.71    0.28
  -6   4   0    0.52    0.25
   6   4   0    0.79    0.36
  -7  -4   0    1.48    0.33
  -7  -4   0    1.25    0.35
   7  -4   0    1.40    0.28
   7   4   0    1.74    0.45
  -7   4   0    1.53    0.26
  -8  -4   0   -0.31    0.21
  -8  -4   0   -0.33    0.29
   8   4   0   -0.26    0.34
  -8   4   0   -0.42    0.20
  -9  -4   0    0.05    0.25
  -9   4   0   -0.20    0.23
   9   4   0    0.00    0.38
 -10  -4   0   -0.30    0.26
 -10   4   0    0.10    0.26
 -11   4   0    0.22    0.29
 -12   4   0   -0.21    0.28
 -13   4   0    0.25    0.35
   0   5   0    0.00    0.27
  -1   5   0    0.10    0.28
   1   5   0   -0.06    0.28
  -2  -5   0    0.49    0.18
   2   5   0    0.30    0.31
  -2   5   0    0.12    0.28
  -3  -5   0    0.17    0.19
   3   5   0    0.28    0.33
  -3   5   0    0.80    0.32
  -4  -5   0    2.22    0.31
   4   5   0    2.56    0.47
  -4   5   0    2.32    0.39
  -5  -5   0    0.16    0.23
  -5   5   0    0.03    0.18
   5   5   0    0.42    0.39
  -6  -5   0    0.11    0.25
  -6   5   0    0.04    0.32
   6   5   0    0.08    0.37
  -7  -5   0    1.90    0.39
   7   5   0    1.59    0.49
  -8  -5   0   -0.05    0.26
   8   5   0   -0.90    0.37
  -9  -5   0   -0.53    0.23
   9   5   0   -0.36    0.43
 -10  -5   0   -0.29    0.29
  10   5   0   -0.21    0.45
 -12   5   0   -0.16    0.30
   0   6   0    1.38    0.47
  -1   6   0    3.57    0.58
   1   6   0    4.03    0.58
  -2   6   0    0.33    0.40
   2   6   0    1.17    0.43
  -3   6   0    0.10    0.36
   3   6   0   -0.04    0.36
   4   6   0    2.30    0.52
  -4   6   0    3.68    0.54
  -5  -6   0    3.30    0.47
   5   6   0    2.22    0.56
  -5   6   0    3.52    0.54
  -6  -6   0   -0.17    0.20
   6   6   0   -0.06    0.40
  -7  -6   0    0.71    0.32
   7   6   0    0.98    0.51
  -8  -6   0    0.28    0.31
   8   6   0   -0.56    0.40
  -9  -6   0    0.37    0.35
   9   6   0    0.41    0.54
 -10  -6   0   -0.46    0.32
  10   6   0   -0.46    0.51
   0   7   0   -0.30    0.36
   1   7   0    1.16    0.49
  -1   7   0    0.96    0.46
  -2   7   0    0.28    0.40
   2   7   0   -0.76    0.36
  -3  -7   0    0.20    0.24
  -3   7   0   -0.02    0.39
   3   7   0   -0.14    0.40
  -4  -7   0    0.10    0.23
   4   7   0   -0.51    0.39
  -4   7   0    0.27    0.40
  -5  -7   0    0.26    0.26
  -5   7   0    0.28    0.42
   5   7   0    0.12    0.41
  -6  -7   0    0.01    0.27
   6   7   0   -0.75    0.40
  -7  -7   0    0.39    0.34
   7   7   0    0.30    0.48
  -8  -7   0    0.15    0.35
   8   7   0   -0.02    0.51
  -9  -7   0   -0.28    0.36
   9   7   0    0.70    0.65
 -10  -7   0   -0.40    0.36
  10   7   0   -0.42    0.60
   0  -8   0    0.12    0.27
   0   8   0   -0.74    0.39
  -1  -8   0   -0.10    0.24
   1  -8   0    0.38    0.27
   1   8   0   -0.04    0.43
  -1   8   0    0.17    0.48
  -2  -8   0    0.04    0.28
   2  -8   0    0.89    0.34
  -2   8   0   -0.31    0.40
   2   8   0    0.47    0.49
   3  -8   0    0.41    0.30
  -3  -8   0    0.31    0.29
  -3   8   0   -0.11    0.46
   3   8   0    0.04    0.46
  -4  -8   0    0.09    0.25
   4  -8   0    0.51    0.29
  -4   8   0    1.23    0.56
   4   8   0   -0.68    0.43
  -5  -8   0    0.47    0.33
   5   8   0   -0.15    0.52
  -6  -8   0    0.83    0.41
   6   8   0    0.13    0.54
  -7  -8   0    0.34    0.39
   7   8   0   -0.30    0.61
   8   8   0   -0.56    0.61
   0  -9   0    0.40    0.36
   0   9   0   -0.72    0.47
  -1  -9   0   -0.01    0.32
   1  -9   0   -0.02    0.31
   1   9   0    0.21    0.54
  -1   9   0   -0.60    0.48
  -2  -9   0    0.18    0.34
   2  -9   0    0.52    0.35
   2   9   0   -0.29    0.55
  -2   9   0   -0.57    0.50
  -3  -9   0    0.25    0.35
   3  -9   0    0.51    0.35
  -3   9   0   -0.53    0.51
   3   9   0   -0.05    0.56
   4   9   0    0.26    0.62
  -4   9   0   -0.03    0.59
 -15   0   1    0.28    0.48
 -14   0   1    0.10    0.38
 -13   0   1    0.18    0.38
 -12   0   1    0.64    0.36
 -11   0   1    1.32    0.38
  10   0  -1    0.24    0.31
 -10   0   1    0.14    0.32
  -9   0   1   -0.17    0.26
   9   0  -1   -0.13    0.26
   9   0  -1    0.38    0.30
   8   0  -1   -0.05    0.24
  -8   0   1   -0.12    0.24
   8   0  -1   -0.34    0.24
  -8   0   1   -0.42    0.24
   7   0  -1    1.27    0.27
   7   0  -1    0.88    0.25
  -7   0   1    1.15    0.25
  -7   0   1    1.02    0.25
  -6   0   1   -0.26    0.18
  -6   0   1   -0.30    0.17
  -6   0   1   -0.17    0.29
   6   0  -1   -0.41    0.16
   6   0  -1   -0.22    0.18
  -6   0   1   -0.06    0.18
   5   0  -1    4.21    0.31
  -5   0   1    4.33    0.31
  -5   0   1    4.78    0.32
   5   0  -1    4.40    0.31
  -5   0   1    4.04    0.31
  -5   0   1    3.84    0.23
   4   0  -1   -0.52    0.13
  -4   0   1   -0.49    0.14
  -4   0   1   -0.19    0.14
  -4   0   1   -0.42    0.14
  -4   0   1   -0.30    0.32
  -3   0   1  193.91    6.15
   3   0  -1  191.55    6.74
   3   0  -1  192.03    6.15
   3   0  -1  194.85    6.15
  -3   0   1  197.72    6.75
  -3   0   1  194.51    6.15
  -3   0   1  195.39    5.70
  -3   0   1  162.01   11.33
   2   0  -1    0.02    0.08
  -2   0   1   -0.01    0.08
   2   0  -1    0.03    0.09
   2   0  -1    0.06    0.07
  -2   0   1    0.03    0.07
   1   0  -1   12.97    0.46
  -1   0   1   12.81    0.46
   1   0  -1   13.24    0.87
   1   0  -1   13.48    0.47
  -1   0   1   13.57    0.43
   1   0  -1   14.68    0.51
  -1   0   1   13.50    0.47
  -1   0   1   11.35    0.83
   0   0  -1   -0.03    0.02
   0   0  -1   -0.02    0.02
   0   0  -1   -0.03    0.02
   0   0   1    0.00    0.01
   1   0   1  226.37    7.15
  -1   0  -1  217.29    6.58
  -1   0  -1  218.42    7.16
   1   0   1  213.31    7.15
  -1   0  -1  231.26    7.16
  -2   0  -1    0.03    0.08
  -2   0  -1   -0.04    0.08
   2   0   1   -0.03    0.07
  -2   0  -1    0.12    0.07
   2   0   1   -0.03    0.08
  -2   0  -1   -0.05    0.07
  -3   0  -1   65.34    2.39
  -3   0  -1   66.58    2.21
  -3   0  -1   65.49    2.22
  -3   0  -1   65.46    2.07
   3   0   1   68.02    2.23
   3   0   1   66.76    2.21
  -4   0  -1   -0.01    0.12
  -4   0  -1   -0.24    0.12
  -4   0  -1   -0.01    0.13
   4   0   1   -0.33    0.13
   4   0   1   -0.08    0.13
  -4   0  -1   -0.19    0.14
   5   0   1    6.73    0.39
  -5   0  -1    7.02    0.39
  -5   0  -1    7.07    0.38
  -5   0  -1    6.26    0.38
  -5   0  -1    6.92    0.40
   5   0   1    6.69    0.40
   6   0   1   -0.45    0.19
  -6   0  -1   -0.51    0.17
  -6   0  -1   -0.02    0.15
  -6   0  -1   -0.33    0.18
  -6   0  -1    0.12    0.18
  -6   0  -1   -0.27    0.20
  -7   0  -1    0.24    0.23
  -7   0  -1    0.02    0.21
   7   0   1    0.02    0.23
  -7   0  -1   -0.31    0.18
   7   0   1   -0.13    0.22
  -7   0  -1   -0.07    0.22
   8   0   1    0.06    0.26
  -8   0  -1    0.25    0.26
   8   0   1   -0.15    0.24
  -8   0  -1    0.00    0.25
  -8   0  -1   -0.51    0.27
   9   0   1    0.86    0.33
  -9   0  -1    1.14    0.33
   9   0   1    0.57    0.31
 -10   0  -1   -0.31    0.28
  10   0   1    0.08    0.30
 -11   0  -1    0.25    0.31
 -12   0  -1   -0.03    0.32
 -13   0  -1    0.04    0.37
 -14   0  -1    0.15    0.40
 -15   0  -1    0.06    0.45
 -15   1   1    0.45    0.47
 -14  -1   1    0.88    0.46
 -14   1   1    0.36    0.42
 -13  -1   1    0.18    0.40
 -13   1   1    0.38    0.38
 -12  -1   1    2.59    0.48
 -12   1   1    1.85    0.43
 -11  -1   1    0.81    0.35
 -11   1   1    1.30    0.37
  11   1  -1    1.09    0.37
 -10  -1   1    4.11    0.49
  10   1  -1    4.08    0.50
 -10   1   1    3.53    0.46
  -9  -1   1    3.35    0.43
   9  -1  -1    2.64    0.39
   9   1  -1    3.35    0.44
  -9   1   1    2.98    0.40
   9   1  -1    2.92    0.42
  -8  -1   1   -0.61    0.23
  -8  -1   1   -0.16    0.16
   8  -1  -1   -0.45    0.21
  -8  -1   1    0.03    0.42
   8  -1  -1   -0.05    0.24
  -8  -1   1   -0.30    0.23
  -8   1   1    0.06    0.24
   8   1  -1   -0.33    0.27
  -8   1   1   -0.24    0.23
   8   1  -1   -0.45    0.22
  -8   1   1   -0.05    0.23
  -7  -1   1    6.24    0.49
  -7  -1   1    6.57    0.47
  -7  -1   1    6.24    0.40
   7  -1  -1    5.40    0.44
  -7  -1   1    6.02    0.45
   7  -1  -1    6.08    0.43
  -7   1   1    5.85    0.42
  -7   1   1    6.77    0.40
   7   1  -1    6.33    0.47
  -7   1   1    6.72    0.40
   7   1  -1    6.10    0.46
  -6  -1   1    0.18    0.22
   6  -1  -1    0.60    0.20
  -6  -1   1    0.65    0.21
  -6  -1   1    0.56    0.23
   6  -1  -1    0.59    0.19
  -6  -1   1    0.52    0.15
   6   1  -1    0.21    0.21
  -6   1   1    0.55    0.19
   6   1  -1    0.44    0.19
  -6   1   1    0.13    0.17
  -6   1   1    0.52    0.18
   6   1  -1    0.27    0.21
  -5  -1   1   37.35    1.39
  -5  -1   1   35.72    1.44
  -5  -1   1   38.05    1.38
   5  -1  -1   35.50    1.33
   5  -1  -1   36.07    1.34
  -5  -1   1   37.21    1.31
  -5   1   1   39.49    1.29
  -5   1   1   37.69    1.28
  -5   1   1   37.59    1.27
   5   1  -1   37.83    1.44
   5   1  -1   37.11    1.39
   5   1  -1   39.43    1.37
  -4  -1   1    3.73    0.29
  -4  -1   1    3.80    0.29
   4  -1  -1    2.99    0.25
   4  -1  -1    2.98    0.26
  -4  -1   1    3.70    0.28
   4   1  -1    3.34    0.28
   4   1  -1    3.43    0.28
  -4   1   1    3.55    0.25
  -3  -1   1    8.44    0.42
  -3  -1   1    8.16    0.39
  -3  -1   1    8.51    0.41
   3  -1  -1    7.08    0.35
   3  -1  -1    7.21    0.36
  -3   1   1    7.64    0.35
   3   1  -1    8.49    0.39
   3   1  -1    8.34    0.41
  -2  -1   1   10.82    0.43
  -2  -1   1   10.05    0.44
   2   1  -1   10.73    0.48
  -2   1   1   10.81    0.44
   2   1  -1   10.33    0.44
  -2   1   1   10.51    0.38
  -1  -1   1    1.07    0.11
  -1  -1   1    0.78    0.10
   1   1  -1    0.98    0.10
   1   1  -1    1.27    0.13
   1   1  -1    0.80    0.09
   0   1  -1   18.12    0.73
   0   1   1   18.56    0.58
   0   1   1   18.67    0.72
  -1  -1  -1   21.74    0.77
  -1  -1  -1   22.78    0.73
  -1  -1  -1   21.58    0.87
   1   1   1   23.25    0.73
  -1   1  -1   22.22    0.71
   1   1   1   23.22    0.88
  -1   1  -1   22.57    0.87
  -2  -1  -1   69.44    2.12
  -2  -1  -1   66.09    2.27
  -2  -1  -1   67.83    2.28
  -2  -1  -1   69.90    2.50
  -2   1  -1   68.79    2.09
  -2   1  -1   70.03    2.48
   2   1   1   66.65    2.50
   2   1   1   70.99    2.28
  -3  -1  -1    8.22    0.40
  -3  -1  -1    8.35    0.42
  -3  -1  -1    8.40    0.43
   3  -1   1    7.92    0.36
   3  -1   1    8.07    0.39
  -3  -1  -1    8.13    0.42
   3   1   1    7.73    0.39
  -3   1  -1    7.81    0.36
  -3   1  -1    8.67    0.41
   3   1   1    8.11    0.44
   3   1   1    7.62    0.41
  -4  -1  -1   16.07    0.66
   4  -1   1   15.15    0.61
  -4  -1  -1   15.73    0.64
  -4  -1  -1   15.61    0.68
   4  -1   1   14.45    0.63
   4   1   1   16.10    0.67
  -4   1  -1   15.96    0.65
  -4   1  -1   15.84    0.61
   4   1   1   15.33    0.65
  -4   1  -1   15.96    0.58
   4   1   1   15.91    0.71
   5  -1   1   -0.22    0.15
   5  -1   1   -0.16    0.13
  -5  -1  -1    0.07    0.15
  -5  -1  -1   -0.14    0.12
  -5  -1  -1    0.03    0.18
  -5  -1  -1   -0.20    0.15
  -5   1  -1    0.05    0.14
  -5   1  -1   -0.19    0.13
   5   1   1   -0.36    0.15
  -5   1  -1    0.15    0.12
  -5   1  -1   -0.06    0.14
   5   1   1   -0.17    0.16
  -6  -1  -1    3.41    0.31
  -6  -1  -1    4.90    0.40
   6  -1   1    4.11    0.33
  -6  -1  -1    3.89    0.36
   6  -1   1    4.01    0.35
  -6  -1  -1    3.69    0.35
  -6   1  -1    4.47    0.34
   6   1   1    4.28    0.36
   6   1   1    4.15    0.36
  -6   1  -1    4.12    0.32
  -6   1  -1    4.41    0.31
  -7  -1  -1    0.03    0.24
  -7  -1  -1    0.20    0.20
   7  -1   1   -0.18    0.18
  -7  -1  -1   -0.09    0.22
   7  -1   1    0.23    0.22
  -7  -1  -1    0.73    0.24
  -7   1  -1    0.68    0.24
   7   1   1    0.12    0.23
  -7   1  -1    0.16    0.20
   7   1   1    0.00    0.23
  -7   1  -1    0.42    0.22
  -8  -1  -1    3.15    0.41
   8  -1   1    3.17    0.37
  -8  -1  -1    3.02    0.40
   8  -1   1    4.03    0.42
  -8  -1  -1    3.56    0.38
  -8   1  -1    3.51    0.39
   8   1   1    3.37    0.42
  -8   1  -1    4.04    0.37
   8   1   1    3.86    0.43
  -9  -1  -1    0.47    0.30
   9  -1   1    0.18    0.28
  -9   1  -1    0.32    0.28
   9   1   1    0.37    0.29
   9   1   1    0.46    0.30
 -10  -1  -1    0.62    0.33
  10   1   1    0.23    0.29
 -10   1  -1    0.32    0.30
 -11  -1  -1    0.16    0.32
 -11   1  -1    0.42    0.32
 -12  -1  -1    0.33    0.36
 -12   1  -1    0.23    0.35
 -13  -1  -1   -0.12    0.38
 -13   1  -1    0.20    0.38
 -14  -1  -1   -0.05    0.43
 -14   1  -1    0.18    0.40
 -15   1  -1    0.31    0.46
 -15   2   1    0.38    0.45
 -14   2   1    0.73    0.45
 -13   2   1   -0.04    0.35
 -12   2   1    0.06    0.34
 -11  -2   1    0.42    0.35
 -11   2   1    0.03    0.28
 -10  -2   1    0.78    0.36
 -10   2   1    1.27    0.33
  -9  -2   1    1.73    0.31
  -9  -2   1    2.00    0.39
  -9  -2   1    1.86    0.43
  -9   2   1    0.66    0.29
  -8  -2   1    0.68    0.23
  -8  -2   1    2.08    0.35
  -8  -2   1    0.62    0.32
   8  -2  -1    1.08    0.28
  -8  -2   1    1.14    0.35
   8   2  -1    0.99    0.31
  -8   2   1    1.06    0.28
  -7  -2   1    0.44    0.28
   7  -2  -1   -0.11    0.22
  -7  -2   1    0.45    0.27
  -7  -2   1    0.34    0.25
   7  -2  -1   -0.11    0.22
  -7  -2   1    0.61    0.21
   7   2  -1   -0.17    0.26
  -7   2   1    0.08    0.23
   7   2  -1    0.40    0.27
  -6  -2   1   16.40    0.78
   6  -2  -1   16.93    0.70
   6  -2  -1   16.17    0.70
  -6  -2   1   17.54    0.79
  -6  -2   1   17.58    0.76
   6   2  -1   17.60    0.77
  -6   2   1   15.51    0.68
   6   2  -1   16.00    0.82
  -5  -2   1   20.08    0.81
  -5  -2   1   19.82    0.83
  -5  -2   1   19.75    0.84
   5  -2  -1   19.56    0.75
   5  -2  -1   19.69    0.75
  -5   2   1   19.13    0.73
   5   2  -1   20.32    0.82
  -5   2   1   18.80    0.78
   5   2  -1   19.52    0.91
  -4  -2   1    1.11    0.20
  -4  -2   1    0.97    0.19
  -4  -2   1    1.02    0.20
   4   2  -1    0.68    0.18
  -4   2   1    0.63    0.13
   4   2  -1    1.13    0.21
  -4   2   1    0.96    0.14
  -3  -2   1    0.36    0.17
  -3  -2   1    0.28    0.16
  -3   2   1    0.17    0.11
  -3   2   1    0.21    0.14
   3   2  -1    0.48    0.16
   3   2  -1    0.53    0.18
  -2  -2   1   63.02    2.17
   2   2  -1   67.03    2.04
   2   2  -1   65.77    2.44
  -1  -2   1    6.99    0.30
   1   2  -1    7.73    0.44
  -1   2   1    7.70    0.40
   0   2   1    6.68    0.39
   0   2   1    6.65    0.25
   0   2  -1    6.65    0.40
   1   2   1   22.49    0.97
  -1   2  -1   22.91    0.95
   1   2   1   22.88    0.76
   2   2   1   16.73    0.62
  -2   2  -1   16.51    0.73
   2   2   1   16.98    0.77
  -3  -2  -1    1.38    0.21
  -3  -2  -1    1.50    0.20
  -3  -2  -1    1.50    0.21
  -3  -2  -1    1.50    0.21
  -3   2  -1    1.50    0.20
  -3   2  -1    1.49    0.15
   3   2   1    1.44    0.25
  -4  -2  -1   11.24    0.54
  -4  -2  -1   11.35    0.53
  -4  -2  -1   11.22    0.52
  -4  -2  -1   11.04    0.59
  -4   2  -1   11.77    0.54
  -4   2  -1   11.15    0.46
   4   2   1   11.89    0.62
  -5  -2  -1    0.67    0.21
   5  -2   1    0.41    0.16
  -5  -2  -1    0.75    0.19
  -5  -2  -1    0.81    0.23
   5  -2   1    0.61    0.20
  -5  -2  -1    0.54    0.22
  -5   2  -1    0.55    0.17
   5   2   1    0.58    0.24
   5   2   1    0.64    0.22
  -5   2  -1    0.72    0.17
  -6  -2  -1    1.36    0.26
  -6  -2  -1    1.04    0.26
   6  -2   1    1.36    0.24
  -6  -2  -1    0.87    0.26
  -6  -2  -1    0.75    0.22
   6  -2   1    1.15    0.21
   6   2   1    0.04    0.25
   6   2   1    1.19    0.30
  -6   2  -1    1.20    0.18
  -6   2  -1    1.26    0.22
  -7  -2  -1    1.75    0.33
  -7  -2  -1    1.95    0.32
   7  -2   1    1.92    0.28
   7  -2   1    2.30    0.32
  -7  -2  -1    2.04    0.36
  -7   2  -1    1.78    0.29
   7   2   1    2.11    0.36
  -8  -2  -1    2.97    0.41
   8  -2   1    3.21    0.38
  -8  -2  -1    3.56    0.40
  -8  -2  -1    3.34    0.45
  -8  -2  -1    3.03    0.38
  -8   2  -1    3.00    0.36
  -9  -2  -1    0.42    0.32
  -9  -2  -1   -0.20    0.23
  -9  -2  -1   -0.37    0.33
  -9   2  -1   -0.15    0.25
 -10  -2  -1    0.69    0.33
 -10   2  -1    0.71    0.31
 -11   2  -1    0.37    0.33
 -12   2  -1    0.09    0.33
 -13   2  -1    0.08    0.37
 -14   2  -1    0.25    0.41
 -14   3   1    0.11    0.39
 -13   3   1   -0.19    0.35
 -12   3   1    0.09    0.31
 -11   3   1   -0.07    0.28
 -10   3   1    0.83    0.30
  -9  -3   1    0.91    0.41
  -9  -3   1    0.81    0.29
  -9   3   1    1.17    0.29
   9   3  -1    0.66    0.38
  -8  -3   1    3.62    0.46
  -8  -3   1    2.80    0.45
  -8  -3   1    2.62    0.37
  -8   3   1    1.82    0.30
   8   3  -1    2.34    0.43
  -7  -3   1    0.13    0.27
   7  -3  -1    0.59    0.23
  -7  -3   1    0.23    0.29
   7  -3  -1    0.23    0.23
  -7  -3   1    0.25    0.20
  -7  -3   1    0.50    0.28
  -7   3   1    0.40    0.21
   7   3  -1    0.74    0.33
  -6  -3   1    0.11    0.23
   6  -3  -1    0.30    0.18
  -6  -3   1    0.76    0.25
  -6  -3   1    0.34    0.22
  -6   3   1    0.49    0.18
  -6   3   1    0.56    0.19
   6   3  -1    0.20    0.27
  -5  -3   1    1.43    0.25
  -5  -3   1    1.30    0.25
  -5  -3   1    1.66    0.28
   5   3  -1    1.43    0.32
  -5   3   1    0.83    0.20
  -5   3   1    1.02    0.16
  -4  -3   1    6.87    0.41
  -4  -3   1    6.60    0.40
  -4   3   1    7.14    0.43
   4   3  -1    7.09    0.52
  -3  -3   1    4.72    0.30
   3   3  -1    4.75    0.32
   3   3  -1    4.94    0.41
  -2  -3   1    2.51    0.19
   2   3  -1    2.53    0.31
  -2   3   1    2.20    0.27
   1   3  -1    0.14    0.18
  -1   3   1    0.50    0.19
   0   3   1   16.48    0.80
   0   3  -1   16.49    0.80
   1   3   1    7.20    0.50
  -1   3  -1    8.17    0.50
   1   3   1    8.07    0.35
   2   3   1   38.62    1.64
   2   3   1   40.92    1.33
  -2   3  -1   40.35    1.61
  -3  -3  -1    1.25    0.18
   3   3   1    0.90    0.19
   3   3   1    0.98    0.26
  -3   3  -1    0.88    0.21
  -4  -3  -1    2.63    0.31
  -4  -3  -1    3.32    0.29
  -4  -3  -1    3.23    0.29
  -4  -3  -1    3.05    0.29
  -4   3  -1    3.11    0.31
   4   3   1    2.58    0.36
  -5  -3  -1    0.47    0.22
  -5  -3  -1    0.77    0.22
  -5  -3  -1    1.18    0.23
  -5  -3  -1    0.82    0.22
   5   3   1    1.05    0.30
  -5   3  -1    0.71    0.17
  -5   3  -1    0.49    0.20
  -6  -3  -1   -0.29    0.20
  -6  -3  -1    0.16    0.21
  -6  -3  -1    0.20    0.19
   6  -3   1   -0.12    0.15
  -6  -3  -1   -0.09    0.21
   6  -3   1   -0.03    0.20
  -6   3  -1    0.13    0.19
   6   3   1    0.68    0.30
  -6   3  -1   -0.10    0.17
   7  -3   1    1.29    0.29
  -7  -3  -1    1.69    0.33
  -7  -3  -1    1.66    0.35
  -7  -3  -1    1.29    0.33
  -7  -3  -1    1.38    0.30
   7   3   1    1.55    0.40
  -7   3  -1    1.63    0.27
  -8  -3  -1    1.82    0.41
  -8  -3  -1    2.58    0.44
  -8  -3  -1    2.75    0.40
   8   3   1    2.31    0.45
  -8   3  -1    2.53    0.35
  -9  -3  -1   -0.11    0.15
  -9  -3  -1   -0.27    0.32
  -9   3  -1   -0.36    0.26
 -10   3  -1    0.30    0.29
 -11   3  -1    0.74    0.35
 -12   3  -1   -0.23    0.31
 -13   3  -1    0.00    0.39
 -14   3  -1   -0.25    0.40
 -13   4   1    0.87    0.38
 -12   4   1    0.00    0.30
 -11   4   1    0.15    0.28
 -10  -4   1   -0.03    0.26
 -10   4   1    0.52    0.28
  10   4  -1    0.10    0.40
  -9  -4   1   -0.32    0.21
  -9   4   1   -0.15    0.22
   9   4  -1   -0.92    0.31
  -8  -4   1   -0.10    0.34
  -8  -4   1    0.17    0.26
  -8   4   1    0.17    0.22
   8   4  -1   -0.25    0.34
  -7  -4   1    0.64    0.33
  -7  -4   1    0.45    0.26
  -7   4   1    0.33    0.21
   7   4  -1    0.26    0.37
  -6  -4   1   -0.13    0.24
  -6  -4   1    0.49    0.26
   6   4  -1   -0.02    0.31
  -6   4   1   -0.21    0.22
  -5  -4   1    1.37    0.28
  -5  -4   1    1.49    0.28
  -5   4   1    0.81    0.27
   5   4  -1    1.01    0.36
  -4  -4   1    0.90    0.22
   4   4  -1    1.19    0.35
   4   4  -1    0.71    0.26
  -3  -4   1    0.24    0.17
  -3   4   1    0.51    0.25
   3   4  -1    0.34    0.25
  -2  -4   1    3.61    0.27
  -2   4   1    3.53    0.42
   2   4  -1    3.50    0.43
   1   4  -1    7.33    0.56
  -1   4   1    7.86    0.56
   0   4   1    0.71    0.29
   0   4  -1    0.79    0.28
   1   4   1   -0.31    0.23
  -1   4  -1    0.56    0.25
   2   4   1    4.33    0.48
  -2   4  -1    4.93    0.46
   2   4   1    4.58    0.32
  -3  -4  -1    4.78    0.33
   3   4   1    4.88    0.50
   3   4   1    4.81    0.37
  -3   4  -1    5.21    0.46
  -4  -4  -1   11.97    0.57
  -4  -4  -1   11.77    0.59
  -4  -4  -1   11.17    0.70
  -4   4  -1   10.60    0.66
   4   4   1   10.90    0.75
  -5  -4  -1    2.42    0.32
  -5  -4  -1    2.32    0.35
  -5  -4  -1    3.01    0.35
   5   4   1    3.04    0.44
  -5   4  -1    2.25    0.35
  -6  -4  -1    2.14    0.35
  -6  -4  -1    2.21    0.35
  -6  -4  -1    2.12    0.35
  -6   4  -1    1.80    0.33
   6   4   1    1.94    0.44
   7  -4   1    0.94    0.28
  -7  -4  -1    0.75    0.28
  -7  -4  -1    0.03    0.28
   7   4   1    0.72    0.40
  -7   4  -1    0.82    0.25
  -8  -4  -1    0.99    0.31
   8   4   1    0.87    0.43
  -8   4  -1    1.06    0.28
  -9  -4  -1    0.11    0.27
   9   4   1    0.28    0.39
  -9   4  -1   -0.03    0.24
 -10  -4  -1   -0.13    0.30
 -10   4  -1   -0.12    0.26
 -11   4  -1    0.08    0.29
 -12   4  -1    0.00    0.32
 -13   4  -1    0.06    0.36
 -12   5   1    0.00    0.30
 -10  -5   1    0.08    0.33
  10   5  -1    0.34    0.50
  -9  -5   1    0.08    0.29
   9   5  -1   -0.20    0.43
  -8  -5   1    0.03    0.25
   8   5  -1   -0.37    0.39
  -7  -5   1    2.64    0.42
   7   5  -1    2.61    0.52
  -6  -5   1    1.96    0.38
  -6   5   1    1.77    0.39
   6   5  -1    1.66    0.46
   5   5  -1    3.42    0.53
  -4  -5   1    2.54    0.32
   4   5  -1    2.34    0.47
  -4   5   1    2.77    0.44
  -3  -5   1    6.49    0.41
   3   5  -1    6.40    0.63
  -3   5   1    7.16    0.61
  -2  -5   1    0.23    0.16
  -2   5   1   -0.08    0.29
   2   5  -1   -0.12    0.28
   1   5  -1    5.02    0.52
  -1   5   1    5.21    0.54
   0   5   1    0.25    0.29
   0   5  -1   -0.29    0.24
   1   5   1    1.20    0.37
  -1   5  -1    1.41    0.36
   2   5   1    1.56    0.40
  -2   5  -1    1.44    0.36
  -3  -5  -1   -0.01    0.19
  -3   5  -1   -0.19    0.28
   3   5   1    0.09    0.32
  -4  -5  -1   -0.26    0.20
  -4  -5  -1    0.23    0.23
   4   5   1    0.07    0.34
  -4   5  -1    0.43    0.30
  -5  -5  -1    3.34    0.44
   5   5   1    3.56    0.54
  -5   5  -1    2.15    0.34
  -6  -5  -1    0.24    0.27
  -6   5  -1   -0.02    0.30
   6   5   1    0.20    0.40
  -7  -5  -1    0.18    0.27
   7   5   1   -0.19    0.40
  -8  -5  -1    0.06    0.27
   8   5   1   -0.63    0.40
  -9  -5  -1   -0.10    0.30
   9   5   1   -0.73    0.42
 -10  -5  -1   -0.14    0.31
 -11   5  -1    0.09    0.28
 -12   5  -1   -0.63    0.28
 -10  -6   1   -0.25    0.34
  10   6  -1    0.26    0.57
  -9  -6   1    0.34    0.33
   9   6  -1   -0.22    0.47
  -8  -6   1    0.96    0.35
   8   6  -1    0.26    0.45
  -7  -6   1    0.34    0.26
   7   6  -1   -0.03    0.40
  -6  -6   1    0.12    0.23
   6   6  -1    0.25    0.43
   5   6  -1   -0.19    0.39
  -5   6   1   -0.22    0.35
   4   6  -1    3.13    0.56
  -4   6   1    2.83    0.50
   3   6  -1    7.09    0.73
  -3   6   1    8.22    0.71
   2   6  -1    0.34    0.38
  -2   6   1    0.51    0.41
   1   6  -1    0.39    0.37
  -1   6   1    0.49    0.41
   0   6  -1   -0.04    0.35
   0   6   1   -0.23    0.34
  -1   6  -1   -0.43    0.32
   1   6   1   -0.10    0.35
   2   6   1    7.13    0.73
  -2   6  -1    8.07    0.71
  -3  -6  -1    0.02    0.21
  -3   6  -1   -0.26    0.31
   3   6   1   -0.62    0.33
  -4  -6  -1    0.49    0.26
  -4   6  -1   -0.07    0.33
   4   6   1    0.38    0.41
  -5  -6  -1   -0.12    0.20
   5   6   1   -0.66    0.36
  -5   6  -1    0.22    0.35
  -6  -6  -1    0.17    0.24
   6   6   1   -0.26    0.41
  -6   6  -1   -0.07    0.28
  -7  -6  -1    0.40    0.30
   7   6   1   -0.46    0.42
  -8  -6  -1   -0.37    0.27
   8   6   1   -0.03    0.47
  -9  -6  -1    0.39    0.37
   9   6   1   -0.48    0.48
 -10  -6  -1   -0.42    0.35
  10   6   1   -0.48    0.53
 -10  -7   1   -0.17    0.38
  10   7  -1   -0.52    0.61
  -9  -7   1   -0.05    0.36
   9   7  -1    0.02    0.55
  -8  -7   1   -0.24    0.30
   8   7  -1   -0.74    0.46
  -7  -7   1    0.04    0.28
   7   7  -1    0.27    0.46
  -6  -7   1    0.54    0.31
   6   7  -1    0.21    0.45
  -5  -7   1   -0.18    0.20
   5  -7  -1    0.28    0.25
   5   7  -1    0.45    0.46
  -5   7   1   -0.05    0.39
   4  -7  -1    0.54    0.27
   4   7  -1   -0.09    0.42
  -4   7   1    0.06    0.39
  -3   7   1    0.39    0.42
   3   7  -1    0.12    0.40
  -2   7   1   -0.11    0.38
   2   7  -1   -0.06    0.40
   1   7  -1   -0.08    0.42
  -1   7   1    0.39    0.42
   0  -7  -1    0.48    0.29
   0   7   1    0.23    0.40
   0   7  -1    0.58    0.43
  -1  -7  -1    0.45    0.29
   1   7   1   -0.16    0.38
  -1   7  -1    0.00    0.40
  -2  -7  -1    1.05    0.34
  -2   7  -1    1.00    0.47
   2   7   1    0.72    0.46
  -3  -7  -1   -0.16    0.19
   3   7   1    0.11    0.42
  -3   7  -1   -0.14    0.36
  -4  -7  -1    0.15    0.25
  -4   7  -1   -0.15    0.39
   4   7   1    0.25    0.44
  -5  -7  -1    0.10    0.25
   5   7   1    0.46    0.47
  -5   7  -1   -0.26    0.39
  -6  -7  -1   -0.30    0.26
   6   7   1   -0.40    0.45
  -7  -7  -1    0.13    0.31
   7   7   1   -0.46    0.45
  -8  -7  -1    0.37    0.37
   8   7   1    0.66    0.59
  -9  -7  -1    0.11    0.38
   9   7   1   -0.80    0.53
  10   7   1   -0.05    0.66
   8   8  -1   -0.52    0.59
  -7  -8   1    0.13    0.32
   7   8  -1    0.09    0.60
  -6  -8   1    0.41    0.36
   6   8  -1    0.02    0.52
  -5  -8   1    0.57    0.34
   5   8  -1   -0.33    0.49
  -4  -8   1    0.49    0.30
   4  -8  -1    0.31    0.29
  -4   8   1    0.37    0.50
   4   8  -1   -0.29    0.48
   3  -8  -1    0.25    0.29
  -3  -8   1    0.06    0.25
   3   8  -1   -0.38    0.42
  -3   8   1   -0.49    0.41
   2  -8  -1    0.49    0.31
   2   8  -1    0.25    0.47
  -2   8   1    0.47    0.48
   1  -8  -1    0.19    0.26
   1   8  -1    0.14    0.47
  -1   8   1   -0.58    0.42
   0  -8  -1    0.19    0.27
   0   8   1    0.37    0.48
   0   8  -1   -0.40    0.41
  -1  -8  -1    0.07    0.26
  -1   8  -1    0.03    0.45
   1   8   1   -0.20    0.43
  -2  -8  -1    0.37    0.32
  -2   8  -1    0.17    0.44
   2   8   1    0.04    0.45
  -3  -8  -1    0.16    0.29
  -3   8  -1    0.19    0.47
   3   8   1   -0.26    0.44
  -4  -8  -1    0.36    0.31
  -4   8  -1    0.39    0.50
   4   8   1   -0.17    0.50
  -5  -8  -1   -0.18    0.27
   5   8   1   -0.18    0.51
  -6  -8  -1   -0.12    0.34
   6   8   1   -0.46    0.50
  -7  -8  -1   -0.36    0.32
   7   8   1   -0.45    0.61
   8   8   1   -0.33    0.63
   4   9  -1   -0.39    0.54
  -4   9   1   -0.85    0.56
  -3  -9   1    0.52    0.39
   3  -9  -1    0.16    0.34
   3   9  -1   -0.15    0.53
  -3   9   1   -0.40    0.55
  -2  -9   1    0.34    0.34
   2  -9  -1    0.56    0.36
  -2   9   1   -0.95    0.50
   2   9  -1   -0.36    0.54
  -1  -9   1    0.55    0.40
   1  -9  -1    0.07    0.32
  -1   9   1    0.04    0.54
   1   9  -1    0.27    0.56
   0  -9  -1    0.14    0.33
   0  -9   1    0.31    0.34
   0   9  -1   -0.59    0.50
   0   9   1    0.03    0.56
  -1  -9  -1    0.26    0.34
   1  -9   1    0.12    0.34
  -1   9  -1    0.71    0.59
   1   9   1   -0.40    0.52
   2  -9   1    0.66    0.37
  -2  -9  -1    0.12    0.33
   2   9   1   -0.21    0.57
  -2   9  -1   -0.64    0.51
   3  -9   1    0.34    0.34
  -3  -9  -1    0.24    0.36
  -3   9  -1    0.24    0.55
   3   9   1   -0.13    0.55
  -4   9  -1   -0.47    0.53
   4   9   1   -0.27    0.58
 -15   0   2   -0.34    0.44
 -14   0   2    0.20    0.40
 -13   0   2    0.80    0.44
 -12   0   2    0.95    0.37
 -11   0   2   -0.60    0.25
 -10   0   2   -0.38    0.29
  10   0  -2    0.02    0.29
  -9   0   2    0.04    0.27
   9   0  -2   -0.08    0.26
   9   0  -2   -0.08    0.30
   8   0  -2   12.93    0.70
  -8   0   2   12.60    0.68
   8   0  -2   12.44    0.69
  -8   0   2   12.95    0.68
  -7   0   2   -0.19    0.21
  -7   0   2   -0.14    0.21
  -7   0   2    0.04    0.21
   7   0  -2   -0.33    0.20
   7   0  -2   -0.32    0.21
  -6   0   2   24.74    1.00
  -6   0   2   24.94    1.00
  -6   0   2   25.54    0.97
   6   0  -2   25.92    1.02
   6   0  -2   24.68    1.01
  -5   0   2   -0.08    0.15
  -5   0   2   -0.22    0.13
   5   0  -2   -0.38    0.13
  -5   0   2   -0.12    0.14
   5   0  -2   -0.12    0.14
  -4   0   2   56.74    1.96
  -4   0   2   57.71    1.96
   4   0  -2   57.47    1.96
   4   0  -2   57.03    1.96
  -4   0   2   57.42    1.84
  -3   0   2   -0.61    0.16
   3   0  -2   -0.09    0.11
  -3   0   2   -1.15    0.59
   3   0  -2   -0.46    0.14
   3   0  -2   -0.25    0.08
   2   0  -2  946.20   30.06
   2   0  -2  925.31   55.61
   2   0  -2 1000.00   33.12
   2   0  -2  958.89   30.08
  -2   0   2  858.81   55.72
  -2   0   2  954.12   30.11
  -2   0   2  945.32   27.78
  -2   0   2  934.96   30.09
   1   0  -2   -0.03    0.05
   1   0  -2    0.01    0.06
   1   0  -2   -0.03    0.29
  -1   0   2    0.03    0.06
  -1   0   2   -0.09    0.28
   0   0  -2   44.23    2.98
   0   0   2   50.25    1.63
   0   0  -2   50.29    1.79
   0   0  -2   48.67    1.62
   0   0  -2   51.61    1.50
  -1   0  -2    0.20    0.06
   1   0   2    0.10    0.06
  -1   0  -2    0.13    0.07
  -1   0  -2    0.23    0.07
  -2   0  -2    7.89    0.34
  -2   0  -2    8.01    0.34
  -2   0  -2    7.17    0.35
   2   0   2    7.99    0.37
   2   0   2    7.95    0.34
   3   0   2    0.05    0.13
  -3   0  -2   -0.04    0.13
  -3   0  -2    0.08    0.16
  -3   0  -2   -0.18    0.16
   3   0   2   -0.10    0.15
  -3   0  -2   -0.09    0.13
  -4   0  -2   20.53    0.78
   4   0   2   20.77    0.79
  -4   0  -2   19.72    0.80
  -4   0  -2   20.15    0.86
  -4   0  -2   20.64    0.76
   4   0   2   19.70    0.81
   5   0   2    0.24    0.15
  -5   0  -2   -0.16    0.14
   5   0   2   -0.16    0.15
  -5   0  -2    0.08    0.15
  -5   0  -2   -0.14    0.16
  -5   0  -2   -0.14    0.15
  -6   0  -2   53.07    2.04
   6   0   2   52.70    1.92
  -6   0  -2   51.36    1.88
  -6   0  -2   53.17    1.91
   6   0   2   55.95    1.90
  -6   0  -2   53.17    1.81
   7   0   2   -0.32    0.23
   7   0   2   -0.25    0.22
  -7   0  -2   -0.19    0.19
  -7   0  -2   -0.57    0.22
  -7   0  -2   -0.12    0.23
  -7   0  -2    0.02    0.25
  -8   0  -2   11.04    0.63
  -8   0  -2   11.06    0.62
  -8   0  -2    9.79    0.71
   8   0   2   11.75    0.68
   8   0   2   11.69    0.65
   9   0   2   -0.26    0.27
   9   0   2   -0.01    0.28
  -9   0  -2   -0.23    0.26
 -10   0  -2    4.99    0.53
  10   0   2    6.38    0.56
 -11   0  -2   -0.03    0.32
 -12   0  -2    0.12    0.34
 -13   0  -2   -0.32    0.34
 -14   0  -2    0.44    0.43
 -15   0  -2    0.23    0.48
 -15   1   2    0.05    0.45
 -14  -1   2    0.18    0.44
 -14   1   2   -0.54    0.38
 -13  -1   2    0.75    0.42
 -13   1   2    0.65    0.38
 -12  -1   2    0.91    0.39
 -12   1   2    0.05    0.33
 -11  -1   2    0.78    0.36
 -11   1   2    0.92    0.35
 -10  -1   2    0.23    0.32
 -10   1   2    0.23    0.31
   9  -1  -2    1.21    0.32
  -9  -1   2    1.16    0.35
  -9   1   2    1.33    0.32
   9   1  -2    1.56    0.36
  -8  -1   2    0.14    0.37
  -8  -1   2    0.65    0.32
   8  -1  -2    0.94    0.28
   8  -1  -2    0.47    0.29
  -8  -1   2    1.55    0.33
  -8  -1   2    0.70    0.20
   8   1  -2    1.05    0.31
  -8   1   2    1.07    0.26
  -8   1   2    1.07    0.28
  -8   1   2    0.72    0.26
  -7  -1   2    0.07    0.13
   7  -1  -2   -0.02    0.20
  -7  -1   2   -0.12    0.20
  -7  -1   2    0.06    0.38
  -7  -1   2    0.15    0.23
  -7  -1   2    0.17    0.23
   7  -1  -2   -0.23    0.21
  -7   1   2   -0.04    0.19
   7   1  -2   -0.22    0.22
  -7   1   2   -0.24    0.18
   7   1  -2    0.09    0.19
  -7   1   2   -0.01    0.21
   6  -1  -2   -0.14    0.16
   6  -1  -2    0.06    0.15
  -6  -1   2    0.02    0.33
  -6  -1   2   -0.22    0.19
  -6  -1   2   -0.27    0.16
   6  -1  -2   -0.24    0.17
  -6  -1   2    0.11    0.19
  -6  -1   2   -0.13    0.09
  -6   1   2   -0.13    0.17
   6   1  -2   -0.09    0.19
   6   1  -2   -0.47    0.15
  -6   1   2   -0.06    0.17
  -6   1   2   -0.24    0.15
  -5  -1   2   -0.39    0.15
  -5  -1   2   -0.24    0.17
   5  -1  -2   -0.53    0.14
   5  -1  -2   -0.30    0.16
  -5  -1   2   -0.38    0.15
   5   1  -2   -0.11    0.14
  -5   1   2   -0.42    0.15
   5   1  -2   -0.60    0.16
  -4  -1   2   36.84    1.29
  -4  -1   2   34.74    1.21
  -4  -1   2   35.15    1.28
   4  -1  -2   34.72    1.24
   4  -1  -2   33.81    1.22
   4   1  -2   35.67    1.27
   4   1  -2   35.43    1.35
  -4   1   2   34.44    1.16
  -3  -1   2   47.01    1.52
  -3  -1   2   45.90    1.62
   3  -1  -2   44.85    1.56
   3  -1  -2   45.73    1.57
  -3  -1   2   46.35    1.63
  -3   1   2   47.86    1.48
   3   1  -2   48.58    1.75
   3   1  -2   48.34    1.61
   2  -1  -2   45.41    1.64
  -2  -1   2   45.17    1.53
  -2  -1   2   43.05    1.43
   2   1  -2   45.91    1.68
  -2   1   2   45.38    1.39
   2   1  -2   45.32    1.53
   1  -1  -2   54.82    1.93
  -1  -1   2   51.29    1.75
   1   1  -2   54.37    1.95
  -1   1   2   53.53    1.62
   1   1  -2   51.79    1.75
   0  -1  -2  150.57    5.18
   0  -1   2  140.95    4.75
   0   1   2  145.84    5.17
   0   1   2  145.56    4.36
   0   1  -2  147.71    5.18
  -1  -1  -2   61.19    2.04
  -1  -1  -2   62.64    1.90
  -1  -1  -2   63.27    2.27
  -1   1  -2   60.16    1.89
   1   1   2   63.43    1.90
  -1   1  -2   60.84    2.25
   1   1   2   61.83    2.04
   1   1   2   61.93    2.26
   2  -1   2  339.30   10.95
  -2  -1  -2  343.95   11.94
  -2  -1  -2  339.67   10.92
   2  -1   2  343.06   10.93
  -2  -1  -2  342.71   10.08
   2   1   2  334.32   10.91
  -2   1  -2  344.44   10.08
   2   1   2  333.22   11.93
  -3  -1  -2    3.51    0.28
  -3  -1  -2    3.58    0.31
  -3  -1  -2    4.29    0.29
   3  -1   2    3.44    0.23
  -3  -1  -2    3.18    0.28
   3  -1   2    3.37    0.29
   3   1   2    3.64    0.29
  -3   1  -2    3.74    0.32
  -3   1  -2    3.68    0.25
  -4  -1  -2   23.17    0.85
  -4  -1  -2   23.27    0.91
   4  -1   2   22.33    0.84
  -4  -1  -2   23.24    0.89
   4  -1   2   22.09    0.88
  -4   1  -2   23.48    0.82
   4   1   2   21.54    0.89
   4   1   2   22.96    0.88
  -4   1  -2   23.70    0.94
  -4   1  -2   22.77    0.82
  -4   1  -2   22.24    0.83
   5  -1   2   10.74    0.51
  -5  -1  -2   11.99    0.56
  -5  -1  -2   11.03    0.58
   5  -1   2   10.30    0.54
  -5  -1  -2   12.10    0.55
  -5  -1  -2   12.12    0.59
   5   1   2   11.16    0.56
  -5   1  -2   11.40    0.55
  -5   1  -2   11.22    0.49
  -5   1  -2   11.81    0.52
  -5   1  -2   11.53    0.53
   5   1   2   12.18    0.56
   6  -1   2    1.09    0.22
  -6  -1  -2    1.64    0.28
  -6  -1  -2    1.09    0.24
  -6  -1  -2    2.00    0.27
   6  -1   2    1.88    0.27
  -6  -1  -2    1.49    0.27
   6   1   2    1.91    0.27
  -6   1  -2    1.86    0.23
  -6   1  -2    1.45    0.24
   6   1   2    1.57    0.28
  -6   1  -2    1.15    0.23
  -6   1  -2    1.65    0.24
  -7  -1  -2    2.66    0.35
  -7  -1  -2    2.82    0.37
  -7  -1  -2    2.72    0.32
   7  -1   2    2.28    0.30
   7  -1   2    3.13    0.35
  -7  -1  -2    3.13    0.35
   7   1   2    3.12    0.37
  -7   1  -2    3.01    0.29
  -7   1  -2    2.86    0.32
  -7   1  -2    3.32    0.30
   7   1   2    2.69    0.34
  -7   1  -2    2.30    0.32
  -8  -1  -2   -0.49    0.24
  -8  -1  -2   -0.38    0.22
   8  -1   2    0.24    0.26
   8  -1   2    0.10    0.23
  -8  -1  -2   -0.02    0.25
  -8   1  -2   -0.28    0.23
   8   1   2   -0.08    0.26
  -8   1  -2   -0.21    0.22
   8   1   2   -0.30    0.24
   9  -1   2    1.95    0.38
  -9  -1  -2    1.34    0.35
  -9   1  -2    1.69    0.35
   9   1   2    1.41    0.36
   9   1   2    1.66    0.38
 -10  -1  -2    1.03    0.36
 -10   1  -2    0.70    0.33
  10   1   2    0.59    0.33
 -11  -1  -2    0.95    0.37
 -11   1  -2    0.32    0.34
 -12  -1  -2    1.17    0.41
 -12   1  -2    0.49    0.36
 -13  -1  -2    0.07    0.40
 -13   1  -2    0.55    0.40
 -14  -1  -2   -0.20    0.39
 -14   1  -2    0.40    0.41
 -15   1  -2    0.08    0.46
 -15   2   2    0.40    0.46
 -14   2   2    0.21    0.41
 -13   2   2   -0.03    0.35
 -12   2   2    0.08    0.33
 -11  -2   2   -0.39    0.29
 -11   2   2   -0.02    0.28
 -10  -2   2    0.28    0.32
 -10   2   2    0.40    0.30
  -9  -2   2    1.37    0.42
  -9  -2   2    0.89    0.27
  -9  -2   2    1.22    0.36
  -9  -2   2    0.50    1.00
   9   2  -2    1.34    0.35
  -9   2   2    1.31    0.33
  -8  -2   2    0.37    0.27
   8  -2  -2    0.29    0.24
  -8  -2   2    0.13    0.18
  -8  -2   2   -0.24    0.26
  -8  -2   2    0.03    0.29
   8   2  -2    0.12    0.26
  -8   2   2    0.41    0.24
   7  -2  -2    1.32    0.28
  -7  -2   2    1.29    0.25
   7  -2  -2    1.25    0.28
  -7  -2   2    1.58    0.33
  -7  -2   2    1.76    0.35
  -7  -2   2    2.03    0.34
   7   2  -2    1.99    0.32
  -7   2   2    1.02    0.27
   7   2  -2    1.35    0.34
  -6  -2   2    1.07    0.27
   6  -2  -2    1.03    0.21
   6  -2  -2    0.79    0.22
  -6  -2   2    1.02    0.26
  -6  -2   2    0.61    0.26
   6   2  -2    0.87    0.28
  -6   2   2    0.90    0.21
   6   2  -2    0.50    0.26
   5  -2  -2    6.75    0.33
  -5  -2   2    6.08    0.43
  -5  -2   2    7.01    0.44
   5  -2  -2    5.86    0.36
   5  -2  -2    7.00    0.35
  -5  -2   2    7.11    0.44
   5   2  -2    6.98    0.46
   5   2  -2    6.65    0.42
  -5   2   2    6.44    0.35
   4  -2  -2   -0.01    0.07
  -4  -2   2   -0.30    0.13
  -4  -2   2    0.11    0.15
  -4  -2   2   -0.20    0.13
   4   2  -2   -0.06    0.15
   4   2  -2   -0.03    0.14
  -4   2   2   -0.15    0.10
  -4   2   2   -0.14    0.10
  -3  -2   2   13.12    0.56
  -3  -2   2   13.34    0.55
   3  -2  -2   13.59    0.58
   3   2  -2   13.54    0.65
   3   2  -2   11.99    0.54
  -3   2   2   13.21    0.46
  -3   2   2   13.22    0.59
  -2  -2   2    4.07    0.28
  -2  -2   2    4.01    0.27
   2   2  -2    4.96    0.35
   2   2  -2    4.32    0.24
  -1  -2   2    3.80    0.21
   1  -2  -2    3.80    0.27
  -1   2   2    4.71    0.32
   1   2  -2    3.79    0.32
   0  -2  -2   18.53    0.81
   0   2   2   18.80    0.61
   0   2   2   19.01    0.82
   0   2  -2   18.72    0.83
  -1  -2  -2    0.52    0.15
  -1   2  -2    0.42    0.18
   1   2   2    0.70    0.13
   1   2   2    0.56    0.19
  -2  -2  -2   35.27    1.24
  -2  -2  -2   34.86    1.42
  -2   2  -2   37.57    1.40
  -2   2  -2   34.20    1.13
   2   2   2   36.54    1.17
   2   2   2   33.89    1.42
  -3  -2  -2   54.72    2.12
  -3  -2  -2   56.30    1.91
  -3  -2  -2   53.51    1.89
  -3  -2  -2   55.74    1.78
  -3   2  -2   55.68    1.73
   3   2   2   55.12    2.12
  -4  -2  -2   -0.04    0.15
  -4  -2  -2    0.19    0.16
   4  -2   2    0.21    0.11
  -4  -2  -2    0.46    0.17
   4  -2   2    0.21    0.15
  -4  -2  -2    0.18    0.15
   4   2   2    0.40    0.21
  -4   2  -2   -0.06    0.15
  -4   2  -2    0.16    0.13
  -5  -2  -2   10.32    0.57
  -5  -2  -2    9.97    0.54
   5  -2   2   10.19    0.47
   5  -2   2   10.94    0.52
  -5  -2  -2   10.18    0.59
  -5  -2  -2   10.53    0.53
   5   2   2   10.32    0.62
  -5   2  -2   10.08    0.48
  -5   2  -2   10.34    0.54
   5   2   2   10.66    0.55
  -6  -2  -2   -0.11    0.14
  -6  -2  -2    0.14    0.20
  -6  -2  -2    0.25    0.21
   6  -2   2   -0.10    0.19
   6  -2   2    0.27    0.17
  -6  -2  -2    0.02    0.19
  -6   2  -2    0.21    0.19
  -6   2  -2    0.13    0.16
   6   2   2   -0.08    0.19
   7  -2   2    2.79    0.34
   7  -2   2    2.38    0.29
  -7  -2  -2    3.05    0.40
  -7  -2  -2    2.90    0.35
  -7  -2  -2    3.04    0.38
  -7   2  -2    2.42    0.31
   7   2   2    2.86    0.36
  -7   2  -2    2.42    0.26
  -8  -2  -2   -0.14    0.22
   8  -2   2    0.32    0.27
  -8  -2  -2    0.33    0.25
  -8  -2  -2   -0.35    0.25
  -8  -2  -2    0.05    0.29
   8   2   2   -0.01    0.26
  -8   2  -2    0.07    0.23
  -9  -2  -2   -0.06    0.27
  -9  -2  -2    0.33    0.31
  -9  -2  -2    0.22    0.33
  -9   2  -2    0.07    0.29
 -10  -2  -2    0.14    0.30
 -10   2  -2    0.00    0.28
 -11   2  -2    0.52    0.35
 -12   2  -2    0.53    0.36
 -13   2  -2    0.39    0.38
 -14   2  -2    0.34    0.44
 -14   3   2   -0.14    0.38
 -13   3   2    0.44    0.38
 -12   3   2   -0.41    0.28
 -11   3   2    0.74    0.32
 -10   3   2   -0.01    0.25
  -9  -3   2    2.28    0.47
  -9  -3   2    2.43    0.37
  -9   3   2    2.47    0.34
   9   3  -2    1.77    0.41
  -8  -3   2    0.55    0.32
  -8  -3   2   -0.40    0.29
  -8  -3   2    0.46    0.23
   8   3  -2    0.32    0.32
  -8   3   2   -0.19    0.22
  -7  -3   2    5.17    0.47
   7  -3  -2    4.54    0.36
  -7  -3   2    4.52    0.49
   7  -3  -2    4.93    0.40
  -7  -3   2    4.92    0.49
   7   3  -2    4.29    0.48
  -7   3   2    4.91    0.36
   6  -3  -2    1.41    0.21
  -6  -3   2    0.95    0.26
   6  -3  -2    1.07    0.16
  -6  -3   2    1.05    0.27
  -6  -3   2    1.46    0.30
   6   3  -2    1.22    0.32
  -6   3   2    0.82    0.21
  -6   3   2    0.70    0.19
  -5  -3   2   -0.07    0.17
  -5  -3   2    0.08    0.18
  -5  -3   2    0.10    0.19
   5  -3  -2    0.05    0.11
  -5   3   2    0.01    0.12
  -5   3   2    0.13    0.17
   5   3  -2    0.06    0.19
   5   3  -2    0.09    0.24
  -4  -3   2    0.56    0.19
  -4  -3   2    0.20    0.17
   4   3  -2    0.38    0.22
  -4   3   2    0.19    0.17
  -3  -3   2   -0.11    0.12
   3   3  -2   -0.22    0.18
  -3   3   2   -0.01    0.08
  -2  -3   2    6.17    0.31
   2   3  -2    6.30    0.47
  -2   3   2    6.36    0.43
  -1  -3   2   19.03    0.68
   1   3  -2   19.54    0.92
  -1   3   2   19.31    0.89
   0   3  -2   44.77    1.82
   0   3   2   47.92    1.41
   0   3   2   43.52    1.81
   1   3   2    3.47    0.24
  -1   3  -2    3.78    0.36
   1   3   2    3.25    0.34
  -2  -3  -2    5.51    0.40
   2   3   2    5.55    0.32
   2   3   2    5.11    0.45
  -2   3  -2    5.88    0.43
  -3  -3  -2    1.00    0.19
  -3  -3  -2    0.71    0.19
  -3  -3  -2    1.16    0.19
   3   3   2    1.18    0.27
  -3   3  -2    0.69    0.21
   3   3   2    1.00    0.20
  -4  -3  -2    1.47    0.23
  -4  -3  -2    1.68    0.24
  -4  -3  -2    0.98    0.23
  -4  -3  -2    1.31    0.22
   4   3   2    1.24    0.31
  -4   3  -2    1.43    0.18
  -4   3  -2    1.11    0.24
  -5  -3  -2    3.12    0.33
  -5  -3  -2    2.97    0.35
  -5  -3  -2    3.27    0.32
  -5  -3  -2    3.10    0.34
   5   3   2    2.34    0.38
  -5   3  -2    2.40    0.24
  -5   3  -2    2.93    0.32
  -6  -3  -2    0.44    0.23
   6  -3   2    0.13    0.16
   6  -3   2    0.34    0.23
  -6  -3  -2    0.31    0.20
  -6  -3  -2    0.30    0.25
  -6  -3  -2    0.48    0.25
  -6   3  -2    0.33    0.22
   6   3   2    0.58    0.33
  -6   3  -2   -0.18    0.18
  -7  -3  -2    1.74    0.36
  -7  -3  -2    1.37    0.31
  -7  -3  -2    1.72    0.35
  -7  -3  -2    1.58    0.31
   7  -3   2    1.54    0.31
  -7   3  -2    1.19    0.26
   7   3   2    1.77    0.41
  -7   3  -2    0.55    0.25
  -8  -3  -2    0.03    0.33
  -8  -3  -2    0.19    0.25
  -8  -3  -2    0.05    0.28
  -8   3  -2   -0.07    0.26
  -9  -3  -2    1.11    0.34
  -9  -3  -2    1.12    0.39
  -9   3  -2    1.20    0.32
 -10  -3  -2    0.02    0.28
 -10   3  -2   -0.42    0.26
 -11   3  -2   -0.34    0.29
 -12   3  -2   -0.04    0.34
 -13   3  -2    0.47    0.41
 -14   3  -2    0.48    0.43
 -13   4   2    0.18    0.35
 -12   4   2    0.43    0.31
 -11   4   2    0.09    0.28
 -10  -4   2    0.04    0.28
  10   4  -2   -0.30    0.38
 -10   4   2    0.11    0.26
  -9  -4   2    0.62    0.28
   9   4  -2    0.09    0.37
  -9   4   2    0.53    0.24
  -8  -4   2   -0.03    0.35
  -8  -4   2    0.59    0.30
  -8   4   2    1.04    0.25
   8   4  -2    0.95    0.41
  -7  -4   2   -0.23    0.24
  -7  -4   2   -0.41    0.28
   7   4  -2   -0.35    0.34
  -6  -4   2   -0.03    0.25
  -6  -4   2    0.30    0.25
   6  -4  -2    0.35    0.16
  -6   4   2    0.62    0.26
   6   4  -2    0.56    0.35
  -5  -4   2   -0.03    0.22
  -5   4   2    0.14    0.23
   5   4  -2    0.10    0.28
  -4  -4   2    9.56    0.52
   4   4  -2    9.23    0.66
  -3  -4   2    8.00    0.43
  -3   4   2    9.23    0.58
   3   4  -2    7.92    0.60
  -2  -4   2   14.53    0.61
   2   4  -2   15.31    0.86
  -2   4   2   16.38    0.84
  -1   4   2    0.64    0.28
   1   4  -2    0.69    0.27
   0   4   2    5.04    0.48
   0   4  -2    4.82    0.46
   1   4   2    0.06    0.14
  -1   4  -2    0.38    0.25
   1   4   2   -0.17    0.23
  -2  -4  -2    4.53    0.41
   2   4   2    5.15    0.33
  -2   4  -2    5.09    0.46
   2   4   2    3.94    0.47
  -3  -4  -2    0.00    0.15
   3   4   2   -0.16    0.25
   3   4   2    0.41    0.20
  -3   4  -2    0.14    0.24
  -4  -4  -2    2.64    0.30
  -4  -4  -2    2.23    0.29
  -4  -4  -2    2.56    0.35
   4   4   2    2.75    0.43
  -4   4  -2    2.31    0.37
  -5  -4  -2    3.60    0.38
  -5  -4  -2    3.15    0.39
  -5  -4  -2    2.91    0.35
   5   4   2    3.72    0.49
  -5   4  -2    3.39    0.41
  -6  -4  -2    4.54    0.48
  -6  -4  -2    4.54    0.45
  -6  -4  -2    4.24    0.43
  -6   4  -2    4.76    0.35
  -6   4  -2    3.94    0.43
   6   4   2    4.00    0.55
  -7  -4  -2   -0.43    0.26
  -7  -4  -2   -0.02    0.22
  -7   4  -2   -0.07    0.22
   7   4   2    0.23    0.37
  -8  -4  -2    2.28    0.41
   8   4   2    1.94    0.49
  -8   4  -2    2.86    0.34
  -9  -4  -2   -0.27    0.25
  -9   4  -2   -0.03    0.25
 -10  -4  -2    0.26    0.34
 -10   4  -2    0.89    0.31
 -11   4  -2    0.45    0.32
 -12   4  -2    0.12    0.31
 -13   4  -2   -0.34    0.34
 -10  -5   2   -0.02    0.30
  10   5  -2   -0.03    0.45
  -9  -5   2    0.19    0.26
   9   5  -2   -0.15    0.42
  -8  -5   2    1.28    0.35
   8   5  -2    1.34    0.48
   7   5  -2    0.04    0.38
   6  -5  -2    1.34    0.27
   6   5  -2    0.83    0.40
  -6   5   2    1.22    0.37
   5  -5  -2   -0.18    0.17
   5   5  -2   -0.24    0.33
  -5   5   2   -0.38    0.26
  -4  -5   2    0.87    0.25
  -4   5   2    1.19    0.37
   4   5  -2    0.83    0.37
  -3  -5   2    2.02    0.26
  -3   5   2    1.76    0.39
   3   5  -2    1.79    0.41
  -2  -5   2    2.15    0.23
   2   5  -2    2.49    0.43
  -2   5   2    2.25    0.41
   1   5  -2    0.51    0.31
  -1   5   2    0.30    0.32
   0   5  -2    4.31    0.50
   0   5   2    4.34    0.51
  -1  -5  -2    0.25    0.20
  -1   5  -2    0.07    0.28
   1   5   2   -0.03    0.29
  -2  -5  -2    0.76    0.25
  -2   5  -2    0.82    0.36
   2   5   2    1.07    0.24
   2   5   2    1.00    0.38
  -3  -5  -2    3.40    0.33
  -3  -5  -2    3.97    0.44
   3   5   2    3.05    0.50
  -3   5  -2    3.95    0.49
  -4  -5  -2   -0.20    0.19
   4   5   2    0.33    0.37
  -4   5  -2   -0.50    0.29
  -5  -5  -2    7.97    0.64
  -5   5  -2    7.49    0.63
   5   5   2    6.69    0.72
  -6  -5  -2    2.21    0.40
   6   5   2    1.71    0.49
  -6   5  -2    1.53    0.40
  -7  -5  -2    0.84    0.34
   7   5   2    0.24    0.44
  -8  -5  -2   -0.18    0.27
   8   5   2   -0.60    0.39
  -9  -5  -2    0.30    0.35
 -10  -5  -2    0.03    0.34
 -11   5  -2    0.20    0.30
 -12   5  -2   -0.21    0.31
 -10  -6   2    0.22    0.35
  10   6  -2    0.05    0.55
  -9  -6   2    0.04    0.28
   9   6  -2   -0.01    0.47
  -8  -6   2    0.05    0.26
   8   6  -2   -0.27    0.41
  -7  -6   2    0.67    0.30
   7   6  -2   -0.11    0.41
   6   6  -2   -0.47    0.38
   5  -6  -2    0.32    0.24
  -5   6   2   -0.33    0.35
   5   6  -2   -0.11    0.37
   4  -6  -2    0.40    0.24
  -4   6   2   -0.30    0.35
   4   6  -2    0.27    0.39
   3  -6  -2    1.47    0.33
  -3   6   2    0.91    0.41
   3   6  -2    1.22    0.46
   2  -6  -2    0.55    0.26
   2   6  -2    0.65    0.39
  -2   6   2    0.01    0.38
   1  -6  -2    3.51    0.44
   1   6  -2    4.11    0.56
  -1   6   2    2.63    0.54
   0  -6  -2    0.48    0.25
   0   6  -2   -0.19    0.33
   0   6   2    0.54    0.40
  -1  -6  -2    4.05    0.47
  -1   6  -2    3.62    0.54
   1   6   2    2.60    0.53
  -2  -6  -2   -0.04    0.21
   2   6   2    0.17    0.39
  -2   6  -2    0.01    0.35
  -3  -6  -2    0.68    0.28
  -3   6  -2    0.75    0.37
   3   6   2   -0.28    0.34
  -4  -6  -2    0.09    0.22
  -4   6  -2    0.03    0.32
   4   6   2   -0.61    0.34
  -5  -6  -2    0.81    0.32
   5   6   2    1.07    0.48
  -5   6  -2    1.47    0.41
  -6  -6  -2   -0.16    0.23
   6   6   2    0.20    0.44
  -6   6  -2   -0.05    0.19
  -7  -6  -2    0.56    0.34
   7   6   2    0.63    0.52
  -8  -6  -2    0.03    0.32
   8   6   2   -0.91    0.43
  -9  -6  -2   -0.13    0.34
   9   6   2   -0.35    0.50
 -10  -6  -2   -0.03    0.36
 -10  -7   2   -0.07    0.39
  10   7  -2   -0.59    0.60
  -9  -7   2   -0.51    0.32
   9   7  -2   -0.96    0.48
  -8  -7   2    0.19    0.32
   8   7  -2   -0.55    0.47
  -7  -7   2    0.59    0.33
   7   7  -2   -0.33    0.41
  -6  -7   2    0.73    0.31
   6   7  -2    0.00    0.46
   5  -7  -2    0.37    0.27
   5   7  -2   -0.30    0.39
  -5   7   2    0.24    0.41
   4  -7  -2    0.25    0.26
  -4   7   2    0.42    0.43
   4   7  -2   -0.02    0.41
   3  -7  -2    0.19    0.25
  -3   7   2   -0.28    0.37
   3   7  -2   -0.25    0.39
   2  -7  -2    0.19    0.24
   2   7  -2   -0.01    0.40
  -2   7   2    0.03    0.40
   1  -7  -2    0.35    0.25
  -1   7   2   -0.29    0.37
   1   7  -2    0.47    0.43
   0  -7  -2    0.11    0.25
   0   7   2    0.06    0.38
   0   7  -2   -0.09    0.35
  -1  -7  -2    0.22    0.25
  -1   7  -2   -0.27    0.35
   1   7   2   -0.34    0.35
  -2  -7  -2   -0.12    0.22
  -2   7  -2   -0.23    0.36
   2   7   2    0.12    0.42
  -3  -7  -2    0.35    0.27
   3   7   2    0.84    0.47
  -3   7  -2    0.32    0.40
  -4  -7  -2    0.06    0.24
  -4   7  -2   -0.46    0.33
   4   7   2   -0.11    0.41
  -5  -7  -2    0.02    0.24
  -5   7  -2    0.30    0.41
   5   7   2   -0.10    0.43
  -6  -7  -2   -0.27    0.25
   6   7   2   -0.50    0.44
  -7  -7  -2    0.94    0.41
   7   7   2    0.26    0.53
  -8  -7  -2    0.32    0.39
   8   7   2    0.23    0.56
  -9  -7  -2   -0.07    0.39
   9   7   2    0.30    0.63
   8   8  -2   -0.50    0.59
  -7  -8   2    0.41    0.34
   7   8  -2   -0.28    0.55
  -6  -8   2    0.31    0.31
   6   8  -2   -0.31    0.49
  -5  -8   2    0.42    0.30
   5   8  -2    0.53    0.55
   4  -8  -2    0.13    0.28
  -4   8   2   -0.37    0.46
   4   8  -2   -0.47    0.49
   3  -8  -2    0.10    0.27
  -3   8   2   -0.71    0.42
   3   8  -2   -0.11    0.44
   2  -8  -2    0.12    0.27
   2   8  -2   -0.07    0.43
  -2   8   2    0.02    0.46
   1  -8  -2    0.13    0.25
  -1   8   2    0.12    0.47
   1   8  -2   -0.36    0.41
   0  -8  -2    0.26    0.28
   0   8  -2    0.15    0.47
   0   8   2    0.28    0.46
  -1  -8  -2    0.16    0.26
  -1   8  -2   -0.02    0.44
   1   8   2   -0.74    0.39
  -2  -8  -2    0.33    0.31
  -2   8  -2   -0.17    0.43
   2   8   2   -0.02    0.46
  -3  -8  -2    0.03    0.30
  -3   8  -2   -0.17    0.45
   3   8   2    0.06    0.49
  -4  -8  -2   -0.14    0.25
   4   8   2   -0.05    0.50
  -4   8  -2    0.06    0.48
  -5  -8  -2    0.08    0.29
   5   8   2   -0.39    0.50
  -6  -8  -2   -0.09    0.34
   6   8   2    0.47    0.64
  -7  -8  -2    0.24    0.38
   7   8   2   -0.36    0.59
   4   9  -2   -0.59    0.48
  -4   9   2   -0.91    0.54
   3  -9  -2    0.42    0.38
  -3  -9   2    0.28    0.36
   3   9  -2    0.37    0.55
  -3   9   2   -0.59    0.54
   2  -9  -2    0.36    0.38
  -2  -9   2    0.80    0.40
   2   9  -2   -0.44    0.51
  -2   9   2   -0.54    0.54
  -1  -9   2    0.62    0.38
   1  -9  -2   -0.09    0.33
  -1   9   2   -0.18    0.52
   1   9  -2   -0.39    0.51
   0  -9  -2    0.22    0.35
   0   9   2   -0.08    0.54
   0   9  -2    0.50    0.59
  -1  -9  -2    0.07    0.33
  -1   9  -2   -0.60    0.48
   1   9   2   -0.57    0.51
  -2  -9  -2    0.29    0.35
   2   9   2   -0.94    0.50
  -2   9  -2   -0.03    0.54
  -3  -9  -2    0.51    0.39
   3   9   2   -0.59    0.54
  -3   9  -2   -0.03    0.53
   4   9   2   -0.52    0.60
  -4   9  -2   -0.98    0.50
 -15   0   3    0.08    0.45
 -14   0   3   -0.12    0.39
 -12   0   3    0.40    0.33
 -11   0   3    0.93    0.36
 -10   0   3   -0.10    0.31
  10   0  -3    0.00    0.30
   9   0  -3   19.73    0.97
  -9   0   3   20.70    0.96
   9   0  -3   19.86    0.96
  -8   0   3   -0.30    0.26
   8   0  -3   -0.25    0.23
  -8   0   3   -0.03    0.25
   8   0  -3   -0.40    0.24
   7   0  -3   24.81    1.04
  -7   0   3   24.38    1.00
   7   0  -3   24.33    1.04
  -7   0   3   25.43    1.04
  -7   0   3   25.51    1.03
  -6   0   3   -0.37    0.20
  -6   0   3   -0.65    0.61
  -6   0   3   -0.32    0.17
  -6   0   3   -0.30    0.19
   6   0  -3   -0.27    0.16
   6   0  -3   -0.34    0.19
   5   0  -3   -0.20    0.13
  -5   0   3   -0.27    0.14
  -5   0   3    0.03    0.16
   5   0  -3   -0.07    0.16
  -5   0   3   -0.28    0.15
  -4   0   3   -0.23    0.13
  -4   0   3   -0.58    0.66
   4   0  -3   -0.04    0.08
  -4   0   3   -0.27    0.13
   4   0  -3   -0.29    0.15
  -4   0   3   -0.32    0.16
   4   0  -3   -0.14    0.14
   4   0  -3   -0.08    0.24
  -3   0   3   -0.34    0.11
   3   0  -3   -0.27    0.86
   3   0  -3   -0.27    0.11
  -3   0   3   -0.11    0.17
  -3   0   3   -0.15    0.77
  -3   0   3   -0.17    0.12
   3   0  -3    0.02    0.16
  -2   0   3   -0.50    0.73
   2   0  -3    0.02    0.65
  -2   0   3    0.08    0.13
   2   0  -3    0.14    0.14
   2   0  -3   -0.03    0.13
  -1   0   3  173.99    5.45
   1   0  -3  170.57   10.06
   1   0  -3  170.93    5.44
  -1   0   3  150.53   10.04
   1   0  -3  175.20    5.95
   0   0   3    0.02    0.07
   0   0  -3    0.04    0.09
   0   0  -3   -0.02    0.06
   0   0  -3    0.03    0.07
   0   0  -3   -0.24    0.45
   1   0   3   16.61    0.62
  -1   0  -3   15.73    0.61
  -1   0  -3   16.64    0.57
  -1   0  -3   16.61    0.70
  -2   0  -3   -0.38    0.15
  -2   0  -3   -0.07    0.12
   2   0   3   -0.27    0.15
  -2   0  -3    0.44    0.19
  -2   0  -3   -0.07    0.12
  -3   0  -3    5.44    0.32
  -3   0  -3    4.93    0.34
   3   0   3    5.93    0.32
   3   0   3    4.43    0.33
  -3   0  -3    5.50    0.31
  -4   0  -3   -0.04    0.16
  -4   0  -3   -0.13    0.14
   4   0   3   -0.16    0.15
  -4   0  -3   -0.22    0.12
   4   0   3   -0.24    0.12
  -4   0  -3   -0.12    0.17
  -5   0  -3    0.67    0.19
  -5   0  -3    0.87    0.19
  -5   0  -3    0.61    0.21
   5   0   3    0.54    0.20
   5   0   3    0.54    0.18
  -5   0  -3    0.34    0.22
  -6   0  -3   -0.42    0.19
   6   0   3   -0.04    0.21
  -6   0  -3   -0.11    0.19
  -6   0  -3   -0.09    0.23
  -6   0  -3   -0.26    0.25
   6   0   3   -0.18    0.21
   7   0   3   25.73    1.10
  -7   0  -3   25.23    1.04
  -7   0  -3   25.76    1.18
   7   0   3   25.70    1.07
  -7   0  -3   24.89    1.04
  -8   0  -3   -0.11    0.25
  -8   0  -3   -0.38    0.33
  -8   0  -3    0.34    0.27
   8   0   3   -0.09    0.27
   8   0   3   -0.01    0.25
   9   0   3    1.56    0.35
   9   0   3    2.50    0.43
  -9   0  -3    1.69    0.38
  10   0   3    0.22    0.31
 -10   0  -3    0.23    0.32
 -11   0  -3    0.03    0.30
 -12   0  -3    0.20    0.36
 -13   0  -3    0.09    0.36
 -14   0  -3    0.05    0.41
 -15   0  -3    0.01    0.45
 -15   1   3    0.51    0.47
 -14  -1   3    0.96    0.47
 -14   1   3    0.20    0.41
 -13  -1   3    0.93    0.43
 -13   1   3    0.66    0.39
 -12  -1   3    1.00    0.40
 -12   1   3    0.04    0.33
 -11  -1   3   -0.32    0.30
 -11   1   3    0.39    0.32
 -10  -1   3   -0.01    0.31
 -10   1   3   -0.23    0.29
  -9  -1   3    0.70    0.33
   9  -1  -3    1.05    0.30
  -9   1   3    1.21    0.32
   9   1  -3    0.80    0.33
   8  -1  -3    3.52    0.38
  -8  -1   3    3.54    0.41
   8  -1  -3    2.72    0.39
  -8  -1   3    3.02    0.42
  -8  -1   3    3.18    0.30
  -8   1   3    3.36    0.33
  -8   1   3    4.23    0.36
   8   1  -3    2.90    0.32
   8   1  -3    3.10    0.41
  -8   1   3    3.65    0.39
  -7  -1   3    0.00    0.13
   7  -1  -3    0.05    0.15
   7  -1  -3   -0.35    0.17
  -7  -1   3    0.10    0.38
   7  -1  -3   -0.08    0.22
  -7  -1   3   -0.09    0.21
  -7  -1   3   -0.27    0.21
  -7  -1   3   -0.11    0.23
  -7   1   3   -0.02    0.18
   7   1  -3    0.04    0.23
   7   1  -3   -0.12    0.17
  -7   1   3   -0.05    0.20
  -7   1   3    0.11    0.21
   6  -1  -3   20.40    1.58
  -6  -1   3   19.02    0.82
  -6  -1   3   19.28    0.86
   6  -1  -3   19.19    0.83
  -6  -1   3   18.80    1.61
  -6  -1   3   19.32    0.85
   6  -1  -3   19.17    0.80
   6   1  -3   19.47    0.84
  -6   1   3   18.85    0.78
  -6   1   3   20.03    0.76
   6   1  -3   19.08    0.83
  -5  -1   3    7.51    0.45
  -5  -1   3    8.30    0.97
  -5  -1   3    7.28    0.45
   5  -1  -3    7.27    0.40
  -5  -1   3    7.73    0.46
   5  -1  -3    7.16    0.43
  -5   1   3    6.82    0.40
   5   1  -3    8.01    0.45
   5   1  -3    7.12    0.43
  -5   1   3    7.61    0.36
  -4  -1   3   19.03    1.50
  -4  -1   3   19.22    0.78
   4  -1  -3   18.46    0.72
  -4  -1   3   19.05    0.75
  -4  -1   3   18.57    0.78
   4  -1  -3   18.44    0.74
  -4   1   3   18.59    0.70
   4   1  -3   19.70    0.78
   4   1  -3   20.11    0.81
   3  -1  -3   43.44    1.45
  -3  -1   3   41.94    1.40
   3  -1  -3   41.79    1.43
  -3  -1   3   36.90    2.74
  -3  -1   3   45.11    1.50
   3  -1  -3   41.11    1.56
   3   1  -3   44.23    1.49
  -3   1   3   43.25    1.36
   3   1  -3   45.10    1.62
  -2  -1   3   39.23    1.25
   2  -1  -3   36.46    1.27
   2  -1  -3   36.83    1.41
  -2  -1   3   39.06    1.33
   2  -1  -3   37.16    1.28
   2   1  -3   39.16    1.32
   2   1  -3   39.18    1.46
   1  -1  -3   58.04    2.08
  -1  -1   3   55.95    1.89
   1   1  -3   56.35    1.88
   1   1  -3   57.10    2.10
  -1   1   3   56.10    1.74
   0  -1  -3   45.90    1.66
   0  -1  -3   44.04    1.46
   0  -1   3   43.06    1.47
   0   1   3   44.72    1.37
   0   1  -3   42.46    1.46
   0   1  -3   44.34    1.67
   1  -1   3   27.00    0.94
  -1  -1  -3   27.38    0.89
  -1  -1  -3   27.37    0.95
  -1  -1  -3   27.13    1.07
   1   1   3   26.72    0.94
  -1   1  -3   27.70    1.09
  -1   1  -3   25.99    0.90
  -1   1  -3   26.87    0.89
  -1   1  -3   26.23    0.92
  -2  -1  -3  421.93   14.96
  -2  -1  -3  429.75   12.64
   2  -1   3  421.71   13.69
   2  -1   3  442.46   13.67
  -2  -1  -3  408.75   13.68
  -2   1  -3  444.67   14.96
  -2   1  -3  419.41   12.63
   2   1   3  414.13   13.67
  -2   1  -3  428.93   13.73
  -2   1  -3  435.80   13.73
   3  -1   3   38.80    1.38
  -3  -1  -3   39.80    1.37
   3  -1   3   38.81    1.33
  -3  -1  -3   39.11    1.30
  -3  -1  -3   37.95    1.39
  -3  -1  -3   37.21    1.51
   3   1   3   40.15    1.39
  -3   1  -3   39.91    1.31
  -3   1  -3   38.91    1.27
  -3   1  -3   39.05    1.51
  -3   1  -3   36.38    1.32
  -4  -1  -3    4.79    0.38
   4  -1   3    4.29    0.34
  -4  -1  -3    4.58    0.33
   4  -1   3    4.78    0.29
  -4  -1  -3    4.78    0.33
  -4  -1  -3    4.44    0.34
  -4   1  -3    4.75    0.27
  -4   1  -3    4.58    0.30
   4   1   3    4.40    0.33
  -4   1  -3    4.45    0.31
  -4   1  -3    4.70    0.38
  -5  -1  -3    2.92    0.30
   5  -1   3    3.03    0.27
  -5  -1  -3    3.14    0.32
  -5  -1  -3    2.89    0.29
   5  -1   3    3.19    0.31
   5   1   3    3.07    0.32
   5   1   3    3.16    0.31
  -5   1  -3    3.08    0.31
  -5   1  -3    3.00    0.28
  -5   1  -3    2.67    0.24
  -5   1  -3    3.08    0.27
   6  -1   3    1.29    0.27
   6  -1   3    1.84    0.25
  -6  -1  -3    1.71    0.28
  -6  -1  -3    2.44    0.29
  -6  -1  -3    2.23    0.30
  -6  -1  -3    1.95    0.31
  -6   1  -3    2.05    0.24
  -6   1  -3    2.84    0.30
  -6   1  -3    2.19    0.28
   6   1   3    1.65    0.29
   6   1   3    2.42    0.31
  -6   1  -3    1.73    0.29
   7  -1   3    7.00    0.50
  -7  -1  -3    6.72    0.48
  -7  -1  -3    6.65    0.49
  -7  -1  -3    6.77    0.51
   7  -1   3    6.98    0.48
  -7  -1  -3    7.39    0.54
  -7   1  -3    6.15    0.41
  -7   1  -3    7.44    0.48
  -7   1  -3    7.14    0.49
   7   1   3    7.58    0.50
  -7   1  -3    6.94    0.47
   7   1   3    7.20    0.51
  -8  -1  -3    0.16    0.27
   8  -1   3    0.25    0.24
  -8  -1  -3    0.05    0.26
   8  -1   3    0.56    0.29
  -8  -1  -3    0.02    0.25
   8   1   3    0.07    0.29
  -8   1  -3    0.44    0.27
  -8   1  -3    0.13    0.23
   8   1   3    0.30    0.29
   9  -1   3    0.16    0.31
  -9  -1  -3   -0.49    0.27
  -9  -1  -3    0.28    0.36
  -9   1  -3   -0.40    0.28
   9   1   3   -0.06    0.29
 -10  -1  -3   -0.04    0.29
 -10   1  -3    0.42    0.31
  10   1   3    0.31    0.31
 -11  -1  -3    0.11    0.31
 -11   1  -3   -0.11    0.30
 -12  -1  -3   -0.23    0.32
 -12   1  -3   -0.04    0.35
 -13  -1  -3   -0.11    0.40
 -13   1  -3   -0.09    0.36
 -14   1  -3   -0.07    0.41
 -15   2   3    0.17    0.45
 -14   2   3    0.21    0.39
 -13   2   3    0.19    0.36
 -12   2   3    0.67    0.37
 -11  -2   3    0.41    0.35
 -11   2   3    0.12    0.30
 -10  -2   3    2.59    0.45
 -10   2   3    2.42    0.38
  -9  -2   3    0.18    1.04
  -9  -2   3   -0.37    0.27
  -9  -2   3    0.11    0.21
  -9  -2   3   -0.39    0.34
  -9   2   3   -0.03    0.27
   9   2  -3   -0.13    0.28
   8  -2  -3    1.72    0.30
  -8  -2   3    1.31    0.35
  -8  -2   3    2.23    0.36
  -8  -2   3    0.59    0.93
  -8  -2   3    1.33    0.25
  -8  -2   3    0.98    0.35
   8   2  -3    1.95    0.33
  -8   2   3    1.29    0.28
  -7  -2   3    7.35    0.55
   7  -2  -3    7.02    0.46
   7  -2  -3    6.62    0.49
  -7  -2   3    8.31    0.55
  -7  -2   3    7.09    0.51
   7   2  -3    7.04    0.53
  -7   2   3    6.97    0.46
   7   2  -3    7.41    0.51
   6  -2  -3   23.44    0.92
  -6  -2   3   25.54    1.04
   6  -2  -3   24.22    0.95
  -6  -2   3   24.62    1.00
  -6  -2   3   24.54    1.04
   6   2  -3   23.68    1.07
  -6   2   3   22.69    0.90
   6   2  -3   23.75    1.00
  -5  -2   3   12.61    0.61
  -5  -2   3   11.55    0.60
   5  -2  -3   11.79    0.51
  -5  -2   3   11.88    0.59
   5  -2  -3   11.03    0.52
   5  -2  -3   11.75    0.50
   5   2  -3   12.21    0.58
   5   2  -3   11.29    0.62
  -5   2   3   11.30    0.50
  -4  -2   3    0.79    0.19
  -4  -2   3    0.93    0.21
   4  -2  -3    0.90    0.13
  -4   2   3    1.05    0.15
   4   2  -3    0.88    0.19
   4   2  -3    0.82    0.21
  -3  -2   3   35.27    1.28
  -3  -2   3   34.71    1.21
   3  -2  -3   36.54    1.37
   3   2  -3   35.36    1.26
  -3   2   3   36.33    1.13
   3   2  -3   35.48    1.44
  -3   2   3   35.96    1.38
  -2  -2   3   11.22    0.50
   2  -2  -3   12.03    0.55
  -2  -2   3   12.09    0.49
   2   2  -3   11.24    0.46
   2   2  -3   12.16    0.61
  -1  -2   3   47.37    1.64
   1  -2  -3   49.10    1.86
   1   2  -3   50.96    1.90
  -1   2   3   50.81    1.87
  -1   2   3   47.61    1.50
   0  -2  -3  175.41    6.31
   0  -2   3  170.15    5.71
   0   2   3  180.31    5.28
   0   2   3  181.38    6.32
   0   2  -3  178.57    6.33
  -1  -2  -3    0.24    0.13
  -1  -2  -3    0.29    0.11
   1   2   3    0.08    0.18
  -1   2  -3   -0.12    0.18
   1   2   3    0.46    0.13
  -2  -2  -3    8.24    0.49
  -2  -2  -3    8.37    0.39
  -2  -2  -3    8.25    0.40
  -2   2  -3    8.35    0.37
   2   2   3    9.30    0.41
  -2   2  -3    8.96    0.51
   2   2   3    9.18    0.53
   3  -2   3    9.62    0.38
   3  -2   3    9.10    0.41
  -3  -2  -3   10.09    0.46
  -3  -2  -3    9.63    0.55
  -3  -2  -3   10.16    0.48
  -3   2  -3    9.45    0.42
   3   2   3    9.71    0.57
   4  -2   3    9.02    0.40
  -4  -2  -3    9.55    0.55
  -4  -2  -3    9.38    0.50
  -4  -2  -3    9.33    0.49
  -4  -2  -3    9.52    0.48
   4  -2   3    8.86    0.45
  -4   2  -3    9.75    0.44
   4   2   3    9.26    0.48
  -4   2  -3    9.42    0.52
   5  -2   3    1.22    0.18
  -5  -2  -3    1.20    0.24
  -5  -2  -3    0.99    0.27
  -5  -2  -3    1.02    0.26
  -5  -2  -3    0.92    0.23
   5  -2   3    1.20    0.25
  -5   2  -3    1.40    0.24
   5   2   3    0.71    0.23
  -5   2  -3    1.14    0.21
  -6  -2  -3    0.05    0.18
   6  -2   3    0.39    0.23
  -6  -2  -3   -0.09    0.21
  -6  -2  -3    0.11    0.20
   6  -2   3   -0.09    0.13
  -6  -2  -3    0.07    0.19
   6   2   3    0.08    0.21
  -6   2  -3   -0.28    0.17
  -6   2  -3    0.18    0.19
   7  -2   3    0.99    0.28
  -7  -2  -3    0.12    0.23
  -7  -2  -3    1.12    0.32
  -7  -2  -3    0.82    0.26
  -7  -2  -3    0.82    0.29
   7  -2   3    0.58    0.20
   7   2   3    0.72    0.27
  -7   2  -3    0.56    0.25
  -7   2  -3    0.78    0.23
  -8  -2  -3    0.26    0.28
   8  -2   3    0.42    0.28
  -8  -2  -3    0.35    0.27
  -8  -2  -3    0.60    0.28
  -8   2  -3    0.32    0.27
   8   2   3    0.23    0.29
  -9  -2  -3    0.66    0.31
  -9  -2  -3    0.70    0.33
  -9   2  -3    0.65    0.33
 -10  -2  -3   -0.04    0.29
 -10   2  -3    0.08    0.30
 -11   2  -3    0.37    0.33
 -12   2  -3   -0.13    0.35
 -13   2  -3   -0.05    0.37
 -14   2  -3    0.08    0.43
 -14   3   3    0.18    0.40
 -13   3   3    0.23    0.36
 -12   3   3   -0.03    0.29
 -11   3   3   -0.06    0.29
 -10   3   3    0.78    0.30
  -9  -3   3    0.00    0.23
  -9  -3   3   -0.27    0.33
  -9   3   3   -0.40    0.22
   9   3  -3   -0.20    0.31
  -8  -3   3    0.48    0.22
  -8  -3   3    0.18    0.34
  -8  -3   3    0.32    0.31
  -8   3   3    0.16    0.24
   8   3  -3    0.29    0.31
   7  -3  -3   -0.06    0.24
  -7  -3   3   -0.33    0.27
  -7  -3   3   -0.07    0.24
   7  -3  -3    0.02    0.20
  -7  -3   3    0.35    0.28
   7   3  -3    0.14    0.29
  -7   3   3    0.09    0.20
  -6  -3   3    2.64    0.35
   6  -3  -3    1.81    0.24
  -6  -3   3    2.48    0.34
   6  -3  -3    1.69    0.20
  -6  -3   3    1.83    0.33
   6   3  -3    2.01    0.34
  -6   3   3    1.81    0.23
  -5  -3   3    0.49    0.23
  -5  -3   3    0.88    0.24
   5  -3  -3    0.53    0.15
  -5   3   3    0.63    0.15
   5   3  -3    0.14    0.24
   5   3  -3    0.39    0.20
  -5   3   3    0.61    0.20
  -4  -3   3    1.43    0.23
   4  -3  -3    1.30    0.19
  -4  -3   3    1.36    0.23
   4   3  -3    0.99    0.20
  -4   3   3    1.11    0.23
   4   3  -3    1.23    0.29
  -3  -3   3    2.16    0.24
  -3  -3   3    2.07    0.23
   3  -3  -3    1.95    0.22
   3   3  -3    1.73    0.30
  -2  -3   3   19.33    0.75
   2  -3  -3   20.42    0.89
  -2   3   3   19.86    0.90
   2   3  -3   19.21    0.94
  -1  -3   3   13.54    0.52
   1  -3  -3   14.36    0.69
  -1   3   3   14.22    0.71
   1   3  -3   12.65    0.72
   0  -3  -3    1.67    0.23
   0   3   3    1.34    0.14
   0   3  -3    1.22    0.27
   0   3   3    1.16    0.25
  -1  -3  -3   32.42    1.42
  -1   3  -3   34.18    1.44
   1   3   3   35.38    1.13
   1   3   3   34.53    1.45
  -2  -3  -3    0.60    0.14
  -2  -3  -3    0.44    0.18
   2   3   3    0.34    0.16
  -2   3  -3    0.54    0.22
   2   3   3    0.39    0.24
  -3  -3  -3    0.13    0.13
  -3  -3  -3   -0.02    0.13
  -3   3  -3   -0.12    0.12
   3   3   3    0.01    0.22
   3   3   3    0.05    0.16
  -3   3  -3   -0.16    0.18
  -4  -3  -3    6.95    0.43
  -4  -3  -3    6.42    0.40
  -4  -3  -3    6.52    0.42
  -4  -3  -3    6.65    0.49
   4   3   3    7.09    0.56
  -4   3  -3    6.55    0.36
  -5  -3  -3    6.04    0.48
   5  -3   3    6.19    0.33
  -5  -3  -3    6.27    0.45
   5  -3   3    6.97    0.40
  -5  -3  -3    5.94    0.43
  -5  -3  -3    5.49    0.42
   5   3   3    6.14    0.55
  -5   3  -3    6.25    0.48
  -5   3  -3    6.19    0.37
  -6  -3  -3    2.24    0.34
   6  -3   3    2.21    0.24
   6  -3   3    3.48    0.36
  -6  -3  -3    1.99    0.33
  -6  -3  -3    1.92    0.35
  -6  -3  -3    1.81    0.32
  -6   3  -3    1.99    0.28
   6   3   3    1.98    0.41
  -6   3  -3    2.17    0.33
  -7  -3  -3    2.80    0.40
  -7  -3  -3    2.65    0.38
   7  -3   3    2.95    0.39
  -7  -3  -3    3.78    0.47
  -7   3  -3    2.29    0.33
  -7   3  -3    2.56    0.32
  -8  -3  -3    2.96    0.46
  -8  -3  -3    3.29    0.45
  -8  -3  -3    2.79    0.43
  -8   3  -3    3.27    0.39
  -9  -3  -3   -0.35    0.32
  -9  -3  -3    0.30    0.30
  -9   3  -3   -0.49    0.24
 -10  -3  -3    0.41    0.32
 -10   3  -3    1.43    0.36
 -11   3  -3    0.23    0.32
 -12   3  -3    0.18    0.34
 -13   3  -3   -0.09    0.36
 -14   3  -3    0.02    0.42
 -13   4   3   -0.14    0.34
 -12   4   3   -0.16    0.28
 -11   4   3    0.86    0.31
 -10  -4   3    0.01    0.25
  10   4  -3   -0.36    0.38
 -10   4   3    0.46    0.26
  -9  -4   3    0.22    0.23
  -9   4   3    0.29    0.23
   9   4  -3    0.16    0.36
  -8  -4   3   -0.49    0.33
   8   4  -3    0.37    0.38
  -8   4   3    0.14    0.21
  -7  -4   3    6.02    0.57
  -7  -4   3    6.63    0.56
   7   4  -3    5.70    0.62
  -6  -4   3    0.47    0.26
  -6  -4   3   -0.06    0.26
   6  -4  -3    0.11    0.16
   6   4  -3    0.29    0.31
  -6   4   3   -0.03    0.25
   5  -4  -3    2.47    0.29
  -5  -4   3    2.74    0.35
  -5   4   3    2.36    0.36
   5   4  -3    2.52    0.41
   4  -4  -3    0.05    0.15
  -4  -4   3   -0.19    0.17
  -4   4   3   -0.27    0.13
   4   4  -3    0.37    0.29
  -3  -4   3    3.26    0.29
   3  -4  -3    3.87    0.35
  -3   4   3    3.67    0.39
   3   4  -3    3.26    0.43
   2  -4  -3    0.73    0.20
  -2  -4   3    0.55    0.17
  -2   4   3    0.15    0.25
   2   4  -3    0.68    0.28
  -1  -4   3    0.17    0.11
   1  -4  -3    0.01    0.13
   1   4  -3    0.52    0.26
  -1   4   3    0.09    0.24
   0  -4  -3    5.45    0.42
   0   4  -3    4.71    0.47
   0   4   3    4.58    0.47
  -1  -4  -3    2.90    0.34
  -1   4  -3    3.30    0.41
   1   4   3    3.24    0.40
   1   4   3    2.88    0.25
  -2  -4  -3    0.73    0.22
   2   4   3    0.60    0.31
  -2   4  -3    0.57    0.27
   2   4   3    0.73    0.20
  -3  -4  -3    0.71    0.18
  -3  -4  -3    0.17    0.18
   3   4   3    0.60    0.22
   3   4   3    0.34    0.30
  -3   4  -3    0.80    0.29
  -4  -4  -3   10.57    0.56
  -4  -4  -3    9.99    0.53
  -4  -4  -3    8.43    0.63
   4   4   3    9.55    0.71
  -4   4  -3    9.46    0.65
  -5  -4  -3    2.75    0.34
  -5  -4  -3    2.79    0.35
  -5  -4  -3    2.46    0.37
   5   4   3    2.78    0.47
  -6  -4  -3   -0.23    0.23
  -6  -4  -3    0.06    0.21
  -6  -4  -3    0.04    0.26
   6   4   3   -0.03    0.36
  -6   4  -3    0.02    0.26
  -6   4  -3   -0.15    0.21
  -7  -4  -3    0.15    0.24
  -7  -4  -3   -0.05    0.30
   7   4   3   -0.02    0.39
  -7   4  -3   -0.25    0.24
  -8  -4  -3    0.55    0.31
  -8   4  -3    0.22    0.25
  -9  -4  -3    0.36    0.32
  -9   4  -3    0.33    0.27
 -10  -4  -3   -0.26    0.31
 -10   4  -3   -0.05    0.28
 -11   4  -3    0.39    0.31
 -12   4  -3    0.08    0.30
 -13   4  -3   -0.06    0.38
 -10  -5   3    0.34    0.31
  10   5  -3   -0.25    0.42
  -9  -5   3    0.99    0.32
   9   5  -3   -0.04    0.41
  -8  -5   3    0.53    0.27
   8   5  -3   -0.17    0.39
   7   5  -3   -0.60    0.33
   6  -5  -3    2.02    0.31
   6   5  -3    1.74    0.47
  -6   5   3    1.59    0.41
   5  -5  -3    0.06    0.19
   5   5  -3    0.02    0.34
  -5   5   3    0.00    0.30
   4  -5  -3    0.65    0.23
   4   5  -3    0.52    0.34
  -4   5   3    0.36    0.33
  -3  -5   3    0.37    0.20
   3  -5  -3    0.51    0.22
  -3   5   3    0.70    0.34
   3   5  -3    0.54    0.34
   2  -5  -3    0.54    0.22
  -2  -5   3    0.34    0.17
   2   5  -3    0.63    0.34
  -2   5   3    0.24    0.31
   1  -5  -3    0.03    0.15
  -1  -5   3   -0.02    0.12
   1   5  -3    0.02    0.28
  -1   5   3   -0.11    0.28
   0  -5  -3    0.13    0.18
   0   5   3    0.07    0.29
   0   5  -3    0.38    0.31
  -1  -5  -3    0.25    0.19
   1   5   3    0.36    0.32
  -1   5  -3    0.13    0.29
  -2  -5  -3   -0.15    0.16
   2   5   3    0.01    0.31
  -2   5  -3   -0.54    0.29
   2   5   3   -0.19    0.21
  -3  -5  -3    0.11    0.20
  -3   5  -3    0.27    0.33
   3   5   3    0.34    0.34
  -4  -5  -3    7.46    0.61
  -4   5  -3    7.90    0.67
   4   5   3    7.94    0.73
  -5  -5  -3    4.56    0.52
   5   5   3    3.54    0.60
  -5   5  -3    5.46    0.57
  -6  -5  -3    4.17    0.53
   6   5   3    4.82    0.65
  -6   5  -3    5.63    0.56
  -7  -5  -3    0.08    0.26
   7   5   3    0.17    0.41
  -8  -5  -3    0.12    0.28
   8   5   3   -0.61    0.41
  -9  -5  -3   -0.11    0.29
  -9   5  -3   -0.08    0.25
 -10  -5  -3   -0.64    0.30
 -10   5  -3   -0.03    0.28
 -11   5  -3    0.09    0.31
 -12   5  -3   -0.60    0.30
 -10  -6   3    0.70    0.37
  10   6  -3   -0.29    0.50
  -9  -6   3    0.90    0.37
   9   6  -3    0.03    0.46
  -8  -6   3    0.25    0.27
   8   6  -3   -0.13    0.44
   7   6  -3   -0.10    0.40
   6   6  -3    0.52    0.43
   5   6  -3    5.21    0.68
  -5   6   3    5.14    0.62
   4  -6  -3    4.08    0.47
   4   6  -3    4.81    0.62
  -4   6   3    4.43    0.58
   3  -6  -3    0.11    0.20
  -3   6   3   -0.04    0.35
   3   6  -3    0.31    0.36
   2  -6  -3    3.29    0.42
  -2   6   3    3.05    0.53
   2   6  -3    2.71    0.52
   1  -6  -3    0.17    0.21
   1   6  -3   -0.37    0.33
  -1   6   3   -0.15    0.37
   0  -6  -3    3.24    0.43
   0   6  -3    3.21    0.54
   0   6   3    2.58    0.50
  -1  -6  -3    0.66    0.28
   1   6   3    0.68    0.42
  -1   6  -3    0.08    0.35
  -2  -6  -3    1.83    0.38
   2   6   3    1.84    0.49
  -2   6  -3    2.35    0.50
  -3  -6  -3   -0.03    0.21
  -3   6  -3   -0.20    0.35
   3   6   3    0.10    0.37
  -4  -6  -3    0.04    0.23
   4   6   3   -0.32    0.37
  -4   6  -3   -0.16    0.32
  -5  -6  -3   -0.07    0.23
  -5   6  -3   -0.06    0.34
   5   6   3   -0.14    0.39
  -6  -6  -3    0.05    0.25
  -6   6  -3   -0.15    0.25
   6   6   3   -0.29    0.43
  -7  -6  -3    0.13    0.28
   7   6   3   -0.29    0.42
  -8  -6  -3   -0.21    0.31
   8   6   3   -0.68    0.44
  -9  -6  -3    0.14    0.36
 -10  -6  -3   -0.36    0.35
 -11  -6  -3   -0.24    0.44
 -10  -7   3    0.02    0.38
  10   7  -3   -0.60    0.57
  -9  -7   3   -0.29    0.32
   9   7  -3   -0.32    0.55
  -8  -7   3    0.16    0.30
   8   7  -3   -0.72    0.44
  -7  -7   3    0.21    0.27
   7   7  -3    0.34    0.49
   6   7  -3   -0.33    0.41
   5  -7  -3    0.13    0.27
   5   7  -3   -0.01    0.42
  -5   7   3   -0.01    0.43
   4  -7  -3    0.09    0.26
  -4   7   3   -0.41    0.38
   4   7  -3    0.03    0.42
   3  -7  -3   -0.14    0.22
   3   7  -3   -0.22    0.40
  -3   7   3   -0.35    0.40
   2  -7  -3    0.46    0.28
  -2   7   3   -0.09    0.42
   2   7  -3    0.10    0.38
   1  -7  -3    1.85    0.39
   1   7  -3    0.91    0.46
  -1   7   3    1.91    0.52
   0  -7  -3    1.63    0.39
   0   7   3    2.26    0.54
   0   7  -3    1.47    0.49
  -1  -7  -3    0.11    0.24
  -1   7  -3    0.46    0.41
   1   7   3   -0.26    0.39
  -2  -7  -3    0.21    0.26
  -2   7  -3    0.15    0.38
   2   7   3   -0.04    0.40
  -3  -7  -3   -0.09    0.23
  -3   7  -3   -0.17    0.36
   3   7   3    0.27    0.42
  -4  -7  -3    0.25    0.27
  -4   7  -3    0.48    0.40
   4   7   3   -0.51    0.40
  -5  -7  -3    0.01    0.27
  -5   7  -3   -0.11    0.37
   5   7   3   -0.19    0.44
  -6  -7  -3    0.24    0.29
   6   7   3   -0.64    0.45
  -7  -7  -3   -0.14    0.33
   7   7   3   -0.54    0.47
  -8  -7  -3   -0.15    0.34
   8   7   3   -0.22    0.57
  -9  -7  -3   -0.07    0.39
   8   8  -3   -0.38    0.59
  -7  -8   3    0.23    0.31
   7   8  -3   -0.30    0.56
  -6  -8   3   -0.14    0.27
   6   8  -3    0.15    0.53
   5   8  -3    0.13    0.52
   4  -8  -3   -0.02    0.29
   4   8  -3   -0.27    0.49
  -4   8   3   -0.59    0.45
   3  -8  -3    0.33    0.31
   3   8  -3    0.06    0.45
  -3   8   3   -0.38    0.46
   2  -8  -3    0.14    0.30
  -2   8   3   -0.58    0.43
   2   8  -3   -0.01    0.45
   1  -8  -3    0.13    0.26
   1   8  -3   -0.49    0.43
  -1   8   3    0.00    0.47
   0  -8  -3   -0.01    0.27
   0   8   3   -0.23    0.43
   0   8  -3   -0.51    0.43
  -1  -8  -3    0.40    0.29
   1   8   3   -0.04    0.47
  -1   8  -3    0.39    0.48
  -2  -8  -3    0.15    0.29
   2   8   3   -0.18    0.46
  -2   8  -3   -0.26    0.43
  -3  -8  -3   -0.04    0.28
  -3   8  -3   -0.11    0.45
   3   8   3   -0.55    0.41
  -4  -8  -3   -0.08    0.27
  -4   8  -3   -0.05    0.46
   4   8   3   -0.21    0.50
  -5  -8  -3    0.00    0.32
   5   8   3    0.63    0.62
  -5   8  -3   -0.56    0.47
  -6  -8  -3    0.29    0.36
   6   8   3   -0.82    0.53
  -7  -8  -3   -0.20    0.34
   7   8   3    0.14    0.64
   4   9  -3   -0.34    0.51
   3  -9  -3    0.01    0.37
   3   9  -3   -0.45    0.49
  -3   9   3   -0.76    0.56
   2  -9  -3   -0.15    0.35
   2   9  -3   -0.26    0.53
  -2   9   3   -0.71    0.56
   1  -9  -3    0.08    0.35
  -1   9   3   -0.65    0.51
   1   9  -3    0.15    0.54
   0  -9  -3   -0.04    0.36
   0   9   3    0.05    0.57
   0   9  -3    0.05    0.53
  -1  -9  -3    0.05    0.36
  -1   9  -3    0.12    0.55
   1   9   3   -0.68    0.54
  -2  -9  -3   -0.45    0.31
   2   9   3   -0.68    0.55
  -2   9  -3    0.02    0.54
  -3  -9  -3   -0.09    0.33
   3   9   3   -0.58    0.57
  -3   9  -3    0.27    0.56
 -15   0   4   -0.12    0.45
 -14   0   4    0.36    0.43
 -13   0   4    0.01    0.37
 -12   0   4    2.32    0.46
 -11   0   4    0.38    0.34
 -10   0   4    2.19    0.42
  10   0  -4    1.54    0.38
  -9   0   4   -0.10    0.29
   9   0  -4   -0.31    0.29
   9   0  -4    0.26    0.29
  -8   0   4    0.78    0.32
  -8   0   4    0.96    0.30
   8   0  -4    1.21    0.34
   8   0  -4    1.21    0.31
  -7   0   4   -0.14    0.24
   7   0  -4   -0.18    0.23
  -7   0   4   -0.14    0.22
   7   0  -4   -0.29    0.19
  -7   0   4   -0.18    0.22
  -6   0   4    4.01    0.38
   6   0  -4    3.99    0.37
  -6   0   4    3.77    0.34
   6   0  -4    3.97    0.34
  -6   0   4    4.04    0.36
   5   0  -4    0.16    0.19
  -5   0   4   -0.11    0.13
  -5   0   4   -0.12    0.13
   5   0  -4   -0.10    0.18
   5   0  -4   -0.08    0.10
  -5   0   4   -0.10    0.17
   4   0  -4   20.39    0.82
  -4   0   4   21.28    0.83
  -4   0   4   19.69    1.51
  -4   0   4   20.16    0.78
  -4   0   4   19.68    0.79
   4   0  -4   21.98    1.63
   4   0  -4   21.12    0.81
   3   0  -4   -0.10    0.16
  -3   0   4   -0.55    0.94
   3   0  -4   -0.39    0.15
  -3   0   4    0.00    0.13
   3   0  -4   -0.03    0.92
  -3   0   4   -0.13    0.12
  -3   0   4    0.45    0.18
  -2   0   4    6.96    0.38
  -2   0   4    6.58    0.98
   2   0  -4    7.06    0.44
   2   0  -4    7.56    0.40
   2   0  -4    7.11    1.07
   1   0  -4   -0.07    0.12
   1   0  -4   -0.13    0.15
  -1   0   4   -0.02    0.12
   1   0  -4    0.39    0.80
  -1   0   4   -1.00    0.78
   0   0  -4   32.86    1.16
   0   0   4   33.62    1.16
   0   0  -4   30.11    2.18
   0   0  -4   35.14    1.31
   0   0  -4   33.49    1.08
  -1   0  -4    0.15    0.12
  -1   0  -4    0.32    0.20
  -1   0  -4   -0.22    0.15
   1   0   4    0.10    0.15
  -2   0  -4  228.36    6.71
   2   0   4  228.18    7.27
  -2   0  -4  223.96    7.26
  -2   0  -4  216.29    7.95
  -3   0  -4    0.08    0.14
  -3   0  -4   -0.13    0.14
  -3   0  -4   -0.19    0.16
  -3   0  -4   -0.02    0.22
   3   0   4   -0.07    0.16
  -4   0  -4    2.12    0.27
  -4   0  -4    1.81    0.23
  -4   0  -4    2.09    0.23
   4   0   4    2.04    0.26
   5   0   4   -0.19    0.15
  -5   0  -4   -0.25    0.22
  -5   0  -4   -0.31    0.17
  -5   0  -4   -0.01    0.17
   5   0   4    0.01    0.19
  -5   0  -4    0.08    0.15
   6   0   4   11.35    0.58
  -6   0  -4   11.39    0.61
  -6   0  -4   11.22    0.70
  -6   0  -4   11.14    0.57
   6   0   4   10.35    0.60
  -6   0  -4   10.71    0.58
  -7   0  -4    0.00    0.27
   7   0   4   -0.05    0.25
  -7   0  -4    0.34    0.34
   7   0   4    0.21    0.25
  -7   0  -4   -0.10    0.22
  -7   0  -4    0.13    0.24
   8   0   4    3.25    0.42
  -8   0  -4    2.89    0.39
  -8   0  -4    2.92    0.50
  -8   0  -4    2.76    0.37
   8   0   4    2.54    0.37
   9   0   4    0.54    0.34
  -9   0  -4   -0.08    0.27
   9   0   4   -0.31    0.28
  10   0   4   -0.39    0.31
 -10   0  -4    0.10    0.31
 -11   0  -4    0.30    0.33
 -12   0  -4    0.29    0.35
 -13   0  -4    0.14    0.38
 -14   0  -4   -0.36    0.37
 -15   1   4    0.15    0.46
 -14  -1   4    0.08    0.42
 -14   1   4    0.28    0.42
 -13  -1   4    0.27    0.38
 -13   1   4    0.18    0.35
 -12  -1   4    1.31    0.42
 -12   1   4    1.12    0.41
 -11  -1   4    0.55    0.35
 -11   1   4    0.61    0.35
 -10  -1   4    0.54    0.36
 -10   1   4    0.14    0.31
  -9  -1   4    0.57    0.32
   9  -1  -4    0.05    0.26
  -9   1   4   -0.18    0.25
   9   1  -4   -0.08    0.29
   8  -1  -4    5.01    0.47
  -8  -1   4    5.11    0.50
   8  -1  -4    5.25    0.45
  -8  -1   4    5.08    0.36
  -8  -1   4    6.16    0.50
   8   1  -4    5.49    0.49
  -8   1   4    5.55    0.43
  -8   1   4    4.97    0.44
   8   1  -4    5.50    0.40
   7  -1  -4    3.29    0.37
   7  -1  -4    3.24    0.34
  -7  -1   4    3.59    0.40
  -7  -1   4    3.11    0.37
  -7  -1   4    2.72    0.38
   7   1  -4    3.02    0.31
  -7   1   4    3.48    0.30
   7   1  -4    3.80    0.39
  -7   1   4    3.69    0.36
  -7   1   4    3.67    0.34
   6  -1  -4    1.11    0.26
  -6  -1   4    0.61    0.52
  -6  -1   4    1.33    0.26
   6  -1  -4    1.95    0.76
  -6  -1   4    1.34    0.26
  -6  -1   4    1.24    0.27
   6  -1  -4    1.23    0.22
   6   1  -4    1.31    0.21
  -6   1   4    1.16    0.19
  -6   1   4    1.29    0.25
  -6   1   4    0.98    0.21
   6   1  -4    1.37    0.26
  -5  -1   4   94.09    5.99
   5  -1  -4   91.41    3.20
  -5  -1   4   99.38    3.28
   5  -1  -4   95.04    3.23
  -5  -1   4   96.89    3.27
  -5  -1   4   94.64    3.05
   5   1  -4   96.24    3.49
  -5   1   4  101.69    3.17
   5   1  -4   97.71    3.26
  -5   1   4   98.25    3.15
  -5   1   4   93.48    3.01
  -4  -1   4    6.05    0.37
  -4  -1   4    4.90    0.85
  -4  -1   4    5.78    0.36
   4  -1  -4    5.83    0.35
   4  -1  -4    5.19    0.30
  -4  -1   4    5.92    0.38
   4  -1  -4    5.23    0.34
  -4   1   4    5.29    0.31
   4   1  -4    6.34    0.37
   4   1  -4    5.62    0.36
  -3  -1   4   59.95    4.02
   3  -1  -4   62.15    2.34
   3  -1  -4   63.20    2.15
   3  -1  -4   62.51    2.13
  -3  -1   4   67.22    2.20
  -3  -1   4   63.82    2.04
   3   1  -4   69.37    2.40
  -3   1   4   64.42    2.01
   3   1  -4   65.41    2.18
  -2  -1   4    6.61    0.38
   2  -1  -4    6.75    0.35
  -2  -1   4    5.75    0.87
   2  -1  -4    6.59    0.38
   2   1  -4    7.25    0.44
  -2   1   4    7.69    0.33
   2   1  -4    7.39    0.37
  -1  -1   4   -0.45    0.66
   1  -1  -4    0.15    0.13
   1  -1  -4   -0.17    0.12
  -1  -1   4    0.20    0.16
  -1   1   4    0.07    0.12
   1   1  -4    0.16    0.15
   1   1  -4   -0.13    0.20
   0  -1  -4  210.74    7.37
   0  -1  -4  205.37    6.72
   0  -1   4  203.84    6.73
   0   1   4  209.83    6.21
   0   1  -4  212.20    6.72
   0   1  -4  213.01    7.39
   0   1  -4  202.39    6.22
   0   1   4  208.94    6.72
  -1  -1  -4    5.75    0.34
  -1  -1  -4    6.79    0.41
  -1  -1  -4    6.27    0.34
   1  -1   4    5.57    0.35
   1   1   4    5.55    0.32
  -1   1  -4    5.52    0.45
  -1   1  -4    5.45    0.33
  -1   1  -4    5.83    0.32
  -2  -1  -4  286.46    9.22
  -2  -1  -4  290.71   10.09
   2  -1   4  277.59    9.21
  -2  -1  -4  290.20    8.52
  -2   1  -4  281.71    8.50
   2   1   4  285.77    9.20
  -2   1  -4  293.00    9.17
  -2   1  -4  280.74    9.19
  -2   1  -4  285.27   10.09
  -3  -1  -4    0.70    0.18
  -3  -1  -4    0.40    0.17
  -3  -1  -4    0.46    0.18
   3  -1   4    0.39    0.19
  -3  -1  -4    0.35    0.16
   3  -1   4    0.65    0.16
  -3   1  -4    0.33    0.17
  -3   1  -4    0.48    0.14
  -3   1  -4    0.51    0.17
  -3   1  -4    0.25    0.16
   3   1   4    0.85    0.19
   4  -1   4    0.17    0.19
  -4  -1  -4    0.69    0.19
   4  -1   4    0.87    0.17
  -4  -1  -4    0.50    0.18
  -4  -1  -4    0.21    0.16
  -4  -1  -4    0.84    0.18
  -4   1  -4    0.46    0.14
  -4   1  -4    0.51    0.17
  -4   1  -4    0.46    0.22
  -4   1  -4    0.47    0.18
   4   1   4    0.54    0.19
   5  -1   4    0.19    0.16
  -5  -1  -4    0.58    0.21
  -5  -1  -4    0.19    0.20
  -5  -1  -4    0.68    0.21
  -5  -1  -4    0.35    0.20
   5  -1   4    0.14    0.21
  -5   1  -4    0.50    0.17
   5   1   4   -0.17    0.18
  -5   1  -4    0.70    0.22
  -5   1  -4    0.27    0.24
  -5   1  -4    0.21    0.18
  -6  -1  -4    1.35    0.29
   6  -1   4    1.31    0.24
   6  -1   4    1.05    0.28
  -6  -1  -4    1.25    0.27
  -6  -1  -4    1.26    0.27
  -6   1  -4    1.05    0.30
   6   1   4    1.12    0.29
  -6   1  -4    0.97    0.25
  -6   1  -4    1.10    0.26
  -6   1  -4    1.01    0.22
  -7  -1  -4    1.15    0.29
   7  -1   4    0.82    0.24
   7  -1   4    0.91    0.29
  -7  -1  -4    1.01    0.33
  -7  -1  -4    0.86    0.28
  -7  -1  -4    1.11    0.30
  -7   1  -4    0.68    0.27
  -7   1  -4    0.97    0.28
  -7   1  -4    1.11    0.32
   7   1   4    1.19    0.31
  -7   1  -4    0.63    0.23
   8  -1   4    7.02    0.54
  -8  -1  -4    6.87    0.63
  -8  -1  -4    6.75    0.53
   8  -1   4    7.05    0.52
  -8  -1  -4    6.42    0.52
  -8   1  -4    7.03    0.56
   8   1   4    7.68    0.57
  -8   1  -4    5.61    0.50
  -9  -1  -4    0.16    0.30
   9  -1   4    0.06    0.32
  -9  -1  -4    0.64    0.40
  -9   1  -4    0.30    0.31
   9   1   4    0.34    0.32
 -10  -1  -4    0.06    0.31
  10   1   4    0.38    0.32
 -10   1  -4    0.55    0.31
 -11  -1  -4    0.55    0.33
 -11   1  -4    0.62    0.35
 -12  -1  -4    0.14    0.36
 -12   1  -4    1.22    0.42
 -13  -1  -4    0.80    0.44
 -13   1  -4    0.47    0.42
 -14   1  -4    0.68    0.45
 -15   2   4    0.08    0.45
 -14   2   4    0.09    0.39
 -13   2   4    0.71    0.39
 -12   2   4    0.20    0.34
 -11  -2   4    0.53    0.38
 -11   2   4    0.21    0.31
 -10  -2   4   -0.25    0.30
 -10   2   4   -0.06    0.27
  -9  -2   4    0.16    0.98
  -9  -2   4    0.41    0.22
  -9  -2   4    0.43    0.33
   9   2  -4    0.79    0.30
  -9   2   4    0.13    0.28
   8  -2  -4    0.35    0.23
  -8  -2   4    0.10    0.27
  -8  -2   4    0.21    0.97
  -8  -2   4    0.02    0.32
   8   2  -4    0.52    0.28
  -8   2   4    0.31    0.25
  -7  -2   4    1.53    0.33
   7  -2  -4    1.91    0.29
  -7  -2   4    1.34    0.35
  -7  -2   4    0.34    0.82
  -7  -2   4    1.75    0.34
   7  -2  -4    1.21    0.29
   7   2  -4    1.25    0.32
  -7   2   4    1.70    0.28
   7   2  -4    1.89    0.30
  -6  -2   4   18.21    0.81
   6  -2  -4   17.11    0.72
  -6  -2   4   16.97    0.82
   6  -2  -4   17.08    0.76
  -6  -2   4   18.03    0.83
   6   2  -4   17.60    0.81
  -6   2   4   15.45    0.70
   6   2  -4   17.73    0.85
   5  -2  -4   -0.07    0.17
   5  -2  -4   -0.13    0.12
   5  -2  -4   -0.07    0.12
  -5  -2   4   -0.09    0.17
  -5  -2   4    0.09    0.21
  -5  -2   4    0.05    0.19
   5   2  -4    0.15    0.21
  -5   2   4   -0.10    0.14
   5   2  -4    0.12    0.19
   4  -2  -4    0.05    0.12
  -4  -2   4   -0.09    0.14
  -4  -2   4    0.01    0.17
   4  -2  -4    0.03    0.10
   4   2  -4   -0.16    0.17
  -4   2   4   -0.19    0.12
   4   2  -4   -0.30    0.15
  -3  -2   4    1.54    0.20
   3  -2  -4    1.30    0.18
  -3  -2   4    1.44    0.21
  -3   2   4    0.94    0.14
   3   2  -4    1.35    0.23
   3   2  -4    1.63    0.20
  -3   2   4    1.50    0.15
   2  -2  -4   27.32    1.10
  -2  -2   4   26.96    0.99
   2   2  -4   27.84    1.16
  -2   2   4   26.07    0.88
   2   2  -4   27.06    0.96
  -1  -2   4    1.26    0.16
   1  -2  -4    1.26    0.19
   1   2  -4    0.98    0.22
  -1   2   4    1.28    0.13
   1   2  -4    1.16    0.12
   0  -2   4    1.49    0.15
   0  -2  -4    1.57    0.21
   0   2  -4    1.22    0.24
   0   2   4    1.24    0.24
   0   2   4    1.24    0.15
  -1  -2  -4    0.24    0.11
  -1  -2  -4    0.30    0.14
   1  -2   4    0.49    0.11
   1   2   4    0.47    0.13
  -1   2  -4    0.31    0.14
  -1   2  -4    0.19    0.19
   2  -2   4    3.03    0.19
  -2  -2  -4    3.04    0.25
   2  -2   4    3.12    0.22
  -2  -2  -4    2.81    0.29
  -2  -2  -4    2.76    0.25
  -2   2  -4    3.03    0.32
  -2   2  -4    3.49    0.24
   2   2   4    2.71    0.24
  -3  -2  -4    0.47    0.18
  -3  -2  -4    0.40    0.17
   3  -2   4    0.02    0.14
   3  -2   4    0.45    0.11
  -3  -2  -4    0.51    0.16
   3   2   4    0.49    0.16
  -3   2  -4    0.17    0.19
  -3   2  -4    0.31    0.15
  -4  -2  -4    2.49    0.30
   4  -2   4    2.45    0.28
  -4  -2  -4    2.11    0.29
   4  -2   4    2.33    0.20
  -4  -2  -4    2.21    0.27
  -4  -2  -4    2.19    0.28
  -4   2  -4    1.89    0.28
   4   2   4    2.11    0.26
  -4   2  -4    2.76    0.25
   5  -2   4    1.44    0.20
   5  -2   4    1.78    0.28
  -5  -2  -4    1.43    0.28
  -5  -2  -4    1.39    0.26
  -5  -2  -4    0.86    0.26
  -5  -2  -4    1.57    0.27
  -5   2  -4    1.76    0.28
   5   2   4    1.07    0.26
  -5   2  -4    1.61    0.25
   6  -2   4    2.20    0.33
   6  -2   4    2.20    0.26
  -6  -2  -4    2.71    0.36
  -6  -2  -4    2.11    0.32
  -6  -2  -4    2.60    0.35
  -6  -2  -4    2.84    0.34
   6   2   4    2.21    0.32
  -6   2  -4    2.06    0.28
  -6   2  -4    2.58    0.33
  -7  -2  -4    0.68    0.31
   7  -2   4    0.81    0.23
   7  -2   4    0.91    0.30
  -7  -2  -4    0.83    0.31
  -7  -2  -4    1.00    0.29
  -7  -2  -4    1.12    0.31
  -7   2  -4    0.69    0.27
   7   2   4    0.67    0.28
  -7   2  -4    0.35    0.25
  -8  -2  -4   -0.04    0.26
  -8  -2  -4    0.21    0.29
  -8  -2  -4   -0.15    0.15
   8  -2   4   -0.02    0.28
   8   2   4   -0.03    0.27
  -8   2  -4    0.12    0.27
  -9  -2  -4    2.09    0.41
  -9  -2  -4    1.55    0.40
  -9   2  -4    1.95    0.38
 -10  -2  -4    0.04    0.34
 -10   2  -4    0.51    0.34
 -11   2  -4    1.65    0.41
 -12   2  -4    0.31    0.37
 -13   2  -4    0.75    0.43
 -14   2  -4    0.00    0.43
 -14   3   4    0.01    0.38
 -13   3   4    0.00    0.35
 -12   3   4    0.03    0.29
 -11   3   4   -0.01    0.28
 -10   3   4    0.17    0.27
  -9  -3   4    0.22    0.23
  -9  -3   4   -0.25    0.34
  -9  -3   4    0.21    1.56
   9   3  -4    0.30    0.32
  -9   3   4    0.31    0.26
  -8  -3   4    1.19    0.41
  -8  -3   4    1.29    0.36
   8   3  -4    1.19    0.36
  -8   3   4    1.24    0.27
  -7  -3   4    0.14    0.28
  -7  -3   4   -0.18    0.28
   7  -3  -4    0.25    0.20
  -7  -3   4   -0.28    0.23
  -7   3   4   -0.12    0.18
   7   3  -4    0.02    0.27
   6  -3  -4    0.69    0.22
   6  -3  -4    0.97    0.18
  -6  -3   4    1.26    0.28
   6  -3  -4    0.68    0.17
  -6  -3   4    0.68    0.28
  -6  -3   4    1.15    0.29
   6   3  -4    1.05    0.31
  -6   3   4    0.52    0.18
  -5  -3   4   12.81    0.66
  -5  -3   4   13.33    0.65
   5  -3  -4   13.03    0.62
   5   3  -4   12.29    0.74
   5   3  -4   12.35    0.60
  -4  -3   4    1.60    0.25
   4  -3  -4    1.54    0.21
  -4  -3   4    1.94    0.27
  -4   3   4    1.52    0.26
   4   3  -4    1.72    0.22
   4   3  -4    1.24    0.29
   3  -3  -4    0.76    0.17
  -3  -3   4    0.87    0.20
  -3  -3   4    0.68    0.19
   3   3  -4    0.58    0.15
  -3   3   4    0.28    0.15
   3   3  -4    0.78    0.25
   2  -3  -4    4.20    0.34
  -2  -3   4    4.55    0.30
   2   3  -4    3.92    0.41
  -2   3   4    3.99    0.38
   1  -3  -4   76.56    2.84
  -1  -3   4   74.71    2.49
   1   3  -4   71.72    2.87
  -1   3   4   77.58    2.86
   0  -3  -4    9.33    0.54
   0  -3   4    8.48    0.36
   0   3  -4    8.44    0.57
   0   3   4    8.93    0.57
   0   3   4    8.82    0.38
  -1  -3  -4   17.60    0.64
  -1  -3  -4   16.24    0.83
   1   3   4   16.59    0.86
   1   3   4   17.32    0.65
  -1   3  -4   16.59    0.86
  -2  -3  -4    0.26    0.16
  -2  -3  -4   -0.13    0.11
   2   3   4    0.08    0.23
  -2   3  -4   -0.17    0.20
   2   3   4    0.01    0.14
  -3  -3  -4    0.21    0.17
  -3  -3  -4    0.33    0.16
   3   3   4    0.41    0.19
   3   3   4    0.51    0.27
  -3   3  -4    0.01    0.21
  -3   3  -4    0.45    0.16
  -4  -3  -4    2.36    0.29
   4  -3   4    3.01    0.26
  -4  -3  -4    2.30    0.29
  -4  -3  -4    1.85    0.27
  -4  -3  -4    2.31    0.32
   4  -3   4    2.38    0.19
   4   3   4    2.35    0.38
  -4   3  -4    2.61    0.26
  -4   3  -4    2.15    0.33
  -5  -3  -4    4.21    0.38
  -5  -3  -4    4.00    0.42
  -5  -3  -4    4.20    0.39
   5  -3   4    4.98    0.39
  -5  -3  -4    4.51    0.42
   5  -3   4    4.98    0.29
  -5   3  -4    4.67    0.44
  -5   3  -4    4.67    0.34
  -6  -3  -4    2.87    0.41
   6  -3   4    3.23    0.30
  -6  -3  -4    3.89    0.39
  -6  -3  -4    3.58    0.42
   6  -3   4    3.48    0.39
  -6  -3  -4    3.16    0.38
  -6   3  -4    2.68    0.38
  -6   3  -4    3.19    0.33
   7  -3   4    0.78    0.32
  -7  -3  -4    0.67    0.29
  -7  -3  -4    1.49    0.37
  -7  -3  -4    0.90    0.31
  -7   3  -4    0.53    0.28
  -7   3  -4    0.78    0.27
  -8  -3  -4    0.06    0.33
  -8  -3  -4    0.06    0.31
  -8  -3  -4    0.18    0.27
  -8   3  -4   -0.56    0.25
  -9  -3  -4    0.96    0.38
  -9  -3  -4    0.32    0.35
  -9   3  -4    1.06    0.34
 -10  -3  -4   -0.36    0.22
 -10   3  -4    0.02    0.29
 -11   3  -4   -0.43    0.32
 -12   3  -4   -0.64    0.32
 -13   3  -4    0.10    0.42
 -14   3  -4    0.16    0.45
 -13   4   4   -0.30    0.32
 -12   4   4    0.08    0.28
 -11   4   4    0.05    0.27
 -10  -4   4    0.72    0.30
 -10  -4   4    1.86    1.90
  10   4  -4   -0.06    0.40
 -10   4   4    0.40    0.26
  -9  -4   4    0.70    0.29
  -9   4   4    0.54    0.23
   9   4  -4    1.02    0.41
  -8  -4   4    1.75    0.45
   8   4  -4    2.09    0.45
  -8   4   4    1.45    0.25
  -7  -4   4    2.07    0.41
   7   4  -4    1.96    0.45
  -6  -4   4    2.39    0.39
   6  -4  -4    1.79    0.26
  -6   4   4    2.54    0.37
   6   4  -4    2.36    0.43
   5  -4  -4    0.25    0.18
  -5  -4   4    0.46    0.26
   5   4  -4    0.05    0.29
  -5   4   4   -0.12    0.26
  -4  -4   4    0.29    0.21
   4  -4  -4    0.41    0.19
   4   4  -4    0.67    0.31
  -4   4   4   -0.06    0.16
  -3  -4   4    1.51    0.23
   3  -4  -4    1.20    0.23
   3   4  -4    1.55    0.35
  -3   4   4    1.15    0.30
  -2  -4   4    2.78    0.25
   2  -4  -4    3.08    0.33
  -2   4   4    2.68    0.38
   2   4  -4    2.81    0.40
   1  -4  -4    0.13    0.16
  -1  -4   4    0.05    0.12
  -1   4   4   -0.25    0.23
   1   4  -4    0.40    0.25
   0  -4  -4    2.43    0.31
   0   4  -4    2.12    0.37
   0   4   4    2.31    0.20
   0   4   4    2.21    0.38
  -1  -4  -4   18.59    0.93
  -1   4  -4   18.12    0.97
   1   4   4   17.25    0.95
  -2  -4  -4    2.85    0.24
  -2  -4  -4    2.78    0.34
   2   4   4    2.58    0.27
  -2   4  -4    3.22    0.41
   2   4   4    2.92    0.42
  -3  -4  -4   -0.10    0.15
  -3  -4  -4   -0.05    0.15
   3   4   4    0.15    0.30
   3   4   4   -0.02    0.19
  -3   4  -4    0.20    0.26
  -4  -4  -4    7.68    0.49
  -4  -4  -4    7.03    0.56
  -4  -4  -4    6.92    0.46
  -4   4  -4    7.46    0.60
   4   4   4    6.33    0.63
  -5  -4  -4    0.54    0.26
  -5  -4  -4    0.51    0.25
   5  -4   4    0.46    0.14
  -5  -4  -4    0.73    0.25
  -5   4  -4    0.44    0.21
  -5   4  -4    0.28    0.18
   5   4   4    0.02    0.36
   6  -4   4    0.55    0.29
  -6  -4  -4    1.26    0.32
  -6  -4  -4    0.42    0.28
   6   4   4    0.76    0.43
  -6   4  -4    0.87    0.27
  -6   4  -4    1.37    0.36
  -7  -4  -4    1.03    0.34
  -7   4  -4    0.78    0.30
  -7   4  -4    0.87    0.36
  -8  -4  -4    1.96    0.42
  -8   4  -4    1.19    0.31
  -9  -4  -4    0.35    0.33
  -9   4  -4    0.26    0.27
 -10  -4  -4    0.17    0.33
 -10   4  -4   -0.37    0.28
 -11   4  -4    0.25    0.32
 -12   4  -4    0.64    0.35
 -13   4  -4    0.14    0.40
 -10  -5   4    0.14    0.27
  10   5  -4   -0.02    0.43
  -9  -5   4    0.35    0.27
   9   5  -4    0.00    0.42
   8   5  -4   -0.21    0.40
   7   5  -4    0.08    0.38
   6  -5  -4    0.48    0.25
   6   5  -4    0.14    0.36
  -6   5   4    0.41    0.36
   5  -5  -4    0.00    0.20
  -5   5   4   -0.18    0.32
   5   5  -4   -0.29    0.33
   4  -5  -4    0.09    0.19
  -4   5   4    0.25    0.33
   4   5  -4    0.06    0.32
  -3  -5   4    0.33    0.21
   3  -5  -4    0.24    0.21
   3   5  -4    0.58    0.35
  -3   5   4    0.20    0.33
   2  -5  -4    0.64    0.23
  -2  -5   4    0.40    0.19
  -2   5   4    0.52    0.34
   2   5  -4   -0.06    0.29
  -1  -5   4    0.62    0.16
   1  -5  -4    0.51    0.22
   1   5  -4    0.67    0.34
  -1   5   4    0.52    0.33
   0  -5  -4    2.14    0.33
   0   5   4    1.45    0.41
   0   5  -4    2.60    0.44
  -1  -5  -4    1.59    0.30
   1   5   4    1.94    0.43
  -1   5  -4    1.37    0.39
   1   5   4    1.55    0.23
  -2  -5  -4    9.33    0.68
   2   5   4   10.71    0.80
  -2   5  -4    9.73    0.76
   2   5   4   10.38    0.54
  -3  -5  -4    0.10    0.21
  -3   5  -4   -0.14    0.32
   3   5   4    0.00    0.35
  -4  -5  -4    0.23    0.24
  -4   5  -4    0.00    0.33
   4   5   4    0.30    0.41
  -5  -5  -4   -0.19    0.23
   5   5   4    0.05    0.42
  -5   5  -4   -0.04    0.33
  -6  -5  -4    2.29    0.44
  -6   5  -4    1.24    0.36
   6   5   4    2.38    0.55
  -7  -5  -4   -0.13    0.24
  -8  -5  -4    0.00    0.26
  -9  -5  -4    0.06    0.33
  -9   5  -4   -0.20    0.24
 -10  -5  -4    0.17    0.38
 -10   5  -4    0.07    0.29
 -11   5  -4    0.22    0.33
 -12   5  -4   -0.08    0.33
 -10  -6   4    0.33    0.33
  10   6  -4   -0.54    0.47
  -9  -6   4    0.42    0.30
   9   6  -4   -0.34    0.41
   8   6  -4   -0.80    0.39
   7   6  -4    0.22    0.41
   6   6  -4   -0.21    0.38
   5  -6  -4    0.35    0.26
  -5   6   4    0.22    0.40
   5   6  -4    0.51    0.39
   4  -6  -4    1.74    0.35
   4   6  -4    1.56    0.47
  -4   6   4    1.61    0.48
   3  -6  -4    0.39    0.25
  -3   6   4    0.58    0.41
   3   6  -4    0.30    0.36
   2  -6  -4    0.49    0.27
   2   6  -4    0.45    0.39
  -2   6   4    0.61    0.41
   1  -6  -4    0.06    0.21
  -1   6   4   -0.25    0.37
   1   6  -4    0.15    0.37
   0  -6  -4    1.88    0.36
   0   6   4    2.56    0.52
   0   6  -4    2.40    0.49
  -1  -6  -4    1.33    0.34
   1   6   4    1.52    0.48
  -1   6  -4    2.00    0.48
  -2  -6  -4    0.12    0.24
  -2   6  -4    0.01    0.35
   2   6   4    0.07    0.38
  -3  -6  -4    0.00    0.22
  -3   6  -4   -0.56    0.32
   3   6   4   -0.40    0.35
  -4  -6  -4    0.02    0.25
   4   6   4    0.55    0.44
  -4   6  -4    0.62    0.40
  -5  -6  -4   -0.03    0.25
   5   6   4   -0.12    0.43
  -5   6  -4    0.16    0.35
  -6  -6  -4   -0.24    0.22
  -6   6  -4    0.32    0.37
   6   6   4   -0.43    0.42
  -7  -6  -4    0.09    0.31
   7   6   4    0.20    0.50
  -8  -6  -4   -0.17    0.31
  -9  -6  -4    0.39    0.39
 -10  -6  -4   -0.24    0.39
 -11  -6  -4   -0.22    0.43
  10   7  -4   -0.50    0.58
  -9  -7   4    0.40    0.37
   9   7  -4   -0.04    0.54
  -8  -7   4    0.27    0.29
   8   7  -4    0.82    0.57
   7   7  -4   -0.13    0.45
   6   7  -4    0.64    0.49
   5  -7  -4    0.16    0.29
  -5   7   4   -0.90    0.39
   5   7  -4   -0.31    0.42
   4  -7  -4    0.32    0.28
   4   7  -4   -0.19    0.41
  -4   7   4   -0.12    0.39
   3  -7  -4   -0.11    0.23
  -3   7   4   -0.24    0.41
   3   7  -4    0.01    0.39
   2  -7  -4   -0.14    0.23
  -2   7   4    0.15    0.44
   2   7  -4    0.62    0.40
   1  -7  -4    0.08    0.25
   1   7  -4    0.23    0.40
  -1   7   4    0.31    0.44
   0  -7  -4    0.15    0.25
   0   7  -4    0.32    0.39
   0   7   4   -0.08    0.40
  -1  -7  -4    1.21    0.36
  -1   7  -4    1.21    0.46
   1   7   4    1.06    0.49
  -2  -7  -4    0.24    0.28
  -2   7  -4    0.60    0.43
   2   7   4   -0.17    0.39
  -3  -7  -4   -0.13    0.24
  -3   7  -4    0.31    0.41
   3   7   4    0.51    0.44
  -4  -7  -4    0.54    0.31
  -4   7  -4   -0.16    0.36
   4   7   4   -0.22    0.45
  -5  -7  -4   -0.18    0.26
  -5   7  -4   -0.08    0.39
   5   7   4   -0.44    0.43
  -6  -7  -4   -0.46    0.24
   6   7   4   -0.27    0.48
  -7  -7  -4    0.04    0.32
   7   7   4   -0.70    0.49
  -8  -7  -4    0.26    0.36
  -9  -7  -4   -0.32    0.37
  -7  -8   4    0.45    0.33
   7   8  -4    0.07    0.58
   6   8  -4   -0.05    0.54
   5   8  -4    0.12    0.50
   4  -8  -4    0.09    0.33
  -4   8   4   -0.44    0.50
   4   8  -4   -0.30    0.48
   3  -8  -4   -0.06    0.28
  -3   8   4   -0.77    0.46
   3   8  -4   -0.28    0.43
   2  -8  -4    0.15    0.31
  -2   8   4   -0.71    0.43
   2   8  -4   -0.07    0.44
   1  -8  -4    0.16    0.29
   1   8  -4   -0.03    0.45
  -1   8   4   -0.41    0.45
   0  -8  -4    0.41    0.31
   0   8  -4    0.09    0.47
   0   8   4   -0.67    0.43
  -1  -8  -4    0.16    0.30
   1   8   4    0.15    0.50
  -1   8  -4   -0.06    0.43
  -2  -8  -4    0.37    0.33
   2   8   4    0.01    0.48
  -2   8  -4   -0.23    0.41
  -3  -8  -4    0.24    0.31
   3   8   4   -0.05    0.46
  -3   8  -4   -0.17    0.45
  -4  -8  -4    0.25    0.31
  -4   8  -4   -0.27    0.44
   4   8   4    0.16    0.55
  -5  -8  -4    0.09    0.33
  -5   8  -4   -0.05    0.47
   5   8   4   -0.02    0.53
  -6  -8  -4    0.08    0.36
   6   8   4   -0.45    0.57
  -7  -8  -4   -0.03    0.37
   7   8   4   -0.14    0.66
   4   9  -4   -0.39    0.53
   3  -9  -4   -0.23    0.36
  -3   9   4   -0.62    0.58
   3   9  -4   -0.33    0.51
   2  -9  -4    0.38    0.40
   2   9  -4   -0.12    0.54
  -2   9   4   -0.69    0.58
   1  -9  -4    0.35    0.39
   1   9  -4   -0.06    0.53
  -1   9   4   -0.73    0.55
   0  -9  -4   -0.37    0.35
   0   9  -4   -0.11    0.54
   0   9   4   -0.96    0.51
  -1  -9  -4    0.09    0.37
   1   9   4   -0.97    0.53
  -1   9  -4   -0.60    0.53
  -2  -9  -4    0.17    0.38
   2   9   4   -0.22    0.58
  -2   9  -4    0.11    0.57
   3   9   4    0.07    0.62
  -3   9  -4    0.05    0.57
 -15   0   5    0.35    0.46
 -14   0   5   -0.23    0.39
 -13   0   5    0.52    0.41
 -12   0   5    0.38    0.36
 -11   0   5    0.13    0.33
 -10   0   5    0.43    0.32
   9   0  -5   -0.10    0.32
  -9   0   5    0.17    0.32
  -8   0   5   -0.28    0.27
  -8   0   5   -0.10    0.26
   8   0  -5   -0.35    0.27
  -7   0   5    1.61    0.31
  -7   0   5    0.96    0.29
   7   0  -5    0.61    0.28
  -7   0   5    0.69    0.24
   6   0  -5    0.03    0.18
   6   0  -5   -0.32    0.19
  -6   0   5   -0.16    0.18
  -6   0   5   -0.05    0.16
   6   0  -5   -0.06    0.12
  -6   0   5   -0.36    0.20
   5   0  -5   25.78    1.03
  -5   0   5   25.35    1.02
  -5   0   5   24.22    0.95
   5   0  -5   25.71    1.00
   5   0  -5   26.82    1.89
  -5   0   5   25.86    1.91
  -5   0   5   24.45    0.98
   4   0  -5    0.01    0.17
  -4   0   5   -0.37    0.16
  -4   0   5    0.04    0.14
   4   0  -5    0.13    0.94
  -4   0   5    0.02    0.14
  -4   0   5    1.03    0.97
   4   0  -5   -0.01    0.15
  -3   0   5  252.46    8.28
  -3   0   5  242.34   15.28
   3   0  -5  255.97    8.28
   3   0  -5  270.53   15.31
   3   0  -5  258.40    9.02
   2   0  -5   -0.22    1.06
   2   0  -5   -0.10    0.18
   2   0  -5    0.09    0.22
  -2   0   5   -0.11    0.18
  -2   0   5   -0.25    1.15
   1   0  -5   89.03    2.89
   1   0  -5   86.40    5.40
  -1   0   5   78.60    5.37
   1   0  -5   87.95    2.68
  -1   0   5   89.26    2.89
   1   0  -5   89.37    3.19
   0   0  -5   -0.68    1.21
   0   0  -5   -0.20    0.15
   0   0   5   -0.02    0.19
   0   0  -5    0.19    0.19
   0   0  -5    0.48    0.27
  -1   0  -5   95.74    3.20
  -1   0  -5   94.80    2.96
  -1   0  -5   97.71    3.56
   1   0   5   96.74    3.20
  -2   0  -5    0.03    0.16
  -2   0  -5    0.07    0.25
   2   0   5    0.13    0.20
  -2   0  -5   -0.03    0.19
  -3   0  -5  164.27    5.46
   3   0   5  169.06    5.46
  -3   0  -5  161.65    5.04
  -3   0  -5  163.82    6.00
  -3   0  -5  172.04    5.42
  -4   0  -5   -0.12    0.17
  -4   0  -5   -0.12    0.15
  -4   0  -5    0.14    0.24
   4   0   5   -0.11    0.18
  -4   0  -5   -0.08    0.14
  -5   0  -5   12.43    0.58
  -5   0  -5   13.39    0.65
   5   0   5   12.52    0.64
  -5   0  -5   12.20    0.61
  -6   0  -5   -0.23    0.18
  -6   0  -5   -0.24    0.31
  -6   0  -5    0.09    0.20
   6   0   5   -0.15    0.22
  -6   0  -5    0.07    0.24
   7   0   5    1.49    0.31
  -7   0  -5    0.78    0.27
  -7   0  -5    0.81    0.40
  -7   0  -5    0.60    0.30
  -7   0  -5    1.01    0.27
   7   0   5    1.09    0.32
   8   0   5    0.35    0.29
   8   0   5   -0.41    0.26
  -8   0  -5    0.22    0.26
  -8   0  -5    0.15    0.40
  -9   0  -5    1.61    0.37
   9   0   5    2.23    0.41
   9   0   5    1.94    0.42
  10   0   5    0.16    0.34
 -10   0  -5   -0.30    0.27
 -11   0  -5    0.62    0.37
 -12   0  -5    0.60    0.39
 -13   0  -5    0.05    0.40
 -14   0  -5    0.04    0.42
 -15  -1   5    0.05    0.49
 -15   1   5   -0.48    0.41
 -14  -1   5    0.32    0.42
 -14   1   5    0.33    0.44
 -13  -1   5   -0.08    0.38
 -13   1   5   -0.08    0.33
 -12  -1   5   -0.17    0.34
 -12   1   5    0.31    0.36
 -11  -1   5    4.03    0.54
 -11   1   5    3.41    0.49
 -10  -1   5    2.55    0.46
 -10   1   5    2.95    0.45
   9  -1  -5    0.24    0.27
  -9  -1   5   -0.17    0.29
  -9   1   5    0.25    0.30
   9   1  -5   -0.08    0.31
   8  -1  -5    0.12    0.25
   8  -1  -5   -0.36    0.26
   8  -1  -5   -0.18    0.21
  -8  -1   5   -0.38    0.27
  -8  -1   5    0.00    0.28
   8   1  -5   -0.27    0.27
  -8   1   5   -0.06    0.24
   8   1  -5   -0.06    0.21
  -8   1   5   -0.64    0.21
   7  -1  -5   22.55    1.00
  -7  -1   5   22.93    1.00
  -7  -1   5   22.05    0.99
  -7  -1   5   20.48    2.04
   7  -1  -5   28.21    1.98
   7  -1  -5   21.16    0.95
  -7  -1   5   22.78    1.02
  -7   1   5   23.81    0.89
   7   1  -5   22.07    0.98
  -7   1   5   24.85    0.91
   7   1  -5   21.91    1.00
  -7   1   5   22.12    0.94
  -6  -1   5    0.17    0.24
  -6  -1   5    0.07    0.21
   6  -1  -5   -0.20    0.21
  -6  -1   5    0.37    0.75
  -6  -1   5    0.25    0.19
   6  -1  -5    0.02    1.21
   6  -1  -5   -0.06    0.17
   6   1  -5   -0.34    0.16
  -6   1   5   -0.10    0.17
   6   1  -5   -0.09    0.21
  -6   1   5   -0.31    0.18
  -6   1   5   -0.07    0.15
   5  -1  -5   17.70    1.45
  -5  -1   5   13.29    1.43
   5  -1  -5   14.47    0.69
  -5  -1   5   13.94    0.67
  -5  -1   5   14.82    0.70
   5  -1  -5   13.80    0.64
  -5  -1   5   15.06    0.70
   5  -1  -5   15.10    0.64
  -5   1   5   15.04    0.62
  -5   1   5   14.49    0.58
  -5   1   5   14.71    0.65
   5   1  -5   14.87    0.71
   5   1  -5   15.83    0.70
   4  -1  -5   32.83    1.20
   4  -1  -5   33.52    1.22
  -4  -1   5   33.14    1.26
  -4  -1   5   31.84    2.33
   4  -1  -5   32.25    1.31
  -4  -1   5   34.14    1.19
  -4   1   5   34.33    1.16
   4   1  -5   34.08    1.25
   4   1  -5   34.66    1.34
  -4   1   5   33.90    1.15
   3  -1  -5   17.65    0.79
   3  -1  -5   18.40    0.72
  -3  -1   5   14.75    1.40
  -3  -1   5   18.18    0.75
   3   1  -5   18.56    0.73
   3   1  -5   18.92    0.80
  -2  -1   5   57.94    1.96
   2  -1  -5   54.99    1.93
   2  -1  -5   53.48    2.12
  -2   1   5   57.37    1.80
   2   1  -5   56.86    1.94
   2   1  -5   58.86    3.60
   2   1  -5   58.50    2.16
  -1  -1   5    2.25    0.76
  -1  -1   5    3.46    0.31
   1  -1  -5    3.18    0.28
   1  -1  -5    4.20    0.33
  -1   1   5    4.09    0.27
  -1   1   5    3.30    0.22
   1   1  -5    3.76    0.30
   1   1  -5    3.15    0.34
   0  -1   5  110.09    7.50
   0  -1   5  124.83    4.09
   0  -1  -5  124.83    3.77
   0  -1  -5  128.21    4.50
   0  -1  -5  126.42    4.07
   0   1   5  123.82    4.05
   0   1  -5  124.37    4.07
   0   1  -5  124.96    3.79
   0   1   5  126.15    3.77
   0   1  -5  128.80    4.52
   0   1  -5  126.81    7.51
   1  -1   5  282.39    9.24
  -1  -1  -5  288.40    9.23
  -1  -1  -5  292.65   10.12
  -1  -1  -5  283.41    8.53
  -1   1  -5  283.54    8.54
  -1   1  -5  288.16   10.13
  -1   1  -5  282.07    9.22
   1   1   5  290.28    9.22
  -2  -1  -5    8.07    0.45
  -2  -1  -5    7.93    0.43
   2  -1   5    7.99    0.47
   2  -1   5   10.72    1.24
  -2  -1  -5    8.55    0.52
  -2   1  -5    8.70    0.38
   2   1   5    8.01    0.44
  -2   1  -5    8.75    0.55
  -2   1  -5    8.18    0.42
  -2   1  -5    7.93    0.43
  -3  -1  -5   67.09    2.11
  -3  -1  -5   67.15    2.28
   3  -1   5   61.76    2.26
  -3  -1  -5   64.67    2.50
  -3   1  -5   66.85    2.23
  -3   1  -5   67.53    2.51
   3   1   5   64.78    2.25
  -3   1  -5   63.58    2.09
  -3   1  -5   66.89    2.19
   4  -1   5    0.37    0.16
  -4  -1  -5    0.36    0.20
  -4  -1  -5    0.42    0.18
  -4  -1  -5    0.39    0.18
  -4  -1  -5    0.34    0.19
   4  -1   5    0.38    0.21
  -4   1  -5    0.28    0.19
   4   1   5    0.10    0.18
  -4   1  -5    0.51    0.18
  -4   1  -5    0.18    0.14
  -4   1  -5    0.04    0.10
   5  -1   5    0.86    0.22
  -5  -1  -5    0.79    0.23
  -5  -1  -5    1.01    0.27
  -5  -1  -5    0.62    0.23
   5  -1   5    0.08    0.23
  -5  -1  -5    0.86    0.25
  -5   1  -5    0.66    0.24
  -5   1  -5    0.68    0.20
  -5   1  -5    0.62    0.23
   5   1   5    0.45    0.24
  -5   1  -5    0.43    0.29
   6  -1   5    4.57    0.42
  -6  -1  -5    4.75    0.41
  -6  -1  -5    4.11    0.43
   6  -1   5    3.65    0.35
  -6  -1  -5    4.36    0.39
  -6  -1  -5    4.77    0.44
  -6   1  -5    4.48    0.46
  -6   1  -5    3.58    0.37
   6   1   5    4.42    0.40
  -6   1  -5    4.25    0.33
  -6   1  -5    4.44    0.40
   7  -1   5    3.15    0.35
  -7  -1  -5    2.74    0.41
   7  -1   5    3.00    0.40
  -7  -1  -5    3.56    0.44
  -7  -1  -5    2.65    0.36
  -7  -1  -5    2.97    0.38
   7   1   5    2.92    0.40
  -7   1  -5    3.56    0.45
  -7   1  -5    3.29    0.39
  -7   1  -5    3.10    0.32
  -8  -1  -5   -0.11    0.34
   8  -1   5   -0.03    0.30
  -8  -1  -5    0.14    0.27
   8  -1   5    0.07    0.25
  -8  -1  -5   -0.17    0.24
  -8   1  -5   -0.43    0.26
  -8   1  -5    0.28    0.33
   8   1   5   -0.23    0.27
  -9  -1  -5    1.02    0.35
  -9  -1  -5    0.86    0.45
   9   1   5    1.03    0.37
  -9   1  -5    0.47    0.33
 -10  -1  -5   -0.02    0.29
 -10   1  -5    0.43    0.31
 -11  -1  -5    0.16    0.33
 -11   1  -5    0.23    0.36
 -12  -1  -5   -0.10    0.37
 -12   1  -5    0.39    0.36
 -13  -1  -5    0.50    0.42
 -13   1  -5   -0.42    0.38
 -14   1  -5    0.45    0.45
 -14   2   5    0.06    0.40
 -13   2   5    0.33    0.39
 -12   2   5    0.31    0.34
 -11  -2   5    0.01    0.36
 -11   2   5    0.08    0.31
 -10  -2   5    0.27    0.32
 -10   2   5   -0.01    0.27
  -9  -2   5    0.02    1.15
  -9  -2   5    0.05    0.31
   9   2  -5   -0.26    0.25
  -9   2   5   -0.15    0.26
  -8  -2   5    6.31    0.54
  -8  -2   5    6.56    0.56
  -8  -2   5    3.73    1.14
   8  -2  -5    6.04    0.44
  -8   2   5    5.80    0.46
   8   2  -5    6.97    0.51
  -7  -2   5    0.32    0.27
  -7  -2   5    0.31    0.25
  -7  -2   5    0.18    0.29
  -7  -2   5    0.34    0.85
   7  -2  -5   -0.08    0.26
   7  -2  -5    0.17    0.20
   7   2  -5    0.93    0.27
  -7   2   5    0.48    0.23
   7   2  -5    0.22    0.28
  -6  -2   5   12.53    0.66
  -6  -2   5   14.01    1.45
   6  -2  -5   11.68    0.56
  -6  -2   5   12.53    0.70
  -6  -2   5   13.41    0.69
   6  -2  -5   11.14    0.61
  -6   2   5   11.87    0.58
   6   2  -5   12.73    0.66
   6   2  -5   12.20    0.69
   5  -2  -5    0.00    0.14
   5  -2  -5    0.05    0.13
  -5  -2   5   -0.28    0.18
   5  -2  -5   -0.02    0.17
  -5  -2   5   -0.17    0.17
  -5  -2   5   -0.08    0.63
  -5   2   5   -0.09    0.14
   5   2  -5    0.02    0.20
   5   2  -5   -0.21    0.17
  -4  -2   5   36.05    1.28
   4  -2  -5   34.61    1.22
  -4  -2   5   36.32    1.35
   4  -2  -5   36.26    1.25
   4  -2  -5   35.02    1.38
   4   2  -5   35.69    1.47
  -4   2   5   34.12    1.18
   4   2  -5   35.94    1.31
  -3  -2   5    5.62    0.36
  -3  -2   5    5.16    0.36
   3  -2  -5    5.87    0.36
  -3   2   5    5.46    0.30
   3   2  -5    5.63    0.33
   3   2  -5    5.56    0.43
   2  -2  -5    1.79    0.22
  -2  -2   5    2.00    0.23
   2   2  -5    1.76    0.20
  -2   2   5    1.87    0.17
   2   2  -5    1.96    0.27
  -1  -2   5    2.24    0.22
   1  -2  -5    2.43    0.25
   1   2  -5    2.13    0.18
  -1   2   5    2.21    0.18
   1   2  -5    2.09    0.28
   0  -2  -5    1.60    0.22
   0  -2  -5    1.70    0.16
   0  -2   5    1.67    0.19
   0   2  -5    1.38    0.26
   0   2   5    1.49    0.17
  -1  -2  -5    0.64    0.18
  -1  -2  -5    0.47    0.14
   1  -2   5    0.43    0.15
  -1   2  -5    0.61    0.16
   1   2   5    0.58    0.15
  -1   2  -5    0.45    0.21
  -2  -2  -5   38.68    1.59
  -2  -2  -5   38.76    1.38
  -2  -2  -5   38.95    1.30
   2  -2   5   37.56    1.35
  -2   2  -5   38.17    1.57
  -2   2  -5   38.76    1.30
   2   2   5   38.57    1.34
  -3  -2  -5    5.95    0.45
  -3  -2  -5    6.78    0.40
   3  -2   5    5.93    0.38
  -3  -2  -5    6.47    0.39
   3  -2   5    6.34    0.34
   3   2   5    6.20    0.37
  -3   2  -5    6.56    0.50
  -3   2  -5    6.24    0.37
  -4  -2  -5   38.67    1.36
  -4  -2  -5   37.46    1.45
   4  -2   5   37.15    1.35
   4  -2   5   38.45    1.43
  -4  -2  -5   38.02    1.42
  -4  -2  -5   38.68    1.63
   4   2   5   39.59    1.42
  -4   2  -5   38.59    1.32
   5  -2   5    1.52    0.30
  -5  -2  -5    1.48    0.28
  -5  -2  -5    1.77    0.30
  -5  -2  -5    1.48    0.27
  -5  -2  -5    1.48    0.28
   5  -2   5    1.62    0.23
  -5   2  -5    1.82    0.32
   5   2   5    1.07    0.26
  -5   2  -5    1.52    0.25
  -6  -2  -5    0.27    0.24
   6  -2   5    0.04    0.18
  -6  -2  -5    0.08    0.23
   6  -2   5    0.59    0.27
  -6  -2  -5    0.23    0.24
  -6  -2  -5    0.29    0.24
  -6   2  -5    0.09    0.23
  -6   2  -5    0.21    0.26
   6   2   5    0.05    0.23
   7  -2   5    1.44    0.28
  -7  -2  -5    1.87    0.36
  -7  -2  -5    2.06    0.35
   7  -2   5    1.84    0.37
  -7  -2  -5    2.36    0.40
  -7  -2  -5    1.16    0.33
  -7   2  -5    1.71    0.32
   7   2   5    1.50    0.34
  -7   2  -5    2.32    0.37
  -8  -2  -5    1.02    0.35
  -8  -2  -5    1.11    0.34
  -8  -2  -5    1.40    0.38
  -8   2  -5    0.52    0.31
   8   2   5    1.34    0.36
  -9  -2  -5    1.24    0.36
  -9  -2  -5    1.53    0.42
  -9   2  -5    1.45    0.37
 -10   2  -5    3.01    0.46
 -11   2  -5   -0.23    0.32
 -12   2  -5    0.59    0.38
 -13   2  -5    0.06    0.38
 -14   2  -5   -0.42    0.42
 -14   3   5    0.48    0.41
 -13   3   5    0.24    0.35
 -12   3   5    0.46    0.33
 -11   3   5    0.19    0.31
 -10   3   5    0.79    0.28
  -9  -3   5    1.28    0.44
  -9  -3   5    1.74    1.74
   9   3  -5    1.98    0.40
  -9   3   5    1.00    0.29
  -8  -3   5    0.05    1.48
  -8  -3   5    0.42    0.37
  -8  -3   5    0.29    0.29
  -8   3   5   -0.24    0.22
   8   3  -5   -0.23    0.29
  -7  -3   5    1.51    0.34
   7  -3  -5    0.87    0.23
  -7  -3   5    0.90    0.32
  -7  -3   5    0.91    0.35
  -7   3   5    1.25    0.25
   7   3  -5    0.82    0.31
  -6  -3   5    0.33    0.27
   6  -3  -5   -0.09    0.20
  -6  -3   5   -0.06    0.24
   6  -3  -5   -0.03    0.14
   6  -3  -5    0.05    0.16
  -6   3   5   -0.02    0.17
   6   3  -5    0.10    0.26
   5  -3  -5    1.05    0.21
  -5  -3   5    1.22    0.28
  -5  -3   5    1.19    0.27
   5   3  -5    1.39    0.32
  -5   3   5    1.39    0.19
   5   3  -5    1.68    0.26
  -5   3   5    1.47    0.20
   4  -3  -5   13.01    0.66
  -4  -3   5   13.59    0.64
  -4  -3   5   13.43    0.65
  -4   3   5   12.46    0.50
  -4   3   5   12.58    0.50
   4   3  -5   13.49    0.76
   4   3  -5   13.59    0.59
   3  -3  -5   -0.21    0.12
  -3  -3   5    0.25    0.17
  -3  -3   5    0.44    0.18
   3   3  -5   -0.25    0.13
   3   3  -5    0.00    0.21
  -2  -3   5    2.91    0.26
   2  -3  -5    2.87    0.30
   2   3  -5    2.91    0.37
  -2   3   5    3.27    0.36
  -1  -3   5   55.79    1.97
   1  -3  -5   58.75    2.27
  -1   3   5   58.74    2.28
   1   3  -5   58.21    2.32
  -1   3   5   58.87    1.80
   0  -3  -5   55.86    2.24
   0  -3   5   55.60    1.91
   0   3  -5   56.63    2.27
   0   3   5   57.81    2.26
   0   3   5   58.83    1.79
  -1  -3  -5    2.21    0.20
   1  -3   5    2.32    0.19
  -1  -3  -5    2.25    0.29
  -1   3  -5    1.94    0.33
   1   3   5    2.18    0.34
   1   3   5    2.18    0.22
  -2  -3  -5    0.51    0.16
   2  -3   5    0.28    0.13
  -2  -3  -5    0.20    0.16
  -2   3  -5    0.51    0.16
  -2   3  -5   -0.13    0.21
   2   3   5    0.48    0.25
   2   3   5    0.07    0.16
   3  -3   5   15.60    0.63
  -3  -3  -5   16.05    0.70
  -3  -3  -5   14.67    0.82
  -3  -3  -5   15.53    0.68
   3  -3   5   15.68    0.60
  -3   3  -5   15.98    0.65
   3   3   5   14.50    0.68
  -3   3  -5   16.21    0.85
  -4  -3  -5    1.40    0.26
  -4  -3  -5    1.52    0.29
  -4  -3  -5    1.69    0.28
   4  -3   5    1.60    0.25
   4  -3   5    1.33    0.17
  -4   3  -5    1.37    0.31
  -4   3  -5    1.63    0.25
  -5  -3  -5    0.22    0.22
  -5  -3  -5    0.54    0.26
  -5  -3  -5    0.41    0.23
   5  -3   5    0.48    0.15
  -5  -3  -5    0.38    0.23
   5  -3   5    0.01    0.24
  -5   3  -5    0.20    0.22
  -5   3  -5    0.26    0.21
  -6  -3  -5    0.09    0.24
   6  -3   5    0.00    0.30
  -6  -3  -5    0.44    0.28
  -6  -3  -5    0.76    0.30
   6  -3   5    0.44    0.19
  -6   3  -5    0.42    0.30
  -6   3  -5    0.38    0.24
  -7  -3  -5    2.09    0.40
  -7  -3  -5    2.57    0.43
  -7  -3  -5    2.17    0.39
  -7   3  -5    2.60    0.35
  -7   3  -5    2.69    0.40
  -8  -3  -5    1.73    0.42
  -8  -3  -5    2.11    0.43
  -8   3  -5    1.68    0.35
  -9  -3  -5    0.34    0.35
  -9  -3  -5    0.33    0.36
  -9   3  -5    0.96    0.33
 -10  -3  -5   -0.14    0.35
 -10   3  -5    0.26    0.31
 -11   3  -5   -0.44    0.30
 -12   3  -5   -0.05    0.35
 -13   3  -5   -0.08    0.39
 -14   3  -5   -0.23    0.43
 -13   4   5    0.02    0.34
 -12   4   5   -0.08    0.27
 -11   4   5    0.12    0.28
 -10  -4   5    3.68    2.14
 -10   4   5    0.67    0.27
  10   4  -5    1.35    0.46
  -9  -4   5    2.48    1.79
   9   4  -5   -0.68    0.31
  -9   4   5    0.07    0.22
  -8  -4   5    0.01    0.36
   8   4  -5    1.24    0.41
  -8   4   5    1.16    0.24
  -7  -4   5    0.80    0.37
  -7   4   5    0.17    0.20
   7   4  -5    0.42    0.35
  -6  -4   5    0.35    0.30
   6  -4  -5    0.20    0.20
   6   4  -5    0.80    0.37
   5  -4  -5    3.94    0.38
  -5  -4   5    3.96    0.41
   5   4  -5    3.79    0.51
  -4  -4   5    0.13    0.22
   4  -4  -5    0.13    0.18
   4   4  -5   -0.33    0.27
  -4   4   5   -0.13    0.15
  -3  -4   5    1.91    0.27
   3  -4  -5    1.64    0.27
   3   4  -5    1.95    0.38
  -3   4   5    2.27    0.37
   2  -4  -5    0.03    0.15
  -2  -4   5   -0.38    0.13
  -2   4   5   -0.19    0.24
   2   4  -5    0.07    0.26
   1  -4  -5    5.79    0.45
  -1  -4   5    5.53    0.33
  -1   4   5    5.45    0.51
   1   4  -5    5.00    0.51
   0  -4  -5    9.84    0.63
   0  -4   5    9.84    0.44
   0   4   5    9.57    0.68
   0   4  -5   10.38    0.69
  -1  -4  -5   12.34    0.49
  -1  -4  -5   11.48    0.70
   1   4   5   11.07    0.75
  -1   4  -5   10.74    0.73
   1   4   5   11.70    0.52
  -2  -4  -5    0.59    0.22
  -2  -4  -5    0.89    0.18
   2   4   5    0.58    0.31
  -2   4  -5    0.56    0.30
   2   4   5    0.59    0.20
  -3  -4  -5    9.19    0.49
  -3  -4  -5    7.32    0.57
   3   4   5    6.92    0.63
   3   4   5    7.20    0.47
  -3   4  -5    8.65    0.64
  -4  -4  -5   -0.04    0.20
  -4  -4  -5   -0.13    0.18
   4   4   5    0.16    0.35
  -4   4  -5    0.37    0.20
  -4   4  -5   -0.14    0.27
   5  -4   5    1.93    0.32
  -5  -4  -5    1.68    0.34
   5  -4   5    1.54    0.20
  -5  -4  -5    1.83    0.35
  -5  -4  -5    1.71    0.31
  -5   4  -5    2.29    0.29
  -5   4  -5    1.55    0.38
  -6  -4  -5    0.52    0.28
   6  -4   5    0.14    0.30
  -6  -4  -5    0.17    0.28
  -6   4  -5    0.14    0.25
  -6   4  -5    0.35    0.32
  -7  -4  -5    2.62    0.45
  -7   4  -5    3.40    0.47
  -7   4  -5    2.46    0.37
  -8  -4  -5    2.18    0.45
  -8   4  -5    2.03    0.36
  -9  -4  -5    0.41    0.34
  -9   4  -5    0.13    0.28
 -10  -4  -5   -0.10    0.38
 -10   4  -5    0.62    0.31
 -11   4  -5    0.53    0.34
 -12   4  -5   -0.10    0.35
 -13   4  -5   -0.10    0.38
 -10  -5   5    0.40    0.28
  10   5  -5    0.43    0.46
   9   5  -5    0.15    0.43
   8   5  -5    2.88    0.58
   7   5  -5    0.54    0.39
   6  -5  -5   -0.03    0.24
   6   5  -5    0.80    0.39
   5  -5  -5    0.23    0.24
  -5   5   5    0.31    0.35
   5   5  -5    0.47    0.39
   4  -5  -5    0.37    0.23
  -4   5   5   -0.04    0.33
   4   5  -5   -0.21    0.33
  -3  -5   5    2.58    0.32
   3  -5  -5    2.34    0.35
   3   5  -5    2.64    0.46
  -3   5   5    2.24    0.46
   2  -5  -5    1.97    0.33
  -2  -5   5    2.36    0.28
  -2   5   5    1.64    0.42
   2   5  -5    1.83    0.44
   1  -5  -5    0.54    0.22
  -1  -5   5    0.95    0.21
   1   5  -5    0.68    0.37
  -1   5   5    0.71    0.36
   0  -5   5    0.31    0.15
   0  -5  -5    0.38    0.22
   0   5   5    0.27    0.34
   0   5  -5    0.22    0.33
  -1  -5  -5    1.11    0.30
   1   5   5    0.91    0.41
   1   5   5    0.79    0.22
  -1   5  -5    0.93    0.37
  -2  -5  -5    9.36    0.70
  -2   5  -5   10.78    0.79
   2   5   5   10.26    0.81
  -3  -5  -5    0.02    0.22
   3   5   5    0.35    0.39
  -3   5  -5    0.65    0.38
  -4  -5  -5    2.32    0.40
   4   5   5    3.36    0.57
  -4   5  -5    2.71    0.49
  -5  -5  -5   -0.05    0.23
   5   5   5   -0.22    0.39
  -5   5  -5    0.17    0.36
  -6  -5  -5    0.15    0.27
  -6   5  -5    0.12    0.20
  -7  -5  -5   -0.06    0.26
  -7   5  -5    0.45    0.23
  -8  -5  -5   -0.07    0.32
  -8   5  -5   -0.20    0.23
  -9  -5  -5   -0.16    0.31
  -9   5  -5   -0.21    0.25
 -10  -5  -5   -0.38    0.33
 -10   5  -5   -0.09    0.30
 -11   5  -5    0.06    0.32
 -12   5  -5   -0.21    0.36
 -10  -6   5    0.54    0.34
  10   6  -5   -0.64    0.45
   9   6  -5   -0.11    0.45
   8   6  -5    0.67    0.47
   7   6  -5   -0.10    0.43
   6   6  -5    1.53    0.50
   5  -6  -5    0.53    0.28
  -5   6   5    0.05    0.40
   5   6  -5    0.46    0.39
   4  -6  -5    1.11    0.33
  -4   6   5    2.18    0.51
   4   6  -5    1.57    0.47
   3  -6  -5    0.53    0.27
  -3   6   5    0.33    0.41
   3   6  -5    0.95    0.42
   2  -6  -5    1.43    0.34
   2   6  -5    1.39    0.46
  -2   6   5    1.40    0.47
   1  -6  -5    2.24    0.39
  -1   6   5    2.09    0.51
   1   6  -5    2.42    0.52
   0  -6  -5    0.12    0.23
   0   6   5   -0.10    0.39
   0   6  -5   -0.41    0.31
  -1  -6  -5    0.66    0.29
   1   6   5    1.49    0.49
  -1   6  -5    0.88    0.42
  -2  -6  -5    0.14    0.26
  -2   6  -5    0.31    0.37
   2   6   5   -0.52    0.34
  -3  -6  -5    0.21    0.25
  -3   6  -5    0.17    0.37
   3   6   5   -0.33    0.36
  -4  -6  -5    1.61    0.39
   4   6   5    1.77    0.51
  -4   6  -5    1.17    0.45
  -5  -6  -5   -0.20    0.24
   5   6   5    0.16    0.43
  -5   6  -5    0.23    0.36
  -6  -6  -5    0.61    0.33
  -6   6  -5    0.88    0.42
   6   6   5    0.82    0.53
  -7  -6  -5    0.16    0.32
  -8  -6  -5   -0.03    0.33
  -9  -6  -5   -0.15    0.36
 -10  -6  -5   -0.66    0.35
 -11  -6  -5   -0.14    0.43
  10   7  -5   -1.11    0.52
  -9  -7   5    0.15    0.34
   9   7  -5   -0.12    0.52
   8   7  -5   -0.23    0.50
   7   7  -5   -0.47    0.42
   6   7  -5    0.18    0.46
   5  -7  -5    0.10    0.31
   5   7  -5   -0.43    0.40
  -5   7   5   -0.08    0.45
   4  -7  -5    0.37    0.29
  -4   7   5    0.28    0.47
   4   7  -5    0.62    0.45
   3  -7  -5    1.36    0.37
   3   7  -5    0.90    0.46
  -3   7   5    1.28    0.53
   2  -7  -5    0.05    0.26
   2   7  -5    0.34    0.40
  -2   7   5    0.25    0.43
   1  -7  -5    1.17    0.37
  -1   7   5    1.82    0.55
   1   7  -5    2.10    0.54
   0  -7  -5    0.15    0.26
   0   7   5   -0.08    0.42
   0   7  -5    0.31    0.41
  -1  -7  -5   -0.16    0.23
  -1   7  -5    0.57    0.43
   1   7   5   -0.18    0.43
  -2  -7  -5    0.30    0.28
   2   7   5    0.68    0.49
  -2   7  -5    0.16    0.40
  -3  -7  -5    0.06    0.25
  -3   7  -5    0.41    0.42
   3   7   5   -0.05    0.43
  -4  -7  -5   -0.13    0.25
   4   7   5   -0.03    0.44
  -4   7  -5    0.17    0.40
  -5  -7  -5   -0.13    0.27
   5   7   5    0.03    0.47
  -5   7  -5    0.45    0.44
  -6  -7  -5   -0.11    0.29
   6   7   5   -0.04    0.49
  -7  -7  -5    0.16    0.34
  -8  -7  -5   -0.13    0.35
  -9  -7  -5   -0.26    0.39
   7   8  -5    0.07    0.59
   6   8  -5    0.27    0.56
   5   8  -5   -0.11    0.50
   4  -8  -5   -0.20    0.32
   4   8  -5    0.25    0.52
  -4   8   5   -0.49    0.51
   3  -8  -5   -0.18    0.26
  -3   8   5   -0.10    0.48
   3   8  -5   -0.33    0.42
   2  -8  -5   -0.21    0.29
  -2   8   5   -0.79    0.43
   2   8  -5    0.29    0.46
   1  -8  -5    0.03    0.27
  -1   8   5   -0.40    0.49
   1   8  -5   -0.09    0.41
   0  -8  -5   -0.30    0.26
   0   8  -5    0.15    0.44
   0   8   5   -0.20    0.51
  -1  -8  -5    0.08    0.31
   1   8   5   -0.28    0.46
  -1   8  -5    1.09    0.52
  -2  -8  -5    0.03    0.30
   2   8   5   -0.60    0.45
  -2   8  -5   -0.08    0.43
  -3  -8  -5    0.10    0.33
   3   8   5    0.28    0.50
  -3   8  -5    0.37    0.50
  -4  -8  -5    0.14    0.31
   4   8   5   -0.23    0.51
  -4   8  -5    0.10    0.46
  -5  -8  -5    0.49    0.40
   5   8   5    0.14    0.57
  -5   8  -5   -0.12    0.47
  -6  -8  -5   -0.26    0.34
  -7  -8  -5    0.13    0.36
  -3   9   5   -0.74    0.59
   3   9  -5   -0.38    0.53
   2  -9  -5    0.02    0.38
   2   9  -5   -0.57    0.51
  -2   9   5   -0.84    0.54
   1  -9  -5   -0.22    0.33
  -1   9   5   -0.14    0.60
   1   9  -5   -0.33    0.53
   0  -9  -5    0.04    0.37
   0   9   5    0.30    0.63
   0   9  -5   -0.39    0.53
  -1  -9  -5   -0.15    0.36
   1   9   5   -0.53    0.53
  -1   9  -5   -0.32    0.56
  -2  -9  -5    0.36    0.41
   2   9   5   -0.51    0.53
  -2   9  -5   -0.27    0.55
   3   9   5   -0.67    0.57
  -3   9  -5   -0.04    0.57
 -15   0   6    0.02    0.46
 -14   0   6    0.42    0.43
 -13   0   6    0.10    0.39
 -12   0   6    0.64    0.38
 -11   0   6   -0.08    0.32
 -10   0   6    6.26    0.58
  -9   0   6    0.02    0.31
   9   0  -6   -0.33    0.32
  -8   0   6    1.78    0.36
   8   0  -6    1.95    0.38
  -8   0   6    1.57    0.37
   7   0  -6   -0.22    0.13
  -7   0   6   -0.30    0.23
  -7   0   6    0.05    0.23
  -7   0   6    0.13    0.21
   7   0  -6   -0.07    0.25
  -6   0   6   22.92    0.96
  -6   0   6   24.46    1.00
  -6   0   6   24.03    0.96
   6   0  -6   22.21    1.79
   6   0  -6   23.54    0.95
   6   0  -6   23.91    1.00
  -5   0   6    0.10    0.16
   5   0  -6   -0.29    0.20
  -5   0   6    0.13    1.11
  -5   0   6    0.08    0.19
   5   0  -6   -0.22    0.15
   5   0  -6    0.21    1.12
  -5   0   6   -0.33    0.19
  -4   0   6  128.01    7.67
  -4   0   6  121.90    4.18
   4   0  -6  125.01    4.52
   4   0  -6  137.04    7.76
  -4   0   6  121.87    3.88
   4   0  -6  124.18    4.18
  -4   0   6  121.38    4.15
   3   0  -6   -0.63    0.92
  -3   0   6   -1.12    1.13
   3   0  -6    0.08    0.20
  -3   0   6   -0.26    0.16
   3   0  -6    0.04    0.17
   2   0  -6  205.84    7.31
   2   0  -6  212.18   12.38
   2   0  -6  208.97    6.69
  -2   0   6  194.21   12.32
  -2   0   6  205.94    6.68
   1   0  -6   -0.17    0.26
   1   0  -6   -0.20    0.15
   1   0  -6    0.36    1.16
  -1   0   6    0.15    0.20
   1   0  -6    0.08    0.19
   0   0  -6   12.75    0.72
   0   0   6   11.59    0.58
   0   0  -6   12.20    0.57
   0   0  -6   11.95    0.53
   0   0  -6   11.45    1.49
  -1   0  -6    0.19    0.28
   1   0   6   -0.31    0.19
  -1   0  -6   -0.22    0.20
  -1   0  -6   -0.48    0.15
  -2   0  -6   29.26    1.12
  -2   0  -6   29.09    1.03
   2   0   6   28.89    1.12
  -2   0  -6   28.70    1.28
  -3   0  -6   -0.36    0.25
   3   0   6   -0.21    0.17
  -3   0  -6    0.06    0.15
  -3   0  -6   -0.02    0.15
  -3   0  -6   -0.13    0.18
  -4   0  -6    9.00    0.53
  -4   0  -6    9.99    0.51
  -4   0  -6   10.18    0.49
   4   0   6    9.50    0.54
  -4   0  -6    9.54    0.66
  -5   0  -6   -0.01    0.20
  -5   0  -6    0.40    0.32
  -5   0  -6   -0.05    0.19
   5   0   6   -0.11    0.23
  -5   0  -6   -0.03    0.23
  -6   0  -6    2.59    0.31
  -6   0  -6    1.56    0.37
  -6   0  -6    2.23    0.32
   6   0   6    2.70    0.37
  -6   0  -6    2.69    0.37
  -7   0  -6    0.11    0.24
  -7   0  -6   -0.10    0.21
   7   0   6   -0.13    0.27
  -7   0  -6   -0.06    0.39
  -8   0  -6    0.43    0.45
  -8   0  -6    0.28    0.30
   8   0   6    0.29    0.32
   9   0   6   -0.10    0.30
  -9   0  -6   -0.38    0.25
 -10   0  -6    0.71    0.34
 -11   0  -6   -0.10    0.32
 -12   0  -6    0.23    0.39
 -13   0  -6    0.00    0.37
 -14   0  -6   -0.44    0.41
 -15  -1   6    0.33    0.48
 -15   1   6   -0.17    0.45
 -14  -1   6    0.46    0.44
 -14   1   6   -0.19    0.42
 -13  -1   6    1.22    0.47
 -13   1   6    0.71    0.40
 -12  -1   6    0.41    0.39
 -12   1   6    0.42    0.38
 -11  -1   6   -0.03    0.35
 -11   1   6   -0.02    0.31
 -10  -1   6    5.04    0.55
 -10   1   6    4.20    0.50
  -9  -1   6    3.32    0.46
   9  -1  -6    3.06    0.40
  -9   1   6    3.66    0.43
   9   1  -6    3.47    0.47
   8  -1  -6    0.47    0.26
  -8  -1   6    1.69    0.36
   8  -1  -6    0.17    0.27
  -8  -1   6    0.52    1.31
  -8  -1   6    1.18    0.37
   8  -1  -6    1.17    0.35
   8   1  -6    0.88    0.23
  -8   1   6    0.59    0.30
   8   1  -6    1.44    0.36
  -8   1   6    0.83    0.28
  -7  -1   6   -0.20    1.11
   7  -1  -6    0.26    1.15
  -7  -1   6   -0.12    0.24
  -7  -1   6   -0.03    0.22
  -7  -1   6   -0.31    0.26
   7  -1  -6   -0.36    0.26
   7  -1  -6   -0.03    0.19
   7   1  -6    0.44    0.21
  -7   1   6   -0.24    0.23
  -7   1   6   -0.12    0.22
  -7   1   6   -0.14    0.18
   7   1  -6   -0.16    0.26
   6  -1  -6   50.67    1.89
  -6  -1   6   53.62    1.96
  -6  -1   6   51.37    1.94
  -6  -1   6   56.05    3.63
   6  -1  -6   62.27    3.62
  -6  -1   6   51.62    1.84
   6  -1  -6   51.68    1.92
   6   1  -6   52.46    1.94
   6   1  -6   50.85    2.03
  -6   1   6   50.68    1.80
  -6   1   6   54.93    1.85
  -6   1   6   51.36    1.81
   5  -1  -6   48.38    1.80
  -5  -1   6   49.38    1.82
   5  -1  -6   50.05    1.89
  -5  -1   6   50.07    1.73
  -5  -1   6   50.86    3.38
  -5  -1   6   49.67    1.84
   5  -1  -6   54.25    3.38
   5   1  -6   50.91    1.94
   5   1  -6   49.27    1.81
  -5   1   6   48.64    1.68
  -5   1   6   50.58    1.73
  -5   1   6   49.26    1.70
  -4  -1   6    1.80    0.28
  -4  -1   6    1.57    0.78
   4  -1  -6    1.92    0.28
   4  -1  -6    1.94    0.25
  -4  -1   6    1.64    0.25
  -4   1   6    2.09    0.18
  -4   1   6    2.04    0.21
   4   1  -6    1.56    0.25
  -4   1   6    2.00    0.23
   4   1  -6    1.81    0.25
   3  -1  -6   22.72    0.89
  -3  -1   6   23.26    0.93
  -3  -1   6   22.37    1.73
   3  -1  -6   22.63    1.00
  -3   1   6   22.72    0.83
   3   1  -6   23.26    1.00
   3   1  -6   23.96    1.69
   3   1  -6   23.16    0.91
  -3   1   6   21.18    0.80
  -2  -1   6   37.16    1.35
   2  -1  -6   36.41    1.48
  -2  -1   6   34.07    2.49
   2  -1  -6   35.71    1.32
  -2   1   6   38.95    1.24
  -2   1   6   35.74    1.26
   2   1  -6   37.31    1.33
   2   1  -6   38.62    1.50
  -2   1   6   36.92    1.25
   2   1  -6   36.47    2.51
  -1  -1   6   12.84    0.58
   1  -1  -6   13.05    0.53
  -1  -1   6   10.10    1.19
   1  -1  -6   13.75    0.67
   1  -1  -6   12.75    0.56
  -1   1   6   12.34    0.51
   1   1  -6   12.04    0.66
  -1   1   6   13.48    0.53
   1   1  -6   12.93    0.57
   1   1  -6   11.78    1.16
   0  -1   6   25.80    2.00
   0  -1  -6   27.23    1.03
   0  -1  -6   31.15    1.20
   0  -1  -6   27.79    0.97
   0  -1   6   27.35    1.05
   0   1  -6   27.48    0.99
   0   1  -6   26.82    1.91
   0   1   6   27.48    1.00
   0   1  -6   28.50    1.03
   0   1  -6   28.64    1.21
  -1  -1  -6  225.65    7.20
  -1  -1  -6  224.47    6.65
   1  -1   6  215.09    7.20
  -1  -1  -6  227.42    7.91
   1  -1   6  208.61   13.28
  -1   1  -6  221.73    6.67
   1   1   6  222.30    7.17
  -1   1  -6  223.99    7.18
  -1   1  -6  224.81    7.92
  -2  -1  -6   13.07    0.62
   2  -1   6   13.07    0.63
  -2  -1  -6   13.64    0.58
  -2  -1  -6   13.03    0.70
   2  -1   6   15.22    1.52
  -2   1  -6   12.97    0.55
  -2   1  -6   13.56    0.74
  -2   1  -6   13.12    0.57
   2   1   6   13.13    0.59
  -2   1  -6   13.15    0.59
  -3  -1  -6    2.77    0.28
  -3  -1  -6    2.94    0.30
   3  -1   6    2.98    0.32
  -3  -1  -6    2.26    0.31
   3   1   6    2.73    0.28
  -3   1  -6    2.86    0.24
  -3   1  -6    2.61    0.27
  -3   1  -6    2.59    0.36
  -3   1  -6    2.79    0.28
  -4  -1  -6    2.73    0.34
  -4  -1  -6    2.61    0.29
   4  -1   6    2.33    0.33
  -4  -1  -6    2.86    0.30
  -4  -1  -6    2.97    0.33
  -4   1  -6    2.47    0.29
  -4   1  -6    2.70    0.37
  -4   1  -6    2.51    0.24
   4   1   6    2.71    0.31
  -4   1  -6    2.82    0.31
  -5  -1  -6   28.99    1.18
  -5  -1  -6   29.11    1.13
   5  -1   6   28.81    1.17
  -5  -1  -6   27.74    1.29
  -5  -1  -6   28.01    1.09
  -5   1  -6   26.44    1.07
  -5   1  -6   28.63    1.12
   5   1   6   28.47    1.15
  -5   1  -6   27.91    1.06
   6  -1   6    2.66    0.38
  -6  -1  -6    2.66    0.41
   6  -1   6    2.79    0.33
  -6  -1  -6    1.65    0.33
  -6  -1  -6    2.64    0.39
  -6  -1  -6    2.46    0.33
  -6   1  -6    2.44    0.35
  -6   1  -6    2.37    0.41
  -6   1  -6    2.96    0.30
   6   1   6    2.64    0.36
  -6   1  -6    2.66    0.34
   7  -1   6    1.51    0.36
  -7  -1  -6    1.46    0.32
   7  -1   6    1.08    0.30
  -7  -1  -6    1.33    0.31
  -7  -1  -6    1.73    0.39
  -7  -1  -6    0.53    0.28
  -7   1  -6    1.22    0.27
  -7   1  -6    1.12    0.40
  -7   1  -6    1.18    0.32
   7   1   6    1.32    0.33
  -8  -1  -6   -0.47    0.36
   8  -1   6   -0.03    0.28
  -8  -1  -6    0.18    0.29
  -8  -1  -6    0.31    0.30
   8  -1   6    0.02    0.31
   8   1   6    0.01    0.31
  -8   1  -6    0.27    0.38
  -8   1  -6    0.08    0.28
  -9  -1  -6    0.63    0.47
  -9  -1  -6    0.61    0.33
  -9   1  -6   -0.07    0.29
   9   1   6    0.58    0.35
 -10  -1  -6    0.69    0.34
 -10   1  -6    0.04    0.32
 -11  -1  -6    0.15    0.35
 -11   1  -6   -0.46    0.30
 -12  -1  -6    1.25    0.43
 -12   1  -6    0.45    0.37
 -13   1  -6    0.21    0.40
 -14   1  -6    0.30    0.46
 -14   2   6    0.40    0.43
 -13   2   6    0.16    0.36
 -12   2   6    0.12    0.33
 -11  -2   6    0.11    0.36
 -11   2   6   -0.08    0.30
 -10  -2   6   -0.15    0.31
 -10   2   6   -0.25    0.26
  -9  -2   6    0.16    0.32
  -9   2   6    0.19    0.28
   8  -2  -6   -0.03    0.21
  -8  -2   6   -0.43    0.26
  -8  -2   6   -0.14    0.31
  -8  -2   6    0.16    1.20
   8   2  -6   -0.20    0.23
  -8   2   6   -0.19    0.24
  -7  -2   6    8.96    0.59
  -7  -2   6    5.76    1.45
   7  -2  -6    9.09    0.60
  -7  -2   6    8.28    0.61
  -7  -2   6    9.54    0.61
   7  -2  -6    8.41    0.50
   7   2  -6    9.09    0.58
   7   2  -6    8.87    0.58
  -7   2   6    8.87    0.52
  -6  -2   6    3.44    0.38
  -6  -2   6    1.83    0.89
  -6  -2   6    2.85    0.37
   6  -2  -6    3.21    0.30
   6  -2  -6    3.41    0.36
   6  -2  -6    2.82    0.33
  -6  -2   6    3.23    0.40
   6   2  -6    3.28    0.36
   6   2  -6    2.85    0.36
  -6   2   6    3.02    0.32
  -5  -2   6    3.98    0.36
   5  -2  -6    3.16    0.31
  -5  -2   6    3.12    0.36
   5  -2  -6    3.27    0.33
  -5  -2   6    2.40    0.81
   5  -2  -6    2.75    0.25
   5   2  -6    3.53    0.34
   5   2  -6    3.03    0.35
  -5   2   6    2.70    0.27
  -4  -2   6    6.10    0.43
   4  -2  -6    5.94    0.40
  -4  -2   6    5.71    0.41
   4  -2  -6    6.05    0.38
   4  -2  -6    6.01    0.31
  -4  -2   6    6.68    0.97
   4   2  -6    6.29    0.40
   4   2  -6    6.29    0.47
  -4   2   6    5.33    0.34
  -4   2   6    5.97    0.34
  -3  -2   6   10.94    1.13
   3  -2  -6   11.37    0.57
   3  -2  -6   10.93    0.43
   3  -2  -6   11.04    0.47
  -3  -2   6   10.61    0.55
  -3   2   6   10.48    0.47
   3   2  -6   10.68    0.63
   3   2  -6   10.84    0.51
   2  -2  -6    3.35    0.22
  -2  -2   6    2.92    0.84
  -2  -2   6    3.23    0.29
   2  -2  -6    3.33    0.31
   2   2  -6    3.47    0.36
  -2   2   6    2.95    0.24
   2   2  -6    3.61    0.26
   1  -2  -6    1.46    0.16
  -1  -2   6    1.90    0.23
   1  -2  -6    1.55    0.23
  -1  -2   6    1.90    0.71
  -1   2   6    1.58    0.18
   1   2  -6    1.56    0.28
   1   2  -6    1.54    0.18
   0  -2  -6    0.26    0.13
   0  -2   6    0.54    0.17
   0  -2  -6    0.40    0.16
   0   2  -6    0.69    0.13
   0   2   6    0.71    0.15
   0   2  -6    0.53    0.22
   1  -2   6    3.68    0.30
  -1  -2  -6    4.44    0.37
  -1  -2  -6    4.16    0.29
   1   2   6    3.74    0.28
   1   2   6    4.13    0.23
  -1   2  -6    3.93    0.39
  -1   2  -6    3.62    0.30
  -2  -2  -6    7.61    0.42
  -2  -2  -6    7.46    0.42
   2  -2   6    7.01    0.43
  -2  -2  -6    6.78    0.49
  -2   2  -6    7.78    0.54
   2   2   6    7.31    0.38
  -2   2  -6    6.32    0.40
  -3  -2  -6   12.90    0.61
  -3  -2  -6   13.02    0.63
   3  -2   6   11.92    0.63
  -3  -2  -6   14.01    0.76
   3   2   6   12.60    0.60
  -3   2  -6   12.57    0.74
  -3   2  -6   13.66    0.61
   4  -2   6   20.04    0.94
  -4  -2  -6   22.60    1.09
  -4  -2  -6   21.96    0.90
  -4  -2  -6   22.93    0.97
  -4   2  -6   23.22    1.08
   4   2   6   22.55    0.92
  -4   2  -6   21.85    0.88
  -5  -2  -6    0.29    0.24
  -5  -2  -6    0.28    0.24
   5  -2   6   -0.09    0.24
  -5  -2  -6    0.10    0.21
   5  -2   6    0.19    0.18
  -5  -2  -6    0.04    0.21
  -5   2  -6    0.06    0.21
  -5   2  -6    0.29    0.17
   5   2   6    0.20    0.23
  -6  -2  -6    3.32    0.40
  -6  -2  -6    3.14    0.43
  -6  -2  -6    3.64    0.44
   6  -2   6    3.73    0.42
   6  -2   6    3.87    0.35
  -6  -2  -6    3.51    0.39
  -6   2  -6    3.47    0.37
  -6   2  -6    3.38    0.41
   6   2   6    3.54    0.39
  -7  -2  -6    1.11    0.32
  -7  -2  -6    0.87    0.34
   7  -2   6    0.09    0.23
  -7  -2  -6    1.27    0.37
  -7  -2  -6    0.72    0.29
   7  -2   6    0.94    0.34
   7   2   6    1.06    0.31
  -7   2  -6    0.44    0.31
  -7   2  -6    0.50    0.28
  -8  -2  -6   -0.18    0.32
  -8  -2  -6    0.29    0.30
  -8  -2  -6   -0.08    0.29
  -8   2  -6   -0.17    0.28
  -9  -2  -6   -0.29    0.22
  -9  -2  -6    0.11    0.33
  -9   2  -6   -0.07    0.30
 -10   2  -6   -0.24    0.29
 -11   2  -6   -0.24    0.32
 -12   2  -6   -0.11    0.36
 -13   2  -6    0.60    0.43
 -14   2  -6   -0.62    0.43
 -14   3   6    0.57    0.41
 -13   3   6    0.86    0.40
 -12   3   6    1.02    0.38
 -11   3   6    0.03    0.29
 -10   3   6    0.13    0.25
  -9  -3   6    2.75    2.00
   9   3  -6    1.83    0.40
  -9   3   6    1.64    0.32
  -8  -3   6    2.01    0.46
  -8  -3   6    3.17    1.87
   8   3  -6    2.57    0.42
  -8   3   6    2.80    0.35
  -7  -3   6    0.61    0.28
   7  -3  -6    1.04    0.23
  -7  -3   6    0.42    0.35
  -7  -3   6    0.46    1.26
  -7  -3   6    0.62    0.32
  -7   3   6    0.46    0.23
   7   3  -6    0.83    0.33
  -6  -3   6   -0.30    0.97
  -6  -3   6    0.13    0.25
   6  -3  -6    0.38    0.23
   6  -3  -6    0.57    0.18
  -6  -3   6    0.45    0.30
   6  -3  -6    0.22    0.19
   6   3  -6    0.89    0.31
  -6   3   6    0.57    0.20
  -5  -3   6   -0.25    0.19
   5  -3  -6   -0.02    0.16
  -5  -3   6   -0.32    0.21
   5   3  -6   -0.12    0.24
  -5   3   6   -0.27    0.15
  -5   3   6   -0.09    0.15
   5   3  -6    0.06    0.20
   4  -3  -6    3.31    0.32
  -4  -3   6    3.63    0.36
  -4  -3   6    3.91    0.36
  -4   3   6    3.30    0.24
  -4   3   6    2.92    0.25
   4   3  -6    2.96    0.40
   4   3  -6    3.51    0.31
   3  -3  -6   10.85    0.60
  -3  -3   6   10.64    0.54
  -3  -3   6    9.81    0.54
   3   3  -6   10.62    0.48
  -3   3   6   10.35    0.43
   3   3  -6   10.14    0.66
   2  -3  -6   16.03    0.79
  -2  -3   6   15.78    0.68
   2   3  -6   15.77    0.59
  -2   3   6   15.29    0.57
   2   3  -6   14.59    0.84
  -1  -3   6   17.02    0.73
   1  -3  -6   18.53    0.89
  -1   3   6   18.77    0.66
   1   3  -6   17.71    0.93
   0  -3   6   26.71    1.05
   0  -3  -6   29.14    1.01
   0  -3  -6   28.48    1.27
   0   3   6   29.89    0.99
   0   3  -6   28.96    1.31
   1  -3   6   15.01    0.63
  -1  -3  -6   14.29    0.79
  -1  -3  -6   15.34    0.62
  -1   3  -6   15.70    0.84
   1   3   6   15.72    0.62
  -2  -3  -6   -0.01    0.16
   2  -3   6   -0.09    0.15
  -2  -3  -6   -0.05    0.14
   2   3   6    0.13    0.16
  -2   3  -6    0.08    0.17
  -2   3  -6   -0.22    0.23
   3  -3   6   19.64    0.80
  -3  -3  -6   18.21    0.98
  -3  -3  -6   19.43    0.81
  -3  -3  -6   19.90    0.84
  -3   3  -6   19.13    1.00
  -3   3  -6   19.48    0.78
   3   3   6   18.88    0.80
  -4  -3  -6   -0.11    0.19
   4  -3   6   -0.14    0.14
  -4  -3  -6   -0.04    0.18
   4  -3   6    0.35    0.24
  -4  -3  -6    0.10    0.19
  -4   3  -6    0.19    0.26
  -4   3  -6    0.18    0.19
  -5  -3  -6   10.29    0.70
   5  -3   6   10.63    0.61
  -5  -3  -6    9.54    0.59
   5  -3   6    9.52    0.50
  -5  -3  -6   11.06    0.63
  -5  -3  -6   10.40    0.59
  -5   3  -6   10.29    0.55
  -5   3  -6    8.01    0.61
  -6  -3  -6    0.35    0.28
   6  -3   6    0.58    0.32
  -6  -3  -6    0.15    0.26
  -6  -3  -6    0.07    0.27
  -6   3  -6    0.02    0.24
  -6   3  -6    0.31    0.31
  -7  -3  -6    0.70    0.35
  -7  -3  -6    0.39    0.32
  -7  -3  -6    0.43    0.33
  -7   3  -6    0.76    0.34
  -7   3  -6    0.93    0.31
  -8  -3  -6    0.06    0.32
  -8  -3  -6    0.38    0.36
  -8   3  -6   -0.05    0.29
  -9  -3  -6    0.21    0.35
  -9   3  -6    0.27    0.31
 -10  -3  -6   -0.46    0.37
 -10   3  -6   -0.14    0.32
 -11   3  -6    0.18    0.34
 -12   3  -6   -0.05    0.38
 -13   3  -6   -0.06    0.39
 -13   4   6    0.10    0.33
 -12   4   6    0.67    0.31
 -11   4   6    0.09    0.27
 -10   4   6    0.21    0.25
  -9  -4   6    2.68    2.16
   9   4  -6   -0.48    0.34
  -9   4   6    0.30    0.23
  -8  -4   6    1.66    1.80
  -8   4   6    0.52    0.23
   8   4  -6    0.18    0.33
  -7  -4   6   -0.38    0.31
   7   4  -6    0.15    0.35
  -7   4   6   -0.21    0.19
   6  -4  -6    0.34    0.23
  -6  -4   6    0.70    0.33
   6   4  -6    0.69    0.37
   5  -4  -6    0.04    0.19
  -5  -4   6   -0.27    0.25
   5   4  -6   -0.43    0.29
  -4  -4   6    6.11    0.46
   4  -4  -6    6.48    0.48
   4   4  -6    4.93    0.55
  -3  -4   6    0.65    0.22
   3  -4  -6    0.61    0.22
   3   4  -6    0.49    0.32
   2  -4  -6    0.57    0.21
  -2  -4   6    0.22    0.18
   2   4  -6    0.28    0.29
  -2   4   6    0.39    0.29
   1  -4  -6    1.35    0.26
  -1  -4   6    1.22    0.21
  -1   4   6    1.20    0.35
   1   4  -6    1.31    0.34
  -1   4   6    1.43    0.16
   0  -4  -6    0.07    0.17
   0  -4   6    0.29    0.14
   0   4  -6    0.18    0.26
   0   4   6    0.14    0.15
   0   4   6   -0.13    0.27
   1  -4   6    2.12    0.22
  -1  -4  -6    2.27    0.33
  -1  -4  -6    2.66    0.24
  -1   4  -6    2.81    0.43
   1   4   6    2.56    0.42
   1   4   6    2.41    0.25
  -2  -4  -6    0.70    0.19
  -2  -4  -6    0.66    0.24
   2  -4   6    0.59    0.16
   2   4   6    0.52    0.20
   2   4   6    0.67    0.33
  -2   4  -6    0.83    0.33
   3  -4   6    1.58    0.23
  -3  -4  -6    1.54    0.32
  -3  -4  -6    2.05    0.27
  -3   4  -6    1.90    0.40
  -4  -4  -6    0.81    0.27
   4  -4   6    1.01    0.19
   4  -4   6    1.07    0.27
  -4  -4  -6    0.79    0.28
  -4   4  -6    0.53    0.24
  -4   4  -6    0.87    0.36
   5  -4   6    0.33    0.30
  -5  -4  -6    0.02    0.25
  -5  -4  -6    0.34    0.25
  -5   4  -6    0.35    0.35
  -5   4  -6    0.23    0.25
  -6  -4  -6    4.39    0.54
  -6  -4  -6    4.30    0.47
  -6   4  -6    4.91    0.43
  -7  -4  -6    4.75    0.60
  -7   4  -6    4.60    0.55
  -7   4  -6    6.33    0.50
  -8  -4  -6    1.30    0.40
  -8   4  -6    1.35    0.33
  -9  -4  -6   -0.05    0.35
  -9   4  -6    0.00    0.30
 -10  -4  -6    0.18    0.40
 -10   4  -6    0.17    0.31
 -11   4  -6   -0.18    0.31
 -12   4  -6    0.12    0.37
 -13   4  -6    0.02    0.42
  10   5  -6   -0.23    0.42
   9   5  -6    1.02    0.48
   8   5  -6    1.72    0.51
   7   5  -6    1.62    0.47
   6   5  -6    7.55    0.73
   5  -5  -6    0.99    0.29
   5   5  -6    1.49    0.46
   4  -5  -6    2.39    0.36
  -4   5   6    2.35    0.47
   4   5  -6    2.08    0.49
   3  -5  -6    1.69    0.33
   3   5  -6    1.65    0.45
  -3   5   6    0.56    0.38
  -2  -5   6    3.04    0.33
   2  -5  -6    3.39    0.41
  -2   5   6    3.31    0.50
   2   5  -6    3.14    0.50
   1  -5  -6   -0.25    0.18
  -1  -5   6    0.04    0.19
  -1   5   6    0.42    0.37
   1   5  -6    0.30    0.32
   0  -5   6    1.44    0.23
   0  -5  -6    1.34    0.31
   0   5   6    1.99    0.46
   0   5  -6    1.42    0.43
   0   5   6    1.07    0.20
   1  -5   6    0.34    0.17
  -1  -5  -6   -0.09    0.19
   1   5   6    0.14    0.37
   1   5   6   -0.01    0.20
  -1   5  -6    0.16    0.35
  -2  -5  -6    1.00    0.32
   2   5   6    1.05    0.44
  -2   5  -6    1.19    0.43
  -3  -5  -6    3.24    0.45
   3   5   6    3.69    0.58
  -3   5  -6    3.43    0.53
  -4  -5  -6   -0.10    0.24
  -4   5  -6    0.32    0.37
  -5  -5  -6    0.33    0.28
  -5   5  -6    0.30    0.37
  -6  -5  -6   -0.10    0.25
  -6   5  -6   -0.31    0.32
  -6   5  -6    0.02    0.21
  -7  -5  -6    0.01    0.28
  -7   5  -6    0.39    0.25
  -8  -5  -6    0.23    0.34
  -8   5  -6    0.30    0.28
  -9  -5  -6   -0.16    0.32
  -9   5  -6    0.09    0.27
 -10  -5  -6   -0.45    0.38
 -10   5  -6   -0.01    0.30
 -11   5  -6   -0.34    0.33
 -12   5  -6    0.16    0.37
 -10  -6   6    0.12    0.30
  10   6  -6   -0.10    0.52
   9   6  -6   -0.32    0.43
   8   6  -6    0.01    0.44
   7   6  -6   -0.02    0.39
   6   6  -6    0.31    0.41
   5  -6  -6    0.15    0.27
   5   6  -6    0.19    0.38
   4  -6  -6   -0.24    0.24
  -4   6   6    0.01    0.40
   4   6  -6    0.43    0.39
   3  -6  -6    0.17    0.25
  -3   6   6    0.29    0.40
   3   6  -6    0.80    0.42
   2  -6  -6    0.19    0.24
   2   6  -6    0.37    0.38
  -2   6   6   -0.63    0.37
   1  -6  -6    1.63    0.36
  -1   6   6    0.51    0.43
   1   6  -6    2.13    0.49
   0  -6  -6   -0.27    0.20
   0   6   6   -0.21    0.38
   0   6  -6    0.67    0.40
  -1  -6  -6   -0.26    0.20
  -1   6  -6   -0.52    0.32
   1   6   6   -0.04    0.40
   1   6   6   -0.12    0.19
  -2  -6  -6    0.97    0.33
   2   6   6    0.96    0.45
  -2   6  -6    1.32    0.44
  -3  -6  -6   -0.06    0.23
  -3   6  -6    0.31    0.40
   3   6   6   -0.27    0.37
  -4  -6  -6   -0.04    0.26
   4   6   6    0.44    0.43
  -4   6  -6    0.28    0.39
  -5  -6  -6    0.75    0.34
  -5   6  -6    1.27    0.46
  -6  -6  -6    0.43    0.32
  -6   6  -6    0.08    0.39
  -7  -6  -6   -0.10    0.32
  -8  -6  -6   -0.14    0.32
  -9  -6  -6   -0.23    0.37
 -10  -6  -6   -0.32    0.40
   9   7  -6   -0.16    0.54
   8   7  -6    0.36    0.54
   7   7  -6    0.17    0.49
   6   7  -6   -0.25    0.42
   5  -7  -6    0.01    0.30
   5   7  -6   -0.27    0.39
   4  -7  -6    0.59    0.31
   4   7  -6    0.22    0.39
  -4   7   6    0.71    0.49
   3  -7  -6    0.88    0.33
  -3   7   6    1.52    0.55
   3   7  -6    0.94    0.46
   2  -7  -6    0.40    0.29
   2   7  -6    0.47    0.44
  -2   7   6    0.70    0.49
   1  -7  -6   -0.13    0.25
   1   7  -6    0.23    0.40
  -1   7   6   -0.21    0.44
   0  -7  -6    1.19    0.36
   0   7  -6    1.79    0.52
   0   7   6    1.13    0.52
  -1  -7  -6    0.14    0.26
  -1   7  -6    0.23    0.41
   1   7   6    0.61    0.48
  -2  -7  -6    0.01    0.27
   2   7   6   -0.19    0.44
  -2   7  -6    0.71    0.43
  -3  -7  -6   -0.30    0.24
  -3   7  -6   -0.18    0.39
   3   7   6    0.06    0.44
  -4  -7  -6    0.27    0.30
   4   7   6    0.19    0.48
  -4   7  -6    0.20    0.43
  -5  -7  -6   -0.01    0.28
  -5   7  -6    0.72    0.46
  -6  -7  -6    0.07    0.31
  -7  -7  -6   -0.17    0.32
  -8  -7  -6    0.11    0.41
  -9  -7  -6    0.27    0.46
   7   8  -6   -0.13    0.56
   6   8  -6    0.24    0.57
   5   8  -6   -0.43    0.50
   4  -8  -6   -0.38    0.31
  -4   8   6   -0.56    0.55
   4   8  -6    0.00    0.49
   3  -8  -6   -0.21    0.29
  -3   8   6   -0.25    0.49
   3   8  -6    0.04    0.43
   2  -8  -6    0.00    0.32
  -2   8   6   -0.07    0.49
   2   8  -6   -0.26    0.38
   1  -8  -6    0.21    0.33
   1   8  -6   -0.04    0.41
  -1   8   6   -0.12    0.48
   0  -8  -6   -0.01    0.30
   0   8   6    0.04    0.51
   0   8  -6   -0.25    0.44
  -1  -8  -6   -0.16    0.30
  -1   8  -6    0.11    0.45
   1   8   6   -0.31    0.47
  -2  -8  -6    0.51    0.37
   2   8   6    0.87    0.55
  -2   8  -6    0.12    0.45
  -3  -8  -6   -0.17    0.29
  -3   8  -6    0.54    0.49
   3   8   6   -0.16    0.48
  -4  -8  -6   -0.21    0.30
  -4   8  -6    0.51    0.50
   4   8   6   -0.29    0.51
  -5  -8  -6    0.49    0.42
  -5   8  -6   -0.33    0.45
  -6  -8  -6   -0.20    0.35
   3   9  -6    0.72    0.62
   2  -9  -6   -0.25    0.35
  -2   9   6   -0.79    0.60
   2   9  -6   -0.17    0.59
   1  -9  -6   -0.03    0.37
   1   9  -6   -0.49    0.51
  -1   9   6   -0.42    0.63
   0  -9  -6    0.12    0.38
   0   9   6   -0.55    0.58
   0   9  -6    0.43    0.56
  -1  -9  -6   -0.07    0.39
   1   9   6   -0.76    0.56
  -1   9  -6   -0.11    0.54
  -2   9  -6    0.34    0.56
   2   9   6    0.01    0.61
 -15   0   7    0.41    0.48
 -14   0   7   -0.02    0.42
 -13   0   7   -0.27    0.40
 -12   0   7    0.03    0.36
 -11   0   7    3.76    0.52
 -10   0   7    0.21    0.34
  -9   0   7    8.46    0.62
   9   0  -7    6.91    0.64
  -8   0   7   -0.53    0.24
   8   0  -7   -0.22    0.29
   7   0  -7   13.06    0.74
  -7   0   7   13.77    0.73
  -7   0   7   14.42    0.73
   7   0  -7   13.93    0.64
  -7   0   7   13.93    0.69
   6   0  -7    0.10    0.26
  -6   0   7   -0.05    0.20
  -6   0   7   -0.28    0.22
   6   0  -7   -0.28    0.17
  -6   0   7   -0.07    0.25
  -5   0   7   37.42    1.38
   5   0  -7   37.89    1.52
   5   0  -7   45.68    2.82
  -5   0   7   37.64    1.45
  -5   0   7   37.18    1.42
   5   0  -7   35.61    1.44
  -4   0   7   -0.11    0.20
   4   0  -7   -0.21    0.98
  -4   0   7    0.33    1.23
   4   0  -7   -0.40    0.20
   4   0  -7   -0.02    0.21
   3   0  -7   26.41    1.06
  -3   0   7   26.79    2.03
  -3   0   7   26.92    1.06
   3   0  -7   27.98    2.12
   3   0  -7   27.87    1.17
   2   0  -7    0.56    1.17
   2   0  -7   -0.21    0.21
   2   0  -7   -0.06    0.17
  -2   0   7    0.83    1.33
  -2   0   7    0.09    0.18
   1   0  -7   81.59    3.04
   1   0  -7   77.21    5.12
   1   0  -7   80.50    2.74
  -1   0   7   82.65    2.75
   1   0  -7   80.86    2.55
   0   0  -7    0.79    1.21
   0   0  -7   -0.14    0.15
   0   0  -7    0.16    0.28
   0   0  -7    0.18    0.20
   0   0   7    0.04    0.20
  -1   0  -7  134.69    4.53
  -1   0  -7  143.01    8.39
   1   0   7  138.79    4.54
  -1   0  -7  136.72    4.19
  -1   0  -7  130.13    5.00
  -2   0  -7   -0.17    0.18
   2   0   7   -0.24    0.18
  -2   0  -7    0.13    0.27
  -2   0  -7    0.11    0.15
  -3   0  -7   32.85    1.28
   3   0   7   32.65    1.28
  -3   0  -7   34.62    1.19
  -3   0  -7   32.03    1.46
  -4   0  -7   -0.21    0.22
  -4   0  -7   -0.18    0.29
   4   0   7   -0.09    0.20
  -4   0  -7    0.16    0.17
  -4   0  -7    0.20    0.19
   5   0   7   25.90    1.08
  -5   0  -7   24.54    1.26
  -5   0  -7   25.60    1.01
  -5   0  -7   23.34    0.99
  -5   0  -7   25.15    1.08
  -6   0  -7   -0.03    0.37
   6   0   7    0.22    0.27
  -6   0  -7    0.07    0.28
  -6   0  -7   -0.52    0.19
  -6   0  -7   -0.32    0.21
   7   0   7    1.83    0.38
  -7   0  -7    1.86    0.31
  -7   0  -7    1.62    0.49
  -7   0  -7    1.27    0.33
  -8   0  -7   -0.52    0.44
   8   0   7   -0.33    0.29
  -8   0  -7    0.09    0.29
  -9   0  -7    0.85    0.53
   9   0   7    0.99    0.39
  -9   0  -7    1.35    0.38
 -10   0  -7    0.13    0.31
 -11   0  -7    0.67    0.37
 -12   0  -7    0.08    0.39
 -13   0  -7    0.68    0.47
 -14   0  -7    0.34    0.47
 -15   1   7   -0.04    0.45
 -14  -1   7    0.18    0.45
 -14   1   7    0.27    0.44
 -13  -1   7    0.40    0.41
 -13   1   7    0.37    0.40
 -12  -1   7    0.17    0.38
 -12   1   7    0.40    0.39
 -11  -1   7    0.67    0.39
 -11   1   7    0.65    0.35
 -10  -1   7    1.64    0.42
 -10   1   7    1.51    0.39
  -9  -1   7    0.06    0.33
   9   1  -7    0.22    0.34
  -9   1   7    0.67    0.33
  -8  -1   7    1.09    0.35
   8  -1  -7    0.98    0.36
  -8  -1   7    0.97    1.51
  -8  -1   7    0.61    0.36
   8   1  -7    0.53    0.25
   8   1  -7    0.83    0.34
  -8   1   7    0.91    0.32
  -7  -1   7    1.17    1.46
  -7  -1   7    0.82    0.28
   7  -1  -7    0.89    1.46
   7  -1  -7    1.12    0.32
  -7  -1   7    0.72    0.34
  -7  -1   7    0.98    0.31
  -7   1   7    0.75    0.26
  -7   1   7    0.96    0.22
   7   1  -7    0.58    0.32
  -7   1   7    1.14    0.30
   7   1  -7    1.37    0.26
   6  -1  -7    3.20    0.39
  -6  -1   7    3.06    1.19
  -6  -1   7    2.93    0.35
   6  -1  -7    6.71    1.71
   6  -1  -7    2.80    0.30
  -6  -1   7    3.06    0.40
  -6  -1   7    2.55    0.36
  -6   1   7    2.43    0.34
   6   1  -7    3.07    0.39
  -6   1   7    2.59    0.31
  -6   1   7    3.19    0.28
   6   1  -7    2.78    0.33
   5  -1  -7   21.79    0.97
  -5  -1   7   23.70    1.02
   5  -1  -7   26.73    2.03
  -5  -1   7   23.75    2.03
   5  -1  -7   23.82    1.02
  -5  -1   7   22.94    0.96
   5   1  -7   23.95    1.05
  -5   1   7   22.04    0.91
  -5   1   7   23.91    0.92
   5   1  -7   23.95    1.00
  -5   1   7   22.79    0.87
  -4  -1   7    0.94    0.28
   4  -1  -7    0.63    0.23
  -4  -1   7    0.00    0.97
   4  -1  -7    0.96    0.28
   4  -1  -7    0.10    1.17
   4   1  -7    0.56    0.24
  -4   1   7    0.75    0.16
  -4   1   7    0.73    0.20
   4   1  -7    0.52    0.24
  -3  -1   7    0.00    0.19
   3  -1  -7   -0.04    0.17
  -3  -1   7   -0.08    0.95
   3  -1  -7    0.03    0.23
   3  -1  -7   -1.38    1.01
   3   1  -7    0.08    0.21
  -3   1   7   -0.16    0.11
  -3   1   7   -0.01    0.14
   3   1  -7   -0.27    0.16
   3   1  -7   -1.06    0.74
  -3   1   7    0.03    0.14
   2  -1  -7   11.20    0.55
  -2  -1   7   11.28    0.56
  -2  -1   7   10.57    1.19
   2  -1  -7   11.62    0.65
   2   1  -7   10.71    0.54
  -2   1   7   10.94    0.49
   2   1  -7   11.64    1.18
  -2   1   7   12.06    0.52
   2   1  -7   12.03    0.64
  -1  -1   7   37.91    2.70
   1  -1  -7   41.06    1.63
   1  -1  -7   39.39    1.34
   1  -1  -7   40.01    1.44
  -1  -1   7   38.76    1.45
   1   1  -7   40.10    1.63
   1   1  -7   39.60    1.43
  -1   1   7   40.17    1.39
   1   1  -7   40.64    2.67
   0  -1  -7    1.99    0.26
   0  -1   7    3.22    1.15
   0  -1  -7    2.27    0.24
   0  -1   7    2.29    0.27
   0  -1  -7    2.25    0.31
   0   1  -7    2.37    0.26
   0   1  -7    2.44    0.26
   0   1  -7    2.13    0.33
   0   1   7    1.87    0.22
   0   1  -7    1.27    0.65
  -1  -1  -7   12.63    0.60
   1  -1   7   13.24    1.35
  -1  -1  -7   12.59    0.70
   1  -1   7   13.17    0.63
  -1  -1  -7   13.69    0.57
   1   1   7   13.08    0.57
  -1   1  -7   12.26    0.59
  -1   1  -7   12.45    0.72
  -1   1  -7   12.90    0.58
  -1   1  -7   13.22    1.09
  -2  -1  -7   85.21    2.70
  -2  -1  -7   84.76    3.24
  -2  -1  -7   83.85    2.91
   2  -1   7   84.49    2.92
   2   1   7   86.60    2.89
  -2   1  -7   84.32    2.70
  -2   1  -7   89.21    2.89
  -2   1  -7   83.75    3.23
   3  -1   7   15.81    0.76
  -3  -1  -7   16.48    0.75
  -3  -1  -7   15.50    0.85
  -3  -1  -7   16.28    0.70
  -3   1  -7   15.72    0.68
  -3   1  -7   16.41    0.66
  -3   1  -7   16.04    0.72
  -3   1  -7   16.88    0.89
   3   1   7   16.11    0.72
  -4  -1  -7    9.79    0.53
  -4  -1  -7    9.67    0.66
  -4  -1  -7    9.20    0.52
  -4  -1  -7    9.03    0.56
   4  -1   7    9.41    0.57
  -4   1  -7    8.53    0.67
  -4   1  -7    9.83    0.55
   4   1   7    9.23    0.54
  -4   1  -7    9.65    0.48
  -4   1  -7    8.99    0.51
  -5  -1  -7    3.57    0.46
  -5  -1  -7    4.10    0.42
  -5  -1  -7    3.85    0.38
  -5  -1  -7    3.96    0.38
   5  -1   7    4.41    0.43
  -5   1  -7    3.41    0.46
   5   1   7    4.33    0.40
  -5   1  -7    3.94    0.37
  -5   1  -7    3.16    0.37
  -5   1  -7    4.26    0.33
  -6  -1  -7    5.19    0.55
   6  -1   7    5.25    0.48
  -6  -1  -7    5.75    0.47
  -6  -1  -7    5.11    0.50
  -6  -1  -7    5.13    0.43
  -6   1  -7    3.97    0.49
  -6   1  -7    5.16    0.45
  -6   1  -7    4.62    0.37
   6   1   7    4.45    0.45
  -6   1  -7    5.01    0.43
  -7  -1  -7   -0.08    0.24
  -7  -1  -7    0.53    0.28
  -7  -1  -7   -0.19    0.36
   7  -1   7   -0.69    0.27
   7   1   7    0.27    0.29
  -7   1  -7   -0.36    0.24
  -7   1  -7   -0.42    0.36
   8  -1   7   -0.17    0.31
  -8  -1  -7   -0.47    0.21
  -8  -1  -7   -0.09    0.29
   8   1   7    0.79    0.37
  -8   1  -7    0.30    0.30
  -8   1  -7   -0.04    0.40
  -9  -1  -7   -0.11    0.46
  -9  -1  -7    0.29    0.31
   9   1   7    0.35    0.36
  -9   1  -7    0.37    0.34
 -10  -1  -7    1.21    0.39
 -10   1  -7    1.24    0.39
 -11  -1  -7    1.06    0.39
 -11   1  -7    0.06    0.34
 -12  -1  -7    0.24    0.39
 -12   1  -7    0.00    0.37
 -13   1  -7   -0.05    0.40
 -14   1  -7   -0.35    0.43
 -14   2   7    0.54    0.44
 -13   2   7    0.12    0.36
 -12   2   7   -0.13    0.31
 -11  -2   7   -0.24    0.34
 -11   2   7   -0.21    0.29
 -10  -2   7    0.77    0.38
 -10   2   7    0.19    0.30
  -9  -2   7    0.16    0.33
  -9   2   7    0.10    0.28
  -8  -2   7    0.63    0.32
  -8  -2   7    0.13    0.35
  -8  -2   7    0.67    1.18
   8  -2  -7    0.50    0.24
   8   2  -7    0.00    0.26
  -8   2   7    0.46    0.29
  -7  -2   7   -0.37    0.22
  -7  -2   7   -0.44    0.22
  -7  -2   7   -0.26    0.27
   7  -2  -7   -0.46    0.27
  -7  -2   7   -0.55    0.97
   7  -2  -7   -0.27    0.17
  -7   2   7   -0.25    0.23
   7   2  -7   -0.13    0.24
   7   2  -7    0.28    0.29
  -6  -2   7    5.79    0.46
   6  -2  -7    4.99    0.42
   6  -2  -7    4.73    0.35
  -6  -2   7    4.96    0.46
  -6  -2   7    4.20    1.09
   6  -2  -7    5.05    0.47
   6   2  -7    5.26    0.45
   6   2  -7    5.76    0.48
  -6   2   7    4.99    0.39
   5  -2  -7    1.98    0.24
  -5  -2   7    2.25    0.33
  -5  -2   7    1.99    0.33
   5  -2  -7    1.90    0.29
  -5  -2   7    3.19    1.14
   5  -2  -7    1.89    0.31
   5   2  -7    2.32    0.32
   5   2  -7    1.91    0.32
  -5   2   7    2.14    0.27
   4  -2  -7   23.29    0.94
  -4  -2   7   24.33    1.00
  -4  -2   7   24.12    1.97
   4  -2  -7   22.40    1.04
  -4  -2   7   23.66    0.96
  -4   2   7   24.11    0.90
   4   2  -7   24.70    1.11
  -4   2   7   23.26    0.88
   4   2  -7   24.68    0.97
   3  -2  -7   15.25    0.77
  -3  -2   7   15.00    1.50
   3  -2  -7   15.66    0.66
  -3  -2   7   15.05    0.72
   3   2  -7   16.25    0.83
   3   2  -7   16.18    0.69
  -3   2   7   16.98    0.66
   2  -2  -7    1.42    0.19
  -2  -2   7    1.17    0.23
   2  -2  -7    1.24    0.23
  -2  -2   7    2.54    1.04
  -2   2   7    1.14    0.19
   2   2  -7    1.52    0.22
   2   2  -7    0.89    0.27
   1  -2  -7    0.21    0.17
  -1  -2   7   -0.04    0.78
  -1  -2   7    0.21    0.17
   1  -2  -7   -0.01    0.13
   1   2  -7    0.28    0.23
   1   2  -7    0.05    0.15
  -1   2   7    0.21    0.14
   0  -2   7   23.32    0.91
   0  -2  -7   23.26    1.06
   0  -2  -7   23.53    0.88
   0   2  -7   21.74    1.06
   0   2  -7   21.99    0.85
   0   2   7   24.19    0.85
  -1  -2  -7   66.76    2.29
  -1  -2  -7   65.06    2.14
  -1  -2  -7   66.48    2.59
   1  -2   7   65.17    2.30
  -1   2  -7   66.59    2.22
  -1   2  -7   66.62    2.61
   1   2   7   69.21    2.15
  -1   2  -7   65.15    2.16
   1   2   7   69.09    2.22
  -2  -2  -7   91.49    2.97
   2  -2   7   92.10    3.19
  -2  -2  -7   94.94    3.57
  -2  -2  -7   98.21    3.20
  -2   2  -7   90.59    3.56
   2   2   7   93.81    3.14
  -2   2  -7   98.52    3.00
  -2   2  -7   94.90    3.08
   3  -2   7    6.23    0.47
  -3  -2  -7    5.77    0.51
  -3  -2  -7    5.51    0.44
  -3  -2  -7    5.62    0.43
  -3   2  -7    5.75    0.54
   3   2   7    6.18    0.40
  -3   2  -7    6.21    0.29
  -3   2  -7    6.53    0.44
  -4  -2  -7    1.36    0.31
  -4  -2  -7    1.14    0.29
  -4  -2  -7    0.92    0.27
   4  -2   7    1.40    0.31
  -4   2  -7    0.72    0.26
  -4   2  -7    1.09    0.33
   4   2   7    1.24    0.27
  -5  -2  -7   19.67    0.92
  -5  -2  -7   18.06    0.85
  -5  -2  -7   18.65    0.85
  -5  -2  -7   18.46    1.02
   5  -2   7   19.33    0.91
  -5   2  -7   19.34    1.00
   5   2   7   18.45    0.85
  -5   2  -7   17.49    0.81
   6  -2   7    0.35    0.30
  -6  -2  -7    0.81    0.33
  -6  -2  -7    0.10    0.29
  -6  -2  -7    0.63    0.27
  -6  -2  -7    0.11    0.26
  -6   2  -7    0.19    0.26
   6   2   7    0.64    0.29
  -6   2  -7    0.55    0.32
  -7  -2  -7   -0.17    0.27
  -7  -2  -7    0.06    0.27
  -7  -2  -7    0.40    0.32
  -7  -2  -7   -0.23    0.32
   7  -2   7   -0.45    0.31
  -7   2  -7    0.09    0.28
   7   2   7   -0.20    0.26
  -7   2  -7    0.03    0.32
  -8  -2  -7    0.02    0.28
  -8  -2  -7   -0.13    0.34
  -8  -2  -7   -0.11    0.31
  -8   2  -7   -0.23    0.28
  -8   2  -7   -0.18    0.32
  -9  -2  -7   -0.19    0.38
  -9   2  -7    0.13    0.29
 -10   2  -7   -0.15    0.32
 -11   2  -7    0.42    0.37
 -12   2  -7    0.22    0.38
 -13   2  -7   -0.06    0.42
 -14   2  -7    0.54    0.50
 -14   3   7    0.10    0.40
 -13   3   7    0.24    0.37
 -12   3   7   -0.20    0.30
 -11   3   7    0.36    0.30
 -10   3   7    0.27    0.27
  -9  -3   7   -0.58    2.04
  -9   3   7    0.23    0.26
   9   3  -7    0.13    0.29
  -8  -3   7    6.45    2.10
  -8  -3   7    6.82    0.64
   8   3  -7    7.25    0.63
  -8   3   7    5.47    0.46
  -7  -3   7   -0.19    0.31
   7  -3  -7    0.28    0.20
  -7  -3   7    0.13    1.62
  -7  -3   7    0.23    0.26
  -7   3   7    0.10    0.22
   7   3  -7    0.18    0.32
   6  -3  -7    0.36    0.17
  -6  -3   7    0.32    1.40
   6  -3  -7   -0.18    0.20
   6  -3  -7    0.22    0.25
  -6  -3   7    0.11    0.26
  -6  -3   7    0.14    0.28
  -6   3   7    0.24    0.20
   6   3  -7    0.26    0.29
  -6   3   7    0.22    0.20
  -5  -3   7    0.14    0.24
   5  -3  -7    0.35    0.13
   5  -3  -7    0.25    0.21
  -5  -3   7   -0.15    1.03
   5  -3  -7   -0.23    0.21
  -5  -3   7    0.45    0.27
  -5   3   7    0.17    0.17
   5   3  -7    0.43    0.30
  -5   3   7   -0.04    0.18
  -4  -3   7    7.83    0.51
  -4  -3   7    8.09    0.50
   4  -3  -7    7.81    0.51
   4   3  -7    7.95    0.46
   4   3  -7    6.79    0.57
  -4   3   7    7.41    0.40
  -4   3   7    7.80    0.39
  -3  -3   7   -0.86    0.72
  -3  -3   7    0.25    0.21
   3  -3  -7    0.40    0.19
   3   3  -7    0.00    0.17
   3   3  -7    0.00    0.26
  -3   3   7    0.12    0.14
  -2  -3   7    0.92    0.22
   2  -3  -7    0.92    0.24
  -2   3   7    1.05    0.18
   2   3  -7    0.99    0.17
   2   3  -7    0.87    0.29
  -1  -3   7    2.89    0.29
   1  -3  -7    3.02    0.35
   1  -3  -7    2.79    0.21
   1   3  -7    2.87    0.39
  -1   3   7    2.80    0.24
   0  -3  -7    6.02    0.48
   0  -3   7    6.34    0.40
   0  -3  -7    6.55    0.34
   0   3  -7    7.09    0.56
   0   3   7    6.76    0.37
   1  -3   7    2.17    0.26
  -1  -3  -7    2.38    0.33
  -1  -3  -7    2.32    0.24
   1   3   7    2.54    0.26
  -1   3  -7    2.08    0.37
  -2  -3  -7    4.54    0.35
  -2  -3  -7    4.37    0.44
   2  -3   7    4.17    0.35
  -2   3  -7    4.93    0.50
  -2   3  -7    4.44    0.36
   2   3   7    4.76    0.36
   3  -3   7    4.19    0.38
  -3  -3  -7    3.68    0.35
  -3  -3  -7    4.24    0.44
  -3  -3  -7    4.43    0.38
  -3   3  -7    3.94    0.35
  -3   3  -7    3.62    0.44
   3   3   7    3.48    0.35
  -4  -3  -7    0.48    0.24
   4  -3   7    0.03    0.26
  -4  -3  -7    0.25    0.21
  -4  -3  -7   -0.02    0.22
  -4   3  -7    0.37    0.23
  -4   3  -7    0.23    0.28
   5  -3   7    1.84    0.37
  -5  -3  -7    1.44    0.35
  -5  -3  -7    1.77    0.34
  -5  -3  -7    1.78    0.33
   5   3   7    1.95    0.31
  -5   3  -7    1.82    0.33
  -5   3  -7    2.15    0.40
  -6  -3  -7    0.49    0.30
   6  -3   7    0.78    0.36
  -6  -3  -7    0.89    0.31
  -6  -3  -7    0.76    0.34
  -6   3  -7    0.28    0.27
  -6   3  -7    0.77    0.29
  -7  -3  -7    1.82    0.42
  -7  -3  -7    1.59    0.39
  -7  -3  -7    2.06    0.43
  -7   3  -7    1.70    0.41
  -7   3  -7    1.82    0.36
  -8  -3  -7   -0.06    0.32
  -8  -3  -7    0.28    0.35
  -8   3  -7   -0.15    0.30
  -9  -3  -7    0.76    0.44
  -9   3  -7    0.82    0.35
 -10  -3  -7    0.63    0.46
 -10   3  -7    0.56    0.35
 -11   3  -7    0.03    0.35
 -12   3  -7    0.18    0.40
 -13   3  -7   -0.50    0.42
 -13   4   7    0.32    0.34
 -12   4   7   -0.20    0.27
 -11   4   7    0.42    0.29
 -10   4   7    0.34    0.28
  -9  -4   7    4.36    2.48
   9   4  -7    0.98    0.41
  -9   4   7    0.88    0.26
  -8  -4   7    1.78    2.10
  -7  -4   7    2.79    0.48
  -7  -4   7    3.31    1.78
  -7   4   7    2.66    0.30
  -7   4   7    3.05    0.29
   7   4  -7    3.18    0.51
   6  -4  -7    1.12    0.29
  -6  -4   7    1.50    0.40
  -6   4   7    1.19    0.21
   6   4  -7    0.49    0.39
   5  -4  -7    3.26    0.37
  -5  -4   7    3.41    0.43
   5   4  -7    3.60    0.52
   4  -4  -7    0.24    0.22
  -4  -4   7    0.55    0.27
   4   4  -7    0.28    0.33
  -3  -4   7    1.06    0.26
   3  -4  -7    0.68    0.25
   3   4  -7    0.84    0.35
  -2  -4   7    0.01    0.19
   2  -4  -7    0.08    0.19
   2   4  -7   -0.01    0.28
   1  -4  -7    6.93    0.52
  -1  -4   7    7.25    0.44
  -1   4   7    6.59    0.35
   1   4  -7    6.29    0.59
   0  -4  -7    0.23    0.20
   0  -4   7    0.39    0.18
   0  -4  -7    0.29    0.13
   0   4   7    0.44    0.17
   0   4  -7    0.24    0.29
  -1  -4  -7    1.11    0.28
  -1  -4  -7    0.96    0.19
   1  -4   7    1.33    0.22
  -1   4  -7    0.76    0.33
   1   4   7    1.15    0.23
  -2  -4  -7    0.22    0.23
  -2  -4  -7    0.44    0.18
   2  -4   7    0.30    0.19
  -2   4  -7    0.55    0.33
   2   4   7    0.62    0.23
   3  -4   7    0.17    0.21
  -3  -4  -7   -0.13    0.19
  -3  -4  -7    0.03    0.21
  -3   4  -7   -0.06    0.31
  -4  -4  -7    5.98    0.58
   4  -4   7    6.01    0.50
  -4   4  -7    6.03    0.45
  -4   4  -7    6.37    0.62
  -5  -4  -7    0.28    0.28
   5  -4   7    0.04    0.31
  -5  -4  -7   -0.02    0.24
  -5   4  -7    0.29    0.27
  -5   4  -7    0.16    0.36
  -6  -4  -7    7.74    0.71
  -6   4  -7    8.61    0.54
  -6   4  -7    5.60    0.57
  -7  -4  -7    1.52    0.41
  -7   4  -7    0.63    0.33
  -7   4  -7    1.00    0.39
  -8  -4  -7   -0.48    0.30
  -8   4  -7    0.10    0.31
  -9  -4  -7    1.25    0.46
  -9   4  -7    0.89    0.34
 -10  -4  -7    0.14    0.41
 -10   4  -7   -0.11    0.31
 -11   4  -7   -0.03    0.35
 -12   4  -7    0.18    0.39
  10   5  -7    0.02    0.41
   9   5  -7    0.71    0.47
   8   5  -7    0.36    0.41
   7   5  -7    0.70    0.43
   6   5  -7   -0.12    0.37
   5  -5  -7    2.44    0.38
   5   5  -7    2.39    0.50
   4  -5  -7   -0.03    0.24
   4   5  -7    0.58    0.40
   3  -5  -7    3.13    0.40
   3   5  -7    2.57    0.50
   2  -5  -7    2.41    0.38
   2   5  -7    1.83    0.46
   1  -5  -7    3.39    0.43
  -1  -5   7    3.90    0.35
   1   5  -7    3.19    0.53
   0  -5  -7    0.07    0.20
   0  -5   7   -0.08    0.19
   0   5   7   -0.10    0.18
   0   5  -7   -0.26    0.33
  -1  -5  -7    2.51    0.39
   1  -5   7    1.94    0.27
   1   5   7    1.99    0.28
  -1   5  -7    2.37    0.49
   2  -5   7    0.70    0.23
  -2  -5  -7    0.82    0.31
  -2   5  -7    1.23    0.43
   3  -5   7    0.79    0.25
  -3  -5  -7    0.79    0.32
  -3   5  -7    0.83    0.42
  -4  -5  -7    0.40    0.30
  -4   5  -7    0.87    0.42
  -5  -5  -7   -0.11    0.24
  -5   5  -7   -0.29    0.33
  -6  -5  -7    0.20    0.27
  -6   5  -7   -0.29    0.34
  -6   5  -7    0.51    0.25
  -7  -5  -7   -0.18    0.30
  -7   5  -7    0.14    0.26
  -8  -5  -7   -0.29    0.30
  -8   5  -7   -0.21    0.27
  -9  -5  -7    0.77    0.48
  -9   5  -7    0.34    0.31
 -10  -5  -7   -0.56    0.38
 -10   5  -7   -0.25    0.30
 -11   5  -7   -0.02    0.37
 -12   5  -7    0.06    0.39
  10   6  -7    0.05    0.50
   9   6  -7   -0.50    0.43
   8   6  -7   -0.32    0.41
   7   6  -7    0.23    0.41
   6   6  -7    1.82    0.50
   5  -6  -7    0.22    0.29
   5   6  -7    0.32    0.41
   4  -6  -7   -0.19    0.24
   4   6  -7    0.09    0.38
   3  -6  -7    0.19    0.26
   3   6  -7    0.37    0.40
   2  -6  -7    0.45    0.28
   2   6  -7    0.44    0.39
  -2   6   7   -0.26    0.39
   1  -6  -7    0.08    0.25
  -1   6   7   -0.17    0.39
   1   6  -7    0.35    0.38
   0  -6  -7    0.38    0.28
   0   6   7    0.87    0.46
   0   6  -7    0.99    0.42
  -1  -6  -7    0.44    0.29
  -1   6  -7    1.22    0.45
   1   6   7    0.78    0.45
  -2  -6  -7    1.62    0.39
   2   6   7    2.68    0.56
  -2   6  -7    2.07    0.50
  -3  -6  -7    0.09    0.26
  -3   6  -7   -0.18    0.36
  -4  -6  -7    1.39    0.39
  -4   6  -7    1.19    0.45
  -5  -6  -7    0.19    0.27
  -5   6  -7    0.84    0.44
  -6  -6  -7   -0.11    0.29
  -6   6  -7    0.02    0.38
  -7  -6  -7    0.01    0.31
  -8  -6  -7    0.36    0.40
  -9  -6  -7   -0.27    0.36
 -10  -6  -7   -0.52    0.43
   9   7  -7   -0.42    0.53
   8   7  -7   -0.01    0.53
   7   7  -7   -0.23    0.46
   6   7  -7   -0.24    0.42
   5   7  -7    0.29    0.44
   4  -7  -7   -0.46    0.24
   4   7  -7   -0.28    0.40
   3  -7  -7    0.08    0.28
   3   7  -7    0.28    0.43
   2  -7  -7    0.02    0.27
   2   7  -7    0.05    0.41
  -2   7   7    0.22    0.49
   1  -7  -7    0.00    0.26
  -1   7   7   -0.13    0.45
   1   7  -7    0.51    0.44
   0  -7  -7   -0.21    0.25
   0   7   7   -0.37    0.44
   0   7  -7   -0.33    0.37
  -1  -7  -7   -0.18    0.25
   1   7   7   -0.07    0.46
  -1   7  -7   -0.13    0.40
  -2  -7  -7    0.15    0.30
   2   7   7    0.42    0.50
  -2   7  -7    0.33    0.41
  -3  -7  -7    0.07    0.28
  -3   7  -7    0.64    0.47
  -4  -7  -7    0.05    0.30
  -4   7  -7    0.59    0.45
  -5  -7  -7    0.13    0.33
  -5   7  -7    0.09    0.43
  -6  -7  -7    0.25    0.33
  -7  -7  -7   -0.09    0.34
  -8  -7  -7   -0.40    0.37
   7   8  -7   -0.17    0.59
   6   8  -7   -0.11    0.55
   5   8  -7   -0.15    0.52
   4  -8  -7   -0.21    0.32
   4   8  -7   -0.12    0.47
   3  -8  -7   -0.27    0.32
   3   8  -7    0.22    0.45
   2  -8  -7   -0.14    0.29
   2   8  -7    0.28    0.45
   1  -8  -7   -0.22    0.30
   1   8  -7    0.40    0.47
   0  -8  -7   -0.20    0.27
   0   8  -7   -0.57    0.41
   0   8   7   -0.45    0.48
  -1  -8  -7   -0.05    0.30
  -1   8  -7    1.29    0.56
  -2  -8  -7    0.03    0.32
  -2   8  -7   -0.09    0.48
  -3  -8  -7    0.10    0.34
  -3   8  -7    0.66    0.52
  -4  -8  -7    0.07    0.33
  -4   8  -7    0.41    0.53
  -5  -8  -7    0.25    0.37
  -5   8  -7    0.50    0.54
  -6  -8  -7    0.23    0.41
   2   9  -7    0.04    0.56
   1   9  -7    0.27    0.52
   0   9  -7   -0.12    0.53
  -1   9  -7   -0.01    0.51
 -15   0   8    0.78    0.53
 -14   0   8    0.14    0.45
 -13   0   8   -0.50    0.36
 -12   0   8    0.60    0.40
 -11   0   8    0.14    0.35
 -10   0   8   17.76    0.97
   9   0  -8   -0.21    0.37
  -9   0   8    0.09    0.32
   8   0  -8   22.21    1.08
  -8   0   8   21.43    1.01
   7   0  -8    0.02    0.19
  -7   0   8   -0.13    0.24
   7   0  -8   -0.03    0.29
  -7   0   8    0.33    0.29
  -6   0   8   91.75    3.14
   6   0  -8   91.50    3.33
  -6   0   8   86.65    2.94
  -6   0   8   89.83    3.10
   6   0  -8   91.64    3.15
  -5   0   8   -0.25    0.17
  -5   0   8   -0.22    0.19
  -5   0   8   -0.31    0.22
   5   0  -8   -0.33    0.22
   5   0  -8    0.06    0.23
   5   0  -8    0.08    1.30
  -4   0   8  108.67    3.72
  -4   0   8  111.17    6.83
   4   0  -8  105.67    3.72
   4   0  -8  114.74    4.06
   3   0  -8   -0.16    0.19
  -3   0   8   -0.26    0.17
  -3   0   8   -0.63    1.27
   3   0  -8   -0.72    1.07
   3   0  -8   -0.13    0.23
   2   0  -8   16.52    0.84
  -2   0   8   16.21    0.74
   2   0  -8   17.37    0.75
   2   0  -8   15.22    1.75
   1   0  -8   -0.20    0.15
   1   0  -8   -0.20    1.16
  -1   0   8   -0.05    0.18
   1   0  -8    0.06    0.25
   1   0  -8   -0.02    0.19
   0   0  -8    7.81    1.35
   0   0   8    7.50    0.46
   0   0  -8    7.65    0.46
   0   0  -8    7.65    0.43
   0   0  -8    7.90    0.60
  -1   0  -8   -0.08    0.27
   1   0   8    0.03    0.19
  -1   0  -8    0.47    1.21
  -1   0  -8    0.05    0.15
  -1   0  -8   -0.21    0.18
  -2   0  -8   42.06    1.80
   2   0   8   41.67    1.57
  -2   0  -8   42.51    1.58
  -2   0  -8   42.91    1.46
   3   0   8   -0.24    0.19
  -3   0  -8   -0.05    0.29
  -3   0  -8   -0.26    0.15
  -3   0  -8   -0.17    0.22
  -4   0  -8   48.61    1.74
  -4   0  -8   47.87    1.80
  -4   0  -8   45.82    2.04
   4   0   8   50.29    1.81
  -4   0  -8   48.16    1.68
  -5   0  -8   -0.46    0.24
  -5   0  -8   -0.10    0.20
   5   0   8    0.14    0.27
  -5   0  -8   -0.42    0.35
  -5   0  -8    0.08    0.22
  -6   0  -8    9.20    0.85
  -6   0  -8    9.37    0.56
  -6   0  -8    9.17    0.58
  -6   0  -8    9.98    0.66
   6   0   8    9.21    0.64
  -7   0  -8    0.18    0.26
  -7   0  -8   -0.37    0.33
  -7   0  -8    0.29    0.28
   7   0   8   -0.13    0.29
  -8   0  -8    2.38    0.62
  -8   0  -8    2.55    0.42
   8   0   8    2.89    0.47
   9   0   8    0.11    0.33
  -9   0  -8    0.34    0.51
  -9   0  -8    0.38    0.32
 -10   0  -8    0.90    0.38
 -11   0  -8    0.34    0.37
 -12   0  -8    0.19    0.39
 -13   0  -8   -0.07    0.41
 -14   0  -8   -0.14    0.46
 -14  -1   8    0.31    0.49
 -14   1   8    0.07    0.42
 -13  -1   8    0.26    0.41
 -13   1   8    0.71    0.44
 -12  -1   8    0.29    0.40
 -12   1   8    1.20    0.43
 -11  -1   8    0.74    0.41
 -11   1   8    0.00    0.32
 -10  -1   8    1.12    0.40
 -10   1   8    0.61    0.36
  -9  -1   8    1.19    0.39
  -9   1   8    1.02    0.36
  -8  -1   8    2.65    0.44
   8   1  -8    2.70    0.35
   8   1  -8    3.55    0.47
  -8   1   8    3.71    0.44
   7  -1  -8    0.35    0.21
  -7  -1   8    0.08    0.32
   7  -1  -8    1.56    1.78
   7  -1  -8    0.24    0.31
  -7  -1   8    0.27    1.57
  -7  -1   8    0.16    0.25
  -7   1   8    0.41    0.27
   7   1  -8    0.38    0.24
  -7   1   8   -0.12    0.19
  -7   1   8    0.14    0.25
   7   1  -8    0.10    0.31
   6  -1  -8    4.55    1.77
  -6  -1   8    2.07    0.33
   6  -1  -8    1.47    0.29
  -6  -1   8    1.10    0.27
  -6  -1   8    4.35    1.60
  -6  -1   8    1.98    0.37
   6  -1  -8    1.69    0.35
  -6   1   8    1.46    0.28
  -6   1   8    1.88    0.24
  -6   1   8    1.69    0.30
   6   1  -8    0.94    0.31
   6   1  -8    1.38    0.28
   5  -1  -8    5.92    0.46
  -5  -1   8    5.87    0.48
  -5  -1   8    6.12    0.46
   5  -1  -8    6.11    0.50
  -5  -1   8   10.14    1.60
  -5   1   8    5.96    0.43
   5   1  -8    6.70    0.48
  -5   1   8    6.35    0.43
  -5   1   8    6.24    0.35
   5   1  -8    6.47    0.49
   4  -1  -8   30.25    1.21
  -4  -1   8   30.73    1.24
   4  -1  -8   28.94    1.34
   4  -1  -8   31.89    2.36
  -4  -1   8   31.72    2.38
   4   1  -8   31.32    1.33
  -4   1   8   29.97    1.11
  -4   1   8   30.43    1.15
   4   1  -8   33.06    1.23
  -3  -1   8    0.27    1.12
   3  -1  -8    0.68    0.29
   3  -1  -8    0.59    1.17
  -3  -1   8    0.50    0.23
   3  -1  -8    0.71    0.22
  -3   1   8    1.01    0.20
   3   1  -8    0.95    0.28
  -3   1   8    0.56    0.15
   3   1  -8    0.32    0.23
   2  -1  -8    6.94    0.53
  -2  -1   8    6.38    0.43
   2  -1  -8    6.35    0.42
   2   1  -8    6.78    0.51
   2   1  -8    6.04    0.93
   2   1  -8    6.54    0.42
  -2   1   8    6.41    0.37
  -1  -1   8    3.58    0.34
   1  -1  -8    4.26    0.43
  -1  -1   8    2.34    1.19
   1  -1  -8    3.76    0.33
   1  -1  -8    3.23    0.28
   1   1  -8    5.73    1.04
   1   1  -8    3.50    0.32
   1   1  -8    3.70    0.40
  -1   1   8    3.47    0.29
   0  -1   8    5.85    0.41
   0  -1   8    5.12    1.38
   0  -1  -8    6.71    0.51
   0  -1  -8    5.87    0.37
   0  -1  -8    6.54    0.41
   0   1  -8    5.41    0.38
   0   1  -8    6.14    0.87
   0   1   8    6.18    0.37
   0   1  -8    5.88    0.40
   0   1  -8    5.95    0.51
  -1  -1  -8   19.23    0.83
   1  -1   8   19.03    0.86
  -1  -1  -8   19.80    0.98
   1  -1   8   21.66    1.77
  -1  -1  -8   19.82    0.78
  -1   1  -8   17.34    0.95
  -1   1  -8   20.00    0.82
  -1   1  -8   17.79    0.77
   1   1   8   19.45    0.80
  -1   1  -8   20.66    1.56
   2  -1   8    0.17    0.22
  -2  -1  -8    0.21    0.20
  -2  -1  -8    0.42    0.18
  -2  -1  -8   -0.02    0.22
   2   1   8    0.39    0.19
  -2   1  -8   -0.08    0.17
  -2   1  -8    0.01    0.26
  -2   1  -8   -0.24    0.18
  -3  -1  -8    6.68    0.58
  -3  -1  -8    7.35    0.49
  -3  -1  -8    7.22    0.45
   3  -1   8    6.84    0.50
  -3   1  -8    7.15    0.47
  -3   1  -8    7.37    0.62
  -3   1  -8    7.04    0.40
  -3   1  -8    6.73    0.44
   3   1   8    7.18    0.47
  -4  -1  -8   -0.16    0.28
   4  -1   8   -0.27    0.23
  -4  -1  -8    0.20    0.22
  -4  -1  -8   -0.13    0.23
   4   1   8    0.09    0.22
  -4   1  -8   -0.26    0.19
  -4   1  -8   -0.10    0.23
  -4   1  -8   -0.37    0.30
  -4   1  -8   -0.09    0.17
  -5  -1  -8    0.47    0.23
  -5  -1  -8    0.63    0.34
   5  -1   8    0.48    0.29
  -5  -1  -8    0.78    0.25
  -5  -1  -8    0.14    0.25
  -5   1  -8    0.08    0.34
  -5   1  -8    0.59    0.20
   5   1   8    0.36    0.25
  -5   1  -8    0.01    0.26
  -5   1  -8    0.35    0.24
   6  -1   8    0.24    0.30
  -6  -1  -8    0.50    0.39
  -6  -1  -8    0.47    0.31
  -6  -1  -8    0.47    0.27
  -6  -1  -8    0.53    0.27
   6   1   8    0.21    0.28
  -6   1  -8    1.15    0.25
  -6   1  -8    0.72    0.38
  -6   1  -8    0.50    0.28
  -7  -1  -8    0.00    0.28
  -7  -1  -8    0.20    0.29
  -7  -1  -8    0.26    0.41
   7  -1   8    0.27    0.34
  -7   1  -8   -0.30    0.39
   7   1   8   -0.33    0.27
  -7   1  -8    0.07    0.27
  -8  -1  -8   -0.32    0.46
  -8  -1  -8    0.26    0.31
   8  -1   8    0.51    0.37
  -8   1  -8    0.05    0.30
   8   1   8    0.47    0.35
  -8   1  -8    0.96    0.46
  -9  -1  -8    0.43    0.51
  -9  -1  -8    0.32    0.31
  -9   1  -8    0.40    0.34
 -10  -1  -8   -0.01    0.32
 -10   1  -8    0.63    0.36
 -11  -1  -8   -0.54    0.33
 -11   1  -8    0.74    0.37
 -12   1  -8   -0.45    0.36
 -13   1  -8    0.20    0.41
 -14   1  -8    0.37    0.48
 -14   2   8   -0.02    0.41
 -13   2   8    0.98    0.42
 -12   2   8    0.23    0.35
 -11  -2   8   -0.04    0.34
 -11   2   8    0.06    0.29
 -10  -2   8    1.14    0.43
 -10   2   8    0.28    0.31
  -9  -2   8    0.32    0.34
  -9   2   8    0.08    0.27
  -8  -2   8    0.85    0.36
  -8  -2   8    0.47    0.37
  -8  -2   8    0.03    1.43
  -8   2   8   -0.20    0.26
   8   2  -8    0.52    0.31
  -7  -2   8    0.81    0.31
  -7  -2   8   -0.21    1.41
  -7  -2   8    0.42    0.26
  -7  -2   8    0.44    0.34
  -7   2   8    0.44    0.26
   7   2  -8    0.32    0.28
   6  -2  -8    0.42    0.27
  -6  -2   8    0.81    0.29
  -6  -2   8    0.36    0.29
   6  -2  -8    0.97    0.34
  -6  -2   8    0.26    1.35
  -6   2   8    0.96    0.24
   6   2  -8    0.38    0.28
   6   2  -8    0.69    0.30
   5  -2  -8    0.06    0.22
  -5  -2   8   -0.32    0.23
  -5  -2   8   -0.04    0.21
  -5  -2   8   -0.38    1.14
   5  -2  -8    0.01    0.27
  -5   2   8   -0.31    0.16
   5   2  -8   -0.40    0.22
   5   2  -8   -0.27    0.20
  -5   2   8   -0.22    0.17
   4  -2  -8    0.00    0.21
  -4  -2   8   -0.07    0.23
   4  -2  -8    0.55    0.26
  -4  -2   8   -0.22    1.15
   4   2  -8    0.17    0.25
   4   2  -8   -0.14    0.20
  -4   2   8    0.13    0.19
  -3  -2   8    8.69    1.29
  -3  -2   8   10.42    0.58
   3  -2  -8   10.64    0.63
   3  -2  -8    9.92    0.52
   3   2  -8   10.03    0.53
  -3   2   8   10.54    0.50
   3   2  -8   10.59    0.66
  -2  -2   8   -0.58    0.75
   2  -2  -8    0.04    0.17
  -2  -2   8    0.03    0.20
   2  -2  -8    0.14    0.19
   2   2  -8   -0.10    0.22
  -2   2   8    0.14    0.16
   2   2  -8   -0.12    0.18
   1  -2  -8   23.91    0.94
  -1  -2   8   23.51    1.85
  -1  -2   8   24.75    0.99
   1  -2  -8   24.29    1.11
   1   2  -8   24.95    1.16
   1   2  -8   23.93    0.93
  -1   2   8   24.86    0.90
   0  -2   8   17.81    1.56
   0  -2   8   17.06    0.80
   0  -2  -8   17.63    0.76
   0  -2  -8   19.17    0.94
   0   2  -8   18.70    0.74
   0   2   8   18.40    0.74
   0   2  -8   17.96    0.95
   0   2   8   19.51    0.67
   1  -2   8  103.31    3.58
  -1  -2  -8  105.46    3.56
  -1  -2  -8  107.00    3.32
   1  -2   8  104.45    6.55
  -1  -2  -8  103.56    3.98
  -1   2  -8  108.72    3.50
  -1   2  -8  102.84    3.98
   1   2   8  106.86    3.32
  -1   2  -8  107.35    3.34
   1   2   8  108.74    3.49
  -2  -2  -8    0.32    0.22
   2  -2   8   -0.43    0.21
  -2  -2  -8   -0.11    0.18
  -2  -2  -8    0.11    0.20
   2   2   8   -0.11    0.17
  -2   2  -8    0.03    0.21
  -2   2  -8    0.14    0.18
  -2   2  -8    0.30    0.29
  -2   2  -8   -0.12    0.14
  -3  -2  -8   60.63    2.47
  -3  -2  -8   59.09    2.19
  -3  -2  -8   58.82    2.04
   3  -2   8   60.72    2.20
  -3   2  -8   62.79    2.06
  -3   2  -8   63.94    2.48
  -3   2  -8   59.42    2.03
   3   2   8   61.15    2.13
  -3   2  -8   61.31    2.04
   4  -2   8    1.72    0.34
  -4  -2  -8    1.82    0.36
  -4  -2  -8    1.85    0.34
  -4  -2  -8    1.57    0.30
  -4   2  -8    1.96    0.21
  -4   2  -8    2.25    0.41
  -4   2  -8    1.64    0.23
  -4   2  -8    1.58    0.30
   4   2   8    1.48    0.29
  -5  -2  -8    0.62    0.27
  -5  -2  -8    0.46    0.29
  -5  -2  -8    0.32    0.26
  -5  -2  -8   -0.04    0.28
   5  -2   8    0.19    0.29
  -5   2  -8    0.63    0.17
  -5   2  -8    0.37    0.25
  -5   2  -8    0.03    0.33
   5   2   8    0.47    0.26
  -6  -2  -8    0.51    0.29
  -6  -2  -8    0.22    0.32
  -6  -2  -8    0.51    0.33
  -6  -2  -8    0.80    0.30
   6  -2   8   -0.01    0.31
  -6   2  -8    0.22    0.26
  -6   2  -8    0.39    0.22
   6   2   8    0.33    0.29
   7  -2   8    0.46    0.37
  -7  -2  -8    1.45    0.36
  -7  -2  -8    0.46    0.38
  -7  -2  -8    0.79    0.34
  -7   2  -8    1.80    0.42
  -7   2  -8    1.70    0.37
  -8  -2  -8    0.15    0.33
  -8  -2  -8    0.32    0.43
  -8  -2  -8    0.22    0.34
  -8   2  -8    0.14    0.36
  -8   2  -8    0.15    0.32
  -9  -2  -8   -0.07    0.44
  -9   2  -8   -0.07    0.30
 -10  -2  -8   -0.78    0.32
 -10   2  -8   -0.42    0.31
 -11   2  -8    0.62    0.37
 -12   2  -8    0.47    0.40
 -13   2  -8   -0.16    0.42
 -14   3   8    0.01    0.41
 -13   3   8    0.40    0.39
 -12   3   8    0.52    0.34
 -11   3   8    0.68    0.32
 -10   3   8    0.49    0.29
  -9  -3   8   -1.32    1.95
  -9   3   8   -0.06    0.24
   9   3  -8   -0.57    0.27
  -8  -3   8    0.69    2.11
  -8  -3   8    0.14    0.38
   8   3  -8    1.23    0.37
  -8   3   8    0.86    0.29
  -7  -3   8    1.11    0.40
  -7  -3   8    2.41    1.96
   7   3  -8    1.41    0.40
  -7   3   8    1.01    0.27
   6  -3  -8    1.33    0.34
  -6  -3   8    1.57    0.34
  -6  -3   8    2.52    1.68
   6  -3  -8    1.21    0.22
  -6  -3   8    1.10    0.36
   6   3  -8    1.33    0.38
  -6   3   8    1.32    0.27
  -6   3   8    0.97    0.26
   5  -3  -8    4.95    0.42
  -5  -3   8    7.22    1.66
   5  -3  -8    4.66    0.31
   5  -3  -8    5.11    0.44
  -5  -3   8    4.79    0.45
  -5  -3   8    5.86    0.50
  -5   3   8    4.34    0.34
  -5   3   8    4.51    0.36
   5   3  -8    4.75    0.51
  -4  -3   8    5.39    1.43
  -4  -3   8    2.74    0.35
   4  -3  -8    2.77    0.28
  -4  -3   8    3.66    0.39
   4  -3  -8    2.59    0.33
  -4   3   8    3.52    0.30
   4   3  -8    2.12    0.40
   4   3  -8    3.01    0.32
   3  -3  -8    4.15    0.30
  -3  -3   8    6.15    1.39
   3  -3  -8    3.81    0.39
  -3  -3   8    4.19    0.39
   3   3  -8    3.72    0.45
  -3   3   8    3.67    0.29
   3   3  -8    3.54    0.31
  -2  -3   8    3.25    1.24
   2  -3  -8    2.28    0.34
  -2  -3   8    2.70    0.32
   2  -3  -8    2.54    0.23
   2   3  -8    3.09    0.42
   2   3  -8    2.90    0.26
  -2   3   8    2.81    0.26
   1  -3  -8    9.41    0.61
  -1  -3   8    8.15    0.50
   1  -3  -8    8.42    0.43
   1   3  -8    9.24    0.39
  -1   3   8    8.91    0.44
   1   3  -8    8.91    0.65
   0  -3  -8    1.09    0.26
   0  -3  -8    1.04    0.19
   0  -3   8    0.94    0.23
   0   3  -8    1.09    0.32
   0   3   8    0.83    0.20
  -1  -3  -8   11.95    0.57
   1  -3   8   11.85    0.60
  -1  -3  -8   11.19    0.71
  -1   3  -8   11.28    0.76
   1   3   8   12.52    0.57
   2  -3   8    0.39    0.22
  -2  -3  -8    0.29    0.20
  -2  -3  -8    0.09    0.21
  -2   3  -8   -0.04    0.30
   2   3   8    0.48    0.21
  -2   3  -8    0.50    0.24
  -3  -3  -8    0.52    0.22
  -3  -3  -8    0.29    0.25
   3  -3   8    0.28    0.24
  -3  -3  -8    0.08    0.21
  -3   3  -8   -0.08    0.29
  -3   3  -8    0.11    0.22
  -4  -3  -8    0.48    0.29
   4  -3   8    0.51    0.31
  -4  -3  -8    0.60    0.27
  -4   3  -8    0.41    0.35
   4   3   8    0.13    0.20
  -4   3  -8    0.85    0.27
  -5  -3  -8    1.06    0.31
  -5  -3  -8    1.18    0.34
  -5  -3  -8    1.07    0.36
   5  -3   8    1.01    0.37
  -5   3  -8    1.51    0.32
  -5   3  -8    1.65    0.41
  -6  -3  -8    2.17    0.45
  -6  -3  -8    1.82    0.42
  -6  -3  -8    2.17    0.38
  -6   3  -8    2.03    0.39
  -6   3  -8    2.09    0.37
  -7  -3  -8    2.26    0.46
  -7  -3  -8    1.58    0.42
  -7  -3  -8    1.71    0.47
  -7   3  -8    1.38    0.36
  -7   3  -8    1.58    0.42
  -8  -3  -8    0.84    0.38
  -8  -3  -8    1.04    0.45
  -8   3  -8    0.40    0.32
  -9  -3  -8    1.94    0.52
  -9   3  -8    2.02    0.42
 -10  -3  -8   -0.27    0.44
 -10   3  -8    0.25    0.37
 -11   3  -8    0.21    0.37
 -12   3  -8    0.08    0.39
 -13   3  -8   -0.39    0.41
 -13   4   8    0.37    0.35
 -12   4   8    0.19    0.31
 -11   4   8    0.20    0.29
 -10   4   8   -0.03    0.26
  -9  -4   8    2.48    2.65
  -8  -4   8    4.87    2.35
  -8   4   8    2.09    0.31
   8   4  -8    2.39    0.50
  -7  -4   8    1.29    1.95
  -7  -4   8   -0.26    0.35
  -7   4   8    0.40    0.23
   7   4  -8    0.22    0.34
  -6  -4   8   26.53    2.29
  -6  -4   8   20.13    1.05
   6   4  -8   18.51    1.16
  -6   4   8   20.93    0.83
  -5  -4   8    0.80    1.26
  -5  -4   8    1.83    0.38
   5  -4  -8    1.72    0.32
  -5   4   8    1.40    0.22
   5   4  -8    0.85    0.40
   4  -4  -8    3.53    0.41
  -4  -4   8    5.16    0.47
  -4   4   8    3.82    0.29
   4   4  -8    4.01    0.55
  -3  -4   8    4.38    0.41
   3  -4  -8    3.65    0.41
   3   4  -8    3.44    0.50
  -3   4   8    3.35    0.27
   2  -4  -8    0.13    0.21
  -2  -4   8    0.29    0.22
  -2   4   8   -0.12    0.15
   2   4  -8   -0.11    0.30
   1  -4  -8    0.77    0.26
   1  -4  -8    0.57    0.15
  -1  -4   8    0.30    0.22
   1   4  -8    0.12    0.32
  -1   4   8    0.27    0.18
   0  -4  -8    1.66    0.32
   0  -4   8    1.96    0.29
   0  -4  -8    1.85    0.22
   0   4   8    1.70    0.24
   0   4  -8    1.50    0.38
  -1  -4  -8    0.03    0.17
   1  -4   8   -0.10    0.19
  -1  -4  -8   -0.07    0.19
   1   4   8    0.11    0.19
  -1   4  -8    0.18    0.32
   2  -4   8    1.78    0.29
  -2  -4  -8    1.47    0.34
  -2  -4  -8    1.50    0.26
  -2   4  -8    1.93    0.43
   3  -4   8    1.62    0.32
  -3  -4  -8    1.55    0.37
  -3   4  -8    1.15    0.41
   4  -4   8    8.24    0.60
  -4  -4  -8    8.06    0.69
  -4   4  -8    7.59    0.71
  -4   4  -8    9.65    0.56
  -5  -4  -8    0.12    0.28
  -5   4  -8    0.20    0.39
  -5   4  -8    0.64    0.31
  -6  -4  -8    0.56    0.34
  -6   4  -8    1.06    0.34
  -6   4  -8    0.56    0.40
  -7  -4  -8    3.11    0.55
  -7   4  -8    3.92    0.43
  -7   4  -8    3.69    0.53
  -8  -4  -8    0.29    0.38
  -8   4  -8    0.25    0.30
  -9  -4  -8    0.18    0.40
  -9   4  -8    0.29    0.34
 -10  -4  -8   -0.42    0.39
 -10   4  -8    0.24    0.35
 -11   4  -8   -0.73    0.32
 -12   4  -8   -0.19    0.39
  10   5  -8    0.30    0.45
   9   5  -8   -0.12    0.39
   8   5  -8   -0.37    0.36
  -7  -5   8    2.92    2.05
   6   5  -8   -0.08    0.36
   5  -5  -8    0.10    0.27
   5   5  -8    0.39    0.40
   4  -5  -8    0.20    0.27
   4   5  -8   -0.46    0.32
   3  -5  -8    0.26    0.26
   3   5  -8    0.13    0.36
   2  -5  -8    0.10    0.23
   2   5  -8    0.57    0.40
   1  -5  -8    0.92    0.30
   1   5  -8    0.22    0.36
   0  -5  -8    0.32    0.23
   0   5  -8    0.24    0.37
   0   5   8    0.19    0.20
  -1  -5  -8   -0.12    0.22
  -1   5  -8   -0.03    0.35
  -2  -5  -8    0.82    0.31
  -2   5  -8    0.86    0.42
  -3  -5  -8    2.09    0.43
  -3   5  -8    2.28    0.51
  -4  -5  -8    0.19    0.26
  -4   5  -8    0.29    0.40
  -5  -5  -8    0.04    0.28
  -5   5  -8    0.48    0.38
  -6  -5  -8    0.28    0.32
  -6   5  -8    1.16    0.42
  -6   5  -8    0.35    0.27
  -7  -5  -8   -0.18    0.28
  -7   5  -8   -0.15    0.26
  -8  -5  -8   -0.08    0.38
  -8   5  -8   -0.28    0.27
  -9  -5  -8   -0.28    0.38
  -9   5  -8    0.04    0.31
 -10  -5  -8   -0.88    0.42
 -10   5  -8   -0.25    0.31
 -11   5  -8    0.23    0.35
  10   6  -8   -0.39    0.47
   9   6  -8   -0.08    0.47
   8   6  -8    0.57    0.45
   7   6  -8    0.37    0.41
   6   6  -8    0.12    0.40
   5  -6  -8   -0.10    0.26
   5   6  -8    0.47    0.42
   4  -6  -8   -0.16    0.26
   4   6  -8   -0.17    0.37
   3   6  -8    4.61    0.66
   2  -6  -8    0.01    0.25
   2   6  -8    0.40    0.39
   1  -6  -8    2.51    0.43
   1   6  -8    2.98    0.55
   0  -6  -8    0.57    0.31
   0   6  -8    0.99    0.44
  -1  -6  -8    0.82    0.32
  -1   6  -8    1.49    0.48
  -2  -6  -8    0.30    0.29
  -2   6  -8    0.18    0.39
  -3  -6  -8    0.81    0.34
  -3   6  -8    0.16    0.39
  -4  -6  -8   -0.05    0.27
  -4   6  -8    0.88    0.44
  -5  -6  -8    0.72    0.37
  -5   6  -8    1.30    0.48
  -6  -6  -8   -0.04    0.32
  -6   6  -8    0.01    0.39
  -7  -6  -8   -0.26    0.32
  -8  -6  -8    0.00    0.36
  -9  -6  -8   -0.03    0.46
 -10  -6  -8   -0.05    0.48
   9   7  -8   -0.35    0.53
   8   7  -8   -0.35    0.49
   7   7  -8    0.09    0.48
   6   7  -8   -0.16    0.42
   5   7  -8    0.76    0.49
   4  -7  -8   -0.04    0.32
   4   7  -8    0.13    0.43
   3  -7  -8    0.14    0.31
   3   7  -8    0.40    0.44
   2  -7  -8    0.56    0.30
   2   7  -8    1.01    0.48
   1  -7  -8   -0.43    0.25
   1   7  -8   -0.05    0.39
   0  -7  -8    0.04    0.27
   0   7  -8    0.42    0.44
  -1  -7  -8    0.19    0.30
  -1   7  -8   -0.37    0.37
  -2  -7  -8    0.20    0.28
  -2   7  -8    0.47    0.45
  -3  -7  -8    0.32    0.30
  -3   7  -8   -0.13    0.41
  -4  -7  -8   -0.01    0.28
  -4   7  -8    0.27    0.45
  -5  -7  -8    0.30    0.33
  -5   7  -8    0.52    0.48
  -6  -7  -8   -0.30    0.31
  -7  -7  -8   -1.02    0.28
  -8  -7  -8   -0.58    0.36
   7   8  -8   -1.10    0.54
   6   8  -8    0.37    0.58
   5   8  -8   -0.21    0.49
   4  -8  -8    0.13    0.39
   4   8  -8   -0.26    0.47
   3  -8  -8   -0.09    0.34
   3   8  -8    0.55    0.48
   2  -8  -8   -0.03    0.33
   2   8  -8   -0.43    0.41
   1  -8  -8    0.01    0.33
   1   8  -8    0.17    0.48
   0  -8  -8   -0.37    0.29
   0   8  -8    0.42    0.50
  -1  -8  -8   -0.49    0.28
  -1   8  -8   -0.06    0.47
  -2  -8  -8    0.12    0.33
  -2   8  -8    0.39    0.52
  -3  -8  -8    0.11    0.35
  -3   8  -8    0.25    0.50
  -4  -8  -8    0.01    0.37
  -4   8  -8    0.24    0.51
  -5  -8  -8   -0.23    0.34
  -5   8  -8    0.71    0.55
 -14   0   9    0.20    0.46
 -13   0   9   -0.16    0.39
 -12   0   9   -0.12    0.36
 -11   0   9   -0.35    0.32
 -10   0   9   -0.08    0.37
  -9   0   9    3.98    0.52
   8   0  -9   -0.22    0.37
  -8   0   9    0.25    0.31
   7   0  -9    2.34    0.42
  -7   0   9    2.96    0.40
  -7   0   9    2.45    0.42
   7   0  -9    2.38    0.32
   6   0  -9   -0.41    0.26
   6   0  -9    0.15    0.24
  -6   0   9   -0.21    0.27
  -6   0   9   -0.28    0.25
  -6   0   9   -0.24    0.20
   5   0  -9    8.23    0.60
   5   0  -9    9.89    0.62
  -5   0   9    9.40    0.52
  -5   0   9    8.87    0.58
  -4   0   9   -0.19    1.52
   4   0  -9   -0.41    1.29
   4   0  -9   -0.32    0.23
   4   0  -9    0.09    0.27
  -4   0   9   -0.46    0.23
   3   0  -9   87.49    2.98
   3   0  -9   86.39    5.54
  -3   0   9   85.35    2.97
   3   0  -9   87.91    3.28
  -3   0   9   83.55    5.48
  -2   0   9   -0.10    0.19
   2   0  -9    0.13    1.35
   2   0  -9   -0.15    0.18
   2   0  -9   -0.05    0.26
  -1   0   9    0.83    0.24
   1   0  -9    0.71    0.20
   1   0  -9    0.80    0.24
   1   0  -9    0.49    0.29
   1   0  -9    0.84    1.27
   0   0  -9   -0.29    0.19
   0   0  -9   -0.07    0.28
   0   0  -9    0.03    0.17
   0   0   9   -0.15    0.17
   0   0  -9    0.14    1.23
  -1   0  -9    1.22    0.26
  -1   0  -9    1.09    0.34
  -1   0  -9    1.06    0.22
   1   0   9    0.72    0.24
   2   0   9   -0.25    0.21
  -2   0  -9    0.25    0.31
  -2   0  -9   -0.09    0.22
  -2   0  -9    0.10    0.19
   3   0   9    1.95    0.32
  -3   0  -9    2.11    0.45
  -3   0  -9    2.26    0.35
  -3   0  -9    2.31    0.30
   4   0   9    0.18    0.26
  -4   0  -9   -0.31    0.34
  -4   0  -9   -0.11    0.26
  -4   0  -9   -0.28    0.19
  -4   0  -9   -0.02    0.21
  -5   0  -9    5.88    0.53
  -5   0  -9    5.57    0.44
   5   0   9    6.90    0.55
  -5   0  -9    5.64    0.47
  -5   0  -9    6.10    0.66
  -6   0  -9   -0.03    0.23
  -6   0  -9   -0.18    0.43
  -6   0  -9   -0.03    0.25
   6   0   9   -0.33    0.29
  -7   0  -9    0.17    0.48
   7   0   9   -0.43    0.31
  -7   0  -9    0.39    0.30
  -8   0  -9   -0.29    0.25
  -8   0  -9   -0.06    0.31
   8   0   9   -0.77    0.31
   9   0   9   -0.21    0.32
  -9   0  -9   -0.62    0.49
  -9   0  -9    0.09    0.30
 -10   0  -9    0.04    0.32
 -11   0  -9    0.24    0.38
 -12   0  -9   -0.20    0.37
 -13   0  -9   -0.16    0.41
 -14   0  -9   -0.67    0.41
 -14  -1   9    0.36    0.49
 -14   1   9    0.07    0.43
 -13  -1   9    0.34    0.42
 -13   1   9    1.12    0.46
 -12  -1   9    0.75    0.43
 -12   1   9    0.24    0.38
 -11  -1   9    1.39    0.45
 -11   1   9    2.00    0.45
 -10  -1   9   -0.28    0.32
 -10   1   9   -0.06    0.32
  -9  -1   9    3.84    0.52
  -9   1   9    3.68    0.48
  -8  -1   9   14.72    0.82
   8   1  -9   13.72    0.82
   8   1  -9   13.31    0.76
  -8   1   9   13.33    0.76
   7  -1  -9    1.83    1.85
  -7  -1   9   -0.10    0.27
   7  -1  -9   -0.02    0.23
  -7  -1   9    0.10    0.32
   7  -1  -9   -0.26    0.30
  -7  -1   9    0.35    1.74
   7   1  -9   -0.30    0.30
  -7   1   9    0.21    0.26
  -7   1   9    0.16    0.26
   7   1  -9    0.16    0.24
   6  -1  -9    5.56    0.50
  -6  -1   9    5.90    0.47
   6  -1  -9    5.18    0.50
  -6  -1   9    5.75    0.48
  -6  -1   9    5.46    0.52
   6   1  -9    5.14    0.49
   6   1  -9    5.48    0.48
  -6   1   9    6.05    0.45
  -6   1   9    5.50    0.38
  -6   1   9    5.67    0.45
   5  -1  -9    1.36    0.33
  -5  -1   9    1.33    1.58
  -5  -1   9    0.91    0.28
   5  -1  -9    0.91    1.68
  -5  -1   9    0.75    0.30
   5  -1  -9    0.92    0.29
   5   1  -9    0.56    0.28
   5   1  -9    1.08    0.30
  -5   1   9    0.98    0.20
  -5   1   9    1.19    0.25
   4  -1  -9    6.59    0.60
   4  -1  -9    8.89    1.74
  -4  -1   9    6.73    0.50
   4  -1  -9    6.64    0.49
   4   1  -9    7.44    0.51
  -4   1   9    6.74    0.39
  -4   1   9    6.83    0.44
   4   1  -9    6.60    0.56
   3  -1  -9    4.65    1.59
   3  -1  -9    3.42    0.37
  -3  -1   9    5.88    1.69
   3  -1  -9    3.51    0.45
  -3  -1   9    3.38    0.38
   3   1  -9    3.77    0.37
  -3   1   9    3.09    0.31
   3   1  -9    2.97    0.39
   2  -1  -9   12.49    0.63
  -2  -1   9   12.06    0.64
  -2  -1   9   11.71    1.43
   2  -1  -9   13.35    0.77
   2   1  -9   12.92    0.75
  -2   1   9   11.54    0.57
   2   1  -9   13.32    0.63
  -1  -1   9   -0.85    1.12
   1  -1  -9    0.24    0.20
   1  -1  -9    0.21    0.17
  -1  -1   9    0.08    0.20
   1  -1  -9    0.23    0.27
   1   1  -9    0.17    0.26
  -1   1   9    0.25    0.17
   1   1  -9    0.13    0.20
   0  -1   9    0.60    0.23
   0  -1  -9    0.53    0.28
   0  -1  -9    0.72    0.20
   0  -1  -9    0.75    0.24
   0  -1   9    0.02    1.24
   0   1  -9    0.53    0.28
   0   1   9    0.50    0.20
   0   1  -9    0.60    0.22
   0   1  -9    0.31    0.19
   1  -1   9    0.58    1.60
  -1  -1  -9    0.06    0.18
   1  -1   9   -0.09    0.21
  -1  -1  -9    0.22    0.21
  -1  -1  -9    0.18    0.26
   1   1   9    0.02    0.18
  -1   1  -9   -0.05    0.26
  -1   1  -9   -0.06    0.20
  -1   1  -9   -0.11    0.18
  -2  -1  -9   20.27    0.83
  -2  -1  -9   19.72    0.90
   2  -1   9   19.04    0.91
  -2  -1  -9   18.59    1.05
  -2   1  -9   20.96    0.86
  -2   1  -9   20.79    0.88
  -2   1  -9   20.63    1.06
   2   1   9   20.67    0.86
  -3  -1  -9    2.66    0.43
  -3  -1  -9    2.45    0.32
  -3  -1  -9    3.26    0.38
   3  -1   9    3.16    0.39
  -3   1  -9    2.95    0.30
  -3   1  -9    2.93    0.35
   3   1   9    2.46    0.33
  -3   1  -9    2.73    0.44
  -3   1  -9    3.21    0.34
  -4  -1  -9    2.91    0.39
  -4  -1  -9    3.37    0.36
   4  -1   9    2.96    0.40
  -4  -1  -9    1.90    0.43
   4   1   9    2.82    0.37
  -4   1  -9    2.70    0.34
  -4   1  -9    2.91    0.46
  -4   1  -9    3.27    0.30
  -4   1  -9    2.74    0.37
  -5  -1  -9    7.31    0.52
  -5  -1  -9    6.47    0.68
   5  -1   9    8.63    0.61
  -5  -1  -9    7.06    0.50
  -5  -1  -9    7.75    0.58
  -5   1  -9    7.63    0.55
  -5   1  -9    7.37    0.51
  -5   1  -9    7.04    0.71
  -5   1  -9    7.45    0.47
   5   1   9    7.43    0.54
  -6  -1  -9   -0.06    0.24
  -6  -1  -9   -0.10    0.41
   6  -1   9    0.19    0.32
  -6  -1  -9    0.14    0.31
  -6  -1  -9   -0.21    0.23
  -6   1  -9   -0.61    0.38
  -6   1  -9    0.26    0.27
  -6   1  -9   -0.02    0.22
   6   1   9   -0.09    0.28
  -7  -1  -9    1.45    0.53
   7  -1   9    1.08    0.41
  -7  -1  -9    1.70    0.38
  -7  -1  -9    1.19    0.34
   7   1   9    1.67    0.39
  -7   1  -9    1.09    0.35
  -7   1  -9    0.20    0.26
  -8  -1  -9   -0.13    0.51
   8  -1   9   -0.41    0.32
  -8  -1  -9   -0.09    0.30
  -8   1  -9   -0.22    0.43
   8   1   9   -0.23    0.31
  -8   1  -9   -0.14    0.29
  -9  -1  -9   -0.64    0.39
  -9  -1  -9    0.59    0.33
  -9   1  -9   -0.01    0.31
 -10  -1  -9    0.59    0.36
 -10   1  -9    0.02    0.33
 -11  -1  -9   -0.10    0.36
 -11   1  -9   -0.02    0.35
 -12   1  -9    1.33    0.48
 -13   1  -9   -0.13    0.44
 -14   2   9    0.77    0.47
 -13   2   9    0.70    0.41
 -12   2   9    0.57    0.39
 -11   2   9   -0.05    0.32
 -10  -2   9   -0.21    0.34
 -10   2   9    0.35    0.32
  -9  -2   9    7.02    0.64
  -9   2   9    5.66    0.53
  -8  -2   9    1.97    1.73
  -8  -2   9    0.71    0.37
  -8  -2   9    0.83    0.44
  -8   2   9    1.18    0.33
   8   2  -9    1.00    0.34
  -7  -2   9   -0.79    0.30
  -7  -2   9   -0.68    1.58
  -7  -2   9   -0.13    0.27
  -7   2   9   -0.58    0.22
   7   2  -9    0.14    0.27
  -6  -2   9    2.69    0.44
   6  -2  -9    2.84    0.44
  -6  -2   9    3.19    0.42
  -6  -2   9    2.25    1.47
   6  -2  -9    2.33    0.37
  -6   2   9    2.70    0.34
   6   2  -9    2.76    0.42
   6   2  -9    2.17    0.38
   5  -2  -9    1.82    0.32
   5  -2  -9    1.56    0.39
  -5  -2   9    1.69    0.37
  -5  -2   9    2.68    0.36
  -5   2   9    1.58    0.28
  -5   2   9    2.53    0.30
   5   2  -9    1.97    0.34
   5   2  -9    2.10    0.37
   4  -2  -9   -0.22    0.21
   4  -2  -9   -0.05    0.27
  -4  -2   9    0.27    1.13
  -4  -2   9   -0.06    0.24
  -4   2   9    0.16    0.19
   4   2  -9   -0.39    0.20
   4   2  -9    0.02    0.25
   3  -2  -9   -0.27    0.19
   3  -2  -9   -0.27    0.22
  -3  -2   9   -0.50    1.10
  -3  -2   9    0.22    0.25
   3   2  -9   -0.13    0.19
  -3   2   9   -0.03    0.17
   3   2  -9   -0.13    0.25
  -2  -2   9    0.52    1.07
  -2  -2   9    1.22    0.28
   2  -2  -9    1.17    0.24
   2  -2  -9    1.19    0.29
   2   2  -9    1.18    0.32
  -2   2   9    1.10    0.22
   2   2  -9    1.10    0.24
   1  -2  -9    1.19    0.24
   1  -2  -9    1.17    0.29
  -1  -2   9    2.09    1.15
  -1  -2   9    1.31    0.27
  -1   2   9    1.33    0.22
   1   2  -9    0.86    0.23
   1   2  -9    0.94    0.32
   0  -2  -9    0.19    0.20
   0  -2   9    0.04    0.22
   0  -2   9    0.54    1.12
   0  -2  -9    0.11    0.19
   0  -2  -9   -0.07    0.21
   0   2   9    0.06    0.18
   0   2  -9    0.22    0.20
   0   2   9    0.50    0.14
   0   2  -9    0.28    0.28
  -1  -2  -9    6.36    0.45
  -1  -2  -9    7.48    0.57
   1  -2   9    5.79    0.46
   1  -2   9    8.65    1.28
  -1  -2  -9    7.17    0.45
  -1   2  -9    6.40    0.57
  -1   2  -9    6.57    0.46
  -1   2  -9    6.44    0.43
   1   2   9    6.36    0.37
  -2  -2  -9   32.63    1.51
  -2  -2  -9   34.63    1.24
   2  -2   9   32.07    1.33
   2  -2   9   35.33    2.56
  -2  -2  -9   34.57    1.32
  -2   2  -9   33.15    1.22
  -2   2  -9   32.36    1.51
  -2   2  -9   32.14    1.19
  -2   2  -9   32.44    1.25
   2   2   9   33.29    1.24
   3  -2   9   39.13    1.57
  -3  -2  -9   39.69    1.78
  -3  -2  -9   38.84    1.46
   3  -2   9   43.56    3.02
  -3  -2  -9   40.82    1.57
  -3   2  -9   39.78    1.46
  -3   2  -9   40.59    1.78
  -3   2  -9   41.95    1.45
  -3   2  -9   38.34    1.40
   3   2   9   38.94    1.48
  -4  -2  -9    5.78    0.52
   4  -2   9    6.71    0.56
  -4  -2  -9    6.09    0.49
  -4  -2  -9    6.97    0.63
  -4   2  -9    6.50    0.50
  -4   2  -9    6.54    0.43
  -4   2  -9    6.69    0.63
  -4   2  -9    5.88    0.37
   4   2   9    6.51    0.46
  -5  -2  -9    0.55    0.34
  -5  -2  -9    0.67    0.33
  -5  -2  -9    1.20    0.30
  -5  -2  -9    0.87    0.30
   5  -2   9    0.47    0.34
   5   2   9    0.72    0.29
  -5   2  -9    0.61    0.38
  -5   2  -9    0.55    0.23
  -5   2  -9    0.56    0.28
  -5   2  -9    0.71    0.21
  -6  -2  -9    0.10    0.28
  -6  -2  -9   -0.27    0.30
   6  -2   9   -0.50    0.31
  -6  -2  -9   -0.03    0.34
  -6  -2  -9   -0.69    0.25
  -6   2  -9    0.13    0.37
   6   2   9   -0.25    0.29
  -6   2  -9    0.03    0.28
  -7  -2  -9    0.30    0.41
  -7  -2  -9   -0.14    0.30
  -7  -2  -9    0.40    0.33
  -7   2  -9   -0.45    0.30
  -7   2  -9    0.57    0.30
  -8  -2  -9    0.71    0.50
  -8   2  -9    1.24    0.41
  -8   2  -9    0.87    0.35
  -9  -2  -9    0.05    0.46
  -9   2  -9   -0.07    0.32
 -10  -2  -9    0.58    0.58
 -10   2  -9    0.72    0.39
 -11   2  -9    0.04    0.36
 -12   2  -9    0.38    0.44
 -13   2  -9   -0.24    0.41
 -14   3   9   -0.03    0.39
 -13   3   9    0.24    0.38
 -12   3   9    0.38    0.34
 -11   3   9    0.80    0.34
 -10   3   9    0.82    0.31
  -9   3   9    0.78    0.30
   9   3  -9    0.55    0.36
  -8  -3   9   -0.18    0.36
  -8  -3   9   -2.67    1.93
   8   3  -9    0.20    0.33
  -8   3   9   -0.14    0.24
  -7  -3   9    0.91    1.95
  -7  -3   9    0.61    0.38
   7   3  -9    0.79    0.37
  -7   3   9    0.98    0.29
   6  -3  -9    9.57    0.69
  -6  -3   9   12.05    1.90
  -6  -3   9    9.27    0.68
  -6   3   9    9.10    0.53
   6   3  -9   10.22    0.75
  -5  -3   9    2.61    0.38
  -5  -3   9    3.37    1.96
   5  -3  -9    2.34    0.37
   5  -3  -9    1.91    0.33
  -5  -3   9    1.70    0.38
  -5   3   9    2.08    0.27
  -5   3   9    1.85    0.28
   5   3  -9    1.92    0.41
   4  -3  -9    6.42    0.52
   4  -3  -9    6.91    0.45
  -4  -3   9    6.45    0.52
  -4  -3   9    7.00    0.52
  -4   3   9    6.17    0.43
   4   3  -9    6.64    0.60
  -3  -3   9    4.78    1.63
  -3  -3   9    1.92    0.33
   3  -3  -9    2.64    0.28
   3  -3  -9    2.28    0.34
  -3   3   9    2.25    0.26
   3   3  -9    1.68    0.38
   3   3  -9    2.28    0.28
   2  -3  -9    9.76    0.50
   2  -3  -9    9.99    0.65
  -2  -3   9   10.92    0.59
  -2  -3   9   10.22    1.33
   2   3  -9   10.06    0.49
   2   3  -9    9.45    0.70
  -2   3   9    9.29    0.49
  -1  -3   9    2.85    0.33
   1  -3  -9    2.38    0.36
  -1  -3   9    3.10    1.35
   1  -3  -9    2.54    0.27
  -1   3   9    2.02    0.25
   1   3  -9    2.53    0.24
   1   3  -9    1.50    0.37
   0  -3  -9   -0.10    0.20
   0  -3  -9   -0.09    0.17
   0  -3   9    0.05    0.20
   0   3  -9   -0.21    0.26
   0   3   9   -0.09    0.18
   1  -3   9    2.65    0.33
  -1  -3  -9    2.63    0.39
  -1  -3  -9    2.66    0.30
  -1   3  -9    2.81    0.43
   1   3   9    2.81    0.31
   2  -3   9    6.79    0.50
  -2  -3  -9    7.05    0.48
  -2  -3  -9    7.56    0.48
  -2  -3  -9    6.07    0.56
  -2   3  -9    6.34    0.46
  -2   3  -9    5.97    0.59
   2   3   9    6.20    0.45
  -3  -3  -9   -0.04    0.23
   3  -3   9   -0.23    0.26
  -3  -3  -9    0.18    0.25
  -3   3  -9   -0.08    0.31
  -3   3  -9   -0.18    0.24
   3   3   9   -0.23    0.16
   4  -3   9    2.87    0.42
  -4  -3  -9    2.20    0.38
  -4  -3  -9    2.66    0.43
  -4   3  -9    2.63    0.37
   4   3   9    1.99    0.30
  -4   3  -9    1.61    0.45
  -5  -3  -9    0.26    0.32
   5  -3   9   -0.01    0.34
  -5  -3  -9    0.49    0.33
  -5   3  -9    0.29    0.28
  -5   3  -9   -0.29    0.35
  -6  -3  -9    3.19    0.49
  -6  -3  -9    2.63    0.44
  -6  -3  -9    2.71    0.50
  -6   3  -9    2.98    0.44
  -6   3  -9    3.51    0.53
  -7  -3  -9    0.50    0.42
  -7  -3  -9   -0.40    0.31
  -7  -3  -9    0.41    0.36
  -7   3  -9   -0.06    0.31
  -7   3  -9    0.69    0.28
  -8  -3  -9    1.00    0.39
  -8  -3  -9    0.90    0.45
  -8   3  -9    1.70    0.39
  -9  -3  -9   -0.22    0.42
  -9   3  -9    0.03    0.35
 -10  -3  -9   -0.62    0.47
 -10   3  -9    0.19    0.35
 -11   3  -9   -0.49    0.35
 -12   3  -9   -0.32    0.38
 -13   3  -9   -0.49    0.45
 -13   4   9    0.07    0.36
 -12   4   9    0.68    0.35
 -11   4   9    0.81    0.32
 -10   4   9    0.08    0.26
  -9  -4   9    1.63    2.66
   9   4  -9    0.43    0.39
  -9   4   9    0.44    0.25
  -8  -4   9    5.94    2.58
   8   4  -9    2.60    0.50
  -8   4   9    2.29    0.32
  -7  -4   9   -0.11    2.22
  -7   4   9    0.23    0.23
   7   4  -9    0.05    0.35
  -6  -4   9    3.27    2.05
   6  -4  -9    0.34    0.32
  -6  -4   9    0.43    0.37
   6   4  -9    0.62    0.39
  -6   4   9    0.50    0.26
  -6   4   9    0.29    0.24
   5  -4  -9    8.79    0.65
  -5  -4   9   10.22    0.68
  -5  -4   9    9.62    1.35
  -5   4   9    9.34    0.48
   5   4  -9    8.31    0.76
  -5   4   9    9.70    0.50
  -4  -4   9    4.14    1.53
  -4  -4   9    3.70    0.46
   4  -4  -9    4.03    0.45
  -4   4   9    4.02    0.34
   4   4  -9    3.51    0.54
  -4   4   9    4.59    0.33
   3  -4  -9    0.61    0.27
  -3  -4   9    0.56    0.28
  -3  -4   9    0.54    1.17
  -3   4   9    0.69    0.20
   3   4  -9    0.22    0.36
   2  -4  -9   10.41    0.49
  -2  -4   9   10.74    0.62
  -2  -4   9   10.56    1.39
   2  -4  -9   10.91    0.71
  -2   4   9   10.76    0.50
   2   4  -9    9.95    0.78
   1  -4  -9    1.19    0.22
   1  -4  -9    1.03    0.29
  -1  -4   9    0.99    0.28
  -1   4   9    1.38    0.24
   1   4  -9    0.99    0.38
   0  -4  -9   -0.19    0.16
   0  -4   9   -0.07    0.22
   0  -4  -9    0.05    0.21
   0   4   9   -0.16    0.20
   0   4  -9    0.18    0.32
  -1  -4  -9    1.94    0.27
   1  -4   9    1.83    0.31
  -1  -4  -9    1.56    0.35
   1   4   9    1.49    0.28
  -1   4  -9    0.99    0.39
  -2  -4  -9    1.82    0.37
   2  -4   9    1.77    0.34
  -2   4  -9    2.29    0.46
  -3  -4  -9    1.29    0.36
   3  -4   9    1.15    0.34
  -3   4  -9    1.05    0.43
  -4  -4  -9   -0.01    0.23
  -4   4  -9    0.13    0.28
  -4   4  -9    0.00    0.37
  -5  -4  -9   -0.27    0.31
  -5   4  -9    0.36    0.40
  -5   4  -9   -0.24    0.27
  -6  -4  -9    0.12    0.34
  -6   4  -9    0.20    0.39
  -6   4  -9    0.16    0.28
  -7  -4  -9    1.74    0.48
  -7   4  -9    1.76    0.34
  -7   4  -9    2.14    0.40
  -8  -4  -9    0.43    0.41
  -8   4  -9    0.29    0.33
  -9  -4  -9    0.08    0.42
  -9   4  -9   -0.21    0.33
 -10  -4  -9   -1.09    0.37
 -10   4  -9    0.09    0.37
 -11   4  -9   -0.29    0.36
 -12   4  -9   -0.12    0.41
  10   5  -9    0.52    0.48
   9   5  -9    0.10    0.40
   8   5  -9   -0.04    0.37
   7   5  -9    2.06    0.52
  -6  -5   9    1.97    1.73
   6   5  -9    0.21    0.39
  -5  -5   9    5.41    2.02
   5  -5  -9    2.62    0.41
   5   5  -9    2.93    0.55
  -4  -5   9   -0.23    1.51
   4  -5  -9    1.18    0.32
   4   5  -9    1.19    0.43
   3  -5  -9   -0.01    0.23
   3   5  -9   -0.39    0.35
   2  -5  -9   -0.03    0.23
   2   5  -9    0.35    0.36
   1  -5  -9   -0.06    0.22
  -1   5   9    0.06    0.19
   1   5  -9    0.29    0.38
   0  -5  -9    0.70    0.30
   0   5   9    0.28    0.23
   0   5  -9    0.89    0.41
  -1  -5  -9    0.42    0.28
  -1   5  -9   -0.23    0.37
  -2  -5  -9    0.23    0.28
  -2   5  -9    0.03    0.40
  -3  -5  -9    2.13    0.44
  -3   5  -9    3.30    0.58
  -4  -5  -9    0.77    0.34
  -4   5  -9    1.46    0.48
  -5  -5  -9    0.24    0.30
  -5   5  -9    1.22    0.46
  -6  -5  -9   -0.07    0.29
  -6   5  -9    0.00    0.27
  -6   5  -9   -0.08    0.38
  -7  -5  -9   -0.26    0.31
  -7   5  -9    0.53    0.41
  -7   5  -9    0.41    0.30
  -8  -5  -9   -0.37    0.36
  -8   5  -9    0.32    0.31
  -9  -5  -9   -0.26    0.43
  -9   5  -9    0.89    0.35
 -10  -5  -9   -0.76    0.40
 -10   5  -9   -0.14    0.34
 -11   5  -9    0.25    0.38
  10   6  -9    0.03    0.54
   9   6  -9    0.01    0.47
   8   6  -9    0.44    0.45
   7   6  -9    0.23    0.41
   6   6  -9    0.08    0.42
   5  -6  -9    0.00    0.29
   5   6  -9    0.02    0.40
   4  -6  -9    0.47    0.31
   4   6  -9    0.36    0.41
   3  -6  -9   -0.04    0.26
   3   6  -9    0.04    0.38
   2  -6  -9   -0.04    0.26
   2   6  -9    0.01    0.37
   1  -6  -9    0.01    0.26
   1   6  -9   -0.36    0.33
   0  -6  -9    1.45    0.40
   0   6  -9    2.01    0.54
  -1  -6  -9    0.23    0.30
  -1   6  -9    0.21    0.41
  -2  -6  -9   -0.15    0.24
  -2   6  -9    0.24    0.37
  -3  -6  -9   -0.17    0.25
  -3   6  -9    0.10    0.38
  -4  -6  -9    0.21    0.30
  -4   6  -9    0.12    0.39
  -5  -6  -9   -0.20    0.28
  -5   6  -9    0.66    0.43
  -6  -6  -9    0.00    0.33
  -6   6  -9    0.83    0.45
  -7  -6  -9    0.03    0.36
  -8  -6  -9   -0.56    0.39
  -9  -6  -9   -0.10    0.45
 -10  -6  -9   -0.30    0.49
 -10   6  -9    0.17    0.33
   9   7  -9    0.13    0.58
   8   7  -9   -0.05    0.49
   7   7  -9    0.00    0.47
   6   7  -9    0.38    0.47
   5   7  -9   -0.46    0.37
   4  -7  -9    0.37    0.35
   4   7  -9    0.52    0.48
   3  -7  -9   -0.30    0.29
   3   7  -9   -0.23    0.41
   2  -7  -9    0.00    0.29
   2   7  -9    0.33    0.43
   1  -7  -9   -0.15    0.29
   1   7  -9   -0.22    0.39
   0  -7  -9    0.15    0.31
   0   7  -9    0.60    0.47
  -1  -7  -9    0.15    0.32
  -1   7  -9    0.27    0.42
  -2  -7  -9   -0.37    0.26
  -2   7  -9    0.47    0.44
  -3  -7  -9   -0.06    0.32
  -3   7  -9   -0.08    0.41
  -4  -7  -9    0.15    0.33
  -4   7  -9    0.30    0.44
  -5  -7  -9   -0.23    0.33
  -5   7  -9    0.57    0.49
  -6  -7  -9   -0.26    0.32
  -7  -7  -9   -0.14    0.37
  -8  -7  -9   -0.64    0.42
   6   8  -9   -0.61    0.50
   5   8  -9   -0.23    0.47
   4  -8  -9   -0.38    0.35
   4   8  -9   -0.05    0.47
   3  -8  -9   -0.39    0.32
   3   8  -9   -0.22    0.46
   2  -8  -9    0.19    0.36
   2   8  -9    0.11    0.47
   1  -8  -9    0.07    0.35
   1   8  -9    0.47    0.52
   0  -8  -9    0.06    0.36
   0   8  -9    0.76    0.54
  -1  -8  -9    0.09    0.35
  -1   8  -9    0.40    0.50
  -2  -8  -9   -0.16    0.35
  -2   8  -9    0.35    0.53
  -3  -8  -9    0.17    0.37
  -3   8  -9    0.55    0.53
  -4  -8  -9   -0.14    0.36
  -4   8  -9   -0.72    0.45
  -5  -8  -9   -0.19    0.37
  -5   8  -9    0.14    0.56
 -14   0  10    0.40    0.49
 -13   0  10    0.05    0.42
 -12   0  10    0.44    0.41
 -11   0  10    0.30    0.39
 -10   0  10    9.94    0.75
  -9   0  10   -0.26    0.33
  -8   0  10    8.21    0.63
   8   0 -10    8.34    0.69
   7   0 -10   -0.40    0.23
  -7   0  10   -0.14    0.27
   7   0 -10   -0.30    0.31
  -6   0  10    1.36    0.34
   6   0 -10    1.83    0.34
  -6   0  10    1.28    0.38
   6   0 -10    1.61    0.37
   5   0 -10    0.11    0.29
  -5   0  10   -0.23    0.27
   5   0 -10   -0.87    0.25
  -5   0  10   -0.64    1.69
  -4   0  10  116.14    3.95
  -4   0  10  117.06    7.27
   4   0 -10  118.47    4.33
   4   0 -10  111.91    3.95
   3   0 -10   -0.43    0.27
   3   0 -10   -0.14    0.23
  -3   0  10   -0.17    0.23
   2   0 -10   46.20    1.93
  -2   0  10   45.82    1.72
   2   0 -10   44.52    3.42
   2   0 -10   46.75    1.72
   1   0 -10    0.31    0.24
  -1   0  10    0.14    0.23
   1   0 -10    0.06    0.19
   1   0 -10    0.20    0.31
   0   0 -10   60.26    2.14
   0   0  10   57.23    2.12
   0   0 -10   59.68    2.42
   0   0 -10   58.95    2.00
  -1   0 -10   -0.02    0.32
   1   0  10    0.50    0.26
  -1   0 -10    0.08    0.20
  -1   0 -10    0.01    0.23
   2   0  10   28.54    1.19
  -2   0 -10   28.75    1.19
  -2   0 -10   28.06    1.10
  -2   0 -10   28.70    1.40
  -3   0 -10    0.17    0.26
  -3   0 -10    0.24    0.36
  -3   0 -10   -0.27    0.18
   3   0  10   -0.01    0.24
  -4   0 -10    5.91    0.51
  -4   0 -10    4.76    0.43
  -4   0 -10    4.34    0.59
   4   0  10    5.69    0.50
  -5   0 -10   -0.05    0.21
  -5   0 -10    0.18    0.43
  -5   0 -10   -0.73    0.28
   5   0  10   -0.84    0.24
  -5   0 -10    0.04    0.24
  -6   0 -10    0.09    0.27
  -6   0 -10   -0.20    0.24
  -6   0 -10   -0.35    0.45
   6   0  10    0.18    0.31
  -7   0 -10    0.06    0.31
  -7   0 -10   -0.40    0.49
   7   0  10   -0.48    0.31
  -8   0 -10    0.32    0.33
   8   0  10    0.09    0.34
  -8   0 -10   -0.19    0.53
  -9   0 -10   -0.15    0.30
  -9   0 -10   -0.03    0.47
   9   0  10   -0.08    0.34
 -10   0 -10   -0.32    0.32
 -11   0 -10    0.45    0.40
 -12   0 -10    0.58    0.42
 -13   0 -10   -0.51    0.43
 -14  -1  10   -0.09    0.47
 -14   1  10    0.14    0.46
 -13  -1  10    0.03    0.42
 -13   1  10    0.49    0.43
 -12  -1  10    0.04    0.40
 -12   1  10    0.48    0.39
 -11  -1  10    0.57    0.42
 -11   1  10    0.59    0.37
 -10  -1  10    0.52    0.37
 -10   1  10    0.70    0.37
  -9  -1  10    1.48    0.43
  -9   1  10    2.18    0.43
  -8  -1  10   23.50    1.12
  -8   1  10   23.25    1.08
   8   1 -10   24.87    1.16
   8   1 -10   24.20    1.14
  -7  -1  10    4.67    2.14
  -7  -1  10    2.21    0.40
  -7  -1  10    1.44    0.41
   7  -1 -10    1.60    0.35
   7  -1 -10    1.72    0.41
  -7   1  10    2.24    0.37
   7   1 -10    2.00    0.36
   7   1 -10    1.21    0.40
   6  -1 -10    3.02    0.42
  -6  -1  10    2.72    0.44
  -6  -1  10    5.22    2.06
   6  -1 -10    2.75    0.41
  -6  -1  10    2.10    0.36
   6  -1 -10    3.64    2.04
   6   1 -10    2.41    0.37
   6   1 -10    2.67    0.41
  -6   1  10    2.26    0.28
  -6   1  10    2.76    0.34
  -6   1  10    2.06    0.34
   5  -1 -10    2.19    1.90
  -5  -1  10    1.64    0.36
  -5  -1  10    3.75    1.83
   5  -1 -10    1.72    0.37
   5  -1 -10    1.40    0.33
   5   1 -10    1.64    0.34
   5   1 -10    1.43    0.33
  -5   1  10    1.69    0.29
  -5   1  10    1.43    0.23
  -4  -1  10   27.39    2.37
   4  -1 -10   31.15    2.42
   4  -1 -10   28.92    1.18
  -4  -1  10   27.58    1.19
   4  -1 -10   27.89    1.32
  -4   1  10   27.86    1.06
  -4   1  10   27.93    1.10
   4   1 -10   27.96    1.29
   4   1 -10   26.93    1.16
  -3  -1  10    1.37    1.50
   3  -1 -10    3.87    0.39
   3  -1 -10    7.11    1.76
  -3  -1  10    3.07    0.39
   3  -1 -10    3.83    0.49
   3   1 -10    3.71    0.40
   3   1 -10    3.60    0.44
  -3   1  10    3.36    0.33
   2  -1 -10   -0.51    1.39
  -2  -1  10    0.11    0.24
  -2  -1  10   -0.12    1.44
   2  -1 -10    0.18    0.34
   2  -1 -10    0.06    0.17
   2  -1 -10   -0.17    0.21
  -2   1  10    0.32    0.21
   2   1 -10    0.05    0.28
   2   1 -10   -0.30    0.22
   1  -1 -10   -0.21    0.21
  -1  -1  10    0.66    1.46
   1  -1 -10    0.54    0.21
   1  -1 -10    0.39    0.32
  -1  -1  10    0.12    0.23
   1   1 -10    0.03    0.22
   1   1 -10    0.13    0.29
  -1   1  10    0.05    0.20
   0  -1  10    0.35    0.24
   0  -1  10    0.22    1.59
   0  -1 -10    0.21    0.31
   0  -1 -10    0.21    0.23
   0  -1 -10    0.37    0.19
   0   1 -10    0.26    0.20
   0   1  10    0.00    0.20
   0   1 -10    0.19    0.23
   0   1 -10   -0.12    0.29
  -1  -1 -10   -0.24    0.18
  -1  -1 -10   -0.03    0.22
   1  -1  10    0.07    0.24
  -1  -1 -10    0.29    0.31
  -1   1 -10    0.06    0.30
  -1   1 -10    0.07    0.19
   1   1  10   -0.18    0.19
  -1   1 -10    0.02    0.22
  -2  -1 -10   12.59    0.85
  -2  -1 -10   13.73    0.72
  -2  -1 -10   13.38    0.66
   2  -1  10   13.72    0.73
  -2   1 -10   13.15    0.69
   2   1  10   13.28    0.67
  -2   1 -10   13.27    0.66
  -2   1 -10   13.13    0.86
  -3  -1 -10   21.97    0.94
  -3  -1 -10   21.72    1.01
   3  -1  10   22.60    1.03
  -3  -1 -10   21.76    1.20
  -3   1 -10   23.42    0.99
  -3   1 -10   21.45    0.94
  -3   1 -10   22.06    1.18
   3   1  10   22.40    0.97
  -4  -1 -10    0.82    0.27
  -4  -1 -10    0.97    0.31
   4  -1  10    0.61    0.31
  -4  -1 -10    1.33    0.42
  -4   1 -10    0.49    0.39
   4   1  10    0.45    0.28
  -4   1 -10    0.52    0.22
  -4   1 -10    0.33    0.26
  -4   1 -10    0.67    0.31
  -5  -1 -10    0.54    0.27
  -5  -1 -10    0.09    0.24
   5  -1  10    0.47    0.33
  -5  -1 -10    0.54    0.32
  -5  -1 -10    0.53    0.42
  -5   1 -10    0.75    0.28
  -5   1 -10    1.00    0.44
  -5   1 -10    0.50    0.24
   5   1  10    0.39    0.30
   6  -1  10    0.08    0.33
  -6  -1 -10    1.62    0.52
  -6  -1 -10    0.69    0.30
  -6  -1 -10    1.22    0.33
   6   1  10    1.47    0.37
  -6   1 -10    0.25    0.30
  -6   1 -10    1.31    0.50
  -7  -1 -10   -0.24    0.47
  -7  -1 -10    0.18    0.29
   7  -1  10   -0.36    0.35
  -7  -1 -10   -0.09    0.29
   7   1  10   -0.37    0.31
  -7   1 -10    0.13    0.45
  -7   1 -10   -0.66    0.27
  -8  -1 -10    0.07    0.31
  -8  -1 -10    0.09    0.55
  -8   1 -10    0.68    0.37
  -8   1 -10    0.46    0.33
  -9  -1 -10   -0.28    0.29
  -9  -1 -10    0.35    0.57
  -9   1 -10    0.00    0.32
 -10  -1 -10   -0.17    0.32
 -10   1 -10    0.65    0.37
 -11   1 -10    0.02    0.38
 -12   1 -10    0.24    0.40
 -13   1 -10   -0.02    0.42
 -14   2  10    0.26    0.46
 -13   2  10   -0.22    0.35
 -12   2  10    0.18    0.35
 -11   2  10    0.39    0.35
 -10  -2  10    0.24    0.36
 -10   2  10    0.43    0.32
  -9  -2  10    0.23    0.35
  -9   2  10    0.40    0.31
  -8  -2  10    6.93    0.64
  -8  -2  10   10.28    2.28
  -8   2  10    7.18    0.58
   8   2 -10    8.25    0.65
  -7  -2  10    5.43    1.90
  -7  -2  10    5.72    0.60
  -7  -2  10    5.69    0.56
  -7   2  10    5.53    0.47
   7   2 -10    3.69    0.49
  -6  -2  10   -0.68    1.59
   6  -2 -10    0.17    0.30
  -6  -2  10    0.15    0.34
   6  -2 -10    0.31    0.39
  -6  -2  10   -0.10    0.27
   6   2 -10    0.16    0.30
  -6   2  10   -0.23    0.22
  -5  -2  10    5.53    0.53
  -5  -2  10    7.20    1.80
   5  -2 -10    6.04    0.59
  -5  -2  10    5.53    0.49
   5  -2 -10    5.40    0.48
   5   2 -10    4.98    0.52
   5   2 -10    5.44    0.47
  -5   2  10    5.33    0.44
  -4  -2  10   -0.35    0.23
  -4  -2  10   -0.66    1.31
   4  -2 -10   -0.25    0.30
   4  -2 -10   -0.13    0.23
  -4   2  10    0.01    0.21
   4   2 -10   -0.01    0.24
   4   2 -10    0.15    0.28
  -3  -2  10   15.01    0.77
   3  -2 -10   14.58    0.74
   3  -2 -10   15.38    0.88
  -3  -2  10   15.39    1.68
   3   2 -10   15.07    0.88
  -3   2  10   14.31    0.67
   3   2 -10   15.15    0.71
  -2  -2  10    0.30    0.23
   2  -2 -10    0.33    0.29
   2  -2 -10   -0.21    0.21
  -2  -2  10   -0.50    1.22
   2   2 -10    0.07    0.30
   2   2 -10   -0.30    0.20
  -2   2  10    0.12    0.17
  -1  -2  10    4.50    0.42
  -1  -2  10    5.00    1.49
   1  -2 -10    4.01    0.46
   1  -2 -10    4.21    0.38
   1   2 -10    3.68    0.35
  -1   2  10    3.75    0.34
   1   2 -10    3.82    0.47
  -1   2  10    4.08    0.25
   0  -2 -10   15.57    0.89
   0  -2  10   14.47    0.76
   0  -2 -10   14.95    0.73
   0  -2  10   15.07    1.69
   0  -2 -10   15.14    0.69
   0   2 -10   15.73    0.90
   0   2  10   16.06    0.70
   0   2 -10   15.80    0.71
  -1  -2 -10   19.23    0.82
  -1  -2 -10   17.79    1.01
   1  -2  10   18.82    1.88
  -1  -2 -10   19.46    0.87
   1  -2  10   17.81    0.89
  -1   2 -10   19.43    0.82
  -1   2 -10   19.11    0.84
   1   2  10   19.66    0.78
  -1   2 -10   19.18    1.04
  -2  -2 -10    9.42    0.70
  -2  -2 -10    8.94    0.57
  -2  -2 -10    9.81    0.56
   2  -2  10    8.33    0.60
   2  -2  10   12.04    1.54
  -2   2 -10    9.60    0.52
  -2   2 -10    8.73    0.56
   2   2  10    9.59    0.51
  -2   2 -10    8.95    0.71
   3  -2  10    0.71    0.32
  -3  -2 -10    1.53    0.30
  -3  -2 -10    0.85    0.35
  -3  -2 -10    0.60    0.28
   3  -2  10    2.51    1.58
   3   2  10    0.90    0.25
  -3   2 -10    0.97    0.26
  -3   2 -10    1.40    0.22
  -3   2 -10    0.93    0.28
  -3   2 -10    0.56    0.37
  -4  -2 -10    2.26    0.36
  -4  -2 -10    2.43    0.44
   4  -2  10    2.11    0.41
  -4  -2 -10    2.47    0.41
  -4   2 -10    1.46    0.44
   4   2  10    2.13    0.33
  -4   2 -10    2.05    0.30
  -4   2 -10    2.14    0.36
  -4   2 -10    2.62    0.27
  -5  -2 -10    4.43    0.57
  -5  -2 -10    4.18    0.50
  -5  -2 -10    3.04    0.42
   5  -2  10    4.35    0.52
  -5   2 -10    4.43    0.45
  -5   2 -10    3.44    0.33
  -5   2 -10    3.27    0.53
   5   2  10    3.95    0.43
  -6  -2 -10    2.87    0.42
  -6  -2 -10    3.56    0.50
   6  -2  10    3.13    0.51
  -6  -2 -10    3.62    0.59
  -6  -2 -10    2.68    0.42
  -6   2 -10    2.89    0.54
  -6   2 -10    2.50    0.43
  -7  -2 -10   10.19    0.94
  -7  -2 -10    9.11    0.68
  -7   2 -10    9.04    0.66
  -7   2 -10    8.63    0.79
  -8  -2 -10   -0.22    0.45
  -8   2 -10    0.53    0.34
  -8   2 -10    0.14    0.38
  -9  -2 -10    2.69    0.69
  -9   2 -10    1.99    0.43
 -10  -2 -10   -0.94    0.53
 -10   2 -10    0.11    0.36
 -11   2 -10    0.50    0.41
 -12   2 -10   -0.05    0.42
 -13   2 -10   -0.15    0.44
 -13   3  10    0.01    0.37
 -12   3  10    0.63    0.37
 -11   3  10    0.41    0.36
 -10   3  10    1.43    0.35
  -9   3  10    0.59    0.30
   9   3 -10    0.31    0.35
  -8  -3  10   -1.40    1.68
  -8  -3  10    0.16    0.37
  -8   3  10   -0.06    0.25
   8   3 -10    0.31    0.32
  -7  -3  10    0.08    1.90
  -7  -3  10    0.49    0.39
  -7   3  10    0.13    0.26
   7   3 -10    0.16    0.33
  -6  -3  10    7.64    0.64
  -6  -3  10   13.27    2.32
   6  -3 -10    7.50    0.68
   6   3 -10    7.04    0.65
  -6   3  10    7.19    0.50
  -5  -3  10    5.20    0.51
   5  -3 -10    4.75    0.53
  -5  -3  10    4.70    0.52
  -5  -3  10    8.68    2.12
  -5   3  10    5.03    0.39
   5   3 -10    4.28    0.55
  -5   3  10    4.49    0.41
  -4  -3  10    1.52    1.71
   4  -3 -10    1.13    0.33
  -4  -3  10    0.68    0.33
   4  -3 -10    1.15    0.30
  -4   3  10    0.95    0.26
   4   3 -10    1.35    0.39
   3  -3 -10    0.00    0.22
   3  -3 -10    0.00    0.24
  -3  -3  10   -1.09    1.38
  -3  -3  10   -0.22    0.26
   3   3 -10    0.12    0.31
  -3   3  10   -0.10    0.20
   2  -3 -10    1.01    0.24
   2  -3 -10    0.56    0.27
  -2  -3  10   -0.53    1.09
  -2  -3  10    0.67    0.27
  -2   3  10    0.58    0.22
   2   3 -10    0.96    0.36
   2   3 -10    0.29    0.21
  -1  -3  10   14.19    0.72
   1  -3 -10   14.75    0.67
   1  -3 -10   12.56    0.81
   1   3 -10   12.77    0.85
   1   3 -10   13.52    0.60
  -1   3  10   14.79    0.65
   0  -3  10   -0.12    0.23
   0  -3 -10    0.16    0.24
   0  -3  10   -0.55    1.04
   0  -3 -10    0.66    0.22
   0   3  10    0.09    0.21
   0   3 -10    0.16    0.17
   0   3 -10    0.55    0.33
   1  -3  10   -0.16    0.23
  -1  -3 -10    0.40    0.26
   1  -3  10    0.03    1.04
  -1  -3 -10   -0.32    0.19
  -1   3 -10   -0.55    0.26
   1   3  10   -0.13    0.21
  -2  -3 -10    7.84    0.65
   2  -3  10    7.06    0.55
  -2  -3 -10    7.25    0.52
  -2   3 -10    7.92    0.52
  -2   3 -10    6.77    0.66
  -3  -3 -10    7.20    0.55
  -3  -3 -10    8.05    0.67
   3  -3  10    6.06    0.55
   3   3  10    7.18    0.42
  -3   3 -10    6.41    0.51
  -3   3 -10    5.81    0.64
   4  -3  10    0.78    0.37
  -4  -3 -10    1.50    0.41
  -4  -3 -10    1.54    0.36
  -4   3 -10    0.97    0.45
  -4   3 -10    1.80    0.36
  -5  -3 -10    3.37    0.48
  -5  -3 -10    2.97    0.52
  -5   3 -10    3.51    0.44
  -5   3 -10    2.75    0.55
  -6  -3 -10    0.12    0.34
  -6  -3 -10    0.57    0.37
  -6  -3 -10    0.31    0.40
  -6   3 -10   -0.38    0.32
  -6   3 -10    0.41    0.43
  -7  -3 -10    0.72    0.37
  -7  -3 -10    0.70    0.44
  -7   3 -10    0.83    0.37
  -7   3 -10    1.18    0.43
  -8  -3 -10    1.71    0.53
  -8   3 -10    1.90    0.42
  -9  -3 -10    0.17    0.51
  -9   3 -10   -0.17    0.33
 -10  -3 -10   -0.28    0.52
 -10   3 -10   -0.18    0.34
 -11   3 -10    0.08    0.38
 -12   3 -10   -0.64    0.39
 -13   4  10    0.30    0.40
 -12   4  10    0.74    0.34
 -11   4  10    1.31    0.35
 -10   4  10   -0.10    0.25
  -9  -4  10    2.87    2.57
   9   4 -10    0.50    0.41
  -9   4  10    0.22    0.27
  -8  -4  10    3.42    2.54
  -8   4  10    1.01    0.29
   8   4 -10    1.53    0.46
  -7  -4  10    3.83    2.45
   7   4 -10    1.99    0.48
  -7   4  10    1.92    0.31
  -6  -4  10   -0.28    0.32
   6  -4 -10   -0.19    0.32
  -6  -4  10    1.95    2.28
  -6   4  10   -0.12    0.23
   6   4 -10    0.41    0.40
  -5  -4  10    1.42    0.42
  -5  -4  10    6.76    2.36
   5  -4 -10    1.96    0.41
  -5   4  10    1.69    0.30
  -5   4  10    1.86    0.29
   5   4 -10    1.26    0.46
  -4  -4  10    9.96    1.60
  -4  -4  10    8.99    0.66
   4  -4 -10    9.66    0.69
   4   4 -10    8.57    0.76
  -4   4  10    9.74    0.52
  -3  -4  10    7.93    2.08
  -3  -4  10    2.91    0.41
   3  -4 -10    2.62    0.41
   3   4 -10    2.83    0.51
  -3   4  10    2.51    0.30
   2  -4 -10    0.00    0.19
  -2  -4  10   -0.23    1.53
  -2  -4  10    0.17    0.26
   2  -4 -10    0.02    0.25
   2   4 -10   -0.01    0.35
  -2   4  10    0.02    0.21
  -1  -4  10    2.03    0.34
   1  -4 -10    2.19    0.39
   1  -4 -10    1.94    0.28
   1   4 -10    1.52    0.44
  -1   4  10    1.20    0.27
   0  -4  10   11.80    0.66
   0  -4 -10   12.00    0.80
   0   4  10   11.80    0.60
   0   4 -10   10.74    0.85
  -1  -4 -10   -0.08    0.25
   1  -4  10   -0.16    0.25
  -1   4 -10    0.05    0.36
  -2  -4 -10    5.15    0.58
   2  -4  10    5.30    0.50
  -2   4 -10    5.77    0.65
  -3  -4 -10    0.65    0.34
  -3   4 -10    0.79    0.43
  -4  -4 -10    2.63    0.50
  -4   4 -10    2.75    0.55
  -4   4 -10    3.61    0.42
  -5  -4 -10    1.00    0.40
  -5   4 -10    0.96    0.45
  -5   4 -10    1.02    0.35
  -6  -4 -10    0.06    0.33
  -6   4 -10   -0.56    0.27
  -6   4 -10    0.28    0.39
  -7  -4 -10   -0.05    0.34
  -7   4 -10   -0.45    0.28
  -7   4 -10    0.81    0.44
  -8  -4 -10   -0.74    0.36
  -8   4 -10    0.04    0.31
  -9  -4 -10   -0.19    0.40
  -9   4 -10    0.12    0.35
 -10  -4 -10   -0.60    0.44
 -10   4 -10    0.22    0.40
 -11   4 -10    0.11    0.41
 -12   4 -10    0.21    0.45
  10   5 -10    0.25    0.44
   9   5 -10    0.07    0.41
   8   5 -10    0.26    0.43
   7   5 -10    0.14    0.41
  -6  -5  10    4.06    1.86
   6   5 -10    0.29    0.41
   5  -5 -10    0.25    0.29
  -5  -5  10    2.19    1.53
   5   5 -10    0.98    0.43
   4  -5 -10    1.47    0.36
  -4  -5  10    4.53    1.72
   4   5 -10    1.75    0.49
  -3  -5  10   -0.48    1.53
   3  -5 -10    0.11    0.27
   3   5 -10   -0.20    0.36
   2  -5 -10    0.07    0.25
  -2  -5  10    0.10    1.45
   2   5 -10   -0.19    0.33
  -2   5  10    0.05    0.19
   1  -5 -10    0.30    0.28
  -1   5  10    0.00    0.21
   1   5 -10    0.17    0.40
   0  -5 -10   -0.17    0.24
   0   5 -10    0.04    0.38
  -1  -5 -10    0.10    0.28
  -1   5 -10    0.01    0.38
  -2  -5 -10    0.08    0.28
  -2   5 -10   -0.06    0.37
  -3  -5 -10    0.33    0.30
  -3   5 -10    0.05    0.38
  -4  -5 -10    1.38    0.39
  -4   5 -10    1.19    0.48
  -5  -5 -10   -0.40    0.29
  -5   5 -10    0.17    0.39
  -6  -5 -10    0.43    0.36
  -6   5 -10    0.13    0.40
  -6   5 -10    0.60    0.31
  -7  -5 -10   -0.60    0.33
  -7   5 -10    0.16    0.41
  -7   5 -10   -0.33    0.29
  -8  -5 -10   -0.34    0.41
  -8   5 -10   -0.49    0.29
  -9  -5 -10   -0.06    0.47
  -9   5 -10    0.13    0.33
 -10  -5 -10   -0.70    0.47
 -10   5 -10    0.30    0.38
 -11  -5 -10   -0.28    0.58
 -11   5 -10   -0.30    0.38
  10   6 -10   -0.39    0.52
   9   6 -10    0.21    0.49
   8   6 -10   -0.29    0.45
   7   6 -10   -0.21    0.40
   6   6 -10    0.30    0.43
   5  -6 -10    1.29    0.38
   5   6 -10    1.85    0.54
   4  -6 -10   -0.04    0.29
   4   6 -10    0.24    0.40
   3  -6 -10    0.99    0.36
   3   6 -10    1.20    0.47
   2  -6 -10   -0.11    0.28
   2   6 -10    0.20    0.40
   1  -6 -10    0.92    0.36
   1   6 -10    0.86    0.43
   0  -6 -10    0.88    0.36
   0   6 -10    1.01    0.47
  -1  -6 -10    0.15    0.29
  -1   6 -10    0.66    0.42
  -2  -6 -10    0.02    0.27
  -2   6 -10   -0.34    0.35
  -3  -6 -10   -0.14    0.25
  -3   6 -10    0.04    0.39
  -4  -6 -10   -0.17    0.29
  -4   6 -10   -0.23    0.37
  -5  -6 -10    0.22    0.32
  -5   6 -10    0.39    0.44
  -6  -6 -10   -0.16    0.35
  -6   6 -10    0.36    0.43
  -7  -6 -10    0.45    0.45
  -8  -6 -10   -0.37    0.41
  -9  -6 -10   -0.34    0.48
   9   7 -10    0.09    0.58
   8   7 -10   -0.14    0.51
   7   7 -10   -0.10    0.49
   6   7 -10   -0.04    0.45
   5   7 -10    0.41    0.49
   4  -7 -10    0.17    0.35
   4   7 -10   -0.51    0.39
   3  -7 -10    0.04    0.33
   3   7 -10    0.35    0.48
   2  -7 -10    0.02    0.31
   2   7 -10   -0.37    0.37
   1  -7 -10   -0.01    0.31
   1   7 -10   -0.04    0.42
   0  -7 -10   -0.32    0.29
   0   7 -10    0.10    0.41
  -1  -7 -10    0.16    0.33
  -1   7 -10    1.14    0.48
  -2  -7 -10    0.11    0.30
  -2   7 -10    0.15    0.47
  -3  -7 -10    0.13    0.33
  -3   7 -10    0.37    0.43
  -4  -7 -10   -0.26    0.31
  -4   7 -10    0.07    0.44
  -5  -7 -10   -0.14    0.33
  -5   7 -10    0.20    0.46
  -6  -7 -10   -0.26    0.36
  -7  -7 -10   -0.39    0.41
   6   8 -10   -0.16    0.51
   5   8 -10   -0.09    0.49
   4  -8 -10   -0.57    0.35
   4   8 -10    0.06    0.50
   3  -8 -10   -0.39    0.35
   3   8 -10   -0.03    0.50
   2  -8 -10   -0.04    0.37
   2   8 -10    0.56    0.50
   1  -8 -10    0.20    0.35
   1   8 -10    0.78    0.55
   0  -8 -10   -0.33    0.34
   0   8 -10    0.12    0.51
  -1  -8 -10   -0.26    0.33
  -1   8 -10    0.64    0.54
  -2  -8 -10    0.23    0.41
  -2   8 -10    0.46    0.53
  -3  -8 -10   -0.22    0.37
  -3   8 -10    0.00    0.52
  -4  -8 -10   -0.11    0.37
  -4   8 -10    0.36    0.53
  -5   8 -10    0.16    0.52
 -14   0  11    0.25    0.47
 -13   0  11    1.59    0.54
 -12   0  11   -0.13    0.38
 -11   0  11    0.36    0.38
 -10   0  11   -0.47    0.32
  -9   0  11    3.44    0.52
  -8   0  11    0.05    0.33
   8   0 -11   -0.23    0.37
   7   0 -11    2.02    0.38
   7   0 -11    1.95    0.44
  -7   0  11    2.37    0.41
   6   0 -11   -0.29    0.30
  -6   0  11   -0.15    0.31
   6   0 -11    0.16    0.30
  -6   0  11   -0.20    0.26
   5   0 -11    5.87    0.54
  -5   0  11    6.18    0.53
   5   0 -11    5.57    0.57
  -4   0  11   -0.12    0.26
   4   0 -11   -0.56    0.25
   4   0 -11   -0.58    0.29
  -3   0  11   85.99    2.98
   3   0 -11   81.68    2.96
   3   0 -11   85.14    3.28
  -2   0  11   -0.42    0.23
   2   0 -11   -0.13    0.25
   2   0 -11   -0.63    0.30
   1   0 -11   10.45    0.57
   1   0 -11    9.99    0.62
  -1   0  11   10.37    0.61
   1   0 -11    9.79    0.74
   0   0 -11    0.26    0.26
   0   0  11    0.19    0.25
   0   0 -11    0.17    0.21
   0   0 -11   -0.33    0.33
  -1   0 -11    9.28    0.54
  -1   0 -11    9.40    0.60
  -1   0 -11    8.31    0.74
   1   0  11    8.90    0.58
  -2   0 -11    0.24    0.21
  -2   0 -11   -0.31    0.34
   2   0  11   -0.24    0.23
  -2   0 -11    0.07    0.27
   3   0  11    0.27    0.27
  -3   0 -11    0.06    0.21
  -3   0 -11   -0.37    0.24
  -3   0 -11   -0.28    0.37
   4   0  11   -0.55    0.26
  -4   0 -11   -0.16    0.41
  -4   0 -11    0.12    0.30
  -4   0 -11   -0.04    0.22
  -5   0 -11    2.03    0.56
  -5   0 -11    1.76    0.35
   5   0  11    1.55    0.39
  -5   0 -11    1.74    0.32
  -6   0 -11   -0.32    0.46
  -6   0 -11    0.01    0.29
   6   0  11   -0.25    0.33
  -7   0 -11    1.03    0.61
  -7   0 -11    0.59    0.36
   7   0  11    0.64    0.41
  -8   0 -11   -0.06    0.52
  -8   0 -11    0.17    0.33
   8   0  11   -0.31    0.33
  -9   0 -11    0.43    0.32
  -9   0 -11   -0.36    0.40
 -10   0 -11   -0.23    0.34
 -11   0 -11   -0.53    0.35
 -12   0 -11   -0.17    0.41
 -13   0 -11    0.10    0.47
 -14  -1  11    0.61    0.53
 -14   1  11   -0.16    0.45
 -13  -1  11    0.27    0.45
 -13   1  11    0.32    0.42
 -12  -1  11    0.76    0.43
 -12   1  11    0.62    0.40
 -11  -1  11    0.49    0.42
 -11   1  11    1.27    0.44
 -10  -1  11   -0.01    0.35
 -10   1  11    0.80    0.39
  -9  -1  11    0.36    0.36
  -9   1  11    0.24    0.34
  -8  -1  11    0.36    0.35
   8   1 -11    0.69    0.31
  -8   1  11   -0.28    0.30
   7  -1 -11   12.85    0.82
  -7  -1  11   16.49    2.11
   7  -1 -11   11.88    0.78
  -7  -1  11   12.78    0.77
   7   1 -11   13.66    0.82
  -7   1  11   11.36    0.71
   7   1 -11   12.65    0.78
  -6  -1  11    7.10    2.17
  -6  -1  11    6.94    0.55
   6  -1 -11    5.86    0.60
  -6  -1  11    6.18    0.58
   6  -1 -11    6.12    0.56
  -6   1  11    6.71    0.51
   6   1 -11    5.65    0.55
  -6   1  11    6.16    0.50
   6   1 -11    6.71    0.58
   5  -1 -11    1.06    0.40
   5  -1 -11    1.33    0.34
  -5  -1  11    0.64    1.70
   5  -1 -11    0.25    1.95
  -5  -1  11    1.25    0.36
   5   1 -11    1.37    0.35
   5   1 -11    0.93    0.35
  -5   1  11    1.11    0.24
  -5   1  11    1.15    0.29
   4  -1 -11   -0.66    1.56
   4  -1 -11    0.28    0.27
   4  -1 -11   -0.14    0.34
  -4  -1  11    0.22    0.28
  -4  -1  11    0.04    1.66
  -4   1  11    0.03    0.17
  -4   1  11    0.05    0.23
   4   1 -11   -0.16    0.28
   4   1 -11    0.04    0.28
   3  -1 -11   29.31    1.23
   3  -1 -11   33.42    2.53
  -3  -1  11   28.42    1.25
  -3  -1  11   29.18    2.51
   3  -1 -11   28.74    1.42
  -3   1  11   30.30    1.18
   3   1 -11   28.83    1.22
   3   1 -11   29.75    1.40
   2  -1 -11    8.84    0.58
  -2  -1  11    9.38    1.59
   2  -1 -11    8.93    1.51
   2  -1 -11    9.24    0.75
   2  -1 -11    9.58    0.53
  -2  -1  11    9.53    0.59
   2   1 -11    9.10    0.69
  -2   1  11    9.32    0.53
   2   1 -11    8.95    0.57
   1  -1 -11    5.48    0.47
  -1  -1  11    6.23    1.89
   1  -1 -11    5.36    0.41
   1  -1 -11    5.77    0.60
  -1  -1  11    4.95    0.47
   1   1 -11    5.52    0.46
  -1   1  11    5.88    0.42
   1   1 -11    5.86    0.58
   0  -1 -11    0.07    0.23
   0  -1  11    0.22    0.26
   0  -1 -11   -0.12    0.33
   0  -1 -11   -0.10    0.19
   0  -1  11    1.40    1.87
   0   1 -11   -0.18    0.19
   0   1  11   -0.25    0.20
   0   1 -11   -0.17    0.30
   0   1 -11   -0.08    0.23
  -1  -1 -11    0.99    0.40
  -1  -1 -11    1.41    0.32
   1  -1  11    0.54    0.29
  -1  -1 -11    1.39    0.27
  -1   1 -11    0.55    0.28
  -1   1 -11    0.82    0.26
  -1   1 -11    0.62    0.36
   1   1  11    0.47    0.24
  -2  -1 -11    8.60    0.74
  -2  -1 -11    8.50    0.52
  -2  -1 -11    8.17    0.58
   2  -1  11    8.40    0.60
   2   1  11    8.47    0.53
  -2   1 -11    8.09    0.57
  -2   1 -11    7.79    0.52
  -2   1 -11    7.91    0.71
  -3  -1 -11    5.75    0.46
  -3  -1 -11    4.44    0.59
  -3  -1 -11    4.83    0.50
   3  -1  11    4.03    0.48
   3   1  11    4.77    0.45
  -3   1 -11    4.52    0.57
  -3   1 -11    4.80    0.45
  -3   1 -11    4.78    0.45
  -4  -1 -11    3.68    0.48
   4  -1  11    4.43    0.50
  -4  -1 -11    3.68    0.58
  -4  -1 -11    3.02    0.40
  -4   1 -11    4.30    0.60
  -4   1 -11    4.35    0.43
   4   1  11    4.79    0.48
  -4   1 -11    4.17    0.38
  -5  -1 -11    3.10    0.48
  -5  -1 -11    1.96    0.36
   5  -1  11    2.58    0.46
  -5  -1 -11    2.64    0.40
  -5  -1 -11    1.96    0.55
   5   1  11    2.84    0.44
  -5   1 -11    2.09    0.54
  -5   1 -11    2.34    0.38
  -5   1 -11    2.46    0.34
  -6  -1 -11    0.27    0.30
   6  -1  11    0.33    0.37
  -6  -1 -11    0.41    0.52
  -6  -1 -11   -0.39    0.26
  -6   1 -11   -0.22    0.29
  -6   1 -11   -0.26    0.45
   6   1  11    0.27    0.34
   7  -1  11    0.23    0.40
  -7  -1 -11    0.01    0.30
  -7  -1 -11   -0.04    0.55
  -7   1 -11    0.40    0.34
   7   1  11   -0.26    0.33
  -7   1 -11    0.30    0.51
  -8  -1 -11    0.22    0.32
  -8  -1 -11   -0.30    0.53
  -8   1 -11    0.33    0.34
  -8   1 -11    0.60    0.49
  -9  -1 -11    0.22    0.36
  -9  -1 -11   -0.45    0.59
  -9   1 -11    0.54    0.37
 -10  -1 -11    0.35    0.38
 -10   1 -11   -0.11    0.34
 -11   1 -11   -0.41    0.36
 -12   1 -11    0.37    0.43
 -13   1 -11    0.60    0.50
 -14   2  11    0.06    0.42
 -13   2  11   -0.56    0.36
 -12   2  11   -0.24    0.34
 -11   2  11   -0.62    0.29
 -10  -2  11    3.00    0.54
 -10   2  11    2.58    0.46
  -9  -2  11    0.38    0.38
  -9   2  11    0.15    0.29
  -8  -2  11   -0.25    0.32
   8   2 -11    0.30    0.30
  -8   2  11   -0.38    0.26
  -7  -2  11    0.09    0.31
  -7  -2  11    0.03    0.39
  -7  -2  11    0.01    1.94
  -7   2  11    0.27    0.29
   7   2 -11    0.20    0.34
  -6  -2  11   27.72    1.20
  -6  -2  11   26.51    1.27
   6  -2 -11   26.48    1.34
  -6  -2  11   30.96    2.69
   6   2 -11   26.98    1.34
  -6   2  11   25.79    1.10
  -5  -2  11    2.91    0.45
   5  -2 -11    2.40    0.39
   5  -2 -11    2.46    0.53
  -5  -2  11    4.59    1.88
   5   2 -11    2.44    0.45
   4  -2 -11    0.19    0.37
   4  -2 -11   -0.37    0.24
  -4  -2  11   -0.23    0.27
  -4  -2  11   -0.68    1.51
  -4   2  11    0.00    0.23
   4   2 -11   -0.08    0.29
   4   2 -11   -0.32    0.25
   3  -2 -11    0.60    0.27
  -3  -2  11    0.37    0.27
  -3  -2  11    0.19    1.53
   3  -2 -11    0.37    0.36
   3   2 -11    0.28    0.31
  -3   2  11   -0.05    0.22
   3   2 -11   -0.37    0.24
   2  -2 -11   -0.08    0.23
   2  -2 -11    0.26    0.32
  -2  -2  11   -0.22    0.23
  -2  -2  11   -0.55    1.40
   2   2 -11   -0.06    0.30
   2   2 -11   -0.05    0.23
  -2   2  11    0.13    0.19
   1  -2 -11    1.32    0.37
   1  -2 -11    1.16    0.26
  -1  -2  11    1.17    1.44
   1  -2 -11    0.88    0.28
  -1  -2  11    0.70    0.30
   1   2 -11    1.27    0.29
  -1   2  11    1.33    0.19
   1   2 -11    1.03    0.36
  -1   2  11    1.01    0.26
   0  -2  11    1.17    0.32
   0  -2 -11    1.43    0.31
   0  -2 -11    0.99    0.35
   0  -2  11    1.38    1.37
   0  -2 -11    1.46    0.27
   0   2 -11    0.84    0.35
   0   2  11    1.44    0.21
   0   2 -11    1.29    0.28
  -1  -2 -11    0.23    0.22
   1  -2  11    1.83    1.43
  -1  -2 -11    0.13    0.24
   1  -2  11    0.38    0.29
  -1  -2 -11    0.19    0.30
  -1   2 -11    0.32    0.24
   1   2  11    0.11    0.19
  -1   2 -11    0.29    0.24
  -1   2 -11    0.29    0.32
   2  -2  11    6.71    0.56
  -2  -2 -11    5.74    0.61
  -2  -2 -11    6.42    0.48
  -2  -2 -11    6.45    0.53
   2  -2  11    3.51    1.47
  -2   2 -11    5.38    0.60
  -2   2 -11    6.18    0.49
   2   2  11    7.46    0.45
  -2   2 -11    6.43    0.47
  -3  -2 -11    0.56    0.31
  -3  -2 -11    0.35    0.35
   3  -2  11    0.91    0.35
  -3  -2 -11    0.83    0.29
  -3   2 -11    0.40    0.28
  -3   2 -11    0.42    0.39
   3   2  11    0.79    0.27
  -3   2 -11    0.48    0.20
  -3   2 -11    0.47    0.27
  -4  -2 -11    0.01    0.30
  -4  -2 -11   -0.11    0.27
  -4  -2 -11    0.45    0.39
   4  -2  11    0.31    0.36
   4   2  11    0.07    0.26
  -4   2 -11    0.52    0.22
  -4   2 -11    0.21    0.30
  -4   2 -11    0.47    0.41
  -5  -2 -11    0.27    0.34
  -5  -2 -11   -0.13    0.27
  -5  -2 -11    0.12    0.40
   5  -2  11   -0.07    0.35
  -5   2 -11    0.12    0.41
  -5   2 -11    0.48    0.32
  -6  -2 -11   -0.13    0.43
  -6  -2 -11    0.50    0.36
   6  -2  11    0.38    0.40
  -6  -2 -11    0.48    0.35
  -6   2 -11    0.03    0.44
  -6   2 -11    0.05    0.30
  -7  -2 -11    0.15    0.34
  -7  -2 -11   -0.65    0.44
  -7   2 -11    0.10    0.32
  -7   2 -11   -0.09    0.43
  -8  -2 -11   -0.04    0.49
  -8   2 -11    0.58    0.22
  -8   2 -11    0.05    0.32
  -9  -2 -11    0.12    0.58
  -9   2 -11   -0.20    0.35
 -10  -2 -11   -0.47    0.60
 -10   2 -11    0.27    0.36
 -11   2 -11    0.64    0.42
 -12   2 -11   -0.43    0.40
 -13   2 -11   -0.35    0.46
 -13   3  11   -0.17    0.37
 -12   3  11   -0.17    0.36
 -11   3  11    0.05    0.32
 -10   3  11    0.50    0.33
   9   3 -11   -0.10    0.34
  -9   3  11    0.19    0.30
  -8  -3  11   -1.43    1.83
   8   3 -11   -0.26    0.28
  -8   3  11   -0.17    0.24
  -7  -3  11   -0.26    0.38
  -7  -3  11   -1.40    1.80
   7   3 -11    0.06    0.34
  -7   3  11    0.27    0.26
   6  -3 -11    2.33    0.53
  -6  -3  11    2.89    0.52
  -6  -3  11    2.26    1.78
   6   3 -11    2.32    0.47
  -6   3  11    2.98    0.35
  -5  -3  11   16.42    2.07
  -5  -3  11   13.19    0.84
   5  -3 -11   13.70    0.90
   5   3 -11   12.12    0.89
   4  -3 -11   15.03    0.79
  -4  -3  11   16.77    1.98
   4  -3 -11   14.86    0.93
  -4  -3  11   15.22    0.87
   4   3 -11   13.91    0.95
   3  -3 -11   16.80    0.83
  -3  -3  11   19.11    2.02
   3  -3 -11   17.56    0.99
  -3  -3  11   17.72    0.90
  -3   3  11   17.64    0.78
   3   3 -11   17.05    1.04
  -2  -3  11    3.59    1.50
   2  -3 -11    5.47    0.45
   2  -3 -11    6.66    0.59
  -2  -3  11    5.49    0.49
  -2   3  11    5.88    0.43
   2   3 -11    5.50    0.59
  -1  -3  11    2.50    1.35
   1  -3 -11    2.66    0.42
   1  -3 -11    2.62    0.34
  -1  -3  11    2.64    0.38
   1   3 -11    2.37    0.46
  -1   3  11    2.62    0.33
   1   3 -11    2.03    0.29
   0  -3  11    7.93    0.55
   0  -3  11    3.66    1.39
   0  -3 -11    6.44    0.60
   0  -3 -11    7.12    0.49
   0   3 -11    6.55    0.65
   0   3 -11    7.28    0.40
  -1  -3 -11   -0.28    0.22
  -1  -3 -11    0.23    0.27
   1  -3  11   -0.38    1.19
   1  -3  11   -0.02    0.28
  -1   3 -11   -0.25    0.14
  -1   3 -11   -0.11    0.17
  -1   3 -11   -0.49    0.31
  -2  -3 -11    3.62    0.43
   2  -3  11    4.46    0.49
  -2  -3 -11    3.88    0.52
  -2   3 -11    3.18    0.54
  -2   3 -11    3.50    0.43
  -3  -3 -11   -0.06    0.26
   3  -3  11   -0.22    1.04
  -3  -3 -11   -0.08    0.29
   3  -3  11    0.29    0.34
  -3   3 -11   -0.15    0.27
  -3   3 -11    0.13    0.41
   4  -3  11   17.16    2.14
  -4  -3 -11   13.63    0.98
  -4  -3 -11   14.82    0.87
   4  -3  11   12.87    0.84
  -4   3 -11   13.30    0.78
  -4   3 -11   13.53    0.97
  -5  -3 -11    2.53    0.48
  -5  -3 -11    2.63    0.54
  -5   3 -11    2.76    0.55
  -5   3 -11    2.27    0.43
  -6  -3 -11    0.23    0.34
  -6  -3 -11    0.49    0.42
  -6  -3 -11   -0.24    0.34
  -6   3 -11    0.10    0.42
  -6   3 -11   -0.02    0.33
  -7  -3 -11   -0.34    0.41
  -7  -3 -11    0.51    0.36
  -7   3 -11    0.20    0.35
  -7   3 -11    0.41    0.43
  -8  -3 -11    0.12    0.47
  -8   3 -11    0.91    0.30
  -8   3 -11    0.32    0.35
  -9  -3 -11   -0.17    0.48
  -9   3 -11    0.06    0.37
 -10  -3 -11   -0.65    0.53
 -10   3 -11    0.29    0.39
 -11   3 -11   -0.10    0.38
 -12   3 -11    0.06    0.44
 -13   4  11    0.74    0.42
 -12   4  11   -0.10    0.31
 -11   4  11    0.43    0.31
 -10   4  11    0.55    0.29
   9   4 -11   -0.06    0.34
  -9   4  11    0.13    0.27
  -8  -4  11    0.47    2.27
  -8   4  11   -0.17    0.26
   8   4 -11    0.41    0.39
  -7  -4  11    6.02    2.52
  -7   4  11    2.62    0.35
   7   4 -11    2.94    0.53
  -6   4  11    5.79    0.44
   6   4 -11    6.00    0.67
  -5  -4  11    0.58    2.13
  -5  -4  11   -0.14    0.34
   5  -4 -11   -0.18    0.32
   5   4 -11   -0.43    0.35
  -5   4  11    0.22    0.23
  -4  -4  11    1.79    0.43
  -4  -4  11    6.27    2.39
   4  -4 -11    1.97    0.42
   4   4 -11    1.64    0.48
  -3  -4  11   -0.04    0.30
   3  -4 -11    0.17    0.31
  -3  -4  11   -1.28    1.80
  -3   4  11    0.31    0.26
   3   4 -11   -0.01    0.36
   2  -4 -11    7.18    0.65
  -2  -4  11    7.37    0.57
   2   4 -11    6.76    0.71
  -2   4  11    7.29    0.49
  -1  -4  11   -0.03    0.27
  -1  -4  11   -0.91    1.48
   1  -4 -11    0.33    0.28
   1   4 -11    0.32    0.39
   0  -4  11    0.30    0.29
   0  -4 -11    0.53    0.31
   0   4 -11    0.40    0.40
   1  -4  11    1.09    0.33
  -1  -4 -11    1.09    0.37
  -1   4 -11    0.54    0.42
  -2  -4 -11    0.06    0.30
  -2   4 -11    0.53    0.42
  -3  -4 -11    0.01    0.31
  -3   4 -11   -0.19    0.39
  -4  -4 -11    3.92    0.58
  -4   4 -11    4.74    0.49
  -4   4 -11    3.94    0.62
  -5  -4 -11    0.44    0.36
  -5   4 -11    0.07    0.40
  -5   4 -11    0.68    0.33
  -6  -4 -11    0.54    0.40
  -6   4 -11    0.32    0.33
  -6   4 -11    1.13    0.46
  -7  -4 -11   -0.07    0.39
  -7   4 -11    0.30    0.42
  -7   4 -11   -0.06    0.33
  -8  -4 -11   -0.28    0.37
  -8   4 -11    0.23    0.35
  -9  -4 -11   -0.54    0.42
  -9   4 -11    0.54    0.41
 -10  -4 -11   -0.83    0.47
 -10   4 -11   -0.30    0.37
 -11   4 -11   -0.05    0.43
 -12   5  11    0.27    0.33
   9   5 -11   -0.36    0.40
   8   5 -11    0.52    0.44
   7   5 -11    0.68    0.44
   6   5 -11    1.17    0.45
   5  -5 -11    0.39    0.32
  -5  -5  11    2.54    2.12
   5   5 -11    0.43    0.40
   4  -5 -11    0.14    0.30
  -4  -5  11    2.04    1.91
   4   5 -11    0.34    0.39
   3  -5 -11    0.96    0.35
  -3  -5  11    3.20    1.89
  -3   5  11    0.95    0.23
   3   5 -11    1.23    0.45
  -2  -5  11    1.18    1.73
   2  -5 -11    0.44    0.32
   2   5 -11    0.36    0.38
   1  -5 -11    0.05    0.28
   1   5 -11   -0.07    0.35
   0  -5 -11   -0.18    0.28
   0   5 -11   -0.26    0.36
  -1  -5 -11    1.19    0.41
  -1   5 -11    0.44    0.41
  -2  -5 -11    0.38    0.35
  -2   5 -11    0.72    0.43
  -3  -5 -11    1.29    0.42
  -3   5 -11    1.07    0.47
  -4  -5 -11   -0.20    0.31
  -4   5 -11    0.23    0.41
  -5  -5 -11   -0.27    0.30
  -5   5 -11    0.08    0.39
  -6  -5 -11    0.08    0.37
  -6   5 -11    0.26    0.39
  -6   5 -11    0.80    0.33
  -7  -5 -11    0.10    0.43
  -7   5 -11   -0.35    0.30
  -7   5 -11    0.30    0.43
  -8  -5 -11   -0.30    0.41
  -8   5 -11   -0.43    0.30
  -9  -5 -11   -0.58    0.43
  -9   5 -11   -0.02    0.34
 -10  -5 -11   -0.71    0.50
 -10   5 -11   -0.21    0.36
  10   6 -11   -0.19    0.51
   9   6 -11    0.60    0.51
   8   6 -11    0.39    0.49
   7   6 -11    0.75    0.51
   6   6 -11   -0.18    0.40
   5  -6 -11   -0.31    0.28
   5   6 -11    0.13    0.40
   4  -6 -11    0.67    0.35
   4   6 -11    1.27    0.47
   3  -6 -11    0.57    0.34
   3   6 -11    0.58    0.43
   2  -6 -11    0.06    0.28
   2   6 -11    0.24    0.42
   1  -6 -11   -0.03    0.27
   1   6 -11    0.29    0.38
   0  -6 -11   -0.32    0.26
   0   6 -11    0.01    0.37
  -1  -6 -11    0.28    0.32
  -1   6 -11    0.33    0.43
  -2  -6 -11    0.22    0.30
  -2   6 -11   -0.06    0.40
  -3  -6 -11   -0.07    0.29
  -3   6 -11   -0.18    0.37
  -4  -6 -11    0.08    0.36
  -4   6 -11    0.58    0.45
  -5  -6 -11   -0.30    0.33
  -5   6 -11    0.48    0.46
  -6  -6 -11   -0.15    0.39
  -6   6 -11    0.11    0.41
  -7  -6 -11   -0.42    0.38
  -8  -6 -11   -0.05    0.48
  -9  -6 -11   -0.64    0.47
   8   7 -11    0.32    0.53
   7   7 -11   -0.28    0.48
   6   7 -11    0.16    0.51
   5   7 -11    0.26    0.49
   4  -7 -11   -0.30    0.29
   4   7 -11    0.10    0.47
   3  -7 -11   -0.43    0.29
   3   7 -11    0.42    0.45
   2  -7 -11   -0.04    0.33
   2   7 -11    0.55    0.47
   1  -7 -11   -0.15    0.31
   1   7 -11    0.86    0.46
   0  -7 -11   -0.02    0.34
   0   7 -11    0.23    0.43
  -1  -7 -11    0.38    0.36
  -1   7 -11   -0.10    0.43
  -2  -7 -11   -0.01    0.32
  -2   7 -11    0.86    0.50
  -3  -7 -11   -0.21    0.31
  -3   7 -11    0.75    0.48
  -4  -7 -11   -0.45    0.27
  -4   7 -11   -0.23    0.45
  -5  -7 -11   -0.43    0.36
  -5   7 -11    0.42    0.50
  -6  -7 -11   -0.11    0.42
  -6   7 -11    0.84    0.55
  -7  -7 -11   -0.11    0.45
   5   8 -11    0.44    0.57
   4   8 -11    0.29    0.58
   3  -8 -11    0.13    0.40
   3   8 -11   -0.44    0.48
   2  -8 -11    0.08    0.41
   2   8 -11    0.35    0.50
   1  -8 -11    0.02    0.39
   1   8 -11    0.37    0.53
   0  -8 -11    0.24    0.40
   0   8 -11    0.23    0.52
  -1  -8 -11    0.20    0.41
  -1   8 -11    0.45    0.51
  -2  -8 -11   -0.07    0.35
  -2   8 -11    0.28    0.54
  -3  -8 -11   -0.06    0.40
  -3   8 -11    0.54    0.57
  -4  -8 -11    0.11    0.40
  -4   8 -11    0.76    0.58
 -14   0  12    0.09    0.48
 -13   0  12    0.24    0.44
 -12   0  12    1.49    0.51
 -11   0  12   -0.04    0.37
 -10   0  12    0.07    0.34
  -9   0  12   -0.59    0.31
  -8   0  12    7.25    0.64
   8   0 -12    8.05    0.72
   7   0 -12   -0.08    0.32
  -7   0  12   -0.01    0.31
   7   0 -12   -0.50    0.34
   6   0 -12    0.92    0.37
   6   0 -12    0.23    0.35
   5   0 -12    0.10    0.32
  -5   0  12   -0.09    0.31
   5   0 -12   -0.03    0.35
  -4   0  12   49.25    1.80
   4   0 -12   43.38    1.77
   4   0 -12   44.43    1.96
   3   0 -12   -0.18    0.27
   3   0 -12   -0.52    0.32
  -3   0  12    0.11    0.30
   2   0 -12    7.23    0.56
  -2   0  12    6.78    0.55
   2   0 -12    7.55    0.68
   1   0 -12    0.18    0.28
   1   0 -12   -0.28    0.20
  -1   0  12   -0.10    0.25
   1   0 -12   -0.04    0.35
   0   0  12   28.60    1.21
   0   0 -12   28.46    1.42
   0   0 -12   27.62    1.13
   0   0 -12   27.98    1.21
  -1   0 -12    0.05    0.22
  -1   0 -12   -0.28    0.25
   1   0  12   -0.35    0.24
  -1   0 -12    0.27    0.39
  -2   0 -12    0.02    0.39
   2   0  12    0.22    0.28
  -2   0 -12    0.14    0.27
  -2   0 -12    0.28    0.23
  -3   0 -12   -0.29    0.27
  -3   0 -12   -0.31    0.23
  -3   0 -12   -0.13    0.40
   3   0  12    0.19    0.30
  -4   0 -12    3.80    0.50
   4   0  12    3.42    0.47
  -4   0 -12    2.84    0.40
  -4   0 -12    5.05    0.69
   5   0  12   -0.52    0.32
  -5   0 -12    0.00    0.24
  -5   0 -12   -0.45    0.48
  -5   0 -12    0.15    0.29
   6   0  12    1.77    0.46
  -6   0 -12    1.68    0.62
  -6   0 -12    1.34    0.36
  -7   0 -12   -0.10    0.31
  -7   0 -12   -1.03    0.53
   7   0  12   -0.01    0.38
  -8   0 -12   -0.32    0.52
  -8   0 -12   -0.14    0.31
   8   0  12    0.26    0.38
  -9   0 -12    0.30    0.34
  -9   0 -12   -0.20    0.55
 -10   0 -12   -0.27    0.33
 -11   0 -12    0.12    0.40
 -12   0 -12    0.44    0.45
 -13   0 -12   -0.62    0.47
 -14  -1  12    0.59    0.52
 -14   1  12    0.64    0.49
 -13  -1  12    0.31    0.45
 -13   1  12    0.36    0.45
 -12  -1  12   -0.04    0.38
 -12   1  12   -0.21    0.37
 -11  -1  12    0.38    0.40
 -11   1  12    0.57    0.41
 -10  -1  12    1.37    0.45
 -10   1  12    0.54    0.36
  -9  -1  12    2.69    0.49
  -9   1  12    3.52    0.49
  -8  -1  12   -0.45    0.31
  -8   1  12   -0.09    0.32
   8   1 -12    0.05    0.30
   7  -1 -12    0.34    0.37
  -7  -1  12   -0.08    0.33
  -7   1  12    0.08    0.31
   7   1 -12    0.08    0.40
   7   1 -12    0.14    0.32
   6  -1 -12   -0.07    0.38
  -6  -1  12    2.06    2.16
  -6  -1  12    0.49    0.37
   6  -1 -12    0.06    0.35
  -6  -1  12    0.45    0.31
   6   1 -12   -0.07    0.35
   6   1 -12    0.29    0.33
   5  -1 -12    2.06    0.49
  -5  -1  12    2.44    2.09
   5  -1 -12    2.98    0.44
  -5  -1  12    2.58    0.45
   5   1 -12    2.58    0.45
  -5   1  12    3.13    0.38
   5   1 -12    2.57    0.43
  -4  -1  12    8.75    0.62
   4  -1 -12    8.87    0.62
   4  -1 -12    7.11    0.71
  -4  -1  12    7.23    2.14
   4   1 -12    8.07    0.67
   4   1 -12    9.15    0.61
  -4   1  12    8.53    0.56
  -3  -1  12    0.83    1.92
   3  -1 -12    0.83    1.72
   3  -1 -12    0.48    0.31
   3  -1 -12    0.71    0.42
  -3  -1  12    1.05    0.33
  -3   1  12    0.86    0.27
   3   1 -12    0.51    0.36
   3   1 -12    0.23    0.29
   2  -1 -12   19.41    0.92
   2  -1 -12   18.47    1.09
   2  -1 -12   17.40    2.04
  -2  -1  12   19.06    0.92
  -2  -1  12   19.68    2.09
   2  -1 -12   18.15    0.83
  -2   1  12   18.63    0.84
   2   1 -12   18.96    1.06
   2   1 -12   18.33    0.89
  -1  -1  12   25.50    2.41
  -1  -1  12   26.58    1.17
   1  -1 -12   27.35    1.38
   1  -1 -12   25.15    1.13
   1  -1 -12   26.12    1.07
   1   1 -12   24.84    1.11
   1   1 -12   26.46    1.32
  -1   1  12   26.25    1.08
   0  -1  12    0.60    0.31
   0  -1 -12    0.86    0.41
   0  -1 -12    0.21    0.23
   0  -1 -12    0.13    0.27
   0   1  12    0.43    0.26
   0   1 -12    0.42    0.25
   0   1 -12    0.26    0.34
   0   1 -12    0.33    0.28
   1  -1  12   -0.09    0.26
  -1  -1 -12   -0.03    0.36
  -1  -1 -12   -0.05    0.27
  -1  -1 -12   -0.22    0.19
  -1   1 -12    0.07    0.21
  -1   1 -12   -0.10    0.34
  -1   1 -12   -0.08    0.25
   1   1  12   -0.47    0.22
  -2  -1 -12    8.77    0.64
  -2  -1 -12    8.15    0.56
   2  -1  12    7.96    0.60
  -2  -1 -12    8.27    0.77
  -2   1 -12    7.76    0.73
  -2   1 -12    6.55    0.51
   2   1  12    7.28    0.52
  -2   1 -12    8.13    0.59
  -3  -1 -12    0.70    0.35
  -3  -1 -12    0.61    0.28
  -3  -1 -12    0.89    0.46
   3  -1  12    0.95    0.36
  -3   1 -12    0.97    0.35
  -3   1 -12    0.92    0.45
   3   1  12    0.85    0.32
  -3   1 -12    0.64    0.30
  -4  -1 -12    2.93    0.42
   4  -1  12    3.78    0.50
  -4  -1 -12    3.08    0.60
  -4  -1 -12    3.35    0.50
  -4   1 -12    2.57    0.41
  -4   1 -12    3.61    0.37
  -4   1 -12    3.56    0.60
   4   1  12    3.26    0.46
  -5  -1 -12    0.41    0.39
  -5  -1 -12    1.19    0.34
   5  -1  12    0.48    0.39
  -5  -1 -12    0.75    0.53
  -5   1 -12    0.16    0.31
  -5   1 -12    0.22    0.46
   5   1  12    0.07    0.34
   6  -1  12   -0.05    0.37
  -6  -1 -12    0.07    0.29
  -6  -1 -12   -0.61    0.54
  -6  -1 -12   -0.40    0.26
  -6   1 -12   -0.56    0.28
   6   1  12    0.08    0.33
  -6   1 -12   -0.57    0.47
  -7  -1 -12    0.95    0.64
  -7  -1 -12    0.60    0.35
   7  -1  12    1.70    0.48
  -7   1 -12    1.62    0.58
  -7   1 -12    1.54    0.39
  -8  -1 -12    1.14    0.37
  -8  -1 -12    1.14    0.67
  -8   1 -12    0.96    0.54
  -8   1 -12    1.30    0.39
  -9  -1 -12    0.17    0.65
  -9  -1 -12    0.52    0.37
  -9   1 -12    0.17    0.36
 -10   1 -12   -0.22    0.35
 -11   1 -12    0.21    0.42
 -12   1 -12    0.11    0.42
 -13   1 -12    0.11    0.49
 -14   2  12    0.41    0.47
 -13   2  12    0.27    0.41
 -12   2  12    0.30    0.39
 -11   2  12    0.13    0.35
 -10   2  12    0.50    0.35
  -9  -2  12    6.87    0.67
  -9   2  12    4.73    0.54
  -8  -2  12    0.34    0.36
  -8   2  12   -0.20    0.26
   8   2 -12   -0.12    0.29
  -7  -2  12    0.19    0.40
  -7  -2  12   -0.37    2.17
  -7  -2  12   -0.53    0.29
   7   2 -12   -0.11    0.32
  -7   2  12   -0.24    0.26
  -6  -2  12    7.24    0.68
  -6  -2  12   14.12    2.53
   6  -2 -12    7.97    0.77
  -6  -2  12    8.02    0.63
  -6   2  12    7.27    0.55
   6   2 -12    7.72    0.69
   5  -2 -12    1.31    0.50
  -5  -2  12    1.19    0.40
  -5  -2  12    0.60    1.90
   5  -2 -12    1.31    0.39
   5   2 -12    0.52    0.37
  -4  -2  12    0.11    0.32
   4  -2 -12    0.38    0.31
   4  -2 -12   -0.24    0.42
  -4  -2  12   -0.40    1.84
   4  -2 -12   -0.01    1.70
   4   2 -12    0.53    0.37
   3  -2 -12    0.75    0.32
  -3  -2  12    0.37    1.76
  -3  -2  12    0.46    0.32
   3  -2 -12    0.69    0.41
   3   2 -12    0.84    0.31
   3   2 -12    0.51    0.37
   2  -2 -12    0.97    0.31
  -2  -2  12    1.68    1.72
   2  -2 -12    1.24    0.27
  -2  -2  12    0.82    0.32
   2  -2 -12    1.12    0.42
   2   2 -12    1.21    0.40
  -2   2  12    0.61    0.25
   2   2 -12    0.47    0.28
  -2   2  12    0.87    0.18
   1  -2 -12    3.32    0.41
  -1  -2  12    1.48    1.56
  -1  -2  12    3.48    0.44
   1  -2 -12    3.03    0.35
   1  -2 -12    3.06    0.50
   1   2 -12    2.46    0.46
  -1   2  12    3.02    0.28
   1   2 -12    3.11    0.39
   0  -2 -12   -0.04    0.26
   0  -2 -12    0.21    0.23
   0  -2  12    0.51    1.57
   0  -2  12    0.23    0.30
   0  -2 -12    0.19    0.32
   0   2 -12   -0.10    0.33
   0   2 -12    0.14    0.25
   0   2  12    0.08    0.19
  -1  -2 -12    9.25    0.57
  -1  -2 -12    8.42    0.75
  -1  -2 -12    8.74    0.60
   1  -2  12   10.17    1.71
   1  -2  12    8.02    0.62
  -1   2 -12    8.61    0.73
   1   2  12    8.57    0.49
  -1   2 -12    8.47    0.54
  -1   2 -12    7.78    0.56
   2  -2  12    0.99    0.38
  -2  -2 -12    1.42    0.42
   2  -2  12    0.58    1.59
  -2  -2 -12    1.83    0.34
  -2  -2 -12    1.52    0.36
  -2   2 -12    0.99    0.32
  -2   2 -12    0.57    0.40
   2   2  12    1.67    0.30
  -3  -2 -12   18.46    0.96
   3  -2  12   18.69    0.97
  -3  -2 -12   18.41    0.88
  -3  -2 -12   18.46    1.14
  -3   2 -12   18.42    0.89
  -3   2 -12   17.27    1.10
   3   2  12   17.23    0.84
  -3   2 -12   16.99    0.77
  -4  -2 -12    4.61    0.49
  -4  -2 -12    5.24    0.57
   4  -2  12    4.64    0.58
  -4  -2 -12    6.23    0.70
  -4   2 -12    4.62    0.64
  -4   2 -12    5.82    0.53
  -5  -2 -12   10.58    0.99
   5  -2  12   10.97    0.80
  -5  -2 -12   10.71    0.80
  -5   2 -12   10.24    0.91
  -5   2 -12   13.17    0.75
  -6  -2 -12    0.09    0.48
  -6  -2 -12    0.00    0.32
  -6   2 -12    0.29    0.34
  -6   2 -12   -0.12    0.44
  -7  -2 -12    0.79    0.55
  -7   2 -12    1.81    0.41
  -7   2 -12    2.28    0.53
  -8  -2 -12   -0.29    0.54
  -8   2 -12    1.05    0.48
  -8   2 -12   -0.01    0.33
  -9  -2 -12   -0.47    0.58
  -9   2 -12   -0.04    0.34
 -10  -2 -12   -0.31    0.61
 -10   2 -12    0.39    0.38
 -11   2 -12    0.47    0.44
 -12   2 -12    0.70    0.47
 -13   3  12   -0.05    0.38
 -12   3  12    0.65    0.41
 -11   3  12    1.11    0.40
 -10   3  12   -0.14    0.30
   9   3 -12    0.04    0.34
  -9   3  12   -0.20    0.29
  -8  -3  12   -0.09    2.00
  -8   3  12    0.41    0.29
   8   3 -12    0.06    0.35
  -7  -3  12   -1.93    1.94
  -7  -3  12    0.30    0.42
   7   3 -12    0.19    0.33
  -7   3  12    0.68    0.28
   6  -3 -12    0.51    0.49
  -6  -3  12   -0.33    1.87
  -6  -3  12    1.09    0.43
  -6   3  12    1.19    0.30
   6   3 -12    0.73    0.41
  -5  -3  12    1.33    0.44
   5  -3 -12    1.87    0.52
  -5  -3  12    2.20    1.82
   5   3 -12    1.77    0.47
   4  -3 -12    7.44    0.70
  -4  -3  12    6.98    1.97
  -4  -3  12    7.30    0.64
   4   3 -12    6.10    0.67
   3  -3 -12    6.53    0.65
  -3  -3  12    4.81    1.80
  -3  -3  12    6.96    0.59
   3   3 -12    5.48    0.63
  -2  -3  12    2.64    1.55
   2  -3 -12    5.30    0.47
  -2  -3  12    4.75    0.52
   2  -3 -12    4.99    0.58
   2   3 -12    4.49    0.57
   1  -3 -12    0.09    0.32
  -1  -3  12   -0.77    1.33
  -1  -3  12    0.34    0.30
   1  -3 -12   -0.09    0.25
   1   3 -12   -0.19    0.34
   0  -3 -12    2.34    0.44
   0  -3  12    1.56    0.38
   0  -3  12   -0.33    1.21
   0  -3 -12    2.10    0.36
   0   3 -12    1.44    0.44
   1  -3  12    0.87    0.35
  -1  -3 -12    0.54    0.29
   1  -3  12    0.38    1.18
  -1  -3 -12    0.75    0.35
  -1   3 -12    0.26    0.41
   2  -3  12    0.35    0.34
  -2  -3 -12    0.30    0.34
   2  -3  12   -0.03    1.16
  -2  -3 -12   -0.44    0.26
  -2   3 -12    0.47    0.42
   2   3  12    0.26    0.20
  -2   3 -12   -0.24    0.29
  -2   3 -12   -0.01    0.16
   3  -3  12    0.83    0.39
  -3  -3 -12    0.29    0.33
  -3  -3 -12    0.41    0.36
   3  -3  12   -0.09    1.07
  -3   3 -12    1.40    0.35
  -3   3 -12    0.51    0.44
   4  -3  12    0.35    1.24
  -4  -3 -12    0.27    0.40
  -4  -3 -12    0.10    0.35
  -4   3 -12   -0.01    0.32
  -4   3 -12    0.01    0.45
  -5  -3 -12    2.96    0.57
  -5   3 -12    3.85    0.61
  -5   3 -12    3.16    0.48
  -6  -3 -12    1.65    0.42
  -6  -3 -12    1.00    0.49
  -6   3 -12    1.31    0.47
  -6   3 -12    1.04    0.39
  -7  -3 -12    0.70    0.51
  -7   3 -12    0.01    0.35
  -7   3 -12    1.05    0.44
  -8  -3 -12    0.32    0.53
  -8   3 -12    0.40    0.37
  -8   3 -12    0.52    0.45
  -9  -3 -12    0.04    0.54
  -9   3 -12    0.40    0.37
 -10  -3 -12   -0.81    0.57
 -10   3 -12   -0.31    0.35
 -11   3 -12    0.31    0.42
 -12   3 -12    0.01    0.47
 -12   4  12   -0.12    0.32
 -11   4  12   -0.21    0.31
 -10   4  12    0.53    0.31
  -9   4  12    0.47    0.28
   9   4 -12    0.10    0.40
  -8  -4  12   -1.64    1.96
  -8   4  12    0.65    0.29
   8   4 -12    0.98    0.43
  -7  -4  12   -0.61    1.89
   7   4 -12    0.55    0.40
  -7   4  12   -0.41    0.24
  -6  -4  12    5.54    2.15
  -6   4  12    7.51    0.51
   6   4 -12    7.31    0.75
  -5  -4  12    2.31    2.05
   5  -4 -12    1.87    0.48
   5   4 -12    1.71    0.49
  -5   4  12    2.44    0.33
   4  -4 -12    0.03    0.36
  -4  -4  12    0.32    1.90
   4   4 -12   -0.22    0.36
  -3  -4  12    3.84    1.84
   3  -4 -12    6.17    0.63
   3   4 -12    5.23    0.66
   2  -4 -12    6.13    0.63
  -2  -4  12    1.79    1.57
  -2  -4  12    5.68    0.56
   2   4 -12    4.81    0.65
   1  -4 -12    0.06    0.30
  -1  -4  12   -0.81    1.40
  -1  -4  12   -0.32    0.29
   1   4 -12    0.05    0.38
   0  -4 -12    0.66    0.35
   0  -4  12   -0.51    1.29
   0   4 -12   -0.06    0.40
  -1  -4 -12    0.44    0.34
  -1   4 -12   -0.01    0.39
   2  -4  12   -0.14    1.07
  -2  -4 -12    0.26    0.34
  -2   4 -12   -0.10    0.41
  -3  -4 -12    0.56    0.39
  -3   4 -12    0.16    0.44
  -3   4 -12    0.55    0.32
  -4  -4 -12    0.16    0.38
  -4   4 -12    0.28    0.34
  -4   4 -12    0.34    0.42
  -5  -4 -12    0.10    0.37
  -5   4 -12    0.38    0.35
  -5   4 -12    0.31    0.42
  -6  -4 -12    0.06    0.38
  -6   4 -12    0.97    0.45
  -6   4 -12    0.91    0.38
  -7  -4 -12    0.22    0.42
  -7   4 -12    0.33    0.41
  -7   4 -12    0.15    0.35
  -8  -4 -12   -0.05    0.43
  -8   4 -12    0.06    0.36
  -9  -4 -12   -0.49    0.44
  -9   4 -12    0.07    0.38
 -10  -4 -12   -0.18    0.58
 -10   4 -12   -0.21    0.40
 -11   4 -12    0.46    0.48
 -11   5  12    0.34    0.31
 -10   5  12    0.55    0.29
   9   5 -12   -0.30    0.40
   8   5 -12    0.08    0.42
   7   5 -12   -0.32    0.36
   6   5 -12    0.16    0.41
   5  -5 -12   -0.49    0.30
   5   5 -12    0.00    0.35
  -4  -5  12    4.51    2.15
   4  -5 -12    1.11    0.39
   4   5 -12    1.59    0.49
  -3  -5  12   -0.46    1.85
   3  -5 -12    0.12    0.31
   3   5 -12    0.22    0.37
  -2  -5  12    0.12    1.74
   2  -5 -12    0.14    0.31
   2   5 -12   -0.13    0.36
   1  -5 -12    0.54    0.34
   1   5 -12    0.36    0.40
   0  -5 -12    0.19    0.31
   0   5 -12    0.09    0.37
  -1  -5 -12   -0.06    0.30
  -1   5 -12    0.08    0.39
  -2  -5 -12    4.77    0.63
  -2   5 -12    6.25    0.74
  -3  -5 -12    0.00    0.33
  -3   5 -12   -0.82    0.35
  -4  -5 -12   -0.13    0.31
  -4   5 -12    0.59    0.44
  -5  -5 -12    0.09    0.34
  -5   5 -12   -0.01    0.42
  -6  -5 -12   -0.21    0.37
  -6   5 -12    0.12    0.32
  -6   5 -12    0.01    0.41
  -7  -5 -12    0.92    0.51
  -7   5 -12    1.04    0.47
  -7   5 -12    0.34    0.36
  -8  -5 -12   -0.61    0.41
  -8   5 -12    0.08    0.33
  -9  -5 -12   -0.04    0.52
  -9   5 -12   -0.15    0.36
 -10  -5 -12   -0.95    0.50
 -10   5 -12    0.11    0.40
  10   6 -12   -0.23    0.53
   9   6 -12    0.29    0.50
   8   6 -12    1.04    0.55
   7   6 -12    0.80    0.52
   6   6 -12    0.20    0.46
   5  -6 -12   -0.55    0.32
   5   6 -12    0.13    0.42
   4  -6 -12   -0.27    0.32
   4   6 -12    0.15    0.42
   3  -6 -12    0.24    0.32
   3   6 -12    0.35    0.42
   2  -6 -12   -0.02    0.30
   2   6 -12    0.70    0.46
   1  -6 -12   -0.21    0.30
   1   6 -12   -0.03    0.38
   0  -6 -12    0.46    0.36
   0   6 -12    0.05    0.37
  -1  -6 -12    0.62    0.37
  -1   6 -12    1.23    0.46
  -2  -6 -12    0.13    0.35
  -2   6 -12    0.04    0.40
  -3  -6 -12    0.30    0.38
  -3   6 -12    0.39    0.44
  -4  -6 -12    0.29    0.39
  -4   6 -12    0.62    0.48
  -5  -6 -12    0.71    0.44
  -5   6 -12    0.30    0.45
  -6  -6 -12    0.08    0.41
  -6   6 -12    0.85    0.49
  -7  -6 -12   -0.01    0.45
  -8  -6 -12   -0.11    0.48
   8   7 -12   -0.03    0.52
   7   7 -12    0.37    0.53
   6   7 -12   -0.07    0.50
   5   7 -12    0.44    0.48
   4  -7 -12   -0.48    0.31
   4   7 -12    0.38    0.48
   3  -7 -12   -0.30    0.32
   3   7 -12    0.38    0.46
   2  -7 -12   -0.39    0.30
   2   7 -12    0.69    0.47
   1  -7 -12    0.02    0.36
   1   7 -12    0.39    0.44
   0  -7 -12   -0.27    0.32
   0   7 -12    0.34    0.43
  -1  -7 -12   -0.46    0.33
  -1   7 -12    0.39    0.46
  -2  -7 -12   -0.06    0.37
  -2   7 -12   -0.40    0.41
  -3  -7 -12   -0.07    0.43
  -3   7 -12    0.79    0.50
  -4  -7 -12   -0.13    0.35
  -4   7 -12    0.66    0.52
  -5  -7 -12    0.30    0.47
  -5   7 -12    0.51    0.51
  -6  -7 -12   -0.29    0.46
  -6   7 -12    0.03    0.50
   5   8 -12    0.48    0.64
   4   8 -12   -0.20    0.56
   3  -8 -12    0.08    0.40
   3   8 -12    0.80    0.62
   2  -8 -12   -0.33    0.38
   2   8 -12    0.12    0.51
   1  -8 -12   -0.11    0.38
   1   8 -12    0.54    0.56
   0  -8 -12    0.06    0.44
   0   8 -12    0.16    0.52
  -1  -8 -12   -0.20    0.39
  -1   8 -12    0.34    0.55
  -2  -8 -12   -0.33    0.41
  -2   8 -12   -0.19    0.50
  -3  -8 -12   -0.21    0.43
  -3   8 -12    0.08    0.54
 -14   0  13    0.22    0.49
 -13   0  13    0.60    0.49
 -12   0  13   -0.17    0.40
 -11   0  13    4.59    0.61
 -10   0  13    0.03    0.36
  -9   0  13    0.37    0.34
  -8   0  13   -0.52    0.29
   7   0 -13   12.10    0.81
  -7   0  13   11.98    0.77
   7   0 -13   12.04    0.84
   6   0 -13   -0.36    0.35
   6   0 -13   -0.47    0.35
   5   0 -13   23.13    1.25
  -5   0  13   25.38    1.18
   5   0 -13   25.33    1.17
   4   0 -13   -0.09    0.38
  -4   0  13   -0.30    0.30
   4   0 -13   -0.10    0.31
   3   0 -13   18.71    1.11
   3   0 -13   19.04    0.96
  -3   0  13   18.78    0.96
   2   0 -13   -0.14    0.28
  -2   0  13   -0.14    0.27
   2   0 -13    0.40    0.38
   1   0 -13   16.00    1.05
  -1   0  13   17.92    0.89
   1   0 -13   17.07    0.83
   1   0 -13   19.42    0.93
   0   0 -13    0.20    0.30
   0   0 -13    0.32    0.41
   0   0 -13    0.26    0.23
   0   0  13    0.06    0.29
  -1   0 -13    0.58    0.27
  -1   0 -13    0.63    0.42
  -1   0 -13    0.42    0.32
   1   0  13    0.49    0.32
  -2   0 -13    0.19    0.24
  -2   0 -13   -0.21    0.29
   2   0  13    0.03    0.31
  -2   0 -13    0.39    0.44
  -3   0 -13    3.42    0.43
  -3   0 -13    3.58    0.65
   3   0  13    3.24    0.48
  -3   0 -13    3.53    0.49
   4   0  13    0.03    0.34
  -4   0 -13   -0.04    0.26
  -4   0 -13   -0.77    0.48
  -5   0 -13    1.63    0.38
   5   0  13    2.26    0.48
  -5   0 -13    1.83    0.64
  -6   0 -13    0.23    0.33
   6   0  13    0.47    0.41
  -6   0 -13    0.13    0.58
  -7   0 -13    0.41    0.33
   7   0  13    0.13    0.37
  -7   0 -13    0.51    0.57
  -8   0 -13    0.76    0.60
  -8   0 -13   -0.18    0.31
  -9   0 -13    0.56    0.40
  -9   0 -13   -0.27    0.58
 -10   0 -13   -0.03    0.37
 -11   0 -13    0.25    0.41
 -12   0 -13    0.05    0.47
 -14   1  13   -0.26    0.46
 -13  -1  13    0.71    0.52
 -13   1  13   -0.10    0.42
 -12  -1  13    0.11    0.43
 -12   1  13    0.38    0.42
 -11  -1  13    0.42    0.43
 -11   1  13   -0.24    0.35
 -10  -1  13    0.68    0.41
 -10   1  13   -0.35    0.33
  -9  -1  13    3.85    0.56
  -9   1  13    4.94    0.55
  -8  -1  13    1.77    0.45
   8   1 -13    0.82    0.36
  -8   1  13    0.87    0.37
   7  -1 -13    0.13    0.40
  -7  -1  13   -0.08    0.32
  -7   1  13   -0.31    0.29
   7   1 -13    0.25    0.34
  -6  -1  13    9.89    2.76
   6  -1 -13    4.90    0.62
   6  -1 -13    6.13    0.61
  -6  -1  13    5.39    0.61
   6   1 -13    4.78    0.56
   6   1 -13    5.38    0.59
  -5  -1  13    2.52    2.37
   5  -1 -13   -0.18    0.41
   5  -1 -13   -0.21    0.33
  -5  -1  13   -0.10    0.33
   5   1 -13   -0.22    0.34
   5   1 -13   -0.16    0.34
   4  -1 -13    1.19    0.49
  -4  -1  13    2.68    2.30
   4  -1 -13    2.18    0.41
  -4  -1  13    2.22    0.42
   4   1 -13    2.64    0.50
  -4   1  13    2.22    0.37
   4   1 -13    2.32    0.44
  -3  -1  13    2.18    2.18
  -3  -1  13    2.39    0.42
   3  -1 -13    1.87    0.40
   3  -1 -13    2.52    0.54
   3   1 -13    1.81    0.40
  -3   1  13    2.62    0.37
   3   1 -13    2.27    0.48
  -2  -1  13    6.56    0.58
  -2  -1  13   11.37    2.42
   2  -1 -13    7.47    0.74
   2  -1 -13    5.97    0.47
   2  -1 -13    7.29    0.59
   2   1 -13    6.48    0.67
  -2   1  13    6.47    0.51
   2   1 -13    6.53    0.56
  -1  -1  13   20.49    2.27
   1  -1 -13   16.84    0.84
  -1  -1  13   18.51    0.95
   1  -1 -13   18.19    0.92
   1  -1 -13   18.11    1.13
  -1   1  13   18.26    0.86
   1   1 -13   19.56    0.92
   1   1 -13   17.20    1.07
   0  -1 -13    0.50    0.26
   0  -1 -13    0.65    0.44
   0  -1 -13    0.37    0.31
   0  -1  13    0.14    0.32
   0   1 -13   -0.22    0.29
   0   1  13    0.02    0.27
   0   1 -13    0.49    0.27
   0   1 -13    0.27    0.38
  -1  -1 -13    0.69    0.33
  -1  -1 -13    0.39    0.25
  -1  -1 -13    0.49    0.44
   1  -1  13    0.62    0.34
  -1   1 -13    0.60    0.27
  -1   1 -13    0.18    0.38
   1   1  13    0.55    0.29
  -1   1 -13    0.64    0.32
  -2  -1 -13    9.09    0.60
   2  -1  13    9.74    0.69
  -2  -1 -13    9.48    0.87
  -2  -1 -13    9.66    0.69
  -2   1 -13    9.45    0.62
   2   1  13    9.40    0.61
  -2   1 -13    8.99    0.67
  -2   1 -13   10.37    0.84
  -3  -1 -13    2.45    0.38
  -3  -1 -13    3.24    0.62
  -3  -1 -13    1.62    0.44
   3  -1  13    1.79    0.44
  -3   1 -13    2.32    0.39
  -3   1 -13    2.19    0.55
   3   1  13    1.85    0.38
   4  -1  13    0.01    0.37
  -4  -1 -13    0.59    0.31
  -4  -1 -13    0.28    0.39
  -4  -1 -13    0.18    0.49
  -4   1 -13    0.60    0.33
  -4   1 -13    0.29    0.48
   4   1  13    0.51    0.33
   5  -1  13   -0.43    0.34
  -5  -1 -13   -0.44    0.29
  -5  -1 -13   -0.35    0.53
  -5   1 -13    0.00    0.32
  -5   1 -13   -0.02    0.49
   5   1  13    0.54    0.37
  -6  -1 -13    0.86    0.62
   6  -1  13   -0.21    0.38
  -6  -1 -13    0.22    0.32
  -6   1 -13   -0.03    0.53
  -6   1 -13    0.23    0.32
  -7  -1 -13   -0.39    0.57
  -7  -1 -13    0.64    0.36
  -7   1 -13    0.39    0.53
  -7   1 -13    0.27    0.32
  -8  -1 -13   -0.13    0.33
  -8  -1 -13   -0.26    0.57
  -8   1 -13   -0.77    0.43
  -8   1 -13   -0.10    0.31
  -9  -1 -13   -0.59    0.60
  -9   1 -13    0.73    0.56
  -9   1 -13    0.24    0.35
 -10   1 -13    0.10    0.38
 -11   1 -13   -0.11    0.41
 -12   1 -13    0.20    0.44
 -13   2  13    0.19    0.44
 -12   2  13   -0.39    0.36
 -11   2  13    0.18    0.35
 -10   2  13    0.04    0.32
  -9  -2  13    1.06    0.45
  -9   2  13    1.08    0.40
  -8  -2  13   -0.34    0.33
   8   2 -13    0.33    0.32
  -8   2  13    0.13    0.29
  -7  -2  13   -0.10    0.33
  -7  -2  13   -0.98    2.30
  -7   2  13    0.10    0.28
   7   2 -13    0.35    0.36
  -6  -2  13    5.87    2.51
   6  -2 -13    2.85    0.58
  -6  -2  13    3.43    0.55
  -6  -2  13    2.98    0.48
   6   2 -13    3.61    0.54
  -5  -2  13    0.22    0.38
  -5  -2  13   -0.82    2.09
   5  -2 -13    0.61    0.50
   5   2 -13   -0.07    0.36
   4  -2 -13    8.45    0.84
   4  -2 -13    8.00    0.65
  -4  -2  13    9.14    0.68
  -4  -2  13   12.24    2.51
   4   2 -13    8.16    0.76
   3  -2 -13    4.38    0.64
  -3  -2  13    6.94    2.11
   3  -2 -13    5.13    0.52
  -3  -2  13    3.91    0.50
   3   2 -13    3.39    0.55
   2  -2 -13   19.05    1.15
  -2  -2  13   20.75    2.26
  -2  -2  13   17.11    0.94
   2  -2 -13   18.73    0.94
   2   2 -13   17.76    1.08
   1  -2 -13    1.03    0.34
  -1  -2  13    1.28    1.72
  -1  -2  13    1.64    0.38
   1  -2 -13    1.16    0.46
  -1   2  13    1.48    0.25
   1   2 -13    1.01    0.42
   0  -2  13    6.25    0.58
   0  -2 -13    6.81    0.58
   0  -2  13    2.63    1.69
   0  -2 -13    6.56    0.70
   0   2 -13    5.37    0.63
   1  -2  13    4.20    0.52
  -1  -2 -13    4.27    0.61
   1  -2  13    2.39    1.68
  -1  -2 -13    4.74    0.52
   1   2  13    4.34    0.39
  -1   2 -13    3.17    0.56
  -1   2 -13    3.89    0.45
   2  -2  13    1.02    0.39
  -2  -2 -13    2.06    0.42
  -2  -2 -13    1.68    0.48
  -2   2 -13    1.00    0.33
  -2   2 -13    0.65    0.44
   2   2  13    1.69    0.31
  -3  -2 -13    0.09    0.32
  -3  -2 -13    0.29    0.44
   3  -2  13   -0.17    0.35
  -3   2 -13    0.38    0.32
  -3   2 -13    0.14    0.43
  -4  -2 -13    6.16    0.63
   4  -2  13    5.76    0.64
  -4  -2 -13    4.66    0.72
  -4   2 -13    5.64    0.71
  -4   2 -13    6.11    0.57
  -5  -2 -13   -0.61    0.46
  -5  -2 -13    0.15    0.38
   5  -2  13    0.33    0.40
  -5   2 -13    0.83    0.36
  -5   2 -13   -0.22    0.46
  -6  -2 -13    0.02    0.32
  -6  -2 -13    0.26    0.54
  -6   2 -13    0.39    0.35
  -6   2 -13    0.20    0.47
  -7  -2 -13   -0.27    0.51
  -7   2 -13    0.38    0.45
  -7   2 -13    0.44    0.35
  -8  -2 -13   -0.09    0.56
  -8   2 -13    0.09    0.44
  -8   2 -13    0.13    0.33
  -9  -2 -13   -0.05    0.61
  -9   2 -13    0.22    0.37
 -10  -2 -13   -0.22    0.68
 -10   2 -13    0.54    0.41
 -11   2 -13   -0.18    0.40
 -12   2 -13   -0.17    0.46
 -13   3  13    0.26    0.42
 -12   3  13    0.35    0.39
 -11   3  13    0.70    0.41
 -10   3  13    1.92    0.43
   9   3 -13    0.62    0.40
  -9   3  13    0.03    0.30
  -8   3  13    0.33    0.30
   8   3 -13    0.09    0.36
  -7  -3  13    3.45    2.07
  -7  -3  13    3.99    0.59
  -7   3  13    4.46    0.45
   7   3 -13    4.10    0.57
   6  -3 -13    1.03    0.55
  -6  -3  13    0.87    0.44
  -6  -3  13    0.83    2.10
   6   3 -13    0.51    0.40
  -6   3  13    0.84    0.30
  -5  -3  13    4.94    2.04
   5  -3 -13    5.98    0.72
  -5  -3  13    6.05    0.65
   5   3 -13    6.16    0.68
  -4  -3  13   25.57    2.48
  -4  -3  13   19.17    1.06
   4  -3 -13   20.27    1.20
   4   3 -13   17.89    1.18
  -3  -3  13    2.44    1.80
   3  -3 -13    1.77    0.49
  -3  -3  13    2.30    0.46
   3   3 -13    2.53    0.52
   2  -3 -13   -0.02    0.38
  -2  -3  13   -0.17    0.31
  -2  -3  13   -0.07    1.67
   2   3 -13   -0.19    0.34
  -1  -3  13   -0.71    1.45
   1  -3 -13    0.83    0.41
  -1  -3  13    0.25    0.34
   1   3 -13    0.64    0.40
   0  -3 -13    6.81    0.69
   0  -3  13    6.99    0.61
   0  -3  13    3.70    1.52
   0   3 -13    6.76    0.69
   1  -3  13    2.32    0.47
  -1  -3 -13    2.08    0.47
   1   3  13    2.22    0.23
  -1   3 -13    1.95    0.54
   2  -3  13    0.11    1.23
   2  -3  13    0.35    0.39
  -2  -3 -13    0.13    0.36
  -2   3 -13   -0.42    0.41
  -2   3 -13   -0.32    0.32
  -3  -3 -13    7.80    0.80
  -3   3 -13    7.82    0.81
  -3   3 -13    8.52    0.64
  -4  -3 -13    0.44    0.42
  -4   3 -13    0.61    0.37
  -4   3 -13   -0.09    0.44
  -5  -3 -13    1.95    0.56
  -5   3 -13    1.10    0.50
  -5   3 -13    1.44    0.40
  -6  -3 -13    2.21    0.59
  -6   3 -13    1.64    0.43
  -6   3 -13    1.94    0.53
  -7  -3 -13    0.53    0.51
  -7   3 -13    0.03    0.41
  -7   3 -13   -0.09    0.36
  -8  -3 -13    0.45    0.57
  -8   3 -13    0.11    0.36
  -8   3 -13    0.64    0.43
  -9  -3 -13    0.01    0.59
  -9   3 -13    0.17    0.38
 -10  -3 -13   -0.26    0.64
 -10   3 -13    0.00    0.39
 -11   3 -13   -0.28    0.41
 -12   4  13   -0.49    0.32
 -11   4  13    0.62    0.35
 -10   4  13    0.18    0.32
  -9   4  13    1.01    0.34
   9   4 -13    1.55    0.50
  -8  -4  13   -1.88    2.16
   8   4 -13   -0.36    0.35
  -8   4  13    0.04    0.27
  -7  -4  13    0.08    2.04
  -7   4  13    0.63    0.28
   7   4 -13    0.13    0.40
  -6  -4  13    0.43    1.95
  -6   4  13    0.12    0.23
   6   4 -13    0.90    0.44
  -5  -4  13    2.94    2.05
   5  -4 -13    2.18    0.51
   5   4 -13    2.66    0.53
   4  -4 -13    0.22    0.40
  -4  -4  13   -0.49    1.94
   4   4 -13    0.17    0.38
  -3  -4  13    3.41    2.02
   3  -4 -13    3.92    0.58
   3   4 -13    3.60    0.61
  -2  -4  13    2.66    1.75
   2  -4 -13    5.65    0.63
   2   4 -13    4.37    0.64
  -1  -4  13   -0.49    1.44
   1  -4 -13    0.14    0.34
   1   4 -13    0.51    0.42
   0  -4 -13    1.58    0.44
   0  -4  13   -0.28    1.24
   0   4 -13    1.12    0.49
  -1  -4 -13    0.64    0.38
   1  -4  13    0.24    1.22
  -1   4 -13    0.66    0.45
  -2  -4 -13    2.39    0.51
   2  -4  13    0.22    1.07
  -2   4 -13    3.58    0.57
   3  -4  13   -0.08    0.99
  -3  -4 -13    0.00    0.36
  -3   4 -13    0.02    0.39
   4  -4  13    0.34    0.94
  -4  -4 -13    2.38    0.53
  -4   4 -13    2.75    0.56
  -4   4 -13    2.89    0.46
  -5  -4 -13    0.76    0.45
  -5   4 -13    1.29    0.40
  -5   4 -13    1.46    0.50
  -6  -4 -13    0.19    0.41
  -6   4 -13    0.41    0.36
  -6   4 -13    0.74    0.46
  -7  -4 -13    1.12    0.52
  -7   4 -13    0.23    0.39
  -7   4 -13    0.83    0.46
  -8  -4 -13   -0.41    0.42
  -8   4 -13    0.43    0.40
  -9  -4 -13   -0.14    0.57
  -9   4 -13    0.22    0.42
 -10  -4 -13   -0.90    0.54
 -10   4 -13   -0.25    0.42
 -11   4 -13    0.50    0.51
 -11   5  13    0.70    0.33
 -10   5  13    0.17    0.29
   9   5 -13    0.31    0.47
   8   5 -13    0.79    0.49
  -7   5  13   -0.20    0.25
   7   5 -13    0.40    0.42
  -6   5  13    0.11    0.24
   6   5 -13    0.11    0.41
   5  -5 -13   -0.30    0.35
   5   5 -13    0.31    0.42
  -5   5  13    0.34    0.24
   4  -5 -13   -0.34    0.34
   4   5 -13    0.21    0.39
   3  -5 -13   -0.20    0.32
  -3  -5  13    0.61    1.75
   3   5 -13    0.53    0.42
  -2  -5  13   -0.33    1.55
   2  -5 -13   -0.19    0.31
   2   5 -13   -0.33    0.35
   1  -5 -13    1.04    0.40
  -1  -5  13    0.76    1.44
   1   5 -13    0.53    0.44
   0  -5 -13    0.07    0.34
   0  -5  13   -1.16    1.29
   0   5 -13   -0.11    0.36
  -1  -5 -13    0.56    0.38
  -1   5 -13    0.88    0.46
  -2  -5 -13    1.15    0.44
  -2   5 -13    1.14    0.50
  -3  -5 -13    0.59    0.39
  -3   5 -13    0.63    0.44
  -4  -5 -13    0.34    0.37
  -4   5 -13    0.72    0.47
  -5  -5 -13   -0.35    0.36
  -5   5 -13    0.75    0.48
  -6  -5 -13   -0.57    0.34
  -6   5 -13    0.93    0.48
  -6   5 -13   -0.02    0.32
  -7  -5 -13   -0.45    0.40
  -7   5 -13    0.59    0.47
  -7   5 -13    0.12    0.35
  -8  -5 -13   -0.05    0.45
  -8   5 -13   -0.10    0.36
  -9  -5 -13   -1.07    0.46
  -9   5 -13   -0.44    0.38
 -10   5 -13    0.03    0.44
   9   6 -13    0.06    0.52
   8   6 -13    0.87    0.53
   7   6 -13    0.46    0.52
   6   6 -13    0.41    0.45
   5   6 -13   -0.30    0.38
   4  -6 -13    0.85    0.42
   4   6 -13    0.99    0.51
   3  -6 -13   -0.29    0.31
   3   6 -13    0.00    0.40
   2  -6 -13    0.43    0.37
   2   6 -13    0.38    0.45
   1  -6 -13   -0.21    0.31
   1   6 -13   -0.11    0.39
   0  -6 -13    1.07    0.43
   0   6 -13    1.12    0.49
  -1  -6 -13   -0.13    0.33
  -1   6 -13   -0.06    0.41
  -2  -6 -13   -0.31    0.33
  -2   6 -13    0.48    0.46
  -3  -6 -13    0.05    0.37
  -3   6 -13    0.07    0.45
  -4  -6 -13    0.11    0.39
  -4   6 -13    0.73    0.50
  -5  -6 -13    0.32    0.42
  -5   6 -13    0.09    0.44
  -6  -6 -13   -0.08    0.42
  -6   6 -13    0.89    0.51
  -7  -6 -13   -0.11    0.44
  -8  -6 -13   -0.29    0.50
   7   7 -13    0.12    0.55
   6   7 -13    0.87    0.56
   5   7 -13    0.58    0.52
   4  -7 -13   -0.53    0.36
   4   7 -13    0.08    0.49
   3  -7 -13   -0.24    0.36
   3   7 -13    0.07    0.47
   2  -7 -13    0.01    0.36
   2   7 -13    0.15    0.42
   1  -7 -13   -0.02    0.35
   1   7 -13    0.47    0.46
   0  -7 -13    0.00    0.38
   0   7 -13   -0.05    0.41
  -1  -7 -13    0.33    0.41
  -1   7 -13   -0.10    0.43
  -2  -7 -13   -0.18    0.38
  -2   7 -13    0.45    0.48
  -3  -7 -13    0.01    0.43
  -3   7 -13   -0.05    0.46
  -4  -7 -13   -0.14    0.40
  -4   7 -13    0.43    0.51
  -5  -7 -13    0.23    0.45
  -5   7 -13    0.51    0.49
  -6  -7 -13    0.00    0.47
  -6   7 -13    0.49    0.57
   4   8 -13    0.44    0.55
   3  -8 -13   -0.22    0.41
   3   8 -13    0.60    0.58
   2  -8 -13   -0.37    0.37
   2   8 -13   -0.04    0.52
   1  -8 -13   -0.26    0.40
   1   8 -13   -0.45    0.49
   0  -8 -13    0.25    0.46
   0   8 -13    0.38    0.53
  -1  -8 -13    0.02    0.46
  -1   8 -13    0.08    0.52
  -2  -8 -13   -0.13    0.46
  -2   8 -13   -0.36    0.49
 -13   0  14    0.53    0.49
 -12   0  14   -0.23    0.44
 -11   0  14   -0.20    0.39
 -10   0  14    0.03    0.35
  -9   0  14   -0.50    0.29
  -8   0  14    1.78    0.43
  -7   0  14   -0.05    0.32
   7   0 -14   -0.81    0.34
   7   0 -14   -0.36    0.35
   6   0 -14    5.52    0.61
   6   0 -14    4.70    0.60
   5   0 -14   -0.08    0.40
   5   0 -14   -0.05    0.36
  -4   0  14    0.15    0.36
   4   0 -14   -0.30    0.35
   4   0 -14   -0.21    0.42
   3   0 -14   -0.61    0.29
  -3   0  14   -0.21    0.31
   3   0 -14   -0.31    0.43
   2   0 -14   -0.69    0.30
   2   0 -14    0.29    0.43
  -2   0  14   -0.45    0.29
   1   0 -14   -0.28    0.30
  -1   0  14   -0.46    0.29
   1   0 -14   -0.25    0.22
   1   0 -14    0.36    0.44
   0   0 -14    3.20    0.58
   0   0 -14    2.62    0.39
   0   0 -14    3.22    0.47
   0   0  14    3.33    0.45
  -1   0 -14   -0.20    0.42
  -1   0 -14   -0.31    0.23
  -1   0 -14   -0.59    0.30
   1   0  14   -0.41    0.30
  -2   0 -14    0.73    0.30
   2   0  14    0.29    0.35
  -2   0 -14   -0.30    0.44
  -2   0 -14    0.69    0.37
  -3   0 -14   -0.51    0.47
   3   0  14    0.27    0.36
  -3   0 -14    0.24    0.29
  -4   0 -14    0.40    0.57
  -4   0 -14   -0.10    0.30
   4   0  14    0.53    0.38
  -5   0 -14    0.16    0.57
   5   0  14   -0.37    0.37
  -5   0 -14    0.39    0.34
  -6   0 -14    0.06    0.56
  -6   0 -14    0.59    0.34
   6   0  14   -0.33    0.36
  -7   0 -14    0.33    0.33
  -7   0 -14    0.03    0.54
  -8   0 -14   -0.75    0.53
  -8   0 -14    0.34    0.33
  -9   0 -14   -0.67    0.56
  -9   0 -14   -0.18    0.36
 -10   0 -14   -0.17    0.37
 -11   0 -14    0.35    0.46
 -13  -1  14    0.69    0.53
 -13   1  14    0.26    0.44
 -12  -1  14    0.69    0.48
 -12   1  14    0.37    0.44
 -11  -1  14    0.45    0.43
 -11   1  14    0.14    0.37
 -10  -1  14    0.00    0.38
 -10   1  14    0.33    0.37
  -9  -1  14    2.18    0.48
  -9   1  14    2.12    0.44
  -8  -1  14    2.14    0.45
   8   1 -14    2.34    0.43
  -8   1  14    3.05    0.45
   7  -1 -14    1.29    0.47
  -7  -1  14    1.90    0.45
   7   1 -14    1.85    0.42
  -7   1  14    1.27    0.39
   6  -1 -14    2.28    0.54
   6   1 -14    2.33    0.49
   5  -1 -14    1.46    0.44
   5  -1 -14    2.81    0.57
  -5  -1  14    1.84    0.47
  -5  -1  14    2.26    2.57
   5   1 -14    2.42    0.48
   5   1 -14    1.56    0.46
  -4  -1  14    1.48    2.49
  -4  -1  14    0.34    0.37
   4  -1 -14    0.33    0.37
   4  -1 -14   -0.06    0.46
   4   1 -14   -0.42    0.34
   4   1 -14    0.56    0.42
  -3  -1  14   18.14    2.32
  -3  -1  14   16.44    0.93
   3  -1 -14   17.31    0.92
   3  -1 -14   15.57    1.10
   3   1 -14   15.13    1.02
   3   1 -14   16.55    0.91
  -3   1  14   15.94    0.83
   2  -1 -14    4.17    0.67
   2  -1 -14    3.23    0.47
   2  -1 -14    3.75    0.41
  -2  -1  14    2.96    0.49
  -2  -1  14    5.89    2.63
   2   1 -14    2.78    0.46
  -2   1  14    3.12    0.42
   2   1 -14    2.61    0.55
   1  -1 -14    4.26    0.44
   1  -1 -14    4.46    0.52
  -1  -1  14    3.81    0.52
   1  -1 -14    3.88    0.65
   1   1 -14    3.94    0.59
   1   1 -14    4.98    0.51
  -1   1  14    3.37    0.43
   0  -1  14   -0.10    0.33
   0  -1 -14    0.02    0.25
   0  -1 -14    0.06    0.32
   0  -1 -14    0.56    0.49
   0   1 -14    0.18    0.27
   0   1 -14    0.46    0.43
   0   1 -14    0.21    0.33
   0   1  14    0.51    0.31
  -1  -1 -14   11.64    1.00
   1  -1  14   10.72    0.76
  -1  -1 -14   12.01    0.77
  -1  -1 -14   11.02    0.68
   1   1  14   11.93    0.71
  -1   1 -14   12.22    0.71
  -1   1 -14   12.06    0.94
  -2  -1 -14    3.27    0.45
   2  -1  14    4.04    0.54
  -2  -1 -14    4.19    0.69
  -2  -1 -14    5.09    0.55
  -2   1 -14    3.98    0.47
   2   1  14    3.76    0.46
  -2   1 -14    3.24    0.61
   3  -1  14    3.01    0.52
  -3  -1 -14    1.92    0.40
  -3  -1 -14    2.98    0.50
  -3  -1 -14    2.08    0.63
  -3   1 -14    2.99    0.44
   3   1  14    2.75    0.44
  -3   1 -14    2.98    0.61
   4  -1  14    3.18    0.53
  -4  -1 -14    3.35    0.46
  -4  -1 -14    3.61    0.73
  -4   1 -14    2.91    0.64
  -4   1 -14    3.23    0.47
   4   1  14    3.21    0.49
  -5  -1 -14    1.09    0.38
   5  -1  14   -0.40    0.38
  -5  -1 -14    1.59    0.65
  -5   1 -14    0.39    0.35
  -5   1 -14    0.58    0.54
  -6  -1 -14    1.34    0.66
  -6  -1 -14    1.92    0.42
   6  -1  14    2.27    0.50
  -6   1 -14    1.27    0.58
  -6   1 -14    1.46    0.41
  -7  -1 -14    0.20    0.60
  -7  -1 -14    0.41    0.35
  -7   1 -14   -0.35    0.48
  -7   1 -14    0.19    0.34
  -8  -1 -14   -0.07    0.61
  -8   1 -14   -0.56    0.51
  -8   1 -14   -0.40    0.32
  -9  -1 -14   -0.16    0.67
  -9   1 -14   -0.57    0.35
  -9   1 -14   -0.90    0.50
 -10   1 -14    0.22    0.40
 -11   1 -14   -0.08    0.43
 -12   1 -14   -0.24    0.45
 -13   2  14    0.23    0.47
 -12   2  14   -0.11    0.36
 -11   2  14    0.82    0.41
 -10   2  14    0.45    0.37
  -9   2  14    1.73    0.41
  -8  -2  14    0.85    0.44
   8   2 -14    1.08    0.38
  -8   2  14    0.98    0.36
  -7  -2  14    0.14    0.36
  -7   2  14    0.61    0.32
   7   2 -14    1.27    0.42
   6  -2 -14    4.52    0.68
  -6  -2  14    4.74    0.61
  -6  -2  14    7.05    2.67
   6   2 -14    4.17    0.59
  -5  -2  14   -0.11    0.37
  -5  -2  14    0.89    2.20
   5  -2 -14   -0.16    0.52
   5   2 -14    0.43    0.43
  -4  -2  14   -0.11    2.09
   4  -2 -14    0.48    0.52
  -4  -2  14    0.52    0.39
   4   2 -14    0.98    0.45
  -3  -2  14    2.12    0.46
   3  -2 -14    2.24    0.59
  -3  -2  14    1.86    2.12
   3  -2 -14    2.01    0.44
   3   2 -14    2.51    0.53
  -3   2  14    2.72    0.27
   2  -2 -14    0.34    0.34
  -2  -2  14    0.27    2.00
   2  -2 -14    0.26    0.49
  -2  -2  14    1.10    0.38
  -2   2  14    0.61    0.22
   2   2 -14    0.74    0.42
   1  -2 -14    4.31    0.51
  -1  -2  14    3.29    2.04
   1  -2 -14    4.52    0.65
  -1  -2  14    3.86    0.52
  -1   2  14    4.13    0.38
   1   2 -14    3.84    0.58
   0  -2  14    2.84    1.90
   0  -2 -14    4.12    0.64
   0  -2 -14    2.45    0.46
   0  -2  14    3.53    0.51
   0   2 -14    2.35    0.52
   0   2  14    3.61    0.37
  -1  -2 -14    0.44    0.35
   1  -2  14    0.73    0.41
   1  -2  14    0.25    1.97
  -1  -2 -14    1.19    0.48
  -1   2 -14    0.15    0.31
  -1   2 -14   -0.19    0.40
  -2  -2 -14    3.41    0.50
  -2  -2 -14    2.65    0.59
   2  -2  14    3.45    0.53
  -2   2 -14    3.49    0.45
  -2   2 -14    2.92    0.59
  -3  -2 -14    5.39    0.62
  -3  -2 -14    4.38    0.70
   3  -2  14    5.93    0.63
  -3   2 -14    3.22    0.64
  -3   2 -14    4.81    0.53
  -4  -2 -14   -0.04    0.37
   4  -2  14    0.34    0.42
  -4  -2 -14   -0.19    0.48
  -4   2 -14   -0.25    0.45
  -4   2 -14   -0.32    0.31
  -5  -2 -14   -0.29    0.48
  -5   2 -14   -0.37    0.30
  -5   2 -14   -0.26    0.45
  -6  -2 -14    0.09    0.33
  -6  -2 -14   -0.57    0.48
  -6   2 -14   -0.20    0.31
  -6   2 -14   -0.47    0.41
  -7  -2 -14    0.42    0.58
  -7   2 -14    0.22    0.35
  -7   2 -14    0.09    0.46
  -8  -2 -14   -0.59    0.59
  -8   2 -14   -0.18    0.34
  -8   2 -14   -0.23    0.46
  -9  -2 -14   -0.16    0.65
  -9   2 -14    0.34    0.38
 -10  -2 -14   -0.64    0.71
 -10   2 -14   -0.14    0.40
 -11   2 -14    0.89    0.47
 -12   2 -14    0.08    0.46
 -13   3  14    0.15    0.40
 -12   3  14   -0.01    0.39
 -11   3  14    0.35    0.40
 -10   3  14    0.59    0.39
  -9   3  14    1.87    0.41
   8   3 -14    0.91    0.39
  -8   3  14    0.69    0.32
  -7  -3  14   -0.41    2.26
  -7   3  14    0.87    0.32
   7   3 -14    1.19    0.44
  -6  -3  14    1.65    0.46
  -6  -3  14    0.50    2.47
   6  -3 -14    1.50    0.58
   6   3 -14    2.54    0.52
  -5  -3  14    9.24    2.48
  -5  -3  14    7.97    0.72
   5  -3 -14    6.71    0.80
   5   3 -14    8.15    0.78
   4  -3 -14    3.89    0.66
  -4  -3  14    4.66    2.21
  -4  -3  14    3.95    0.58
   4   3 -14    3.08    0.59
  -3  -3  14    7.85    0.68
   3  -3 -14    8.91    0.86
  -3  -3  14    8.24    2.36
   3   3 -14    7.42    0.78
  -2  -3  14    1.62    0.44
  -2  -3  14    0.15    1.76
   2  -3 -14    1.94    0.53
   2   3 -14    1.37    0.48
  -1  -3  14    5.60    0.60
   1  -3 -14    4.96    0.65
  -1  -3  14    2.20    1.61
   1   3 -14    4.48    0.63
   0  -3 -14    1.26    0.47
   0  -3  14    1.24    0.42
   0  -3  14    0.74    1.47
   0   3 -14    0.95    0.46
   1  -3  14    0.16    1.32
  -1  -3 -14    0.67    0.45
   1  -3  14   -0.44    0.34
  -1   3 -14   -0.19    0.41
   2  -3  14    1.31    0.47
   2  -3  14    0.12    1.17
  -2  -3 -14    0.91    0.48
  -2   3 -14    1.09    0.39
  -2   3 -14    1.17    0.51
   3  -3  14    0.36    1.34
  -3  -3 -14   -0.29    0.43
  -3   3 -14   -0.42    0.39
  -3   3 -14   -0.14    0.34
  -4  -3 -14    1.55    0.56
  -4   3 -14    2.39    0.54
  -4   3 -14    1.74    0.42
  -5  -3 -14    0.13    0.44
  -5   3 -14    0.14    0.42
  -5   3 -14    0.51    0.38
  -6  -3 -14   -0.26    0.46
  -6   3 -14    0.35    0.46
  -6   3 -14   -0.65    0.31
  -7  -3 -14   -0.22    0.50
  -7   3 -14    0.65    0.46
  -7   3 -14   -0.31    0.35
  -8  -3 -14   -0.66    0.55
  -8   3 -14    0.69    0.43
  -8   3 -14   -0.01    0.41
  -9  -3 -14   -1.32    0.54
  -9   3 -14    0.32    0.39
 -10  -3 -14   -1.13    0.67
 -10   3 -14   -0.09    0.41
 -11   3 -14    0.12    0.45
 -12   4  14    0.23    0.38
 -11   4  14    0.44    0.35
 -10   4  14   -0.20    0.30
   9   4 -14    0.70    0.45
  -9   4  14   -0.21    0.30
  -8   4  14    0.21    0.30
   8   4 -14    0.92    0.46
  -7  -4  14   -0.39    2.26
   7   4 -14    0.91    0.47
  -7   4  14    0.59    0.29
  -6  -4  14   -0.89    2.00
   6   4 -14   -0.12    0.35
  -6   4  14    0.05    0.25
  -5  -4  14    0.28    1.98
   5  -4 -14   -0.01    0.42
   5   4 -14    0.18    0.39
  -4  -4  14   -0.29    1.85
   4  -4 -14   -0.21    0.40
   4   4 -14   -0.04    0.39
  -3  -4  14   -0.42    1.78
   3  -4 -14    0.17    0.42
   3   4 -14    0.59    0.42
   2  -4 -14    0.96    0.46
  -2  -4  14    0.61    1.64
   2   4 -14    1.32    0.48
   1  -4 -14    0.49    0.40
  -1  -4  14   -0.44    1.49
   1   4 -14   -0.10    0.38
   0  -4  14   -0.35    1.33
   0  -4 -14    0.45    0.41
   0   4 -14    0.42    0.42
   1  -4  14    0.28    1.16
  -1  -4 -14    3.05    0.55
  -1   4 -14    2.73    0.56
  -2  -4 -14    0.12    0.38
  -2   4 -14   -0.20    0.39
  -3  -4 -14    0.35    0.41
   3  -4  14   -0.14    0.96
  -3   4 -14    1.10    0.47
  -4  -4 -14    3.28    0.61
  -4   4 -14    3.21    0.49
  -4   4 -14    3.55    0.61
  -5  -4 -14    0.52    0.44
  -5   4 -14   -0.07    0.35
  -5   4 -14    0.78    0.46
  -6  -4 -14   -0.44    0.41
  -6   4 -14    0.35    0.44
  -6   4 -14    0.05    0.36
  -7  -4 -14   -0.66    0.42
  -7   4 -14    0.56    0.41
  -7   4 -14    0.45    0.45
  -8  -4 -14   -0.82    0.46
  -8   4 -14    0.20    0.39
  -9  -4 -14   -0.43    0.54
  -9   4 -14   -0.02    0.42
 -10  -4 -14   -1.02    0.60
 -10   4 -14    0.09    0.43
 -11   5  14    0.12    0.32
 -10   5  14    0.55    0.33
  -9   5  14    0.09    0.31
   9   5 -14    0.23    0.47
  -8   5  14    1.08    0.32
   8   5 -14    0.47    0.46
  -7   5  14    0.47    0.28
   7   5 -14    1.03    0.48
   6   5 -14    0.40    0.44
  -6   5  14    0.83    0.28
   5  -5 -14   -0.64    0.39
  -5   5  14   -0.16    0.22
   5   5 -14    0.17    0.39
   4  -5 -14    0.02    0.38
   4   5 -14   -0.32    0.36
   3  -5 -14   -0.40    0.33
   3   5 -14   -0.11    0.39
   2  -5 -14    0.65    0.42
  -2  -5  14   -0.11    1.65
   2   5 -14    0.96    0.45
  -1  -5  14   -0.18    1.40
   1  -5 -14    0.75    0.40
   1   5 -14    0.80    0.46
   0  -5 -14   -0.41    0.33
   0  -5  14   -0.27    1.25
   0   5 -14    0.46    0.43
  -1  -5 -14    0.10    0.37
  -1   5 -14    0.36    0.41
  -2  -5 -14   -0.34    0.31
  -2   5 -14    0.53    0.44
  -3  -5 -14    0.98    0.45
  -3   5 -14    0.70    0.47
  -4  -5 -14   -0.02    0.40
  -4   5 -14    0.61    0.46
  -5  -5 -14   -0.48    0.35
  -5   5 -14    0.67    0.45
  -6  -5 -14   -0.42    0.39
  -6   5 -14    0.39    0.48
  -6   5 -14    0.18    0.37
  -7  -5 -14   -0.38    0.47
  -7   5 -14    0.40    0.47
  -7   5 -14    0.05    0.38
  -8  -5 -14   -0.73    0.46
  -8   5 -14   -0.23    0.39
  -9  -5 -14    0.26    0.65
  -9   5 -14    0.24    0.43
   9   6 -14    0.14    0.52
   8   6 -14    0.03    0.53
   7   6 -14   -0.30    0.44
   6   6 -14    0.33    0.47
   5   6 -14    0.47    0.46
   4  -6 -14   -0.13    0.41
   4   6 -14    0.50    0.47
   3  -6 -14   -0.09    0.37
   3   6 -14    0.16    0.42
   2  -6 -14    0.18    0.38
   2   6 -14    0.51    0.44
   1  -6 -14   -0.09    0.34
   1   6 -14    0.60    0.45
   0  -6 -14    0.01    0.35
   0   6 -14    0.18    0.41
  -1  -6 -14   -0.08    0.36
  -1   6 -14    0.00    0.42
  -2  -6 -14   -0.34    0.35
  -2   6 -14    0.24    0.45
  -3  -6 -14   -0.38    0.37
  -3   6 -14    0.26    0.48
  -4  -6 -14   -0.70    0.31
  -4   6 -14    0.44    0.48
  -5  -6 -14   -0.01    0.44
  -5   6 -14    0.17    0.48
  -6  -6 -14   -0.29    0.41
  -6   6 -14    0.85    0.52
  -7  -6 -14   -0.11    0.49
   7   7 -14    0.56    0.56
   6   7 -14    0.25    0.55
   5   7 -14    0.14    0.51
   4  -7 -14   -0.27    0.42
   4   7 -14   -0.09    0.49
   3  -7 -14    0.04    0.41
   3   7 -14    0.91    0.55
   2  -7 -14   -0.69    0.37
   2   7 -14    0.36    0.44
   1  -7 -14   -0.10    0.40
   1   7 -14    0.48    0.48
   0  -7 -14   -0.26    0.37
   0   7 -14    0.13    0.44
  -1  -7 -14   -0.35    0.38
  -1   7 -14    0.21    0.48
  -2  -7 -14    0.02    0.42
  -2   7 -14    0.96    0.53
  -3  -7 -14   -0.14    0.43
  -3   7 -14    0.23    0.49
  -4  -7 -14   -0.09    0.45
  -4   7 -14    0.29    0.52
  -5  -7 -14   -0.16    0.44
  -5   7 -14    0.51    0.56
  -6   7 -14    0.86    0.60
   2   8 -14   -0.11    0.51
   1   8 -14    0.26    0.57
   0   8 -14    0.07    0.52
  -1   8 -14    0.92    0.57
 -13   0  15    0.93    0.53
 -12   0  15    0.21    0.47
 -11   0  15    2.56    0.58
 -10   0  15   -0.16    0.35
  -9   0  15    0.31    0.38
  -8   0  15    0.13    0.33
   7   0 -15    6.69    0.64
  -7   0  15    5.79    0.59
   6   0 -15   -0.22    0.41
   6   0 -15   -0.34    0.40
   5   0 -15    3.04    0.59
   5   0 -15    3.41    0.54
   4   0 -15   -0.81    0.40
   4   0 -15   -0.40    0.36
   3   0 -15   -0.68    0.41
  -3   0  15   -0.29    0.35
   3   0 -15    0.10    0.37
   2   0 -15   -0.34    0.46
   2   0 -15    0.39    0.37
  -2   0  15   -0.04    0.33
  -1   0  15   20.58    1.07
   1   0 -15   21.73    1.02
   1   0 -15   21.56    1.30
   1   0 -15   24.23    1.14
   0   0 -15    0.02    0.26
   0   0 -15   -0.27    0.35
   0   0  15   -0.58    0.30
   0   0 -15   -0.20    0.45
   1   0  15    2.56    0.45
  -1   0 -15    1.61    0.56
  -1   0 -15    1.74    0.45
  -1   0 -15    2.32    0.41
  -2   0 -15    0.28    0.30
  -2   0 -15    0.37    0.51
   2   0  15    0.29    0.37
  -3   0 -15   11.39    1.07
  -3   0 -15   11.08    0.71
   3   0  15   11.41    0.81
  -4   0 -15    0.39    0.59
  -4   0 -15   -0.19    0.31
   4   0  15   -0.28    0.38
   5   0  15    0.42    0.41
  -5   0 -15    0.02    0.31
  -5   0 -15   -0.16    0.59
  -6   0 -15   -0.05    0.55
  -6   0 -15   -0.35    0.28
  -7   0 -15   -0.03    0.34
  -7   0 -15   -0.39    0.54
  -8   0 -15    0.11    0.37
  -8   0 -15   -0.56    0.55
  -9   0 -15   -0.06    0.59
  -9   0 -15    0.14    0.40
 -10   0 -15   -0.28    0.41
 -13  -1  15    0.63    0.55
 -13   1  15    0.21    0.48
 -12  -1  15    0.66    0.49
 -12   1  15    0.15    0.44
 -11  -1  15    1.97    0.56
 -11   1  15    0.97    0.48
 -10  -1  15    0.34    0.39
 -10   1  15    0.68    0.41
  -9  -1  15   -0.06    0.35
  -9   1  15    0.05    0.34
  -8  -1  15    0.30    0.37
   8   1 -15    0.79    0.38
  -8   1  15    0.19    0.35
   7  -1 -15    0.60    0.43
  -7  -1  15    0.81    0.36
  -7   1  15    0.85    0.36
   7   1 -15    1.03    0.39
   6  -1 -15    0.30    0.47
   6   1 -15    0.05    0.41
   5  -1 -15    0.99    0.55
   5   1 -15    1.28    0.47
  -4  -1  15    1.14    0.45
   4  -1 -15    0.73    0.42
   4  -1 -15   -0.02    0.49
  -4  -1  15    0.37    2.67
   4   1 -15    0.86    0.47
   3  -1 -15   10.08    0.93
   3  -1 -15    9.47    0.76
  -3  -1  15    9.58    0.74
  -3  -1  15   17.61    3.34
   3   1 -15    8.74    0.83
   2  -1 -15    7.84    0.67
  -2  -1  15    8.23    0.70
   2  -1 -15    8.89    0.88
   2   1 -15    7.10    0.77
   1  -1 -15    0.69    0.50
   1  -1 -15   -0.56    0.33
   1  -1 -15   -0.27    0.27
  -1  -1  15   -0.18    0.35
   1   1 -15   -0.43    0.41
  -1   1  15   -0.31    0.29
   0  -1 -15   -0.30    0.48
   0  -1 -15    0.31    0.35
   0  -1 -15    0.12    0.29
   0  -1  15   -0.25    0.35
   0   1 -15   -0.36    0.41
   0   1  15   -0.12    0.30
   0   1 -15    0.16    0.28
  -1  -1 -15   -0.02    0.48
  -1  -1 -15    0.18    0.29
   1  -1  15    0.56    0.39
  -1  -1 -15   -0.21    0.35
   1   1  15   -0.26    0.30
  -1   1 -15    0.10    0.45
  -1   1 -15    0.07    0.29
  -2  -1 -15    1.53    0.61
   2  -1  15    1.08    0.44
  -2  -1 -15    1.60    0.45
  -2  -1 -15    2.61    0.40
   2   1  15    1.21    0.38
  -2   1 -15    1.66    0.39
  -2   1 -15    1.21    0.55
  -3  -1 -15    3.31    0.54
  -3  -1 -15    3.10    0.72
   3  -1  15    2.69    0.52
  -3  -1 -15    4.25    0.50
  -3   1 -15    2.19    0.43
  -3   1 -15    2.27    0.63
   4  -1  15    0.52    0.43
  -4  -1 -15    1.18    0.38
  -4  -1 -15    1.29    0.65
  -4   1 -15    1.12    0.58
  -4   1 -15    0.54    0.34
   5  -1  15    0.51    0.45
  -5  -1 -15    0.50    0.34
  -5  -1 -15    0.34    0.59
  -5   1 -15    0.77    0.56
  -5   1 -15    0.32    0.33
  -6  -1 -15   -0.08    0.59
   6  -1  15    0.57    0.44
  -6   1 -15    1.30    0.56
  -6   1 -15    0.76    0.35
  -7  -1 -15    0.19    0.62
  -7   1 -15   -0.34    0.50
  -7   1 -15    0.07    0.33
  -8  -1 -15   -0.43    0.62
  -8   1 -15    0.31    0.38
  -8   1 -15    0.23    0.54
  -9  -1 -15    0.20    0.67
  -9   1 -15   -0.02    0.38
  -9   1 -15    0.46    0.58
 -10   1 -15    0.17    0.42
 -11   1 -15   -0.62    0.41
 -12   1 -15    0.16    0.49
 -13   2  15    0.07    0.45
 -12   2  15    1.28    0.49
 -11   2  15   -0.04    0.38
 -10   2  15    2.48    0.50
  -9   2  15    2.03    0.44
   8   2 -15    8.22    0.76
  -8   2  15    9.53    0.69
  -7  -2  15    3.35    0.53
  -7   2  15    3.49    0.46
   7   2 -15    2.80    0.50
   6  -2 -15    1.40    0.53
  -6  -2  15    1.18    2.38
   6   2 -15    1.87    0.47
   5  -2 -15   10.63    0.98
  -5  -2  15    9.27    0.78
   5   2 -15   11.48    0.89
  -4  -2  15   13.50    0.92
  -4  -2  15   20.09    2.60
   4  -2 -15   15.51    1.14
   4   2 -15   14.29    1.04
  -3  -2  15   -0.10    0.36
   3  -2 -15    0.30    0.54
  -3  -2  15   -0.33    2.18
   3   2 -15    0.30    0.43
  -2  -2  15    0.29    2.22
  -2  -2  15    0.01    0.37
   2  -2 -15    0.07    0.47
   2  -2 -15    0.46    0.37
   2   2 -15    0.21    0.41
   1  -2 -15    0.40    0.51
  -1  -2  15   -0.30    0.34
  -1  -2  15   -0.57    2.06
   1  -2 -15    0.09    0.34
   1   2 -15   -0.67    0.37
   0  -2  15    0.33    0.40
   0  -2 -15    0.18    0.36
   0  -2 -15    0.49    0.50
   0  -2  15   -0.60    1.96
   0   2 -15   -0.72    0.38
   1  -2  15    2.63    0.51
  -1  -2 -15    4.16    0.69
  -1  -2 -15    3.20    0.52
  -1   2 -15    2.19    0.56
  -1   2 -15    3.04    0.46
  -2  -2 -15    1.39    0.46
   2  -2  15    2.37    0.51
  -2  -2 -15    1.75    0.58
  -2   2 -15    0.65    0.51
  -2   2 -15    2.10    0.43
   3  -2  15   -0.19    0.39
  -3  -2 -15    0.00    0.51
  -3  -2 -15    0.27    0.40
  -3   2 -15   -0.47    0.44
  -3   2 -15   -0.03    0.32
  -4  -2 -15    0.44    0.42
  -4  -2 -15    0.00    0.52
   4  -2  15    0.14    0.41
  -4   2 -15   -0.33    0.31
  -4   2 -15    0.75    0.52
  -5  -2 -15    0.67    0.58
  -5   2 -15    0.37    0.46
  -5   2 -15    0.35    0.35
  -6  -2 -15    1.08    0.60
  -6   2 -15    1.04    0.41
  -6   2 -15    0.76    0.51
  -7  -2 -15   -0.23    0.56
  -7   2 -15    0.92    0.53
  -7   2 -15    0.12    0.35
  -8  -2 -15   -0.15    0.65
  -8   2 -15    0.22    0.50
  -8   2 -15    0.16    0.37
  -9  -2 -15   -0.28    0.69
  -9   2 -15    0.11    0.37
 -10  -2 -15   -0.44    0.78
 -10   2 -15   -0.10    0.42
 -11   2 -15   -0.06    0.44
 -12   3  15   -0.10    0.40
 -11   3  15   -0.35    0.38
 -10   3  15    0.33    0.35
  -9   3  15   -0.23    0.32
   8   3 -15    0.94    0.43
  -8   3  15    0.61    0.34
   7   3 -15    2.77    0.53
  -7   3  15    2.82    0.42
   6  -3 -15    0.81    0.56
  -6  -3  15   -0.66    2.34
   6   3 -15    0.28    0.37
  -5  -3  15    1.73    2.24
  -5  -3  15    1.35    0.47
   5  -3 -15    1.36    0.58
   5   3 -15    1.52    0.49
   4  -3 -15   14.30    1.10
  -4  -3  15   14.27    0.93
  -4  -3  15   18.17    2.52
   4   3 -15   12.96    0.99
  -3  -3  15    5.40    2.30
   3  -3 -15    5.48    0.76
  -3  -3  15    5.52    0.64
   3   3 -15    4.20    0.66
  -2  -3  15   -0.34    1.89
  -2  -3  15    0.60    0.43
   2  -3 -15    0.40    0.50
   2   3 -15    0.12    0.45
  -1  -3  15    6.98    0.67
  -1  -3  15    2.25    1.65
   1  -3 -15    7.44    0.81
   1   3 -15    6.54    0.76
   0  -3  15    3.42    0.56
   0  -3 -15    4.32    0.67
   0  -3  15    0.75    1.54
   0   3 -15    2.67    0.60
  -1  -3 -15    1.92    0.56
   1  -3  15    0.83    0.46
   1  -3  15    0.32    1.44
  -1   3 -15    1.30    0.53
  -2  -3 -15    0.13    0.44
   2  -3  15    0.23    1.22
  -2   3 -15   -0.32    0.42
  -2   3 -15    0.69    0.36
  -3  -3 -15    0.44    0.46
  -3   3 -15   -0.02    0.34
  -3   3 -15    0.66    0.47
  -4  -3 -15    2.56    0.62
  -4   3 -15    2.18    0.46
  -4   3 -15    2.43    0.57
  -5  -3 -15    0.45    0.49
  -5   3 -15    0.03    0.35
  -5   3 -15    0.74    0.47
  -6  -3 -15   -0.20    0.50
  -6   3 -15   -0.11    0.36
  -6   3 -15    0.30    0.45
  -7  -3 -15   -0.11    0.54
  -7   3 -15   -0.28    0.37
  -7   3 -15    0.47    0.46
  -8  -3 -15   -0.84    0.54
  -8   3 -15   -0.10    0.39
  -8   3 -15    0.80    0.48
  -9  -3 -15   -1.17    0.59
  -9   3 -15   -0.16    0.39
 -10  -3 -15   -1.58    0.66
 -10   3 -15    0.11    0.45
 -11   3 -15   -0.60    0.43
 -11   4  15    0.19    0.38
 -10   4  15    1.17    0.38
   9   4 -15    0.20    0.42
  -9   4  15   -0.19    0.30
   8   4 -15   -0.17    0.40
  -8   4  15   -0.03    0.29
  -7  -4  15   -2.16    2.17
   7   4 -15    0.45    0.40
  -7   4  15   -0.19    0.27
  -6  -4  15   -0.97    2.14
  -6   4  15    0.45    0.28
   6   4 -15    0.53    0.43
  -5  -4  15    0.45    1.99
   5  -4 -15    0.70    0.51
   5   4 -15    0.53    0.42
  -4  -4  15    0.16    1.91
   4  -4 -15    2.36    0.57
   4   4 -15    2.77    0.57
   3  -4 -15    0.24    0.43
  -3  -4  15   -0.20    1.80
   3   4 -15    0.45    0.42
   2  -4 -15    0.36    0.43
  -2  -4  15   -1.47    1.60
   2   4 -15    0.20    0.41
   1  -4 -15    2.58    0.56
  -1  -4  15    0.76    1.48
   1   4 -15    2.64    0.56
   0  -4 -15    2.82    0.57
   0  -4  15    0.32    1.28
   0   4 -15    3.31    0.59
   1  -4  15    0.33    1.13
  -1  -4 -15    3.03    0.58
  -1   4 -15    2.81    0.57
   2  -4  15   -0.60    1.02
  -2  -4 -15    0.31    0.42
  -2   4 -15    0.14    0.42
   3  -4  15    0.23    0.99
  -3  -4 -15    1.18    0.49
  -3   4 -15    0.79    0.44
  -4  -4 -15   -0.14    0.39
  -4   4 -15    0.07    0.35
  -4   4 -15    0.48    0.43
  -5  -4 -15    2.06    0.58
  -5   4 -15    2.13    0.48
  -5   4 -15    1.23    0.51
  -6  -4 -15   -0.08    0.45
  -6   4 -15    0.16    0.36
  -6   4 -15    0.54    0.45
  -7  -4 -15   -0.73    0.48
  -7   4 -15    0.43    0.45
  -7   4 -15    0.18    0.41
  -8  -4 -15   -0.15    0.56
  -8   4 -15   -0.26    0.40
  -9  -4 -15   -0.81    0.61
  -9   4 -15   -0.34    0.40
 -10  -4 -15   -0.34    0.72
 -10   4 -15   -0.64    0.46
 -10   5  15   -0.11    0.32
   9   5 -15    1.04    0.55
  -9   5  15    0.51    0.34
   8   5 -15    0.29    0.46
  -8   5  15   -0.42    0.29
  -7   5  15    1.08    0.33
   7   5 -15    1.64    0.56
  -6   5  15   -0.27    0.26
   6   5 -15    0.91    0.47
   5  -5 -15   -0.56    0.40
   5   5 -15    0.02    0.40
  -5   5  15    0.27    0.27
   4  -5 -15   -0.15    0.41
   4   5 -15    0.39    0.43
   3  -5 -15    0.39    0.42
   3   5 -15   -0.05    0.39
   2  -5 -15   -0.39    0.38
   2   5 -15    0.14    0.41
   1  -5 -15    0.71    0.44
   1   5 -15    1.21    0.52
   0  -5 -15    0.21    0.40
   0   5 -15    0.38    0.42
  -1  -5 -15   -0.16    0.37
  -1   5 -15    0.13    0.40
  -2  -5 -15   -0.07    0.37
  -2   5 -15    0.27    0.43
  -3  -5 -15    1.12    0.49
  -3   5 -15    1.64    0.53
  -4  -5 -15    0.44    0.43
  -4   5 -15    0.10    0.45
  -5  -5 -15   -0.18    0.41
  -5   5 -15    0.25    0.46
  -6  -5 -15    0.12    0.50
  -6   5 -15    0.30    0.38
  -6   5 -15    0.05    0.45
  -7  -5 -15   -0.42    0.47
  -7   5 -15    0.61    0.51
  -7   5 -15   -0.23    0.38
  -8  -5 -15   -0.77    0.49
  -8   5 -15   -0.17    0.41
  -9  -5 -15   -0.17    0.67
  -9   5 -15   -0.22    0.42
   9   6 -15    0.42    0.57
   8   6 -15    0.48    0.56
   7   6 -15   -0.24    0.46
   6   6 -15    2.25    0.63
   5   6 -15    0.26    0.48
   4  -6 -15   -0.44    0.40
   4   6 -15    0.48    0.48
   3  -6 -15    0.12    0.45
   3   6 -15   -0.62    0.38
   2  -6 -15    0.48    0.45
   2   6 -15    1.14    0.52
   1  -6 -15    0.44    0.42
   1   6 -15    0.98    0.49
   0  -6 -15    0.33    0.42
   0   6 -15    0.06    0.42
  -1  -6 -15    0.05    0.39
  -1   6 -15   -0.06    0.42
  -2  -6 -15    0.56    0.45
  -2   6 -15    0.38    0.49
  -3  -6 -15   -0.45    0.36
  -3   6 -15    0.07    0.45
  -4  -6 -15   -0.21    0.38
  -4   6 -15    0.02    0.45
  -5  -6 -15   -0.62    0.40
  -5   6 -15    0.26    0.49
  -6  -6 -15   -0.81    0.43
  -6   6 -15    0.69    0.53
  -7  -6 -15   -0.74    0.47
   6   7 -15    0.05    0.55
   5   7 -15    0.48    0.56
   4  -7 -15   -0.41    0.47
   4   7 -15    0.70    0.55
   3  -7 -15   -0.62    0.40
   3   7 -15    0.23    0.53
   2  -7 -15    0.11    0.44
   2   7 -15    0.43    0.49
   1  -7 -15   -0.35    0.41
   1   7 -15   -0.24    0.42
   0  -7 -15   -0.95    0.36
   0   7 -15   -0.06    0.45
  -1  -7 -15   -0.46    0.41
  -1   7 -15    0.43    0.52
  -2  -7 -15    0.46    0.51
  -2   7 -15    0.31    0.50
  -3  -7 -15   -0.04    0.45
  -3   7 -15    0.31    0.53
  -4  -7 -15    0.02    0.48
  -4   7 -15    0.11    0.52
  -5   7 -15    0.30    0.53
 -13   0  16    0.69    0.54
 -12   0  16    1.12    0.55
 -11   0  16   -0.16    0.42
 -10   0  16    1.37    0.47
  -9   0  16   -0.28    0.33
  -8   0  16    0.60    0.37
   7   0 -16   -0.15    0.33
   6   0 -16   -0.86    0.36
   6   0 -16   -0.44    0.41
   5   0 -16    0.34    0.47
   5   0 -16   -0.51    0.38
   4   0 -16    8.97    0.74
   4   0 -16    8.65    0.88
   3   0 -16    0.05    0.48
   3   0 -16   -0.17    0.39
  -2   0  16    1.28    0.44
   2   0 -16    1.25    0.56
   2   0 -16    1.70    0.45
   1   0 -16   -0.50    0.47
   1   0 -16    0.55    0.39
   1   0 -16   -0.19    0.28
  -1   0  16    0.74    0.40
   0   0  16    0.12    0.37
   0   0 -16   -0.08    0.38
   0   0 -16    0.75    0.54
   0   0 -16    0.59    0.33
   1   0  16   -0.12    0.36
  -1   0 -16   -0.03    0.29
  -1   0 -16    0.14    0.50
   2   0  16   -0.41    0.34
  -2   0 -16   -0.03    0.29
  -2   0 -16    0.47    0.56
   3   0  16    0.38    0.41
  -3   0 -16   -0.21    0.55
  -3   0 -16   -0.24    0.30
   4   0  16    9.25    0.77
  -4   0 -16    8.26    0.94
  -4   0 -16    8.01    0.66
  -5   0 -16   -0.11    0.33
  -5   0 -16    0.34    0.54
  -6   0 -16    0.06    0.32
  -6   0 -16   -0.33    0.52
  -7   0 -16    0.27    0.58
  -7   0 -16   -0.13    0.33
  -8   0 -16    0.05    0.60
  -8   0 -16   -0.35    0.32
  -9   0 -16   -0.37    0.59
  -9   0 -16    0.42    0.40
 -13   1  16   -0.35    0.45
 -12  -1  16   -0.32    0.49
 -12   1  16    0.43    0.46
 -11  -1  16    0.50    0.46
 -11   1  16    0.42    0.42
 -10  -1  16    2.02    0.51
 -10   1  16    1.46    0.44
  -9  -1  16    0.51    0.43
  -9   1  16    1.11    0.42
  -8  -1  16   -0.36    0.33
  -8   1  16   -0.26    0.31
   7  -1 -16    2.83    0.53
  -7  -1  16    3.58    0.52
   7   1 -16    3.18    0.52
   6  -1 -16    2.02    0.54
   6   1 -16    1.94    0.47
   5  -1 -16    1.69    0.58
   5   1 -16    0.75    0.47
   4  -1 -16   -0.15    0.41
   4  -1 -16    0.07    0.55
   4   1 -16    0.73    0.50
   3  -1 -16   -0.53    0.48
  -3  -1  16   -0.13    0.40
   3  -1 -16    0.34    0.39
   3   1 -16    0.14    0.46
  -2  -1  16    0.70    0.43
   2  -1 -16    0.50    0.42
   2  -1 -16    0.76    0.58
   2   1 -16    1.22    0.52
   1  -1 -16    0.61    0.42
  -1  -1  16    1.84    0.46
   1  -1 -16    1.70    0.62
   1   1 -16    0.58    0.51
   0  -1  16    0.73    0.43
   0  -1 -16    0.52    0.41
   0  -1 -16    1.16    0.59
   0   1 -16    0.77    0.50
   0   1 -16    0.76    0.34
  -1  -1 -16   -0.22    0.38
  -1  -1 -16    0.07    0.56
   1  -1  16    0.53    0.43
  -1   1 -16    0.81    0.35
  -1   1 -16    0.92    0.53
  -2  -1 -16    4.54    0.60
   2  -1  16    3.47    0.57
  -2  -1 -16    3.90    0.75
  -2   1 -16    3.74    0.69
  -2   1 -16    3.60    0.50
   3  -1  16   -0.19    0.39
  -3  -1 -16   -0.50    0.56
  -3   1 -16    0.50    0.36
  -3   1 -16    0.35    0.55
  -4  -1 -16    0.69    0.63
   4  -1  16    0.14    0.43
  -4   1 -16    0.87    0.36
  -4   1 -16    0.03    0.52
  -5  -1 -16    0.46    0.61
   5  -1  16   -0.02    0.41
  -5   1 -16   -0.12    0.31
  -5   1 -16    0.06    0.49
  -6  -1 -16   -0.24    0.57
  -6   1 -16    0.76    0.39
  -6   1 -16   -0.33    0.51
  -7  -1 -16   -1.12    0.55
  -7   1 -16    0.10    0.56
  -7   1 -16    0.00    0.35
  -8  -1 -16   -0.09    0.67
  -8   1 -16   -0.85    0.32
  -8   1 -16    0.07    0.54
  -9  -1 -16   -0.90    0.63
  -9   1 -16   -0.03    0.56
  -9   1 -16    0.24    0.41
 -10   1 -16   -0.30    0.40
 -11   1 -16   -0.53    0.42
 -12   2  16    0.56    0.47
 -11   2  16   -0.05    0.35
 -10   2  16    0.08    0.37
  -9   2  16    2.26    0.48
   8   2 -16    0.51    0.39
  -8   2  16    0.20    0.32
  -7   2  16    8.44    0.67
   7   2 -16   10.35    0.82
   6  -2 -16    3.44    0.62
   6   2 -16    2.70    0.50
  -5  -2  16    4.49    2.50
   5  -2 -16    2.75    0.65
   5   2 -16    1.07    0.46
   4  -2 -16    0.83    0.61
  -4  -2  16    0.70    0.45
  -4  -2  16    2.87    2.61
   4   2 -16    0.45    0.48
  -3  -2  16   24.87    2.86
   3  -2 -16   21.89    1.37
  -3  -2  16   19.96    1.14
   3   2 -16   17.97    1.23
  -2  -2  16    0.61    0.44
  -2  -2  16    1.20    2.33
   2  -2 -16   -0.02    0.55
   2   2 -16    0.52    0.46
   1  -2 -16    1.13    0.61
  -1  -2  16    2.15    2.33
  -1  -2  16    1.41    0.48
   1   2 -16    1.26    0.51
   0  -2 -16    0.74    0.57
   0  -2 -16    0.63    0.41
   0  -2  16    0.31    0.43
   0  -2  16   -0.40    2.27
   0   2 -16    0.09    0.46
   1  -2  16   -0.03    0.42
  -1  -2 -16    0.73    0.58
  -1  -2 -16    0.51    0.40
  -1   2 -16   -0.27    0.44
  -1   2 -16   -0.31    0.29
  -2  -2 -16    0.00    0.52
  -2  -2 -16    0.13    0.42
   2  -2  16    0.38    0.45
  -2   2 -16   -0.36    0.46
  -2   2 -16    0.32    0.34
  -3  -2 -16    0.75    0.58
   3  -2  16    0.36    0.44
  -3  -2 -16    0.72    0.44
  -3   2 -16    0.77    0.52
  -3   2 -16    1.29    0.40
  -4  -2 -16   -0.35    0.53
  -4   2 -16    0.31    0.47
  -4   2 -16   -0.14    0.34
  -5  -2 -16    0.52    0.59
  -5   2 -16    0.78    0.51
  -5   2 -16    0.10    0.34
  -6  -2 -16    0.26    0.59
  -6   2 -16   -0.37    0.34
  -6   2 -16    0.47    0.50
  -7  -2 -16   -0.53    0.57
  -7   2 -16    0.21    0.49
  -7   2 -16    0.49    0.40
  -8  -2 -16   -0.18    0.69
  -8   2 -16    0.07    0.37
  -8   2 -16    0.37    0.48
  -9  -2 -16   -0.31    0.71
  -9   2 -16    0.40    0.43
 -10  -2 -16   -1.50    0.72
 -10   2 -16    0.48    0.46
 -11   2 -16   -0.57    0.44
 -12   3  16    0.17    0.43
 -11   3  16    0.21    0.42
 -10   3  16   -0.56    0.33
  -9   3  16    0.60    0.37
  -8   3  16    0.37    0.35
   8   3 -16    0.54    0.39
  -7   3  16    1.07    0.35
   7   3 -16    1.32    0.48
  -6  -3  16   -1.95    2.26
   6  -3 -16   -0.28    0.50
   6   3 -16    0.13    0.38
  -5  -3  16    1.65    0.47
   5  -3 -16    1.80    0.60
  -5  -3  16    0.54    2.30
   5   3 -16    1.49    0.50
   4  -3 -16    1.21    0.59
  -4  -3  16    1.75    2.11
  -4  -3  16    1.02    0.44
   4   3 -16    1.61    0.50
  -3  -3  16    1.72    2.09
   3  -3 -16    2.06    0.64
  -3  -3  16    2.88    0.54
   3   3 -16    2.86    0.57
  -2  -3  16   -0.05    0.38
   2  -3 -16    0.10    0.51
   2   3 -16   -0.50    0.39
   1  -3 -16    2.58    0.65
  -1  -3  16    1.26    0.48
  -1  -3  16    1.16    1.82
   1   3 -16    2.56    0.60
   0  -3  16    1.76    1.72
   0  -3 -16    4.26    0.70
   0   3 -16    3.13    0.63
   1  -3  16    1.13    1.61
  -1  -3 -16    5.75    0.77
  -1   3 -16    3.92    0.66
   2  -3  16    0.36    1.59
  -2  -3 -16    0.50    0.51
  -2   3 -16    0.84    0.36
  -2   3 -16    0.60    0.47
  -3  -3 -16    0.27    0.50
  -3   3 -16    0.83    0.40
  -3   3 -16    0.14    0.42
  -4  -3 -16    0.74    0.54
  -4   3 -16    0.78    0.39
  -4   3 -16    0.10    0.44
  -5  -3 -16    0.95    0.58
  -5   3 -16    1.63    0.53
  -5   3 -16    1.27    0.45
  -6  -3 -16   -0.82    0.50
  -6   3 -16   -0.46    0.36
  -6   3 -16   -0.20    0.46
  -7  -3 -16   -0.78    0.54
  -7   3 -16    0.91    0.49
  -7   3 -16    0.01    0.38
  -8  -3 -16   -1.44    0.53
  -8   3 -16    0.21    0.48
  -8   3 -16   -0.23    0.40
  -9  -3 -16   -0.55    0.72
  -9   3 -16   -0.31    0.43
 -10  -3 -16   -1.71    0.74
 -10   3 -16   -0.55    0.43
 -11   4  16    0.35    0.40
 -10   4  16    0.46    0.38
   9   4 -16    0.58    0.47
  -9   4  16    0.16    0.32
  -8   4  16    0.36    0.32
   8   4 -16    0.39    0.42
  -7  -4  16    0.23    2.52
   7   4 -16    1.25    0.48
  -7   4  16    0.79    0.33
  -6  -4  16   -1.43    2.29
  -6   4  16   -0.05    0.27
   6   4 -16    0.54    0.41
  -5  -4  16   -1.33    2.16
   5  -4 -16    0.43    0.53
   5   4 -16   -0.07    0.41
   4  -4 -16    0.47    0.50
  -4  -4  16   -0.85    2.15
   4   4 -16    0.81    0.47
   3  -4 -16    2.92    0.64
  -3  -4  16    1.43    1.90
   3   4 -16    3.98    0.64
   2  -4 -16    1.17    0.52
  -2  -4  16    0.61    1.66
   2   4 -16    1.25    0.48
   1  -4 -16    0.21    0.45
  -1  -4  16    0.13    1.55
   1   4 -16    0.00    0.40
   0  -4  16   -0.19    1.32
   0  -4 -16   -0.08    0.42
   0   4 -16    0.28    0.41
   1  -4  16   -0.34    1.07
  -1  -4 -16   -0.32    0.41
  -1   4 -16    0.42    0.43
   2  -4  16   -0.06    1.10
  -2  -4 -16   -0.24    0.41
  -2   4 -16    0.36    0.43
  -3  -4 -16   -0.47    0.38
  -3   4 -16    0.13    0.43
  -4  -4 -16    0.07    0.47
  -4   4 -16    0.71    0.50
  -4   4 -16    0.60    0.40
  -5  -4 -16   -0.16    0.46
  -5   4 -16   -0.29    0.38
  -5   4 -16    0.30    0.48
  -6  -4 -16   -0.26    0.48
  -6   4 -16   -0.37    0.36
  -6   4 -16    0.13    0.44
  -7  -4 -16   -0.88    0.52
  -7   4 -16    0.79    0.52
  -7   4 -16   -0.07    0.40
  -8  -4 -16   -0.38    0.62
  -8   4 -16   -0.70    0.40
  -9  -4 -16   -1.25    0.63
  -9   4 -16   -0.21    0.47
 -10   5  16    0.24    0.36
   9   5 -16    0.18    0.50
  -9   5  16   -0.01    0.35
   8   5 -16    0.16    0.45
  -8   5  16    0.05    0.30
  -7   5  16    0.57    0.31
   7   5 -16    0.59    0.48
  -6   5  16    0.11    0.27
   6   5 -16    0.55    0.47
   5  -5 -16    0.39    0.51
   5   5 -16    0.17    0.44
   4  -5 -16    0.13    0.47
   4   5 -16    0.16    0.43
   3  -5 -16   -0.61    0.43
   3   5 -16    0.23    0.46
   2  -5 -16   -0.76    0.36
   2   5 -16    0.47    0.48
   1  -5 -16    0.11    0.42
   1   5 -16    0.74    0.47
   0  -5 -16    0.25    0.43
   0   5 -16    0.22    0.42
  -1  -5 -16    0.05    0.43
  -1   5 -16    0.91    0.47
  -2  -5 -16   -0.16    0.39
  -2   5 -16    0.77    0.48
  -3  -5 -16    0.12    0.43
  -3   5 -16    0.21    0.43
  -4  -5 -16   -0.13    0.40
  -4   5 -16    0.69    0.50
  -5  -5 -16    0.25    0.46
  -5   5 -16    0.53    0.50
  -6  -5 -16   -0.23    0.50
  -6   5 -16    0.73    0.41
  -6   5 -16    1.08    0.53
  -7  -5 -16   -0.34    0.53
  -7   5 -16    0.68    0.52
  -7   5 -16    0.16    0.43
  -8  -5 -16   -0.59    0.60
  -8   5 -16    0.10    0.46
   8   6 -16    0.22    0.55
   7   6 -16    0.26    0.50
   6   6 -16    0.33    0.51
   5   6 -16    0.92    0.50
   4  -6 -16   -0.53    0.46
   4   6 -16    0.39    0.47
   3  -6 -16   -0.11    0.44
   3   6 -16    0.22    0.45
   2  -6 -16   -0.52    0.40
   2   6 -16    0.53    0.45
   1  -6 -16   -0.29    0.41
   1   6 -16   -0.06    0.44
   0  -6 -16   -0.06    0.43
   0   6 -16    0.37    0.44
  -1  -6 -16    0.23    0.42
  -1   6 -16    0.42    0.45
  -2  -6 -16   -0.14    0.41
  -2   6 -16    0.24    0.45
  -3  -6 -16   -0.33    0.43
  -3   6 -16    0.17    0.48
  -4  -6 -16    0.48    0.48
  -4   6 -16    0.55    0.53
  -5  -6 -16   -0.04    0.44
  -5   6 -16    0.00    0.51
  -6  -6 -16   -0.67    0.45
  -6   6 -16    0.33    0.52
   6   7 -16    0.34    0.61
   5   7 -16   -0.78    0.47
   4   7 -16    0.56    0.53
   3  -7 -16   -0.48    0.45
   3   7 -16    0.94    0.61
   2  -7 -16   -0.27    0.46
   2   7 -16    0.16    0.51
   1  -7 -16   -0.98    0.41
   1   7 -16    0.16    0.48
   0  -7 -16   -0.38    0.46
   0   7 -16   -0.45    0.44
  -1  -7 -16   -0.10    0.48
  -1   7 -16    0.04    0.48
  -2  -7 -16   -0.03    0.47
  -2   7 -16    0.16    0.52
  -3  -7 -16    0.17    0.51
  -3   7 -16   -0.22    0.49
  -4   7 -16    0.72    0.59
 -13   0  17   -0.37    0.51
 -12   0  17    0.14    0.47
 -11   0  17    0.31    0.45
 -10   0  17    0.73    0.46
  -9   0  17    0.00    0.36
  -8   0  17    0.14    0.35
   7   0 -17   -0.31    0.32
   6   0 -17   -0.24    0.40
   5   0 -17    4.50    0.66
   4   0 -17    0.55    0.44
   4   0 -17   -0.57    0.46
   3   0 -17    7.36    0.72
   3   0 -17    6.51    0.82
   2   0 -17   -0.57    0.47
   2   0 -17   -0.32    0.39
   1   0 -17    3.14    0.47
   1   0 -17    3.57    0.69
   0   0 -17    0.30    0.33
   0   0 -17    0.01    0.52
  -1   0 -17    0.00    0.32
  -1   0 -17    1.21    0.59
  -2   0 -17   -0.39    0.30
  -2   0 -17   -0.17    0.54
  -3   0 -17    1.31    0.39
  -3   0 -17    0.96    0.61
  -4   0 -17    0.01    0.53
  -4   0 -17    0.14    0.31
  -5   0 -17    3.02    0.71
  -5   0 -17    1.99    0.44
  -6   0 -17    0.18    0.36
  -6   0 -17    0.47    0.57
  -7   0 -17    0.28    0.37
  -7   0 -17    0.25    0.61
  -8   0 -17    0.59    0.63
  -8   0 -17   -0.45    0.37
  -9   0 -17    0.39    0.66
 -12   1  17   -0.58    0.43
 -11  -1  17    1.02    0.52
 -11   1  17   -0.08    0.41
 -10  -1  17    0.88    0.49
 -10   1  17    1.75    0.48
  -9  -1  17    0.30    0.40
  -9   1  17    0.35    0.40
  -8  -1  17    2.94    0.53
  -8   1  17    2.78    0.49
   7  -1 -17    0.20    0.42
   7   1 -17    0.06    0.33
   6  -1 -17    2.13    0.53
   6   1 -17    1.03    0.44
   5  -1 -17   -0.47    0.47
   5   1 -17   -0.17    0.40
   4  -1 -17   -0.31    0.52
   4   1 -17    0.09    0.49
   3  -1 -17    2.43    0.54
   3  -1 -17    3.61    0.71
   3   1 -17    2.80    0.62
  -2  -1  17    0.40    0.44
   2  -1 -17    0.76    0.44
   2  -1 -17    1.23    0.61
   2   1 -17    0.98    0.53
  -1  -1  17    0.84    0.46
   1  -1 -17    1.80    0.65
   1  -1 -17    1.26    0.47
   1   1 -17    1.06    0.53
   0  -1 -17   -0.36    0.55
   0  -1  17    0.37    0.43
   0  -1 -17    1.21    0.46
   0   1 -17    0.53    0.33
   0   1 -17    0.13    0.50
   1  -1  17    0.97    0.47
  -1  -1 -17    1.14    0.64
  -1  -1 -17    0.01    0.40
  -1   1 -17    0.86    0.56
  -1   1 -17    1.09    0.37
   2  -1  17    1.46    0.48
  -2  -1 -17    0.69    0.62
  -2   1 -17    0.56    0.36
  -2   1 -17    1.06    0.59
   3  -1  17    0.06    0.40
  -3  -1 -17    0.14    0.57
  -3   1 -17    0.46    0.53
  -3   1 -17    0.04    0.32
   4  -1  17    0.23    0.42
  -4  -1 -17    0.65    0.61
  -4   1 -17   -0.18    0.50
  -4   1 -17    0.46    0.33
  -5  -1 -17   -0.10    0.60
   5  -1  17    0.21    0.43
  -5   1 -17    0.00    0.48
  -5   1 -17    0.13    0.33
  -6  -1 -17   -0.74    0.56
  -6   1 -17   -0.45    0.33
  -6   1 -17    0.43    0.54
  -7  -1 -17   -0.55    0.62
  -7   1 -17   -0.26    0.55
  -7   1 -17    0.14    0.39
  -8  -1 -17   -0.15    0.68
  -8   1 -17    1.27    0.64
  -8   1 -17    0.15    0.40
  -9  -1 -17   -0.17    0.70
  -9   1 -17    0.63    0.62
  -9   1 -17   -0.29    0.39
 -10   1 -17   -0.38    0.42
 -11   1 -17   -0.18    0.45
 -12   2  17   -0.30    0.44
 -11   2  17   -0.10    0.38
 -10   2  17   -0.09    0.36
  -9   2  17    0.63    0.39
   8   2 -17    0.56    0.42
  -8   2  17   -0.01    0.32
   7   2 -17    1.12    0.44
   6  -2 -17    0.71    0.49
   6   2 -17    1.10    0.43
   5  -2 -17    0.95    0.56
   5   2 -17    0.66    0.43
   4  -2 -17    0.30    0.57
  -4  -2  17    1.92    2.58
   4   2 -17    0.30    0.44
  -3  -2  17    5.75    2.84
   3  -2 -17    4.03    0.77
  -3  -2  17    3.54    0.60
   3   2 -17    3.29    0.63
  -2  -2  17   18.46    1.12
   2  -2 -17   18.75    1.34
  -2  -2  17   22.43    2.84
   2   2 -17   17.06    1.20
  -1  -2  17   -0.07    0.41
   1  -2 -17    0.99    0.63
  -1  -2  17    0.25    2.56
   1   2 -17    0.52    0.49
   0  -2 -17   -0.20    0.58
   0  -2  17   -0.43    0.41
   0   2 -17    0.48    0.49
   1  -2  17    1.57    0.51
  -1  -2 -17    2.93    0.71
  -1   2 -17    0.58    0.52
  -1   2 -17    2.02    0.43
   2  -2  17    1.58    0.53
  -2  -2 -17    2.44    0.68
  -2   2 -17    0.80    0.52
  -2   2 -17    1.40    0.43
  -3  -2 -17    0.10    0.54
  -3   2 -17   -0.06    0.33
  -3   2 -17    0.15    0.45
  -4  -2 -17    1.46    0.63
  -4   2 -17    0.88    0.41
  -4   2 -17    1.19    0.54
  -5  -2 -17    0.63    0.63
  -5   2 -17   -0.12    0.37
  -5   2 -17    0.58    0.50
  -6  -2 -17   -0.32    0.62
  -6   2 -17    0.71    0.41
  -6   2 -17    0.17    0.55
  -7  -2 -17    0.44    0.71
  -7   2 -17    0.20    0.40
  -7   2 -17    0.36    0.53
  -8  -2 -17   -1.01    0.63
  -8   2 -17    0.33    0.50
  -8   2 -17   -0.26    0.38
  -9  -2 -17   -0.64    0.71
  -9   2 -17   -0.49    0.37
 -10  -2 -17   -0.18    0.81
 -10   2 -17   -0.17    0.43
 -12   3  17   -0.03    0.43
 -11   3  17   -0.03    0.40
 -10   3  17    0.32    0.40
  -9   3  17    0.22    0.34
  -8   3  17    0.37    0.35
   8   3 -17    0.89    0.46
  -7   3  17    0.18    0.30
   7   3 -17    0.02    0.41
   6  -3 -17    0.16    0.56
   6   3 -17    0.47    0.45
  -5  -3  17   -1.63    2.02
   5  -3 -17   -0.34    0.53
   5   3 -17    0.23    0.42
  -4  -3  17   -1.60    2.13
  -4  -3  17    0.10    0.40
   4  -3 -17    0.32    0.53
   4   3 -17   -0.04    0.39
  -3  -3  17    2.45    2.10
  -3  -3  17    2.23    0.52
   3  -3 -17    1.64    0.64
   3   3 -17    1.54    0.53
  -2  -3  17    0.89    0.45
  -2  -3  17   -0.33    1.95
   2  -3 -17    1.26    0.59
   2   3 -17    0.70    0.49
   1  -3 -17    1.10    0.59
  -1  -3  17    0.28    1.75
   1   3 -17    0.66    0.50
   0  -3  17    0.86    1.66
   0  -3 -17    0.63    0.57
   0   3 -17    0.82    0.52
   1  -3  17   -0.45    1.49
  -1  -3 -17    0.45    0.53
  -1   3 -17   -0.19    0.43
  -2  -3 -17    0.69    0.55
  -2   3 -17   -0.42    0.31
  -2   3 -17   -0.32    0.41
  -3  -3 -17    0.35    0.51
  -3   3 -17    0.93    0.49
  -3   3 -17    0.18    0.35
  -4  -3 -17   -0.70    0.49
  -4   3 -17    0.63    0.47
  -4   3 -17    0.11    0.37
  -5  -3 -17   -0.34    0.53
  -5   3 -17    0.06    0.36
  -5   3 -17    0.53    0.47
  -6  -3 -17   -0.11    0.61
  -6   3 -17    0.56    0.42
  -6   3 -17    0.24    0.47
  -7  -3 -17   -0.03    0.63
  -7   3 -17    0.48    0.49
  -7   3 -17   -0.46    0.40
  -8  -3 -17   -1.05    0.62
  -8   3 -17    0.17    0.43
  -8   3 -17    0.26    0.49
  -9  -3 -17   -0.79    0.74
  -9   3 -17    0.00    0.46
 -10  -3 -17   -1.08    0.84
 -10   3 -17   -0.66    0.46
 -11   4  17    0.38    0.41
 -10   4  17    0.32    0.38
  -9   4  17    0.46    0.37
   9   4 -17    1.10    0.56
   8   4 -17    0.84    0.47
  -8   4  17   -0.41    0.28
   7   4 -17   -0.04    0.44
  -7   4  17    0.40    0.32
  -6  -4  17    0.81    2.56
   6   4 -17    2.95    0.59
  -5  -4  17   -1.31    2.28
   5  -4 -17    0.92    0.60
   5   4 -17    1.23    0.51
   4  -4 -17    0.52    0.55
  -4  -4  17   -2.07    1.93
   4   4 -17   -0.57    0.37
  -3  -4  17   -0.06    1.90
   3  -4 -17    2.64    0.66
   3   4 -17    2.19    0.58
  -2  -4  17   -0.92    1.70
   2  -4 -17   -0.10    0.48
   2   4 -17    0.16    0.45
   1  -4 -17    0.37    0.49
  -1  -4  17    0.20    1.45
   1   4 -17    0.25    0.44
   0  -4 -17    0.68    0.50
   0  -4  17    0.68    1.30
   0   4 -17    0.63    0.44
  -1  -4 -17    0.44    0.49
  -1   4 -17    1.00    0.48
  -2  -4 -17   -0.27    0.45
  -2   4 -17   -0.02    0.41
  -3  -4 -17   -0.71    0.41
  -3   4 -17    0.90    0.51
  -4  -4 -17   -0.58    0.45
  -4   4 -17    0.08    0.45
  -4   4 -17    0.08    0.37
  -5  -4 -17    0.59    0.57
  -5   4 -17    0.96    0.45
  -5   4 -17    0.99    0.49
  -6  -4 -17    0.08    0.56
  -6   4 -17    0.26    0.43
  -6   4 -17    1.06    0.50
  -7  -4 -17   -0.72    0.56
  -7   4 -17    0.75    0.44
  -7   4 -17    0.61    0.50
  -8  -4 -17   -0.73    0.62
  -8   4 -17   -0.70    0.44
  -9  -4 -17   -0.89    0.71
  -9   4 -17    0.15    0.49
   9   5 -17    0.32    0.53
  -9   5  17   -0.05    0.34
   8   5 -17    1.00    0.54
  -8   5  17    0.77    0.36
   7   5 -17    0.43    0.51
  -7   5  17   -0.23    0.28
  -6   5  17    0.14    0.28
   6   5 -17    0.37    0.46
   5  -5 -17    0.12    0.58
   5   5 -17    0.89    0.48
   4  -5 -17    0.01    0.53
   4   5 -17    0.53    0.45
   3  -5 -17    0.58    0.53
   3   5 -17    0.38    0.47
   2  -5 -17   -0.89    0.44
   2   5 -17    0.13    0.44
   1  -5 -17    1.53    0.59
   1   5 -17    1.71    0.53
   0  -5 -17   -0.29    0.47
   0   5 -17    0.60    0.46
  -1  -5 -17    0.73    0.53
  -1   5 -17    1.44    0.54
  -2  -5 -17   -0.08    0.43
  -2   5 -17    0.39    0.44
  -3  -5 -17   -0.81    0.39
  -3   5 -17   -0.24    0.44
  -4  -5 -17   -0.02    0.48
  -4   5 -17    0.60    0.51
  -5  -5 -17   -0.05    0.52
  -5   5 -17    0.26    0.50
  -6  -5 -17   -0.33    0.52
  -6   5 -17    0.26    0.41
  -6   5 -17    1.20    0.56
  -7  -5 -17    0.13    0.64
  -7   5 -17   -0.06    0.42
  -7   5 -17    1.02    0.58
  -8   5 -17    0.17    0.46
   8   6 -17   -0.11    0.52
   7   6 -17    0.95    0.56
   6   6 -17   -0.29    0.50
   5   6 -17    0.14    0.50
   4  -6 -17   -0.14    0.54
   4   6 -17    0.21    0.51
   3  -6 -17   -0.89    0.46
   3   6 -17    0.19    0.46
   2  -6 -17   -0.19    0.46
   2   6 -17   -0.25    0.42
   1  -6 -17   -0.47    0.42
   1   6 -17   -0.04    0.41
   0  -6 -17   -0.47    0.43
   0   6 -17    0.70    0.45
  -1  -6 -17    0.26    0.49
  -1   6 -17    1.58    0.56
  -2  -6 -17   -0.48    0.43
  -2   6 -17    0.50    0.53
  -3  -6 -17   -0.34    0.46
  -3   6 -17    0.47    0.52
  -4  -6 -17   -0.40    0.48
  -4   6 -17    0.33    0.52
  -5  -6 -17   -0.01    0.55
  -5   6 -17   -0.14    0.48
  -6   6 -17    0.30    0.55
   5   7 -17    0.24    0.56
   4   7 -17    0.53    0.57
   3  -7 -17   -0.20    0.55
   3   7 -17    0.41    0.57
   2  -7 -17   -0.64    0.50
   2   7 -17    0.11    0.55
   1  -7 -17   -0.36    0.50
   1   7 -17   -0.26    0.46
   0  -7 -17   -0.68    0.48
   0   7 -17    0.59    0.56
  -1  -7 -17   -0.50    0.50
  -1   7 -17    0.18    0.50
  -2  -7 -17   -0.37    0.48
  -2   7 -17    0.14    0.53
  -3   7 -17    0.62    0.56
 -12   0  18    0.86    0.58
 -11   0  18   -0.12    0.45
 -10   0  18    1.32    0.51
  -9   0  18   -0.30    0.38
  -8   0  18    0.73    0.40
   7   0 -18    0.25    0.37
   6   0 -18    2.98    0.58
   5   0 -18   -0.26    0.43
   4   0 -18   11.07    0.96
   3   0 -18   -0.09    0.51
   2   0 -18    0.59    0.55
   1   0 -18   -0.18    0.51
   0   0 -18    0.25    0.56
   0   0 -18    0.33    0.35
  -1   0 -18   -0.71    0.50
  -1   0 -18    0.40    0.33
  -2   0 -18    0.65    0.38
  -2   0 -18    0.58    0.57
  -3   0 -18   -0.29    0.27
  -3   0 -18    0.15    0.55
  -4   0 -18   -0.09    0.51
  -4   0 -18    0.09    0.32
  -5   0 -18    0.00    0.36
  -5   0 -18    0.89    0.60
  -6   0 -18   -0.38    0.55
  -6   0 -18    0.00    0.38
  -7   0 -18    0.65    0.65
  -8   0 -18    0.63    0.68
  -9   0 -18    0.24    0.67
 -12   1  18    1.04    0.53
 -11  -1  18    0.94    0.53
 -11   1  18    0.45    0.47
 -10  -1  18    0.48    0.46
 -10   1  18    0.45    0.46
  -9  -1  18   -0.28    0.38
  -9   1  18   -0.23    0.35
  -8  -1  18    0.43    0.36
  -8   1  18   -0.20    0.33
   7   1 -18    2.48    0.53
   6  -1 -18   -0.79    0.38
   6   1 -18   -0.07    0.38
   5  -1 -18    0.25    0.50
   5   1 -18   -0.04    0.41
   4  -1 -18    0.78    0.56
   4   1 -18   -0.08    0.46
   3  -1 -18    3.86    0.72
   3   1 -18    3.14    0.65
   2  -1 -18    3.11    0.72
   2  -1 -18    2.98    0.56
   2   1 -18    2.35    0.62
   1  -1 -18    2.29    0.69
   1  -1 -18    2.41    0.54
   1   1 -18    1.72    0.60
   0  -1  18    0.61    0.46
   0  -1 -18    0.92    0.63
   0   1 -18    1.67    0.60
   0   1 -18    0.48    0.38
   1  -1  18    0.08    0.43
  -1  -1 -18    0.20    0.60
  -1   1 -18   -0.37    0.48
  -1   1 -18    0.04    0.32
   2  -1  18    0.21    0.43
  -2  -1 -18   -0.07    0.58
  -2   1 -18   -0.24    0.29
  -2   1 -18   -0.47    0.47
  -3  -1 -18    0.86    0.62
   3  -1  18   -0.66    0.37
  -3   1 -18    0.66    0.36
  -3   1 -18    0.49    0.51
  -4  -1 -18    0.40    0.59
  -4   1 -18    0.61    0.38
  -4   1 -18    0.48    0.52
  -5  -1 -18   -0.31    0.58
  -5   1 -18   -0.57    0.30
  -5   1 -18    0.07    0.55
  -6  -1 -18    0.22    0.65
  -6   1 -18    1.03    0.59
  -6   1 -18    0.93    0.41
  -7  -1 -18   -0.59    0.64
  -7   1 -18    0.40    0.57
  -7   1 -18   -0.19    0.37
  -8  -1 -18   -0.64    0.66
  -8   1 -18    0.29    0.58
  -8   1 -18   -0.09    0.40
  -9  -1 -18   -0.17    0.72
  -9   1 -18   -0.46    0.41
  -9   1 -18    1.01    0.64
 -10   1 -18   -0.22    0.47
 -12   2  18   -0.34    0.43
 -11   2  18    0.86    0.46
 -10   2  18   -0.06    0.38
  -9   2  18    0.43    0.39
   8   2 -18    0.50    0.40
  -8   2  18    0.30    0.36
   7   2 -18    0.87    0.42
   6  -2 -18   -0.21    0.47
   6   2 -18   -0.14    0.35
   5  -2 -18   -0.22    0.50
   5   2 -18    0.68    0.45
  -4  -2  18    0.58    2.51
   4  -2 -18    0.18    0.57
   4   2 -18    0.69    0.46
   3  -2 -18    0.76    0.60
  -3  -2  18    1.73    2.66
   3   2 -18    1.25    0.51
  -2  -2  18   16.69    2.68
   2  -2 -18   13.30    1.18
  -2  -2  18   12.62    0.95
   2   2 -18   11.44    1.00
   1  -2 -18   15.27    1.24
  -1  -2  18   14.90    1.02
   1   2 -18   13.55    1.09
   0  -2  18    0.81    0.47
   0  -2 -18    1.15    0.66
   0   2 -18    0.93    0.52
  -1  -2 -18    5.00    0.84
   1  -2  18    4.60    0.67
  -1   2 -18    4.39    0.70
  -1   2 -18    4.69    0.55
   2  -2  18    3.19    0.60
  -2  -2 -18    2.30    0.71
  -2   2 -18    2.80    0.62
  -2   2 -18    3.17    0.51
  -3  -2 -18    1.63    0.67
  -3   2 -18    2.20    0.47
  -3   2 -18    1.71    0.59
  -4  -2 -18   -0.07    0.60
  -4   2 -18    0.18    0.49
  -4   2 -18   -0.47    0.33
  -5  -2 -18   -0.16    0.62
  -5   2 -18    0.30    0.38
  -5   2 -18    0.79    0.57
  -6  -2 -18    0.25    0.65
  -6   2 -18    0.19    0.53
  -6   2 -18    0.43    0.40
  -7  -2 -18   -0.67    0.65
  -7   2 -18    0.58    0.54
  -7   2 -18    0.14    0.44
  -8  -2 -18   -0.92    0.65
  -8   2 -18    0.09    0.45
  -8   2 -18    0.37    0.55
  -9  -2 -18    0.13    0.79
  -9   2 -18    0.02    0.45
 -10  -2 -18   -1.63    0.77
 -10   2 -18   -0.11    0.45
 -11   3  18    0.10    0.39
 -10   3  18   -0.11    0.38
  -9   3  18    0.57    0.40
   8   3 -18    0.27    0.42
  -8   3  18   -0.04    0.32
   7   3 -18    1.04    0.47
  -7   3  18    0.64    0.35
   6  -3 -18   -0.22    0.54
   6   3 -18    0.29    0.43
  -5  -3  18    5.48    2.48
   5  -3 -18    4.19    0.77
   5   3 -18    4.81    0.69
   4  -3 -18    0.09    0.57
  -4  -3  18    1.45    2.36
   4   3 -18    0.18    0.44
   3  -3 -18    0.55    0.63
  -3  -3  18    2.28    2.14
   3   3 -18    1.98    0.55
   2  -3 -18    2.05    0.68
  -2  -3  18    3.05    2.04
   2   3 -18    2.28    0.59
   1  -3 -18    9.23    0.97
  -1  -3  18    4.71    2.06
   1   3 -18    8.00    0.88
   0  -3 -18    0.42    0.56
   0  -3  18   -0.29    1.69
   0   3 -18    0.39    0.46
  -1  -3 -18   -0.27    0.51
  -1   3 -18   -0.26    0.40
  -2  -3 -18    0.19    0.55
  -2   3 -18    0.87    0.49
  -2   3 -18    0.36    0.35
  -3  -3 -18   -0.58    0.49
  -3   3 -18    0.52    0.45
  -3   3 -18    0.55    0.41
  -4  -3 -18   -0.22    0.55
  -4   3 -18    0.21    0.46
  -4   3 -18   -0.16    0.39
  -5  -3 -18   -0.20    0.58
  -5   3 -18    0.00    0.40
  -5   3 -18   -0.18    0.44
  -6  -3 -18    0.58    0.70
  -6   3 -18    1.17    0.48
  -6   3 -18    1.29    0.55
  -7  -3 -18    0.01    0.68
  -7   3 -18    0.26    0.46
  -7   3 -18    0.45    0.50
  -8  -3 -18   -0.70    0.67
  -8   3 -18   -0.15    0.47
  -8   3 -18    0.87    0.54
  -9  -3 -18   -1.00    0.78
  -9   3 -18    0.63    0.52
 -10   4  18    0.59    0.40
  -9   4  18    0.00    0.36
   8   4 -18    0.60    0.49
  -8   4  18    0.47    0.36
  -7   4  18    0.27    0.32
   7   4 -18    0.43    0.46
   6   4 -18   -0.13    0.40
   5  -4 -18    1.81    0.70
   5   4 -18    1.52    0.53
   4  -4 -18    1.48    0.64
   4   4 -18    1.51    0.52
   3  -4 -18    0.11    0.54
   3   4 -18    0.75    0.49
   2  -4 -18   -0.36    0.52
   2   4 -18   -0.33    0.38
   1  -4 -18   -0.39    0.49
   1   4 -18    0.63    0.46
   0  -4 -18   -0.36    0.47
   0   4 -18    0.37    0.44
  -1  -4 -18   -0.35    0.48
  -1   4 -18   -0.08    0.40
  -2  -4 -18   -0.10    0.50
  -2   4 -18    0.20    0.43
  -3  -4 -18   -0.42    0.47
  -3   4 -18    0.16    0.46
  -4  -4 -18    0.16    0.54
  -4   4 -18    0.37    0.41
  -4   4 -18    1.00    0.53
  -5  -4 -18   -0.11    0.56
  -5   4 -18    0.13    0.48
  -5   4 -18   -0.10    0.38
  -6  -4 -18    0.09    0.63
  -6   4 -18    0.62    0.45
  -6   4 -18    0.61    0.53
  -7  -4 -18   -0.61    0.61
  -7   4 -18    0.83    0.54
  -7   4 -18    0.38    0.48
  -8  -4 -18    0.66    0.78
  -8   4 -18    0.12    0.49
  -9   5  18    0.23    0.37
   9   5 -18    0.08    0.52
   8   5 -18    0.23    0.55
  -8   5  18    0.33    0.37
  -7   5  18    0.19    0.33
   7   5 -18    0.53    0.50
   6   5 -18    0.54    0.47
  -6   5  18    0.60    0.33
   5  -5 -18   -0.64    0.58
   5   5 -18    0.98    0.50
   4  -5 -18   -0.15    0.56
   4   5 -18   -0.54    0.39
   3  -5 -18   -0.25    0.53
   3   5 -18    0.88    0.49
   2  -5 -18   -0.11    0.51
   2   5 -18   -0.06    0.45
   1  -5 -18   -0.49    0.47
   1   5 -18    1.21    0.53
   0  -5 -18    0.89    0.58
   0   5 -18    0.98    0.49
  -1  -5 -18    0.30    0.55
  -1   5 -18   -0.02    0.43
  -2   5 -18    0.33    0.46
  -3  -5 -18   -0.70    0.46
  -3   5 -18    0.54    0.51
  -4  -5 -18    0.12    0.52
  -4   5 -18    1.03    0.57
  -5  -5 -18   -0.30    0.54
  -5   5 -18    0.81    0.54
  -6  -5 -18   -0.10    0.60
  -6   5 -18    1.59    0.63
  -7  -5 -18   -1.43    0.57
  -7   5 -18   -0.06    0.45
  -7   5 -18    0.52    0.56
   7   6 -18    0.30    0.52
   6   6 -18    0.35    0.55
  -5   6  18    0.31    0.30
   5   6 -18    0.72    0.55
   4  -6 -18   -0.67    0.55
   4   6 -18    0.62    0.48
   3  -6 -18    0.15    0.58
   3   6 -18   -0.35    0.47
   2  -6 -18   -0.71    0.50
   2   6 -18    0.24    0.51
   1  -6 -18   -0.31    0.50
   1   6 -18    0.91    0.51
   0  -6 -18   -0.03    0.49
   0   6 -18    0.48    0.48
  -1  -6 -18   -0.34    0.46
  -1   6 -18    0.49    0.49
  -2  -6 -18    0.54    0.59
  -2   6 -18   -0.01    0.46
  -3  -6 -18   -0.18    0.53
  -3   6 -18    1.09    0.58
  -4  -6 -18   -0.30    0.54
  -4   6 -18    0.13    0.54
  -5  -6 -18   -0.68    0.58
  -5   6 -18    0.93    0.58
   3   7 -18    1.01    0.59
   2   7 -18   -0.01    0.50
   1  -7 -18   -0.80    0.52
   1   7 -18    0.48    0.54
   0   7 -18    0.18    0.51
  -1   7 -18    0.39    0.53
 -12   0  19   -0.07    0.49
 -11   0  19    0.00    0.45
 -10   0  19   -0.52    0.39
  -9   0  19    0.51    0.42
  -8   0  19   -0.35    0.33
   7   0 -19    0.30    0.41
   6   0 -19    0.36    0.45
   5   0 -19    0.07    0.47
   4   0 -19    0.32    0.45
   3   0 -19    0.87    0.56
   2   0 -19   -0.26    0.50
   1   0 -19    0.16    0.53
   0   0 -19   -0.03    0.51
  -1   0 -19    0.91    0.58
  -2   0 -19    0.42    0.53
  -3   0 -19    0.08    0.55
  -4   0 -19    0.38    0.57
  -5   0 -19    0.03    0.57
  -6   0 -19    0.34    0.60
  -7   0 -19   -0.61    0.61
  -8   0 -19    0.47    0.67
  -9   0 -19    0.39    0.70
 -12   1  19    0.01    0.46
 -11   1  19    0.61    0.49
 -10   1  19    0.67    0.45
  -9  -1  19    1.01    0.47
  -9   1  19    0.57    0.41
  -8  -1  19   -0.34    0.39
  -8   1  19   -0.28    0.33
   7   1 -19    0.98    0.46
   6  -1 -19    1.81    0.56
   6   1 -19    2.43    0.55
   5  -1 -19    1.48    0.57
   5   1 -19    1.85    0.54
   4  -1 -19    0.13    0.52
   4   1 -19    0.06    0.45
   3  -1 -19   -0.02    0.54
   3   1 -19    0.58    0.49
   2  -1 -19    3.04    0.70
   2   1 -19    2.09    0.60
   1  -1 -19    2.46    0.71
   1   1 -19    1.08    0.56
   0  -1 -19    0.94    0.62
   0   1 -19    0.85    0.55
   0   1 -19    1.37    0.40
  -1  -1 -19    0.69    0.59
  -1   1 -19    0.21    0.50
  -1   1 -19    0.08    0.33
  -2  -1 -19   -0.20    0.55
  -2   1 -19   -0.05    0.49
  -2   1 -19    0.02    0.32
  -3  -1 -19    0.82    0.66
  -3   1 -19    0.54    0.55
  -3   1 -19    0.12    0.36
  -4  -1 -19    0.52    0.64
  -4   1 -19   -0.11    0.33
  -4   1 -19   -0.06    0.52
  -5  -1 -19    0.12    0.62
  -5   1 -19    0.24    0.56
  -5   1 -19    0.66    0.43
  -6  -1 -19    0.53    0.66
  -6   1 -19    0.04    0.38
  -6   1 -19   -0.14    0.57
  -7  -1 -19   -0.98    0.63
  -7   1 -19    0.25    0.58
  -7   1 -19   -0.09    0.41
  -8  -1 -19    0.55    0.70
  -8   1 -19    1.01    0.66
  -8   1 -19   -0.41    0.40
  -9  -1 -19   -0.61    0.70
  -9   1 -19   -0.18    0.62
  -9   1 -19   -0.27    0.45
 -10   1 -19    0.56    0.53
 -11   2  19   -0.58    0.41
 -10   2  19    0.57    0.42
  -9   2  19   -0.25    0.35
  -8   2  19    0.56    0.40
   8   2 -19    1.09    0.47
   7   2 -19    0.38    0.40
   6  -2 -19    0.56    0.55
   6   2 -19    0.97    0.46
   5  -2 -19   -0.27    0.51
   5   2 -19    0.35    0.45
   4  -2 -19    0.85    0.61
   4   2 -19    0.93    0.50
   3  -2 -19    1.39    0.66
  -3  -2  19    4.62    2.78
   3   2 -19    1.64    0.56
   2  -2 -19    0.14    0.60
   2   2 -19    0.66    0.48
   1  -2 -19    0.30    0.62
   1   2 -19   -0.10    0.45
   0  -2  19    0.72    0.47
   0  -2 -19    1.17    0.66
   0   2 -19   -0.02    0.47
   1  -2  19    1.07    0.51
  -1  -2 -19    0.38    0.62
  -1   2 -19    0.73    0.39
  -1   2 -19    0.93    0.52
  -2  -2 -19    0.64    0.65
  -2   2 -19   -0.02    0.46
  -2   2 -19    0.59    0.39
  -3  -2 -19   -0.72    0.53
  -3   2 -19    0.15    0.48
  -3   2 -19    0.40    0.39
  -4  -2 -19    0.53    0.63
  -4   2 -19    0.46    0.40
  -4   2 -19    0.05    0.51
  -5  -2 -19   -0.71    0.58
  -5   2 -19    0.02    0.53
  -5   2 -19   -0.39    0.38
  -6  -2 -19   -0.86    0.60
  -6   2 -19   -0.23    0.50
  -6   2 -19   -0.12    0.42
  -7  -2 -19   -0.77    0.67
  -7   2 -19    0.35    0.53
  -7   2 -19   -0.31    0.38
  -8  -2 -19   -0.29    0.76
  -8   2 -19    0.21    0.47
  -8   2 -19    0.26    0.57
  -9  -2 -19   -0.58    0.77
  -9   2 -19   -0.46    0.46
 -11   3  19    0.38    0.45
 -10   3  19    0.46    0.44
  -9   3  19    0.39    0.40
  -8   3  19    1.15    0.41
   8   3 -19    1.21    0.47
   7   3 -19    0.45    0.44
   6   3 -19    1.59    0.53
   5  -3 -19    0.82    0.66
   5   3 -19    1.41    0.54
  -4  -3  19    5.45    2.59
   4  -3 -19    2.99    0.75
   4   3 -19    2.98    0.62
  -3  -3  19    1.26    2.21
   3  -3 -19    0.11    0.61
   3   3 -19    0.02    0.44
  -2  -3  19    2.48    2.26
   2  -3 -19    1.76    0.71
   2   3 -19    2.03    0.59
  -1  -3  19   -0.75    1.97
   1  -3 -19   -0.05    0.56
   1   3 -19    0.09    0.49
   0  -3  19   -0.47    2.10
   0  -3 -19   -0.82    0.50
   0   3 -19    0.09    0.44
  -1  -3 -19    1.59    0.67
  -1   3 -19    1.76    0.57
  -2  -3 -19    0.00    0.56
  -2   3 -19   -0.03    0.34
  -2   3 -19    1.07    0.52
  -3  -3 -19    0.04    0.60
  -3   3 -19    0.30    0.41
  -3   3 -19    0.03    0.44
  -4  -3 -19   -0.38    0.57
  -4   3 -19    0.26    0.49
  -4   3 -19   -0.40    0.36
  -5  -3 -19   -0.37    0.63
  -5   3 -19    0.35    0.44
  -5   3 -19    1.21    0.56
  -6  -3 -19   -1.26    0.59
  -6   3 -19    0.47    0.49
  -6   3 -19    0.26    0.44
  -7  -3 -19    0.23    0.74
  -7   3 -19    0.09    0.52
  -7   3 -19    0.19    0.47
  -8  -3 -19   -1.18    0.77
  -8   3 -19    0.22    0.54
  -8   3 -19   -0.26    0.48
  -9   3 -19    0.15    0.56
 -10   4  19   -0.44    0.37
  -9   4  19    0.06    0.37
  -8   4  19   -0.03    0.36
   8   4 -19    0.53    0.48
  -7   4  19    0.27    0.35
   7   4 -19    0.94    0.52
   6   4 -19    0.48    0.47
   5  -4 -19   -0.68    0.60
   5   4 -19    0.54    0.46
   4  -4 -19    0.91    0.66
   4   4 -19    1.16    0.52
   3  -4 -19    0.54    0.62
   3   4 -19   -0.05    0.46
   2  -4 -19    0.20    0.59
   2   4 -19    0.62    0.49
   1  -4 -19   -0.62    0.53
   1   4 -19    0.54    0.46
   0  -4 -19    0.90    0.63
   0   4 -19    1.09    0.49
  -1  -4 -19    0.14    0.56
  -1   4 -19    0.43    0.44
  -2  -4 -19    0.07    0.57
  -2   4 -19    0.19    0.45
  -3  -4 -19   -0.30    0.51
  -3   4 -19    0.84    0.51
  -4  -4 -19   -0.13    0.54
  -4   4 -19   -0.15    0.48
  -4   4 -19   -0.14    0.37
  -5  -4 -19   -0.68    0.58
  -5   4 -19    0.70    0.53
  -5   4 -19    0.32    0.41
  -6  -4 -19   -0.28    0.70
  -6   4 -19   -0.06    0.46
  -6   4 -19    0.52    0.56
  -7  -4 -19   -1.30    0.63
  -7   4 -19    0.85    0.56
  -7   4 -19    0.01    0.48
  -8  -4 -19   -0.84    0.74
  -8   4 -19    0.48    0.52
   8   5 -19    1.04    0.59
  -8   5  19    0.19    0.38
   7   5 -19    0.66    0.53
  -7   5  19    0.23    0.35
   6   5 -19    0.26    0.49
  -6   5  19    0.02    0.29
   5   5 -19    0.60    0.51
   4  -5 -19   -0.89    0.58
   4   5 -19    0.20    0.48
   3  -5 -19   -0.36    0.58
   3   5 -19    0.85    0.52
   2  -5 -19   -0.63    0.52
   2   5 -19    0.68    0.52
   1  -5 -19   -0.83    0.48
   1   5 -19    0.87    0.52
   0  -5 -19   -0.34    0.50
   0   5 -19   -0.03    0.43
  -1  -5 -19   -0.27    0.53
  -1   5 -19    0.25    0.44
  -2  -5 -19   -0.57    0.54
  -2   5 -19    0.47    0.50
  -3  -5 -19   -0.58    0.53
  -3   5 -19    0.68    0.54
  -4  -5 -19    0.28    0.56
  -4   5 -19    0.87    0.56
  -5  -5 -19   -0.82    0.55
  -5   5 -19    0.68    0.56
  -6  -5 -19   -0.53    0.61
  -6   5 -19    0.88    0.58
  -6   6  19   -0.09    0.32
   6   6 -19    0.71    0.60
  -5   6  19    0.21    0.31
   5   6 -19    0.68    0.59
   4  -6 -19    0.23    0.68
   4   6 -19   -0.08    0.51
   3  -6 -19   -0.37    0.60
   3   6 -19    0.63    0.55
   2  -6 -19   -0.39    0.56
   2   6 -19    0.29    0.51
   1  -6 -19    0.00    0.58
   1   6 -19    1.49    0.57
   0  -6 -19    0.05    0.58
   0   6 -19   -0.01    0.44
  -1  -6 -19   -0.05    0.58
  -1   6 -19    0.37    0.52
  -2  -6 -19   -0.68    0.51
  -2   6 -19    0.11    0.49
  -3  -6 -19   -0.49    0.54
  -3   6 -19    0.98    0.57
  -4   6 -19   -0.02    0.56
 -11   0  20   -0.03    0.46
 -10   0  20    0.77    0.50
  -9   0  20   -0.04    0.39
  -8   0  20    0.66    0.42
   7   0 -20    0.42    0.44
   6   0 -20    0.29    0.49
   5   0 -20   -0.29    0.46
   4   0 -20    0.36    0.50
   3   0 -20    0.29    0.53
   2   0 -20    0.79    0.56
   1   0 -20   -0.12    0.52
   0   0 -20   -0.44    0.48
  -1   0 -20   -0.60    0.47
  -2   0 -20    0.25    0.52
  -3   0 -20   -0.50    0.51
  -4   0 -20    1.24    0.64
  -5   0 -20    0.01    0.58
  -6   0 -20    1.12    0.70
  -7   0 -20    0.33    0.65
  -8   0 -20    0.68    0.72
  -9   0 -20    0.25    0.74
 -11   1  20    0.51    0.50
 -10   1  20    0.24    0.46
  -9   1  20   -0.19    0.38
  -8  -1  20    2.56    0.56
  -8   1  20    2.65    0.52
   7   1 -20    0.09    0.43
   6  -1 -20    0.24    0.51
   6   1 -20    0.72    0.48
   5  -1 -20   -0.40    0.47
   5   1 -20    0.27    0.46
   4  -1 -20    2.50    0.67
   4   1 -20    2.59    0.61
   3  -1 -20    0.57    0.55
   3   1 -20   -0.22    0.43
   2  -1 -20    0.59    0.59
   2   1 -20   -0.10    0.50
   1  -1 -20    7.21    0.92
   1   1 -20    5.93    0.82
   0  -1 -20    2.99    0.73
   0   1 -20    3.10    0.49
   0   1 -20    3.60    0.72
  -1  -1 -20    0.75    0.62
  -1   1 -20    0.69    0.52
  -1   1 -20    0.75    0.38
  -2  -1 -20    0.54    0.62
  -2   1 -20   -0.18    0.49
  -2   1 -20   -0.31    0.33
  -3  -1 -20    0.22    0.60
  -3   1 -20    0.73    0.40
  -3   1 -20   -0.35    0.51
  -4  -1 -20    0.39    0.64
  -4   1 -20    0.45    0.55
  -4   1 -20    0.31    0.40
  -5  -1 -20   -0.26    0.62
  -5   1 -20    0.04    0.58
  -5   1 -20    0.20    0.41
  -6  -1 -20   -0.12    0.64
  -6   1 -20   -0.47    0.53
  -6   1 -20   -0.20    0.39
  -7  -1 -20    0.13    0.67
  -7   1 -20   -0.25    0.60
  -7   1 -20    0.49    0.46
  -8  -1 -20   -1.02    0.68
  -8   1 -20    0.35    0.64
  -8   1 -20   -0.51    0.45
  -9  -1 -20   -0.72    0.72
  -9   1 -20    0.43    0.49
  -9   1 -20   -0.07    0.65
 -11   2  20    0.03    0.47
 -10   2  20    0.13    0.42
  -9   2  20    0.97    0.45
   8   2 -20    0.55    0.46
  -8   2  20    0.14    0.38
   7   2 -20    1.26    0.48
   6  -2 -20   -0.38    0.49
   6   2 -20    0.16    0.42
   5  -2 -20    1.96    0.65
   5   2 -20    2.51    0.61
   4  -2 -20    0.68    0.59
   4   2 -20    1.21    0.53
   3  -2 -20    7.65    0.95
   3   2 -20    8.08    0.87
   2  -2 -20    1.12    0.68
   2   2 -20    1.26    0.55
   1  -2 -20    4.03    0.82
   1   2 -20    2.52    0.65
   0  -2 -20    2.56    0.76
   0   2 -20    3.96    0.72
  -1  -2 -20    0.05    0.62
  -1   2 -20    1.67    0.57
  -1   2 -20    1.20    0.41
  -2  -2 -20   -0.46    0.55
  -2   2 -20    0.14    0.48
  -2   2 -20    0.22    0.37
  -3  -2 -20    0.35    0.62
  -3   2 -20   -0.46    0.35
  -3   2 -20    0.79    0.54
  -4  -2 -20   -0.53    0.58
  -4   2 -20   -0.10    0.50
  -4   2 -20    0.19    0.38
  -5  -2 -20   -0.74    0.62
  -5   2 -20    0.31    0.54
  -5   2 -20   -0.43    0.39
  -6  -2 -20   -1.28    0.59
  -6   2 -20   -0.21    0.52
  -6   2 -20   -0.06    0.39
  -7  -2 -20   -0.79    0.70
  -7   2 -20    0.17    0.58
  -7   2 -20    0.29    0.49
  -8  -2 -20   -0.26    0.79
  -8   2 -20   -0.73    0.43
  -8   2 -20    0.67    0.60
  -9  -2 -20   -0.36    0.83
  -9   2 -20    0.56    0.55
 -10   3  20   -0.59    0.37
  -9   3  20    0.39    0.41
   8   3 -20    0.34    0.46
  -8   3  20    0.23    0.38
   7   3 -20    0.37    0.45
   6   3 -20    1.24    0.53
   5  -3 -20   -0.75    0.55
   5   3 -20    0.47    0.44
   4  -3 -20    0.41    0.63
   4   3 -20    0.08    0.45
   3  -3 -20    0.73    0.66
  -3  -3  20    1.46    2.44
   3   3 -20    0.65    0.50
  -2  -3  20    1.32    2.40
   2  -3 -20   -0.03    0.64
   2   3 -20    0.61    0.51
   1  -3 -20   -0.12    0.62
  -1  -3  20    0.13    2.37
   1   3 -20    1.48    0.61
   0  -3 -20   -0.62    0.57
   0   3 -20   -0.38    0.47
  -1  -3 -20    0.71    0.67
  -1   3 -20    0.19    0.47
  -2  -3 -20    0.32    0.63
  -2   3 -20    0.43    0.49
  -3  -3 -20   -0.77    0.58
  -3   3 -20    0.65    0.47
  -3   3 -20   -0.17    0.37
  -4  -3 -20   -0.11    0.65
  -4   3 -20    0.92    0.53
  -4   3 -20    0.92    0.49
  -5  -3 -20    0.39    0.71
  -5   3 -20    1.16    0.56
  -5   3 -20    0.53    0.45
  -6  -3 -20    0.37    0.72
  -6   3 -20    1.28    0.58
  -6   3 -20   -0.13    0.43
  -7  -3 -20   -0.48    0.75
  -7   3 -20   -0.83    0.44
  -7   3 -20    1.25    0.59
  -8  -3 -20   -0.60    0.85
  -8   3 -20   -0.21    0.50
  -8   3 -20    0.57    0.62
  -9   4  20    0.02    0.39
  -8   4  20   -0.18    0.34
   8   4 -20    0.39    0.50
   7   4 -20    0.20    0.47
  -7   4  20    0.37    0.38
   6   4 -20    0.67    0.48
   5  -4 -20   -0.10    0.64
   5   4 -20    0.68    0.49
   4  -4 -20   -0.21    0.66
   4   4 -20    0.37    0.50
   3  -4 -20   -0.59    0.59
   3   4 -20    0.46    0.45
   2  -4 -20   -0.12    0.62
   2   4 -20    0.77    0.51
   1  -4 -20    0.16    0.60
   1   4 -20    0.38    0.49
   0  -4 -20    0.26    0.60
   0   4 -20    0.49    0.46
  -1  -4 -20   -0.08    0.57
  -1   4 -20    0.20    0.43
  -2  -4 -20    0.02    0.61
  -2   4 -20    0.67    0.51
  -3  -4 -20   -0.46    0.58
  -3   4 -20    0.54    0.51
  -4  -4 -20    0.19    0.65
  -4   4 -20    1.06    0.57
  -5  -4 -20   -0.24    0.64
  -5   4 -20    0.83    0.56
  -5   4 -20   -0.21    0.44
  -6  -4 -20   -0.76    0.65
  -6   4 -20    0.77    0.59
  -6   4 -20    0.85    0.53
  -7  -4 -20   -0.33    0.72
  -7   4 -20    1.53    0.66
  -7   4 -20   -0.24    0.51
   7   5 -20    0.72    0.54
  -7   5  20   -0.13    0.33
   6   5 -20    0.30    0.51
  -6   5  20    0.13    0.33
   5   5 -20    0.55    0.53
   4  -5 -20    0.09    0.67
   4   5 -20   -0.34    0.41
   3  -5 -20   -0.15    0.65
   3   5 -20    0.64    0.53
   2  -5 -20   -1.12    0.54
   2   5 -20   -0.45    0.45
   1  -5 -20    0.37    0.60
   1   5 -20   -0.12    0.46
   0  -5 -20   -0.54    0.55
   0   5 -20    0.72    0.49
  -1  -5 -20   -0.48    0.59
  -1   5 -20    0.74    0.54
  -2  -5 -20   -0.33    0.59
  -2   5 -20    0.12    0.49
  -3  -5 -20   -0.62    0.59
  -3   5 -20    0.20    0.50
  -4  -5 -20   -1.16    0.51
  -4   5 -20    1.73    0.65
  -5  -5 -20   -0.64    0.65
  -5   5 -20    0.59    0.57
   5   6 -20    1.02    0.59
   4  -6 -20   -0.87    0.70
   4   6 -20    0.61    0.60
   3  -6 -20   -0.60    0.66
   3   6 -20    1.08    0.60
   2  -6 -20   -0.82    0.60
   2   6 -20    0.03    0.54
   1  -6 -20    0.54    0.67
   1   6 -20    0.33    0.52
   0  -6 -20   -0.05    0.64
   0   6 -20    0.93    0.57
  -1  -6 -20   -0.68    0.58
  -1   6 -20   -0.03    0.49
  -2  -6 -20   -0.11    0.60
  -2   6 -20    0.13    0.51
  -3   6 -20    0.15    0.51
 -11   0  21    0.81    0.55
 -10   0  21   -0.33    0.46
  -9   0  21    0.08    0.44
  -8   0  21    0.35    0.42
   7   0 -21    0.96    0.50
   6   0 -21    0.26    0.48
   5   0 -21    2.78    0.64
   4   0 -21   -0.50    0.48
   3   0 -21   -0.09    0.52
   2   0 -21   -0.16    0.53
   1   0 -21    2.23    0.69
   0   0 -21   -0.79    0.49
  -1   0 -21    1.00    0.59
  -2   0 -21   -0.03    0.55
  -3   0 -21   -0.38    0.53
  -4   0 -21   -0.45    0.56
  -5   0 -21    0.12    0.60
  -6   0 -21    0.21    0.63
  -7   0 -21   -0.14    0.64
  -8   0 -21    0.10    0.70
 -11   1  21    0.21    0.51
 -10   1  21    0.24    0.48
  -9   1  21    0.12    0.40
  -8   1  21    0.39    0.40
   7   1 -21    4.31    0.70
   6  -1 -21    0.87    0.56
   6   1 -21    0.80    0.50
   5  -1 -21    0.02    0.52
   5   1 -21    0.27    0.45
   4  -1 -21   -0.06    0.55
   4   1 -21    0.54    0.50
   3  -1 -21    3.10    0.73
   3   1 -21    2.11    0.64
   2  -1 -21    1.16    0.64
   2   1 -21    0.41    0.55
   1  -1 -21    0.81    0.62
   1   1 -21   -0.08    0.51
   0  -1 -21    1.88    0.70
   0   1 -21    1.68    0.62
  -1  -1 -21    0.45    0.60
  -1   1 -21    0.03    0.51
  -2  -1 -21    0.61    0.61
  -2   1 -21    0.16    0.37
  -2   1 -21    0.68    0.57
  -3  -1 -21   -0.42    0.61
  -3   1 -21   -0.29    0.36
  -3   1 -21   -0.58    0.48
  -4  -1 -21   -0.18    0.64
  -4   1 -21    0.38    0.43
  -4   1 -21    0.14    0.52
  -5  -1 -21    0.55    0.67
  -5   1 -21    0.28    0.43
  -5   1 -21   -0.12    0.58
  -6  -1 -21   -0.10    0.65
  -6   1 -21    0.27    0.60
  -6   1 -21   -0.78    0.37
  -7  -1 -21    0.03    0.69
  -7   1 -21   -0.20    0.63
  -8  -1 -21   -0.08    0.73
  -8   1 -21    0.23    0.63
 -10   2  21    0.74    0.50
  -9   2  21    0.82    0.46
  -8   2  21    0.78    0.43
   7   2 -21    1.05    0.51
   6  -2 -21    0.52    0.57
   6   2 -21    0.17    0.45
   5  -2 -21    0.22    0.55
   5   2 -21   -0.28    0.44
   4  -2 -21    0.76    0.62
   4   2 -21    0.79    0.53
   3  -2 -21   -0.10    0.59
   3   2 -21   -0.20    0.46
   2  -2 -21    0.47    0.62
   2   2 -21    0.40    0.52
   1  -2 -21   -0.47    0.59
   1   2 -21    0.17    0.48
   0  -2 -21    0.74    0.68
   0   2 -21    0.33    0.53
  -1  -2 -21    0.92    0.70
  -1   2 -21    1.21    0.57
  -2  -2 -21    0.17    0.66
  -2   2 -21    0.12    0.37
  -2   2 -21    0.05    0.47
  -3  -2 -21   -0.16    0.64
  -3   2 -21    0.25    0.41
  -3   2 -21    0.08    0.50
  -4  -2 -21   -0.65    0.64
  -4   2 -21    0.04    0.40
  -4   2 -21    0.01    0.52
  -5  -2 -21    0.47    0.73
  -5   2 -21   -0.10    0.43
  -5   2 -21    0.66    0.55
  -6  -2 -21    0.56    0.74
  -6   2 -21   -0.60    0.52
  -6   2 -21   -0.14    0.43
  -7  -2 -21   -1.07    0.68
  -7   2 -21   -0.01    0.56
  -7   2 -21   -0.18    0.46
  -8  -2 -21   -0.36    0.84
  -8   2 -21   -0.85    0.49
  -8   2 -21    1.11    0.69
  -9   3  21    1.30    0.48
   8   3 -21    0.70    0.50
  -8   3  21    0.36    0.40
   7   3 -21    1.45    0.56
   6   3 -21    0.87    0.50
   5  -3 -21    0.28    0.65
   5   3 -21    0.60    0.50
   4  -3 -21   -0.29    0.62
   4   3 -21    1.12    0.53
   3  -3 -21    0.57    0.67
   3   3 -21    1.24    0.56
   2  -3 -21    0.24    0.64
  -2  -3  21    0.07    2.64
   2   3 -21    0.11    0.51
   1  -3 -21   -0.08    0.66
   1   3 -21    0.73    0.54
   0  -3 -21   -0.30    0.65
   0   3 -21    0.02    0.50
  -1  -3 -21   -1.16    0.59
  -1   3 -21    0.28    0.47
  -2  -3 -21   -0.55    0.61
  -2   3 -21    0.07    0.49
  -3  -3 -21   -0.68    0.58
  -3   3 -21    0.70    0.51
  -3   3 -21   -0.12    0.41
  -4  -3 -21   -0.73    0.63
  -4   3 -21    0.33    0.51
  -4   3 -21    0.40    0.45
  -5  -3 -21   -0.42    0.67
  -5   3 -21    0.33    0.52
  -5   3 -21   -0.08    0.44
  -6  -3 -21   -0.44    0.73
  -6   3 -21    1.89    0.68
  -6   3 -21   -0.10    0.48
  -7  -3 -21   -0.57    0.82
  -7   3 -21    0.08    0.51
  -7   3 -21    0.51    0.59
  -8   4  21    0.29    0.37
   8   4 -21    0.20    0.51
  -7   4  21    0.17    0.37
   7   4 -21    0.59    0.54
   6   4 -21    2.11    0.62
   5  -4 -21   -1.23    0.62
   5   4 -21    0.02    0.49
   4  -4 -21    0.00    0.69
   4   4 -21    1.15    0.54
   3  -4 -21   -0.47    0.67
   3   4 -21    0.93    0.54
   2  -4 -21    0.07    0.64
   2   4 -21    0.18    0.47
   1  -4 -21   -1.20    0.56
   1   4 -21    0.94    0.53
   0  -4 -21   -0.37    0.63
   0   4 -21    0.59    0.49
  -1  -4 -21    0.19    0.68
  -1   4 -21    1.12    0.54
  -2  -4 -21   -0.28    0.63
  -2   4 -21    0.78    0.54
  -3  -4 -21   -0.41    0.64
  -3   4 -21   -0.03    0.50
  -4  -4 -21   -0.54    0.60
  -4   4 -21    0.81    0.56
  -5  -4 -21   -0.54    0.65
  -5   4 -21    0.61    0.60
  -5   4 -21    0.48    0.47
  -6  -4 -21   -0.60    0.71
  -6   4 -21    0.17    0.50
  -6   4 -21    1.07    0.58
   6   5 -21   -0.18    0.49
   5   5 -21    0.18    0.55
   4  -5 -21    0.47    0.76
   4   5 -21    1.62    0.62
   3  -5 -21   -0.29    0.68
   3   5 -21    0.39    0.53
   2  -5 -21   -0.15    0.68
   2   5 -21    0.44    0.54
   1  -5 -21   -0.13    0.64
   1   5 -21    1.69    0.61
   0  -5 -21   -0.68    0.60
   0   5 -21    0.71    0.49
  -1  -5 -21   -0.72    0.59
  -1   5 -21    0.71    0.54
  -2  -5 -21    0.09    0.65
  -2   5 -21    0.03    0.50
  -3  -5 -21   -0.19    0.70
  -3   5 -21    1.43    0.62
  -4  -5 -21   -0.73    0.62
  -4   5 -21    1.15    0.63
   3   6 -21    1.51    0.66
   2  -6 -21   -0.31    0.70
   2   6 -21    0.08    0.56
   1  -6 -21   -1.36    0.60
   1   6 -21   -0.07    0.51
   0  -6 -21   -0.55    0.69
   0   6 -21    0.13    0.54
  -1   6 -21    0.27    0.53
 -10   0  22    0.29    0.51
  -9   0  22   -0.59    0.43
  -8   0  22    0.64    0.46
   6   0 -22    0.78    0.55
   5   0 -22    0.06    0.48
   4   0 -22    1.24    0.60
   3   0 -22   -0.48    0.51
   2   0 -22    1.40    0.65
   1   0 -22    0.56    0.60
   0   0 -22    3.06    0.75
  -1   0 -22    0.46    0.62
  -2   0 -22   -0.25    0.55
  -3   0 -22   -0.56    0.55
  -4   0 -22   -0.58    0.54
  -5   0 -22   -0.05    0.61
  -6   0 -22    0.53    0.69
  -7   0 -22    0.37    0.73
  -8   0 -22    0.01    0.73
 -10   1  22    0.45    0.51
  -9   1  22    1.48    0.53
  -8   1  22    0.45    0.42
   7   1 -22    0.79    0.50
   6  -1 -22    1.24    0.59
   6   1 -22    1.16    0.52
   5  -1 -22    0.63    0.58
   5   1 -22    0.81    0.50
   4  -1 -22   -0.15    0.55
   4   1 -22    0.14    0.52
   3  -1 -22    0.77    0.61
   3   1 -22    0.31    0.56
   2  -1 -22    5.14    0.87
   2   1 -22    4.23    0.76
   1  -1 -22    3.11    0.77
   1   1 -22    2.06    0.68
   0  -1 -22    0.40    0.63
   0   1 -22   -0.03    0.51
  -1  -1 -22   -0.27    0.55
  -1   1 -22   -0.68    0.49
  -2  -1 -22    0.72    0.62
  -2   1 -22   -0.09    0.55
  -3  -1 -22    0.08    0.61
  -3   1 -22   -0.39    0.52
  -4  -1 -22    0.16    0.64
  -4   1 -22   -0.31    0.54
  -5  -1 -22    0.18    0.69
  -5   1 -22    0.25    0.60
  -6  -1 -22   -0.32    0.67
  -6   1 -22    0.88    0.64
  -7  -1 -22    0.47    0.79
  -7   1 -22    0.30    0.66
  -8  -1 -22    0.43    0.83
  -8   1 -22    1.00    0.72
  -9   2  22   -0.88    0.35
  -8   2  22    0.56    0.45
   7   2 -22    0.06    0.44
   6  -2 -22    0.36    0.60
   6   2 -22    0.22    0.44
   5  -2 -22    0.10    0.59
   5   2 -22    0.06    0.48
   4  -2 -22    0.39    0.62
   4   2 -22    0.60    0.48
   3  -2 -22   -0.07    0.59
   3   2 -22    0.26    0.50
   2  -2 -22    0.69    0.66
   2   2 -22    0.53    0.53
   1  -2 -22    0.09    0.65
   1   2 -22   -0.18    0.46
   0  -2 -22    0.14    0.64
   0   2 -22    0.12    0.51
  -1  -2 -22    1.82    0.78
  -1   2 -22    1.40    0.60
  -2  -2 -22   -0.15    0.64
  -2   2 -22    0.85    0.54
  -2   2 -22   -0.20    0.38
  -3  -2 -22   -0.75    0.60
  -3   2 -22   -0.04    0.51
  -3   2 -22   -0.30    0.39
  -4  -2 -22   -0.11    0.69
  -4   2 -22    0.08    0.43
  -4   2 -22   -0.12    0.50
  -5  -2 -22   -0.08    0.69
  -5   2 -22    0.18    0.57
  -5   2 -22    0.05    0.45
  -6  -2 -22    0.08    0.76
  -6   2 -22    0.26    0.58
  -6   2 -22   -0.16    0.47
  -7  -2 -22   -0.45    0.80
  -7   2 -22   -0.04    0.53
  -7   2 -22    0.50    0.64
  -9   3  22    1.39    0.53
   8   3 -22    0.07    0.50
  -8   3  22    0.63    0.44
   7   3 -22    0.19    0.48
   6   3 -22    0.64    0.52
   5  -3 -22   -0.14    0.61
   5   3 -22    0.78    0.54
   4  -3 -22   -0.41    0.64
   4   3 -22    0.38    0.50
   3  -3 -22   -0.22    0.67
   3   3 -22    0.38    0.51
   2  -3 -22    0.25    0.67
   2   3 -22    0.18    0.50
   1  -3 -22    0.00    0.68
   1   3 -22    0.57    0.53
   0  -3 -22    0.47    0.72
   0   3 -22    0.91    0.54
  -1  -3 -22   -0.45    0.64
  -1   3 -22    0.08    0.48
  -2  -3 -22   -0.70    0.63
  -2   3 -22    0.36    0.47
  -3  -3 -22   -0.02    0.67
  -3   3 -22    0.26    0.50
  -3   3 -22   -0.08    0.41
  -4  -3 -22    0.01    0.71
  -4   3 -22    0.57    0.55
  -4   3 -22    0.68    0.50
  -5  -3 -22    0.64    0.79
  -5   3 -22    0.45    0.51
  -5   3 -22    0.04    0.52
  -6  -3 -22   -0.49    0.76
  -6   3 -22    1.48    0.65
  -6   3 -22    0.10    0.53
  -8   4  22   -0.48    0.36
   7   4 -22    0.07    0.51
  -7   4  22    0.18    0.39
   6   4 -22    0.80    0.56
   5  -4 -22   -0.86    0.69
   5   4 -22    0.18    0.53
   4  -4 -22   -0.14    0.68
   4   4 -22    0.65    0.53
   3  -4 -22   -0.25    0.70
   3   4 -22    0.70    0.50
   2  -4 -22    0.25    0.72
   2   4 -22    0.07    0.46
   1  -4 -22   -0.13    0.65
   1   4 -22    0.57    0.54
   0  -4 -22    0.37    0.70
   0   4 -22    0.66    0.48
  -1  -4 -22    0.23    0.74
  -1   4 -22    0.90    0.54
  -2  -4 -22   -1.36    0.60
  -2   4 -22    1.13    0.57
  -3  -4 -22    0.07    0.73
  -3   4 -22    0.48    0.55
  -4  -4 -22   -0.06    0.74
  -4   4 -22    1.02    0.57
  -5  -4 -22   -0.10    0.79
  -5   4 -22    0.31    0.60
  -5   4 -22    0.27    0.49
   5   5 -22    0.08    0.55
   4  -5 -22   -0.95    0.71
   4   5 -22    0.99    0.60
   3  -5 -22   -0.05    0.75
   3   5 -22    0.69    0.57
   2  -5 -22    0.89    0.80
   2   5 -22    0.48    0.55
   1  -5 -22   -1.23    0.66
   1   5 -22    1.01    0.61
   0  -5 -22   -0.82    0.68
   0   5 -22    0.53    0.55
  -1  -5 -22   -1.27    0.63
  -1   5 -22    0.34    0.53
  -2  -5 -22    0.66    0.77
  -2   5 -22    0.61    0.55
  -3  -5 -22   -1.20    0.65
  -3   5 -22    0.30    0.52
  -9   0  23    0.49    0.52
   6   0 -23    0.45    0.51
   5   0 -23    1.55    0.61
   4   0 -23   -0.02    0.52
   3   0 -23    0.59    0.60
   2   0 -23    0.16    0.56
   1   0 -23    1.79    0.71
   0   0 -23   -0.46    0.53
  -1   0 -23    1.79    0.71
  -2   0 -23   -0.29    0.55
  -3   0 -23    0.21    0.60
  -4   0 -23    0.50    0.61
  -5   0 -23   -0.81    0.59
  -6   0 -23    0.05    0.65
  -7   0 -23   -0.87    0.65
  -9   1  23   -0.14    0.45
   7   1 -23    0.27    0.50
   6  -1 -23    0.51    0.52
   6   1 -23    0.88    0.51
   5  -1 -23   -0.14    0.54
   5   1 -23   -0.12    0.47
   4  -1 -23    0.61    0.59
   4   1 -23    0.40    0.53
   3  -1 -23   -0.11    0.57
   3   1 -23    0.20    0.53
   2  -1 -23    1.84    0.71
   2   1 -23    1.47    0.65
   1  -1 -23    0.50    0.63
   1   1 -23    0.66    0.60
   0  -1 -23   -0.09    0.59
   0   1 -23   -0.36    0.52
  -1  -1 -23   -0.62    0.56
  -1   1 -23    0.12    0.56
  -2  -1 -23    0.08    0.58
  -2   1 -23   -0.08    0.54
  -3  -1 -23    1.01    0.66
  -3   1 -23   -0.32    0.50
  -4  -1 -23    0.35    0.67
  -4   1 -23    0.79    0.60
  -5  -1 -23    0.25    0.69
  -5   1 -23   -0.09    0.59
  -6  -1 -23    0.33    0.77
  -6   1 -23    0.84    0.67
  -7  -1 -23   -0.12    0.76
  -7   1 -23   -0.21    0.65
  -9   2  23    0.95    0.49
  -8   2  23    0.18    0.44
   7   2 -23    0.36    0.48
   6   2 -23    0.50    0.50
   5  -2 -23    0.29    0.63
   5   2 -23    1.35    0.58
   4  -2 -23   -0.56    0.57
   4   2 -23    0.33    0.50
   3  -2 -23    0.06    0.61
   3   2 -23    0.38    0.51
   2  -2 -23    0.31    0.64
   2   2 -23    0.52    0.55
   1  -2 -23    0.30    0.67
   1   2 -23    0.60    0.56
   0  -2 -23   -0.22    0.65
   0   2 -23   -0.05    0.49
  -1  -2 -23   -0.34    0.66
  -1   2 -23   -0.17    0.49
  -2  -2 -23   -0.14    0.65
  -2   2 -23    0.26    0.52
  -2   2 -23   -0.08    0.41
  -3  -2 -23    0.39    0.73
  -3   2 -23    0.45    0.54
  -3   2 -23    0.43    0.46
  -4  -2 -23   -0.39    0.68
  -4   2 -23    0.23    0.54
  -4   2 -23    0.84    0.50
  -5  -2 -23   -0.37    0.74
  -5   2 -23    0.28    0.59
  -5   2 -23   -0.20    0.47
  -6  -2 -23    0.26    0.80
  -6   2 -23   -0.07    0.51
  -6   2 -23   -0.06    0.64
  -8   3  23    1.18    0.51
   7   3 -23   -0.09    0.46
   6   3 -23    0.74    0.54
   5  -3 -23    1.06    0.69
   5   3 -23    0.94    0.56
   4  -3 -23    0.78    0.71
   4   3 -23    2.47    0.65
   3  -3 -23   -0.03    0.67
   3   3 -23    0.37    0.52
   2  -3 -23   -0.44    0.70
   2   3 -23    0.46    0.56
   1  -3 -23   -0.71    0.62
   1   3 -23    0.40    0.59
   0  -3 -23    0.19    0.72
   0   3 -23    0.91    0.59
  -1  -3 -23   -0.92    0.65
  -1   3 -23    0.65    0.55
  -2  -3 -23   -0.70    0.67
  -2   3 -23   -0.58    0.43
  -3  -3 -23    0.78    0.76
  -3   3 -23    0.77    0.57
  -4  -3 -23   -0.41    0.75
  -4   3 -23    0.40    0.54
  -4   3 -23    0.02    0.49
  -5  -3 -23   -1.18    0.70
  -5   3 -23    1.21    0.67
  -5   3 -23    0.38    0.51
   6   4 -23    0.27    0.57
   5   4 -23    0.96    0.60
   4  -4 -23   -0.64    0.71
   4   4 -23    0.24    0.52
   3  -4 -23   -0.67    0.74
   3   4 -23    0.56    0.56
   2  -4 -23   -0.13    0.74
   2   4 -23    0.77    0.57
   1  -4 -23   -0.53    0.72
   1   4 -23    0.66    0.57
   0  -4 -23   -0.11    0.79
   0   4 -23    0.23    0.49
  -1  -4 -23   -0.31    0.77
  -1   4 -23    0.40    0.51
  -2  -4 -23   -0.67    0.69
  -2   4 -23    0.75    0.57
  -3  -4 -23   -0.65    0.77
  -3   4 -23    0.90    0.59
  -4  -4 -23   -0.74    0.75
  -4   4 -23    1.70    0.67
   4   5 -23    0.46    0.62
   3  -5 -23   -0.73    0.76
   3   5 -23    1.50    0.65
   2  -5 -23   -0.46    0.77
   2   5 -23    1.17    0.60
   1  -5 -23   -0.55    0.77
   1   5 -23    0.67    0.59
   0  -5 -23   -0.25    0.74
   0   5 -23    0.69    0.59
  -1  -5 -23   -0.28    0.80
  -1   5 -23    0.86    0.63
  -9   0  24    0.17    0.52
   6   0 -24    2.42    0.69
   5   0 -24    0.27    0.56
   4   0 -24   -0.75    0.51
   3   0 -24    0.17    0.55
   2   0 -24    0.81    0.61
   1   0 -24    0.06    0.60
   0   0 -24    1.74    0.72
  -1   0 -24    0.88    0.66
  -2   0 -24    0.36    0.62
  -3   0 -24    0.22    0.59
  -4   0 -24    0.24    0.65
  -5   0 -24   -0.75    0.59
  -6   0 -24    0.40    0.76
   7   1 -24    1.11    0.56
   6  -1 -24    0.49    0.59
   6   1 -24   -0.02    0.49
   5  -1 -24   -0.67    0.52
   5   1 -24    0.88    0.54
   4  -1 -24    0.66    0.60
   4   1 -24    0.33    0.54
   3  -1 -24   -0.14    0.59
   3   1 -24   -0.06    0.53
   2  -1 -24   -0.31    0.58
   2   1 -24    0.09    0.52
   1  -1 -24    0.54    0.63
   1   1 -24   -0.26    0.55
   0  -1 -24    1.13    0.71
   0   1 -24   -0.82    0.52
  -1  -1 -24   -0.59    0.61
  -1   1 -24   -0.16    0.56
  -2  -1 -24   -0.02    0.61
  -2   1 -24   -0.30    0.54
  -3  -1 -24   -0.05    0.65
  -3   1 -24    0.56    0.62
  -4  -1 -24   -0.69    0.63
  -4   1 -24   -0.44    0.57
  -5  -1 -24   -0.19    0.69
  -5   1 -24    0.23    0.65
  -6  -1 -24   -0.33    0.75
  -6   1 -24   -0.87    0.59
  -8   2  24    0.63    0.50
   7   2 -24    0.64    0.54
   6   2 -24    0.40    0.51
   5  -2 -24   -1.16    0.54
   5   2 -24   -0.42    0.48
   4  -2 -24   -0.13    0.64
   4   2 -24    0.30    0.53
   3  -2 -24   -0.16    0.62
   3   2 -24    1.31    0.59
   2  -2 -24   -0.27    0.63
   2   2 -24    0.02    0.51
   1  -2 -24   -0.73    0.59
   1   2 -24    0.19    0.54
   0  -2 -24    0.15    0.64
   0   2 -24    0.72    0.57
  -1  -2 -24   -0.61    0.65
  -1   2 -24    0.32    0.53
  -2  -2 -24    0.54    0.76
  -2   2 -24    0.06    0.54
  -3  -2 -24    0.25    0.72
  -3   2 -24    1.14    0.64
  -4  -2 -24   -0.17    0.74
  -4   2 -24   -0.37    0.47
  -4   2 -24    0.26    0.60
  -5  -2 -24   -0.51    0.76
  -5   2 -24    0.49    0.65
  -5   2 -24   -0.10    0.50
   7   3 -24    1.55    0.64
   6   3 -24    1.15    0.61
   5  -3 -24   -0.24    0.66
   5   3 -24    1.13    0.59
   4  -3 -24   -0.39    0.68
   4   3 -24    0.92    0.56
   3  -3 -24    1.04    0.76
   3   3 -24    1.38    0.67
   2  -3 -24   -0.12    0.71
   2   3 -24    0.08    0.55
   1  -3 -24   -0.30    0.70
   1   3 -24   -0.06    0.56
   0  -3 -24   -1.03    0.64
   0   3 -24    0.18    0.54
  -1  -3 -24   -0.90    0.68
  -1   3 -24    0.37    0.50
  -2  -3 -24    0.15    0.77
  -2   3 -24   -0.34    0.51
  -3  -3 -24   -0.82    0.72
  -3   3 -24    0.70    0.61
  -4  -3 -24    0.83    0.87
  -4   3 -24   -0.22    0.48
  -4   3 -24    0.49    0.59
   5   4 -24    0.85    0.61
   4  -4 -24   -0.43    0.80
   4   4 -24   -0.03    0.52
   3  -4 -24   -0.01    0.80
   3   4 -24    0.64    0.56
   2  -4 -24   -0.65    0.75
   2   4 -24    0.75    0.55
   1  -4 -24    0.18    0.83
   1   4 -24    0.47    0.57
   0  -4 -24   -1.12    0.76
   0   4 -24    0.41    0.57
  -1  -4 -24   -1.40    0.72
  -1   4 -24    0.89    0.60
  -2  -4 -24   -0.53    0.76
  -2   4 -24    0.10    0.51
  -3   4 -24    0.89    0.59
   6   0 -25    0.47    0.57
   5   0 -25    1.95    0.70
   4   0 -25   -0.29    0.56
   3   0 -25    0.36    0.59
   2   0 -25    0.04    0.59
   1   0 -25    1.17    0.69
   0   0 -25    1.04    0.68
  -1   0 -25    1.85    0.75
  -2   0 -25    0.00    0.61
  -3   0 -25    0.67    0.67
  -4   0 -25   -0.04    0.65
  -5   0 -25   -0.53    0.63
   6  -1 -25    0.01    0.60
   6   1 -25    0.54    0.56
   5  -1 -25   -0.35    0.51
   5   1 -25    0.81    0.59
   4  -1 -25   -0.10    0.61
   4   1 -25   -0.23    0.53
   3  -1 -25   -0.09    0.60
   3   1 -25   -0.17    0.53
   2  -1 -25    0.39    0.67
   2   1 -25    0.29    0.56
   1  -1 -25   -0.51    0.59
   1   1 -25   -0.89    0.52
   0  -1 -25   -0.01    0.65
   0   1 -25    0.25    0.62
  -1  -1 -25   -0.59    0.60
  -1   1 -25    0.22    0.61
  -2  -1 -25    0.24    0.70
  -2   1 -25    0.96    0.62
  -3  -1 -25    0.06    0.66
  -3   1 -25    0.01    0.64
  -4  -1 -25    0.73    0.75
  -4   1 -25    0.45    0.68
  -5  -1 -25   -0.25    0.73
  -5   1 -25    1.18    0.74
   7   2 -25    1.04    0.61
   6   2 -25    1.25    0.61
   5  -2 -25   -0.23    0.64
   5   2 -25    0.71    0.59
   4  -2 -25    0.87    0.73
   4   2 -25    0.49    0.56
   3  -2 -25    0.10    0.65
   3   2 -25   -0.05    0.57
   2  -2 -25   -0.31    0.64
   2   2 -25    0.95    0.61
   1  -2 -25   -0.46    0.65
   1   2 -25    0.95    0.61
   0  -2 -25    0.05    0.72
   0   2 -25   -0.25    0.52
  -1  -2 -25   -0.22    0.69
  -1   2 -25   -0.11    0.54
  -2  -2 -25    0.61    0.80
  -2   2 -25    0.35    0.58
  -3  -2 -25    0.15    0.72
  -3   2 -25    0.69    0.64
  -4  -2 -25    0.11    0.75
  -4   2 -25   -0.49    0.56
   5  -3 -25   -0.81    0.70
   5   3 -25    0.35    0.57
   4  -3 -25   -0.38    0.69
   4   3 -25    0.28    0.55
   3  -3 -25   -0.48    0.73
   3   3 -25    1.81    0.67
   2  -3 -25   -0.62    0.71
   2   3 -25    0.62    0.61
   1  -3 -25   -0.85    0.72
   1   3 -25    0.57    0.64
   0  -3 -25   -0.61    0.74
   0   3 -25   -0.16    0.58
  -1  -3 -25    0.07    0.75
  -1   3 -25   -0.13    0.53
  -2  -3 -25   -1.00    0.72
  -2   3 -25    0.38    0.61
  -3  -3 -25   -0.39    0.81
  -3   3 -25    0.66    0.60
   3   4 -25    0.91    0.65
   2   4 -25    0.67    0.61
   1  -4 -25    0.41    0.85
   1   4 -25    2.53    0.74
   0   4 -25    0.31    0.56
   6   0 -26    0.55    0.61
   5   0 -26    0.10    0.60
   4   0 -26    0.65    0.63
   3   0 -26    0.61    0.62
   2   0 -26    0.81    0.67
   1   0 -26    0.18    0.63
   0   0 -26    0.72    0.71
  -1   0 -26    0.72    0.72
  -2   0 -26   -0.39    0.63
  -3   0 -26    1.05    0.76
  -4   0 -26   -0.41    0.66
   6   1 -26   -0.22    0.54
   5  -1 -26    0.56    0.65
   5   1 -26    0.24    0.56
   4  -1 -26   -0.12    0.64
   4   1 -26    0.41    0.59
   3  -1 -26    0.69    0.69
   3   1 -26    0.80    0.65
   2  -1 -26   -0.14    0.63
   2   1 -26    0.80    0.66
   1  -1 -26   -0.42    0.65
   1   1 -26    0.41    0.66
   0  -1 -26   -0.74    0.62
   0   1 -26    1.18    0.71
  -1  -1 -26    0.32    0.73
  -1   1 -26    0.02    0.65
  -2  -1 -26   -0.24    0.69
  -2   1 -26    1.36    0.73
  -3  -1 -26    0.14    0.72
  -3   1 -26   -0.04    0.66
   5  -2 -26   -0.67    0.66
   5   2 -26    0.68    0.62
   4  -2 -26    1.27    0.76
   4   2 -26   -0.35    0.54
   3  -2 -26    0.01    0.70
   3   2 -26    0.18    0.59
   2  -2 -26    0.43    0.74
   2   2 -26    0.51    0.59
   1  -2 -26   -0.13    0.73
   1   2 -26    0.17    0.59
   0  -2 -26   -0.44    0.71
   0   2 -26    0.35    0.62
  -1  -2 -26    0.78    0.81
  -1   2 -26    0.02    0.58
  -2  -2 -26    0.85    0.85
  -2   2 -26   -0.12    0.61
  -3  -2 -26   -1.46    0.66
  -3   2 -26    1.04    0.69
   3  -3 -26    0.04    0.75
   3   3 -26    0.63    0.66
   2  -3 -26    0.58    0.79
   2   3 -26    0.53    0.63
   1  -3 -26   -0.75    0.75
   1   3 -26    0.64    0.65
   0  -3 -26    0.33    0.84
   0   3 -26    0.20    0.59
  -1   3 -26    0.26    0.58
   5   0 -27    0.75    0.68
   4   0 -27    0.23    0.63
   3   0 -27    0.12    0.67
   2   0 -27    0.73    0.68
   1   0 -27    0.21    0.63
   0   0 -27    0.98    0.74
  -1   0 -27    0.95    0.74
  -2   0 -27   -0.26    0.68
   4  -1 -27   -0.27    0.65
   4   1 -27    1.23    0.64
   3  -1 -27    0.03    0.67
   3   1 -27    0.88    0.66
   2  -1 -27    1.42    0.80
   2   1 -27    0.47    0.66
   1  -1 -27   -0.76    0.66
   1   1 -27    0.59    0.70
   0  -1 -27   -0.39    0.68
   0   1 -27    0.29    0.65
  -1  -1 -27    0.62    0.79
  -1   1 -27    1.48    0.76
   3  -2 -27   -0.35    0.71
   3   2 -27    0.29    0.61
   2  -2 -27    0.56    0.79
   2   2 -27    0.81    0.69
   1  -2 -27    0.47    0.79
   1   2 -27    0.81    0.67
   0  -2 -27    1.08    0.82
   0   2 -27   -0.46    0.57
   0   0   0    0.00    0.00
;
_shelx_hkl_checksum              98536
_shelx_res_file
;
TITL SIR92 run in space group P 21/n
 shelx.res created by SHELXL-2016/4 at 09:27:43 on 19-Apr-2017
CELL  0.71073  11.6978   7.1331  21.1822   90.000   95.311   90.000
ZERR     4.00   0.0006   0.0004   0.0012    0.000    0.004    0.000
LATT   1
SYMM  1/2 - X, 1/2 + Y, 1/2 - Z
SFAC  C    H    N    O    S
UNIT  68 80 8 16 4
MERG   2
OMIT     1   1   1
OMIT    -1   1   1
OMIT     0   0   2
DFIX  1.400 0.010 C2A C7A
DFIX  1.400 0.010 C7B C2B
DFIX  1.400 0.010 C7A C6
DFIX  1.400 0.010 C6 C7B
DFIX  1.400 0.010 C2A C3
DFIX  1.400 0.010 C3 C2B
DFIX  1.430 0.010 C2B O1B
DFIX  1.430 0.010 C2A O1A
ISOR  0.01 C2A > C2B
ISOR  0.01 O1A > O1B
FMAP   2
PLAN   25
SIZE     0.170   0.226   0.280
ACTA
BOND   $H
CONF
L.S.  20
WGHT    0.107400
FVAR       0.14847   0.41577
C3    1    0.685187    0.392011    0.981393    11.00000    0.12869    0.08560 =
         0.05597   -0.01084    0.02691   -0.02171
AFIX  43
H3    2    0.645923    0.404422    1.017386    11.00000   -1.20000
AFIX   0
C4    1    0.669529    0.231473    0.946221    11.00000    0.09983    0.08229 =
         0.06047   -0.00345    0.02471   -0.01429
AFIX  43
H4    2    0.608647    0.153121    0.953630    11.00000   -1.20000
AFIX   0
C5    1    0.740021    0.180432    0.900204    11.00000    0.08189    0.07860 =
         0.04878    0.00167    0.01453   -0.01042
C6    1    0.825554    0.304040    0.889962    11.00000    0.12428    0.11426 =
         0.07665   -0.02704    0.04350   -0.04064
AFIX  43
H6    2    0.885074    0.269085    0.866210    11.00000   -1.20000
AFIX   0
C8    1    0.729210    0.012571    0.861811    11.00000    0.08134    0.08664 =
         0.04943   -0.00009    0.02069    0.00214
AFIX  43
H8    2    0.787318   -0.003383    0.835153    11.00000   -1.20000
AFIX   0
C9    1    0.651114   -0.122463    0.857930    11.00000    0.07769    0.07888 =
         0.05375   -0.00861    0.01909   -0.00909
C10   1    0.661138   -0.285607    0.815446    11.00000    0.08162    0.08045 =
         0.05494   -0.00285    0.02270   -0.00427
C11   1    0.491836   -0.355757    0.860370    11.00000    0.08844    0.10803 =
         0.06329   -0.01548    0.03443   -0.01923
C12   1    0.556717   -0.578199    0.783468    11.00000    0.07603    0.07727 =
         0.05621   -0.00291    0.01958   -0.00492
AFIX  23
H12A  2    0.521585   -0.674578    0.807565    11.00000   -1.20000
H12B  2    0.630996   -0.623818    0.773382    11.00000   -1.20000
AFIX   0
C13   1    0.480957   -0.539982    0.722116    11.00000    0.07427    0.07605 =
         0.05634    0.00148    0.02012    0.00806
C14   1    0.452199   -0.881683    0.710294    11.00000    0.09417    0.07718 =
         0.08000   -0.01234    0.00379    0.00641
AFIX  23
H14A  2    0.523234   -0.894418    0.737439    11.00000   -1.20000
H14B  2    0.457094   -0.962399    0.673789    11.00000   -1.20000
AFIX   0
C15   1    0.353503   -0.945147    0.746115    11.00000    0.10905    0.10340 =
         0.12681    0.01615    0.01587   -0.00842
AFIX 137
H15A  2    0.353226   -0.874479    0.784671    11.00000   -1.50000
H15B  2    0.361974   -1.076036    0.756010    11.00000   -1.50000
H15C  2    0.282503   -0.925314    0.720459    11.00000   -1.50000
AFIX   0
C16   1    0.366931   -0.651438    0.629819    11.00000    0.10374    0.12659 =
         0.06923    0.00605   -0.01221    0.00839
AFIX  23
H16A  2    0.318532   -0.543771    0.635958    11.00000   -1.20000
H16B  2    0.317224   -0.758599    0.620371    11.00000   -1.20000
AFIX   0
C17   1    0.434693   -0.615047    0.574431    11.00000    0.14446    0.21349 =
         0.05973   -0.00579    0.01212    0.05289
AFIX 137
H17A  2    0.483720   -0.508536    0.583319    11.00000   -1.50000
H17B  2    0.383143   -0.590304    0.537429    11.00000   -1.50000
H17C  2    0.480638   -0.722981    0.567051    11.00000   -1.50000
AFIX   0
N1    3    0.571930   -0.410889    0.821111    11.00000    0.07745    0.08453 =
         0.05136   -0.01131    0.02473   -0.01025
N2    3    0.439898   -0.687924    0.688963    11.00000    0.09286    0.08180 =
         0.06087    0.00023    0.00355    0.00298
O2    4    0.406301   -0.445210    0.867866    11.00000    0.09698    0.14296 =
         0.10205   -0.04036    0.05351   -0.03877
O3    4    0.734924   -0.311881    0.780510    11.00000    0.09987    0.09772 =
         0.07838   -0.01586    0.05270   -0.01458
O4    4    0.462943   -0.378169    0.704990    11.00000    0.11827    0.07764 =
         0.07908    0.01009    0.01822    0.01348
S1    5    0.527850   -0.143501    0.898204    11.00000    0.09325    0.11553 =
         0.08050   -0.03241    0.04257   -0.01622
PART    1
O1A   4    0.836806    0.629468    1.013355    21.00000    0.13878    0.13456 =
         0.12218   -0.03083    0.03838   -0.03154
C1A   1    0.770108    0.693873    1.062457    21.00000    0.11584    0.12741 =
         0.10673   -0.03814    0.03188   -0.02174
AFIX 137
H1A1  2    0.708181    0.770687    1.044279    21.00000   -1.50000
H1A2  2    0.817939    0.765989    1.092696    21.00000   -1.50000
H1A3  2    0.739503    0.588108    1.083304    21.00000   -1.50000
AFIX   0
C7A   1    0.821981    0.486282    0.916144    21.00000    0.05986    0.07532 =
         0.06207    0.00909    0.01362   -0.00984
AFIX  43
H7A   2    0.865855    0.579302    0.899298    21.00000   -1.20000
AFIX   0
C2A   1    0.756095    0.536047    0.966205    21.00000    0.10960    0.10174 =
         0.08466   -0.00239   -0.00504   -0.00372
PART    2
C2B   1    0.780887    0.496792    0.973158   -21.00000    0.14280    0.07003 =
         0.07285   -0.02580    0.04233   -0.04230
C1B   1    0.704567    0.739407    1.044352   -21.00000    0.14289    0.10480 =
         0.09278   -0.02646    0.01231   -0.01586
AFIX 137
H1B1  2    0.625442    0.717329    1.030028   -21.00000   -1.50000
H1B2  2    0.715029    0.869088    1.055557   -21.00000   -1.50000
H1B3  2    0.726055    0.662618    1.080745   -21.00000   -1.50000
AFIX   0
C7B   1    0.863812    0.441617    0.932593   -21.00000    0.12014    0.13628 =
         0.10219   -0.01178    0.02895   -0.03907
AFIX  43
H7B   2    0.937125    0.492941    0.934397   -21.00000   -1.20000
AFIX   0
O1B   4    0.774263    0.693884    0.995194   -21.00000    0.12014    0.08058 =
         0.08081   -0.01589    0.02695   -0.02142
HKLF 4
REM  SIR92 run in space group P 21/n
REM R1 =  0.0541 for    1342 Fo > 4sig(Fo)  and  0.1993 for all    4146 data
REM    258 parameters refined using     56 restraints
END
WGHT      0.0809      0.0000
REM Highest difference peak  0.166,  deepest hole -0.194,  1-sigma level  0.037
Q1    1   0.6032 -0.2326  0.9231  11.00000  0.05    0.17
Q2    1   0.4796 -0.4921  0.8991  11.00000  0.05    0.16
Q3    1   0.8402  0.4002  0.9905  11.00000  0.05    0.16
Q4    1   0.5021 -0.6031  0.9012  11.00000  0.05    0.12
Q5    1   0.5816  0.4221  1.0015  11.00000  0.05    0.12
Q6    1   0.7819  0.0665  0.9105  11.00000  0.05    0.12
Q7    1   0.7033 -0.1362  0.8941  11.00000  0.05    0.12
Q8    1   0.6634 -0.4271  0.8563  11.00000  0.05    0.11
Q9    1   0.5418 -0.9273  0.7228  11.00000  0.05    0.11
Q10   1   0.6541 -0.1979  0.8497  11.00000  0.05    0.11
Q11   1   0.7010  0.5094  0.9649  11.00000  0.05    0.11
Q12   1   0.6768 -0.0563  0.8626  11.00000  0.05    0.11
Q13   1   0.2236 -0.6796  0.6321  11.00000  0.05    0.11
Q14   1   0.4968 -0.2286  0.7079  11.00000  0.05    0.11
Q15   1   0.5583 -0.2843  0.7257  11.00000  0.05    0.11
Q16   1   0.5934  0.3861  0.9458  11.00000  0.05    0.11
Q17   1   0.7173  0.4740  0.9604  11.00000  0.05    0.11
Q18   1   0.4964 -0.6420  0.8010  11.00000  0.05    0.11
Q19   1   0.5923  0.6611  1.0980  11.00000  0.05    0.11
Q20   1   0.3959 -0.8478  0.6340  11.00000  0.05    0.11
Q21   1   0.4285 -0.2267  0.8794  11.00000  0.05    0.11
Q22   1   0.9043  0.2134  0.9090  11.00000  0.05    0.11
Q23   1   0.9189  0.3722  0.9489  11.00000  0.05    0.11
Q24   1   0.8860  0.8062  1.0201  11.00000  0.05    0.11
Q25   1   0.6354  0.8246  1.0257  11.00000  0.05    0.11
;
_shelx_res_checksum              22408
loop_
_space_group_symop_operation_xyz
'x, y, z'
'-x+1/2, y+1/2, -z+1/2'
'-x, -y, -z'
'x-1/2, -y-1/2, z-1/2'
loop_
_atom_site_type_symbol
_atom_site_label
_atom_site_fract_x
_atom_site_fract_y
_atom_site_fract_z
_atom_site_U_iso_or_equiv
_atom_site_adp_type
_atom_site_calc_flag
_atom_site_occupancy
_atom_site_disorder_assembly
_atom_site_disorder_group
C C3 0.6852(4) 0.3920(6) 0.98139(18) 0.0889(12) Uani d 1 . .
H H3 0.645923 0.404422 1.017386 0.107 Uiso calc 1 A 1
C C4 0.6695(3) 0.2315(6) 0.94622(18) 0.0798(11) Uani d 1 . .
H H4 0.608647 0.153121 0.953630 0.096 Uiso calc 1 . .
C C5 0.7400(3) 0.1804(5) 0.90020(17) 0.0692(10) Uani d 1 . .
C C6 0.8256(4) 0.3040(7) 0.8900(2) 0.1029(14) Uani d 1 . .
H H6 0.885074 0.269085 0.866210 0.124 Uiso calc 1 B 1
C C8 0.7292(3) 0.0126(6) 0.86181(16) 0.0716(10) Uani d 1 . .
H H8 0.787318 -0.003383 0.835153 0.086 Uiso calc 1 . .
C C9 0.6511(3) -0.1225(5) 0.85793(16) 0.0693(10) Uani d 1 . .
C C10 0.6611(3) -0.2856(5) 0.81545(17) 0.0713(10) Uani d 1 . .
C C11 0.4918(4) -0.3558(6) 0.86037(18) 0.0849(12) Uani d 1 . .
C C12 0.5567(3) -0.5782(5) 0.78347(16) 0.0690(10) Uani d 1 . .
H H12A 0.521585 -0.674578 0.807565 0.083 Uiso calc 1 . .
H H12B 0.630996 -0.623818 0.773382 0.083 Uiso calc 1 . .
C C13 0.4810(3) -0.5400(7) 0.72212(18) 0.0680(10) Uani d 1 . .
C C14 0.4522(3) -0.8817(5) 0.71029(19) 0.0840(11) Uani d 1 . .
H H14A 0.523234 -0.894418 0.737439 0.101 Uiso calc 1 . .
H H14B 0.457094 -0.962399 0.673789 0.101 Uiso calc 1 . .
C C15 0.3535(4) -0.9451(6) 0.7461(2) 0.1128(15) Uani d 1 . .
H H15A 0.353226 -0.874479 0.784671 0.169 Uiso calc 1 . .
H H15B 0.361974 -1.076036 0.756010 0.169 Uiso calc 1 . .
H H15C 0.282503 -0.925314 0.720459 0.169 Uiso calc 1 . .
C C16 0.3669(4) -0.6514(6) 0.6298(2) 0.1011(14) Uani d 1 . .
H H16A 0.318532 -0.543771 0.635958 0.121 Uiso calc 1 . .
H H16B 0.317224 -0.758599 0.620371 0.121 Uiso calc 1 . .
C C17 0.4347(5) -0.6150(9) 0.5744(2) 0.139(2) Uani d 1 . .
H H17A 0.483720 -0.508536 0.583319 0.209 Uiso calc 1 . .
H H17B 0.383143 -0.590304 0.537429 0.209 Uiso calc 1 . .
H H17C 0.480638 -0.722981 0.567051 0.209 Uiso calc 1 . .
N N1 0.5719(2) -0.4109(4) 0.82111(13) 0.0699(8) Uani d 1 . .
N N2 0.4399(3) -0.6879(5) 0.68896(15) 0.0787(9) Uani d 1 . .
O O2 0.4063(3) -0.4452(4) 0.86787(13) 0.1112(10) Uani d 1 . .
O O3 0.7349(2) -0.3119(3) 0.78051(12) 0.0892(9) Uani d 1 . .
O O4 0.4629(2) -0.3782(4) 0.70499(12) 0.0911(8) Uani d 1 . .
S S1 0.52785(9) -0.14350(16) 0.89820(5) 0.0943(5) Uani d 1 . .
O O1A 0.8368(13) 0.629(2) 1.0134(6) 0.130(5) Uani d 0.416(16) C 1
C C1A 0.7701(18) 0.694(3) 1.0625(9) 0.115(6) Uani d 0.416(16) C 1
H H1A1 0.708181 0.770687 1.044279 0.173 Uiso calc 0.416(16) C 1
H H1A2 0.817939 0.765989 1.092696 0.173 Uiso calc 0.416(16) C 1
H H1A3 0.739503 0.588108 1.083304 0.173 Uiso calc 0.416(16) C 1
C C7A 0.8220(12) 0.4863(13) 0.9161(6) 0.065(4) Uani d 0.416(16) C 1
H H7A 0.865855 0.579302 0.899298 0.078 Uiso calc 0.416(16) C 1
C C2A 0.7561(12) 0.536(2) 0.9662(7) 0.100(7) Uani d 0.416(16) C 1
C C2B 0.7809(10) 0.4968(13) 0.9732(6) 0.093(5) Uani d 0.584(16) C 2
C C1B 0.7046(13) 0.7394(19) 1.0444(6) 0.113(4) Uani d 0.584(16) C 2
H H1B1 0.625442 0.717329 1.030028 0.170 Uiso calc 0.584(16) C 2
H H1B2 0.715029 0.869088 1.055557 0.170 Uiso calc 0.584(16) C 2
H H1B3 0.726055 0.662618 1.080745 0.170 Uiso calc 0.584(16) C 2
C C7B 0.8638(11) 0.4416(18) 0.9326(6) 0.118(5) Uani d 0.584(16) C 2
H H7B 0.937125 0.492941 0.934397 0.142 Uiso calc 0.584(16) C 2
O O1B 0.7743(8) 0.6939(9) 0.9952(4) 0.093(3) Uani d 0.584(16) C 2
loop_
_atom_site_aniso_label
_atom_site_aniso_U_11
_atom_site_aniso_U_22
_atom_site_aniso_U_33
_atom_site_aniso_U_12
_atom_site_aniso_U_13
_atom_site_aniso_U_23
C3 0.129(3) 0.086(3) 0.056(3) -0.022(3) 0.027(2) -0.011(2)
C4 0.100(3) 0.082(3) 0.060(2) -0.014(2) 0.025(2) -0.003(2)
C5 0.082(2) 0.079(3) 0.049(2) -0.010(2) 0.0145(19) 0.002(2)
C6 0.124(3) 0.114(4) 0.077(3) -0.041(3) 0.044(3) -0.027(3)
C8 0.081(2) 0.087(3) 0.049(2) 0.002(2) 0.0207(18) 0.000(2)
C9 0.078(2) 0.079(3) 0.054(2) -0.009(2) 0.0191(18) -0.009(2)
C10 0.082(3) 0.080(3) 0.055(2) -0.004(2) 0.023(2) -0.003(2)
C11 0.088(3) 0.108(3) 0.063(3) -0.019(2) 0.034(2) -0.015(2)
C12 0.076(2) 0.077(3) 0.056(2) -0.0049(18) 0.0196(19) -0.003(2)
C13 0.074(2) 0.076(3) 0.056(3) 0.008(2) 0.020(2) 0.001(2)
C14 0.094(3) 0.077(3) 0.080(3) 0.006(2) 0.004(2) -0.012(2)
C15 0.109(3) 0.103(3) 0.127(4) -0.008(3) 0.016(3) 0.016(3)
C16 0.104(3) 0.127(4) 0.069(3) 0.008(3) -0.012(3) 0.006(3)
C17 0.144(4) 0.213(6) 0.060(3) 0.053(4) 0.012(3) -0.006(3)
N1 0.0775(19) 0.085(2) 0.0514(18) -0.0103(17) 0.0247(15) -0.0113(17)
N2 0.093(2) 0.082(2) 0.061(2) 0.0030(18) 0.0035(17) 0.0002(19)
O2 0.0970(19) 0.143(3) 0.102(2) -0.0388(19) 0.0535(17) -0.0404(19)
O3 0.0999(18) 0.098(2) 0.0784(19) -0.0146(14) 0.0527(15) -0.0159(14)
O4 0.118(2) 0.0776(19) 0.079(2) 0.0135(15) 0.0182(15) 0.0101(16)
S1 0.0933(8) 0.1155(9) 0.0805(8) -0.0162(6) 0.0426(6) -0.0324(7)
O1A 0.139(8) 0.135(8) 0.122(8) -0.032(6) 0.038(6) -0.031(6)
C1A 0.116(12) 0.127(12) 0.107(12) -0.022(9) 0.032(10) -0.038(9)
C7A 0.060(6) 0.075(7) 0.062(6) -0.010(5) 0.014(5) 0.009(5)
C2A 0.110(9) 0.102(11) 0.085(10) -0.004(7) -0.005(7) -0.002(8)
C2B 0.143(8) 0.070(6) 0.073(7) -0.042(6) 0.042(6) -0.026(5)
C1B 0.143(10) 0.105(7) 0.093(7) -0.016(7) 0.012(8) -0.026(6)
C7B 0.120(8) 0.136(8) 0.102(7) -0.039(6) 0.029(6) -0.012(6)
O1B 0.120(6) 0.081(4) 0.081(4) -0.021(3) 0.027(4) -0.016(3)
loop_
_atom_type_symbol
_atom_type_description
_atom_type_scat_dispersion_real
_atom_type_scat_dispersion_imag
_atom_type_scat_source
C C 0.0033 0.0016 'International Tables Vol C Tables 4.2.6.8 and 6.1.1.4'
H H 0.0000 0.0000 'International Tables Vol C Tables 4.2.6.8 and 6.1.1.4'
N N 0.0061 0.0033 'International Tables Vol C Tables 4.2.6.8 and 6.1.1.4'
O O 0.0106 0.0060 'International Tables Vol C Tables 4.2.6.8 and 6.1.1.4'
S S 0.1246 0.1234 'International Tables Vol C Tables 4.2.6.8 and 6.1.1.4'
loop_
_geom_angle_atom_site_label_1
_geom_angle_atom_site_label_2
_geom_angle_atom_site_label_3
_geom_angle
C4 C3 C2B 117.2(5)
C4 C3 C2A 123.4(7)
C4 C3 H3 118.3
C2A C3 H3 118.3
C3 C4 C5 123.1(4)
C3 C4 H4 118.5
C5 C4 H4 118.5
C6 C5 C4 115.8(4)
C6 C5 C8 118.2(3)
C4 C5 C8 126.0(3)
C5 C6 C7B 123.6(6)
C5 C6 C7A 118.8(6)
C5 C6 H6 120.6
C7A C6 H6 120.6
C9 C8 C5 131.4(3)
C9 C8 H8 114.3
C5 C8 H8 114.3
C8 C9 C10 121.0(3)
C8 C9 S1 128.8(3)
C10 C9 S1 110.1(3)
O3 C10 N1 122.8(3)
O3 C10 C9 126.7(3)
N1 C10 C9 110.5(3)
O2 C11 N1 123.4(4)
O2 C11 S1 124.4(3)
N1 C11 S1 112.3(3)
N1 C12 C13 110.9(3)
N1 C12 H12A 109.5
C13 C12 H12A 109.5
N1 C12 H12B 109.5
C13 C12 H12B 109.5
H12A C12 H12B 108.1
O4 C13 N2 123.2(4)
O4 C13 C12 119.4(4)
N2 C13 C12 117.3(3)
N2 C14 C15 112.5(3)
N2 C14 H14A 109.1
C15 C14 H14A 109.1
N2 C14 H14B 109.1
C15 C14 H14B 109.1
H14A C14 H14B 107.8
C14 C15 H15A 109.5
C14 C15 H15B 109.5
H15A C15 H15B 109.5
C14 C15 H15C 109.5
H15A C15 H15C 109.5
H15B C15 H15C 109.5
N2 C16 C17 112.9(4)
N2 C16 H16A 109.0
C17 C16 H16A 109.0
N2 C16 H16B 109.0
C17 C16 H16B 109.0
H16A C16 H16B 107.8
C16 C17 H17A 109.5
C16 C17 H17B 109.5
H17A C17 H17B 109.5
C16 C17 H17C 109.5
H17A C17 H17C 109.5
H17B C17 H17C 109.5
C11 N1 C10 115.5(3)
C11 N1 C12 121.3(3)
C10 N1 C12 122.8(3)
C13 N2 C14 124.6(3)
C13 N2 C16 117.4(3)
C14 N2 C16 117.7(3)
C11 S1 C9 91.45(19)
C2A O1A C1A 106.3(11)
O1A C1A H1A1 109.5
O1A C1A H1A2 109.5
H1A1 C1A H1A2 109.5
O1A C1A H1A3 109.5
H1A1 C1A H1A3 109.5
H1A2 C1A H1A3 109.5
C2A C7A C6 124.3(11)
C2A C7A H7A 117.9
C6 C7A H7A 117.9
C3 C2A C7A 111.7(12)
C3 C2A O1A 122.9(12)
C7A C2A O1A 105.3(10)
C3 C2B C7B 122.8(7)
C3 C2B O1B 114.1(8)
C7B C2B O1B 121.0(7)
O1B C1B H1B1 109.5
O1B C1B H1B2 109.5
H1B1 C1B H1B2 109.5
O1B C1B H1B3 109.5
H1B1 C1B H1B3 109.5
H1B2 C1B H1B3 109.5
C6 C7B C2B 113.4(8)
C6 C7B H7B 123.3
C2B C7B H7B 123.3
C1B O1B C2B 119.8(8)
loop_
_geom_bond_atom_site_label_1
_geom_bond_atom_site_label_2
_geom_bond_distance
C3 C4 1.369(5)
C3 C2B 1.371(7)
C3 C2A 1.377(9)
C3 H3 0.9300
C4 C5 1.383(5)
C4 H4 0.9300
C5 C6 1.366(5)
C5 C8 1.446(5)
C6 C7B 1.380(8)
C6 C7A 1.415(8)
C6 H6 0.9300
C8 C9 1.325(4)
C8 H8 0.9300
C9 C10 1.482(5)
C9 S1 1.748(4)
C10 O3 1.203(4)
C10 N1 1.387(4)
C11 O2 1.210(4)
C11 N1 1.367(4)
C11 S1 1.746(4)
C12 N1 1.437(4)
C12 C13 1.528(5)
C12 H12A 0.9700
C12 H12B 0.9700
C13 O4 1.222(4)
C13 N2 1.332(4)
C14 N2 1.457(4)
C14 C15 1.509(5)
C14 H14A 0.9700
C14 H14B 0.9700
C15 H15A 0.9600
C15 H15B 0.9600
C15 H15C 0.9600
C16 N2 1.472(4)
C16 C17 1.498(6)
C16 H16A 0.9700
C16 H16B 0.9700
C17 H17A 0.9600
C17 H17B 0.9600
C17 H17C 0.9600
O1A C2A 1.469(9)
O1A C1A 1.432(19)
C1A H1A1 0.9600
C1A H1A2 0.9600
C1A H1A3 0.9600
C7A C2A 1.413(9)
C7A H7A 0.9300
C2B C7B 1.410(8)
C2B O1B 1.486(9)
C1B O1B 1.418(14)
C1B H1B1 0.9600
C1B H1B2 0.9600
C1B H1B3 0.9600
C7B H7B 0.9300
loop_
_geom_hbond_atom_site_label_D
_geom_hbond_atom_site_label_H
_geom_hbond_atom_site_label_A
_geom_hbond_site_symmetry_A
_geom_hbond_distance_DH
_geom_hbond_distance_HA
_geom_hbond_distance_DA
_geom_hbond_angle_DHA
C4 H4 S1 . 0.93 2.56 3.259(4) 133
C1B H1B3 O2 3_657 0.96 2.51 3.160(14) 125
C3 H3 O2 3_657 0.93 2.58 3.481(5) 164
C12 H12B O3 2_646 0.97 2.43 3.342(4) 157
loop_
_geom_torsion_atom_site_label_1
_geom_torsion_atom_site_label_2
_geom_torsion_atom_site_label_3
_geom_torsion_atom_site_label_4
_geom_torsion
C2B C3 C4 C5 -5.2(9)
C2A C3 C4 C5 13.9(11)
C3 C4 C5 C6 -2.1(6)
C3 C4 C5 C8 179.4(4)
C4 C5 C6 C7B 18.5(11)
C8 C5 C6 C7B -162.8(9)
C4 C5 C6 C7A -12.8(8)
C8 C5 C6 C7A 165.8(7)
C6 C5 C8 C9 -174.3(4)
C4 C5 C8 C9 4.1(6)
C5 C8 C9 C10 -178.2(3)
C5 C8 C9 S1 1.4(6)
C8 C9 C10 O3 -1.7(6)
S1 C9 C10 O3 178.6(3)
C8 C9 C10 N1 177.9(3)
S1 C9 C10 N1 -1.7(4)
N1 C12 C13 O4 15.3(4)
N1 C12 C13 N2 -166.4(3)
O2 C11 N1 C10 176.3(4)
S1 C11 N1 C10 -3.9(4)
O2 C11 N1 C12 2.7(6)
S1 C11 N1 C12 -177.5(3)
O3 C10 N1 C11 -176.7(3)
C9 C10 N1 C11 3.6(4)
O3 C10 N1 C12 -3.2(5)
C9 C10 N1 C12 177.2(3)
C13 C12 N1 C11 83.2(4)
C13 C12 N1 C10 -90.0(4)
O4 C13 N2 C14 -175.0(3)
C12 C13 N2 C14 6.7(5)
O4 C13 N2 C16 -1.7(5)
C12 C13 N2 C16 -180.0(3)
C15 C14 N2 C13 90.8(4)
C15 C14 N2 C16 -82.5(4)
C17 C16 N2 C13 83.3(5)
C17 C16 N2 C14 -102.9(4)
O2 C11 S1 C9 -178.0(4)
N1 C11 S1 C9 2.3(3)
C8 C9 S1 C11 -179.9(4)
C10 C9 S1 C11 -0.3(3)
C5 C6 C7A C2A 18.5(17)
C4 C3 C2A C7A -8.5(18)
C4 C3 C2A O1A -135.0(14)
C6 C7A C2A C3 -7(2)
C6 C7A C2A O1A 128.3(16)
C1A O1A C2A C3 -55(2)
C1A O1A C2A C7A 175.7(13)
C4 C3 C2B C7B -2.6(16)
C4 C3 C2B O1B 161.0(8)
C5 C6 C7B C2B -25.2(16)
C3 C2B C7B C6 16.7(18)
O1B C2B C7B C6 -145.8(15)
C3 C2B O1B C1B 27.2(16)
C7B C2B O1B C1B -168.9(11)

_cod_database_fobs_code 1546648
