#------------------------------------------------------------------------------
#$Date: 2017-08-26 04:51:53 +0300 (Sat, 26 Aug 2017) $
#$Revision: 199955 $
#$URL: file:///home/coder/svn-repositories/cod/cif/1/54/68/1546839.cif $
#------------------------------------------------------------------------------
#
# This file is available in the Crystallography Open Database (COD),
# http://www.crystallography.net/
#
# All data on this site have been placed in the public domain by the
# contributors.
#
data_1546839
_journal_paper_doi               10.1039/C7CC06125K
_chemical_formula_sum            'C20.5 H14 N5.5 O9.5 S2 Zn2'
_chemical_formula_weight         684.23
_space_group_crystal_system      tetragonal
_space_group_IT_number           96
_space_group_name_Hall           'P 4nw 2abw'
_space_group_name_H-M_alt        'P 43 21 2'
_symmetry_space_group_name_Hall  'P 4nw 2abw'
_symmetry_space_group_name_H-M   'P 43 21 2'
_atom_sites_solution_hydrogens   geom
_audit_creation_method           SHELXL-2014/7
_audit_update_record
;
2017-08-19 deposited with the CCDC.
2017-08-25 downloaded from the CCDC.
;
_cell_angle_alpha                90
_cell_angle_beta                 90
_cell_angle_gamma                90
_cell_formula_units_Z            8
_cell_length_a                   19.3615(1)
_cell_length_b                   19.3615(1)
_cell_length_c                   14.1645(2)
_cell_measurement_reflns_used    5304
_cell_measurement_temperature    120.00(10)
_cell_measurement_theta_max      72.3240
_cell_measurement_theta_min      3.8570
_cell_volume                     5309.81(8)
_computing_structure_refinement  'SHELXL-2014/7 (Sheldrick, 2014)'
_diffrn_ambient_temperature      120.00(10)
_diffrn_measured_fraction_theta_full 0.997
_diffrn_measured_fraction_theta_max 0.982
_diffrn_measurement_device_type  'XtaLAB AFC12 (RINC): Kappa single'
_diffrn_radiation_type           CuK\a
_diffrn_radiation_wavelength     1.54184
_diffrn_reflns_av_R_equivalents  0.0446
_diffrn_reflns_av_unetI/netI     0.0460
_diffrn_reflns_Laue_measured_fraction_full 0.997
_diffrn_reflns_Laue_measured_fraction_max 0.982
_diffrn_reflns_number            5137
_diffrn_reflns_point_group_measured_fraction_full 0.999
_diffrn_reflns_point_group_measured_fraction_max 0.984
_diffrn_reflns_theta_full        67.684
_diffrn_reflns_theta_max         72.988
_diffrn_reflns_theta_min         3.228
_exptl_absorpt_coefficient_mu    4.250
_exptl_absorpt_correction_type   multi-scan
_exptl_crystal_colour            green
_exptl_crystal_density_diffrn    1.712
_exptl_crystal_description       block
_exptl_crystal_F_000             2748
_exptl_crystal_size_max          0.270
_exptl_crystal_size_mid          0.130
_exptl_crystal_size_min          0.100
_exptl_transmission_factor_max   0.654
_exptl_transmission_factor_min   0.541
_refine_diff_density_max         0.591
_refine_diff_density_min         -0.329
_refine_diff_density_rms         0.065
_refine_ls_abs_structure_details
;
 Refined as an inversion twin.
;
_refine_ls_abs_structure_Flack   0.40(5)
_refine_ls_extinction_method     none
_refine_ls_goodness_of_fit_ref   1.039
_refine_ls_hydrogen_treatment    constr
_refine_ls_matrix_type           full
_refine_ls_number_parameters     330
_refine_ls_number_reflns         5137
_refine_ls_number_restraints     24
_refine_ls_restrained_S_all      1.078
_refine_ls_R_factor_all          0.0486
_refine_ls_R_factor_gt           0.0416
_refine_ls_shift/su_max          0.000
_refine_ls_shift/su_mean         0.000
_refine_ls_structure_factor_coef Fsqd
_refine_ls_weighting_details
'w=1/[\s^2^(Fo^2^)+(0.0689P)^2^] where P=(Fo^2^+2Fc^2^)/3'
_refine_ls_weighting_scheme      calc
_refine_ls_wR_factor_gt          0.1089
_refine_ls_wR_factor_ref         0.1126
_reflns_Friedel_coverage         0.752
_reflns_Friedel_fraction_full    1.000
_reflns_Friedel_fraction_max     0.987
_reflns_number_gt                4426
_reflns_number_total             5137
_reflns_threshold_expression     'I > 2\s(I)'
_cod_data_source_file            c7cc06125k5.cif
_cod_data_source_block           1_sq
_cod_original_cell_volume        5309.81(9)
_cod_original_formula_sum        'C20.50 H14 N5.50 O9.50 S2 Zn2'
_cod_database_code               1546839
_shelx_shelxl_version_number     2014/7
_shelx_space_group_comment
;
The symmetry employed for this shelxl refinement is uniquely defined
by the following loop, which should always be used as a source of
symmetry information in preference to the above space-group names.
They are only intended as comments.
;
_shelx_estimated_absorpt_t_min   0.393
_shelx_estimated_absorpt_t_max   0.676
_shelx_res_file
;

    1_sq.res created by SHELXL-2014/7

TITL 20170620e1_a.res in P4(3)2(1)2
REM Old TITL 20170620E1 in P4(1)2(1)2
REM SHELXT solution in P4(3)2(1)2
REM R1 0.172, Rweak 0.029, Alpha 0.008, Orientation as input
REM Flack x = 0.453 ( 0.025 ) from Parsons' quotients
REM Formula found by SHELXT: C18 N4 O7 S Zn2
CELL 1.54184 19.3615 19.3615 14.1645 90 90 90
ZERR 8 0.0001 0.0001 0.0002 0 0 0
LATT -1
SYMM -X,-Y,0.5+Z
SYMM 0.5-Y,0.5+X,0.75+Z
SYMM 0.5+Y,0.5-X,0.25+Z
SYMM 0.5-X,0.5+Y,0.75-Z
SYMM 0.5+X,0.5-Y,0.25-Z
SYMM +Y,+X,-Z
SYMM -Y,-X,0.5-Z
SFAC C H N O S Zn
UNIT 164 112 44 76 16 16
ISOR 0.01 0.02 O1 C3 C4 S2'

L.S. 10
PLAN  20
SIZE 0.27 0.13 0.1
BOND $H
list 4
ABIN
fmap 2
acta
TWIN -1 0 0 0 -1 0 0 0 -1 2
OMIT 2 2 0
OMIT 2 2 2
OMIT 2 2 1
REM <olex2.extras>
REM <HklSrc "%.\\1_sq.hkl">
REM </olex2.extras>

WGHT    0.068900
BASF   0.40331
FVAR      10.06133   0.42449   0.72433   0.84240
ZN1   6    1.035907    0.491925    0.640610    11.00000    0.03370    0.03910 =
         0.03551    0.00641    0.00203   -0.00017
ZN2   6    0.464829    0.535171    0.250000    10.50000    0.03378    0.03378 =
         0.03965   -0.00105   -0.00105    0.00127
ZN3   6    0.491221    0.491221    0.500000    10.50000    0.03716    0.03716 =
         0.03715    0.00368   -0.00368    0.00126
O1    4    0.937517    0.496037    0.676888    11.00000    0.03981    0.17909 =
         0.05764    0.03096    0.00520   -0.00162
O2    4    0.902095    0.471725    0.817692    11.00000    0.03565    0.16449 =
         0.04410    0.02363    0.00707   -0.00046
O4    4    0.562162    0.476584    0.605357    11.00000    0.03240    0.04439 =
         0.03920    0.00893   -0.00222   -0.00025
O6    4    0.486347    0.403177    0.428704    11.00000    0.11133    0.03828 =
         0.04204    0.00060   -0.00609    0.00077
O7    4    0.454978    0.113978    0.089221    11.00000    0.19565    0.05810 =
         0.03340   -0.00230   -0.01535   -0.00049
O8    4    0.471833    0.062034    0.222378    11.00000    0.04322    0.03701 =
         0.03723   -0.00343   -0.00625   -0.00175
N1    3    0.756125    0.470301    0.842838    11.00000    0.04562    0.29255 =
         0.03937   -0.00686   -0.00515   -0.01661
N2    3    0.643247    0.466816    0.768603    11.00000    0.03832    0.16105 =
         0.03750   -0.00596   -0.00171   -0.02603
N3    3    0.505307    0.258355    0.452039    11.00000    0.24906    0.04340 =
         0.04775   -0.00320   -0.04616    0.00182
N4    3    0.494130    0.143805    0.381120    11.00000    0.14242    0.03328 =
         0.04942   -0.00153   -0.02583    0.01088
C1    1    0.891967    0.484004    0.734475    11.00000    0.02957    0.07533 =
         0.05262    0.00991    0.00861   -0.00090
C2    1    0.820569    0.485988    0.695578    11.00000    0.04167    0.14860 =
         0.05546    0.01951    0.00555   -0.00011
C3    1    0.813173    0.482071    0.602709    11.00000    0.05464    0.19722 =
         0.07686    0.02640   -0.00245   -0.00884
AFIX  43
H3    2    0.852327    0.478856    0.564930    11.00000   -1.20000
AFIX   0
C4    1    0.744283    0.482678    0.557569    11.00000    0.07443    0.21479 =
         0.07670    0.04054    0.00737   -0.01966
AFIX  43
H4    2    0.741861    0.483745    0.492012    11.00000   -1.20000
AFIX   0
C5    1    0.684166    0.481745    0.607707    11.00000    0.03584    0.16972 =
         0.06367    0.05186   -0.00377    0.00309
C6    1    0.692847    0.475273    0.707148    11.00000    0.03510    0.07490 =
         0.03947   -0.00113    0.00198   -0.00784
C7    1    0.759953    0.475525    0.751793    11.00000    0.03406    0.11487 =
         0.03909    0.00309   -0.00061   -0.01133
C8    1    0.617262    0.486283    0.559565    11.00000    0.04348    0.10896 =
         0.04651    0.03060   -0.00435   -0.00341
C9    1    0.476519    0.392768    0.346501    11.00000    0.09555    0.03701 =
         0.04888    0.00514   -0.00897    0.00764
C10   1    0.474966    0.320910    0.306738    11.00000    0.15987    0.03495 =
         0.05121    0.00131   -0.01576    0.00354
C11   1    0.450868    0.311502    0.215849    11.00000    0.16389    0.05325 =
         0.04368    0.00159   -0.02370    0.01211
AFIX  43
H11   2    0.437626    0.349777    0.180550    11.00000   -1.20000
AFIX   0
C12   1    0.445834    0.244138    0.174818    11.00000    0.14517    0.04866 =
         0.04068   -0.00037   -0.01497    0.00705
AFIX  43
H12   2    0.430254    0.240194    0.112945    11.00000   -1.20000
AFIX   0
C13   1    0.462887    0.185710    0.222571    11.00000    0.10342    0.04002 =
         0.04733   -0.00481   -0.01392    0.00265
C14   1    0.482042    0.193325    0.318431    11.00000    0.07316    0.03374 =
         0.04158   -0.00314   -0.00920    0.00599
C15   1    0.486977    0.260349    0.361594    11.00000    0.13356    0.03683 =
         0.03860    0.00097   -0.01982    0.01017
C16   1    0.462847    0.117226    0.172548    11.00000    0.09261    0.03845 =
         0.03772    0.00138   -0.00762   -0.00085
PART 1
S1    5    0.674947    0.473732    0.873300    31.00000    0.03224    0.24998 =
         0.03607   -0.02103    0.00255   -0.02024
S2    5    0.516629    0.177984    0.480271    41.00000    0.21594    0.03551 =
         0.05571   -0.00627   -0.06182    0.01456
O3    4    0.611505    0.516393    0.480819    21.00000    0.04226    0.11441 =
         0.05760    0.05388   -0.00358    0.00323
O5    4    0.493576    0.440204    0.277812    21.00000    0.05282    0.03679 =
         0.04171   -0.00645    0.00221   -0.00427
PART 0
PART 2
S1'   5    0.683580    0.423411    0.863686   -31.00000    0.05728    0.13001 =
         0.03322    0.01477   -0.00187   -0.00928
S2'   5    0.470425    0.177509    0.486896   -41.00000    0.10352    0.05523 =
         0.03598    0.00255   -0.00569    0.00921
O3'   4    0.618121    0.484077    0.470784   -21.00000    0.06118    0.10264 =
         0.05609    0.02785   -0.00389    0.01341
O5'   4    0.447205    0.435780    0.293484   -21.00000    0.09031    0.03501 =
         0.07334    0.00169   -0.02822   -0.01270
HKLF 4

REM  20170620e1_a.res in P4(3)2(1)2
REM R1 =  0.0416 for    4426 Fo > 4sig(Fo)  and  0.0486 for all    5137 data
REM    330 parameters refined using     24 restraints

END

WGHT      0.0689      0.0000

REM Highest difference peak  0.591,  deepest hole -0.329,  1-sigma level  0.065
Q1    1   0.8083  0.5426  0.6231  11.00000  0.05    0.59
Q2    1   1.0012  0.5374  0.6590  11.00000  0.05    0.40
Q3    1   0.7363  0.5387  0.5819  11.00000  0.05    0.38
Q4    1   0.9382  0.5230  0.6923  11.00000  0.05    0.34
Q5    1   0.5067  0.4933  0.2500  10.50000  0.05    0.34
Q6    1   0.5157  0.3074  0.2219  11.00000  0.05    0.32
Q7    1   0.9996  0.5265  0.5981  11.00000  0.05    0.32
Q8    1   0.5329  0.2040  0.4048  11.00000  0.05    0.32
Q9    1   0.9457  0.5011  0.8565  11.00000  0.05    0.31
Q10   1   0.9378  0.4564  0.6722  11.00000  0.05    0.30
Q11   1   0.5047  0.0998  0.0923  11.00000  0.05    0.29
Q12   1   0.4259  0.4877  0.2702  11.00000  0.05    0.29
Q13   1   0.5094  0.2400  0.1723  11.00000  0.05    0.28
Q14   1   0.4728  0.0618  0.1309  11.00000  0.05    0.28
Q15   1   0.5186  0.5105  0.5597  11.00000  0.05    0.28
Q16   1   0.4566  0.5209  0.5486  11.00000  0.05    0.28
Q17   1   0.5323  0.5323  0.5000  10.50000  0.05    0.27
Q18   1   0.5287  0.4541  0.5429  11.00000  0.05    0.26
Q19   1   0.6085  0.4595  0.7593  11.00000  0.05    0.26
Q20   1   1.0522  0.5174  0.7124  11.00000  0.05    0.25
;
_shelx_res_checksum              12269
_shelx_fab_file
;
    1    1    0      4.60     -1.64
    0    2    0   -324.67      4.98
    1    2    0     -3.63      1.52
    1    3    0     -6.92      2.61
    2    3    0    -15.38     -0.72
    3    3    0      9.07      1.67
    0    4    0    -30.47      3.66
    1    4    0     -5.81      0.54
    2    4    0     26.58     -1.86
    3    4    0      6.58     -2.92
    4    4    0    -18.22      1.28
    1    5    0      2.84     -5.90
    2    5    0      8.41      1.36
    3    5    0     -4.54     -0.15
    4    5    0      1.88      0.49
    5    5    0      7.91      0.13
    0    6    0     83.84     -4.17
    1    6    0      2.84     -3.71
    2    6    0    -50.12      2.97
    3    6    0      9.02      6.46
    4    6    0      5.49     -0.57
    5    6    0     -8.46     -3.80
    6    6    0      2.00      0.43
    1    7    0      1.35      9.09
    2    7    0      4.34     -0.74
    3    7    0      2.31     -3.91
    4    7    0     -1.97      0.19
    5    7    0     -9.71      2.55
    6    7    0     -1.30      1.36
    7    7    0      8.64     -2.42
    0    8    0    -16.12     -0.72
    1    8    0     -0.77      1.52
    2    8    0      5.34     -0.07
    3    8    0     -9.75     -2.05
    4    8    0      6.89     -0.63
    5    8    0      3.21      1.22
    6    8    0     -1.01     -1.04
    7    8    0      3.19     -0.94
    8    8    0     -4.87      4.27
    1    9    0     -3.88     -5.90
    2    9    0     -3.82     -0.83
    3    9    0      3.23      0.57
    4    9    0     -3.52      1.56
    5    9    0      2.18      1.13
    6    9    0      5.55     -1.22
    7    9    0     -3.65     -0.74
    8    9    0     -2.66      0.32
    9    9    0      3.29      0.12
    0   10    0    -11.14      0.35
    1   10    0      4.01      1.23
    2   10    0      8.83     -0.06
    3   10    0      3.87     -3.14
    4   10    0     -6.97      0.81
    5   10    0      1.56      2.29
    6   10    0      4.00      0.27
    7   10    0     -4.64      0.73
    8   10    0     -0.41     -2.90
    9   10    0      1.40     -0.35
   10   10    0      1.34      1.49
    1   11    0      1.00      0.44
    2   11    0      2.03     -0.20
    3   11    0     -2.49      2.55
    4   11    0      1.29     -0.08
    5   11    0      2.16     -3.47
    6   11    0     -2.79     -0.52
    7   11    0      0.73      2.24
    8   11    0      2.31      1.04
    9   11    0     -0.11     -0.12
   10   11    0      0.46     -0.91
   11   11    0     -2.70     -0.55
    0   12    0      4.09      0.66
    1   12    0     -0.49      1.90
    2   12    0     -1.22     -0.27
    3   12    0     -1.10      0.98
    4   12    0      1.14     -0.68
    5   12    0     -1.21     -1.31
    6   12    0     -3.88      1.07
    7   12    0      0.85     -0.60
    8   12    0      1.79     -0.13
    9   12    0      0.75      0.21
   10   12    0      0.74      0.92
   11   12    0     -1.34      0.60
   12   12    0     -2.54     -0.94
    1   13    0      1.10      1.05
    2   13    0      0.88      0.33
    3   13    0     -0.28     -0.44
    4   13    0      0.97     -0.41
    5   13    0     -1.02      0.61
    6   13    0     -2.66      1.41
    7   13    0     -0.90     -0.17
    8   13    0      1.79     -1.48
    9   13    0      1.11     -0.24
   10   13    0     -2.84      0.46
   11   13    0     -0.12      0.06
   12   13    0      2.55      0.09
   13   13    0     -0.22      0.11
    0   14    0      7.72      0.38
    1   14    0     -4.47     -6.75
    2   14    0     -5.62     -0.18
    3   14    0      1.94      2.33
    4   14    0      0.02      0.62
    5   14    0     -1.52      0.77
    6   14    0      2.03     -0.69
    7   14    0      3.24     -1.09
    8   14    0      1.13     -0.36
    9   14    0     -0.64      0.35
   10   14    0     -2.21      1.28
   11   14    0     -1.79      0.16
   12   14    0      2.20     -3.33
   13   14    0     -0.33     -0.27
   14   14    0     -2.33      6.43
    1   15    0      0.17     -0.58
    2   15    0     -1.74      0.31
    3   15    0     -0.05     -0.50
    4   15    0     -0.23     -0.34
    5   15    0     -0.41      0.80
    6   15    0      3.49      0.14
    7   15    0      1.20     -0.80
    8   15    0     -2.63     -1.68
    9   15    0     -1.73      0.68
   10   15    0      1.43      3.57
   11   15    0      0.53     -0.08
   12   15    0     -1.36     -3.23
   13   15    0      0.70     -0.24
   14   15    0      0.40      1.21
   15   15    0      0.80      0.06
    0   16    0     -0.23     -1.80
    1   16    0      5.79      1.56
    2   16    0      0.80      1.00
    3   16    0     -2.29     -0.62
    4   16    0     -0.64     -0.14
    5   16    0      1.07      0.47
    6   16    0      1.06     -0.50
    7   16    0     -1.35      0.01
    8   16    0     -1.09      1.06
    9   16    0     -1.44     -0.15
   10   16    0     -1.07     -2.58
   11   16    0      1.49     -0.34
   12   16    0      0.05      5.03
   13   16    0      1.28      0.09
   14   16    0      1.80     -5.68
   15   16    0      0.13      0.30
   16   16    0     -0.95      3.31
    1   17    0     -1.40     -0.43
    2   17    0      0.44     -0.14
    3   17    0      0.90     -0.32
    4   17    0     -0.74     -0.73
    5   17    0      0.84      0.50
    6   17    0     -1.12      1.06
    7   17    0     -1.29     -0.99
    8   17    0     -0.35      2.21
    9   17    0      0.08      0.33
   10   17    0      1.86     -6.19
   11   17    0      1.44     -0.01
   12   17    0     -0.49      5.40
   13   17    0      0.74      0.52
   14   17    0      1.48     -1.44
   15   17    0     -2.61     -0.09
   16   17    0     -1.89     -0.54
    0   18    0     -4.42      0.65
    1   18    0      0.46      3.94
    2   18    0      2.22     -0.13
    3   18    0     -0.81     -1.15
    4   18    0      0.64     -0.16
    5   18    0     -0.43     -1.53
    6   18    0     -1.80     -0.59
    7   18    0      0.73      1.34
    8   18    0      0.41      1.82
    9   18    0      0.91     -0.39
   10   18    0      1.54     -2.01
   11   18    0     -0.47      0.38
   12   18    0      0.74      0.46
   13   18    0      0.21      0.09
   14   18    0     -2.04      0.79
   15   18    0     -1.34     -0.37
    1   19    0      2.51      2.26
    2   19    0     -0.40     -0.67
    3   19    0     -3.94     -0.66
    4   19    0      0.37      2.51
    5   19    0      2.19      0.66
    6   19    0      0.30     -3.73
    7   19    0      1.34     -0.10
    8   19    0      1.79      0.66
    9   19    0     -2.06      0.19
   10   19    0     -2.23      3.54
   11   19    0      0.80     -0.38
   12   19    0      0.49     -2.92
   13   19    0     -1.63     -0.16
   14   19    0     -1.54      0.05
    0   20    0     -1.15      0.87
    1   20    0     -2.27     -0.91
    2   20    0     -0.03     -0.93
    3   20    0      0.32      0.14
    4   20    0      0.67      0.16
    5   20    0      0.80      0.07
    6   20    0      0.13      1.57
    7   20    0     -1.14      0.25
    8   20    0      0.56     -4.28
    9   20    0      1.92     -0.15
   10   20    0      0.09      6.33
   11   20    0     -0.39     -0.13
   12   20    0     -2.84     -4.81
   13   20    0     -2.38      0.11
    1   21    0     -1.23     -2.69
    2   21    0      0.30      0.89
    3   21    0      3.38      3.60
    4   21    0     -0.27     -1.68
    5   21    0     -3.26     -3.97
    6   21    0      1.39      1.76
    7   21    0      0.44      2.34
    8   21    0     -2.41     -0.52
    9   21    0      1.41     -0.58
   10   21    0      0.85     -0.50
   11   21    0     -1.42      0.32
    0   22    0      0.89     -1.15
    1   22    0     -0.63     -0.74
    2   22    0      0.13      0.79
    3   22    0      1.15      0.68
    4   22    0     -0.36      0.09
    5   22    0      0.77     -0.18
    6   22    0      0.09     -0.84
    7   22    0     -0.86     -0.30
    8   22    0     -0.80      2.31
    9   22    0     -2.68      0.49
    1   23    0     -0.06      0.94
    2   23    0     -0.19      0.44
    3   23    0     -1.09     -2.98
    4   23    0      1.05     -1.03
    5   23    0      1.73      2.85
    6   23    0     -2.04      1.11
    0    1    1    -22.81     23.66
    1    1    1      1.02     -0.98
    1    2    1    -16.67     -3.27
    0    2    1     58.14     54.91
    2    3    1     20.01    -34.17
    1    3    1      0.26      1.21
    0    3    1    -40.50     42.30
    3    3    1      0.56     -2.53
    3    4    1      5.48      1.93
    2    4    1      4.10      6.52
    1    4    1      2.48     -1.17
    0    4    1    -13.63    -12.06
    4    4    1      1.75     -4.64
    4    5    1     16.28      2.48
    3    5    1     -2.93     -1.62
    2    5    1    -35.84     26.56
    1    5    1     -0.01      1.20
    0    5    1     46.80    -47.98
    5    5    1      0.35      3.40
    5    6    1      4.31     -8.22
    4    6    1     -5.44      7.53
    3    6    1     -1.03     13.46
    2    6    1     15.01     18.71
    1    6    1      0.51     -5.56
    0    6    1    -27.76    -27.18
    6    6    1     -0.58    -16.73
    6    7    1      1.68     -2.08
    5    7    1     -2.62      0.32
    4    7    1     -7.29     -1.03
    3    7    1      3.72      1.40
    2    7    1     13.45     -0.87
    1    7    1     -2.30     -0.12
    0    7    1     -9.09      7.98
    7    7    1     -0.15      1.32
    7    8    1      1.93      3.06
    6    8    1     -2.37      8.49
    5    8    1      0.36      0.17
    4    8    1      1.94     -3.78
    3    8    1      1.19     -6.34
    2    8    1     -7.73     -9.72
    1    8    1     -6.29      1.45
    0    8    1     16.43     17.67
    8    8    1     -1.00     -5.49
    8    9    1     -2.12     -1.81
    7    9    1     -0.09     -3.27
    6    9    1      5.61      3.59
    5    9    1      0.75     -0.24
    4    9    1     -5.78     -3.49
    3    9    1     -1.19     -1.51
    2    9    1      7.55     -2.73
    1    9    1      2.77     -0.96
    0    9    1    -10.53      9.08
    9    9    1     -0.15      3.93
    9   10    1      1.77     -1.83
    8   10    1     -0.59     -0.42
    7   10    1     -2.76     -0.57
    6   10    1      0.32     -0.63
    5   10    1     -1.21      0.98
    4   10    1      1.50      4.12
    3   10    1      1.00      2.09
    2   10    1      2.44     -4.73
    1   10    1      2.44     -0.95
    0   10    1     -2.42     -2.28
   10   10    1      0.17      1.90
   10   11    1      1.20      5.19
    9   11    1      1.26      1.53
    8   11    1      1.59     -1.94
    7   11    1     -1.12     -0.60
    6   11    1     -3.14     -1.18
    5   11    1      0.45     -0.49
    4   11    1      4.84      2.90
    3   11    1      0.17      2.09
    2   11    1     -9.89      1.73
    1   11    1     -1.26     -0.58
    0   11    1     10.10    -10.16
   11   11    1     -0.50     -1.71
   11   12    1      1.02     -2.35
   10   12    1     -0.48     -2.93
    9   12    1     -2.11      1.09
    8   12    1     -0.03      2.70
    7   12    1      1.77     -1.64
    6   12    1      0.55     -1.01
    5   12    1     -0.35      3.16
    4   12    1     -0.08     -4.55
    3   12    1     -0.62     -2.95
    2   12    1     -1.95      8.87
    1   12    1      1.81      2.66
    0   12    1     -2.33     -2.85
   12   12    1     -1.07      1.93
   12   13    1      0.82      0.51
   11   13    1     -0.14      1.28
   10   13    1     -1.08     -0.73
    9   13    1     -1.36     -2.02
    8   13    1      0.57      0.32
    7   13    1      1.62      0.15
    6   13    1     -0.89     -1.64
    5   13    1     -0.90      1.35
    4   13    1      2.27      2.02
    3   13    1      0.69      0.11
    2   13    1     -1.86     -1.72
    1   13    1      0.44     -1.17
    0   13    1      0.82      1.95
   13   13    1     -0.02     -0.36
   13   14    1     -0.23     -0.26
   12   14    1     -0.90     -0.71
   11   14    1      0.72     -0.12
   10   14    1      2.66      1.80
    9   14    1     -0.69      2.05
    8   14    1     -0.93     -0.80
    7   14    1      0.52      0.31
    6   14    1     -0.76      0.47
    5   14    1      1.15     -3.90
    4   14    1      1.26     -1.22
    3   14    1     -2.72      2.65
    2   14    1     -0.14      0.44
    1   14    1      2.19      0.10
    0   14    1     -0.87     -0.32
   14   14    1     -0.60     -0.46
   14   15    1     -0.30      0.35
   13   15    1      0.23     -1.49
   12   15    1      0.50      0.76
   11   15    1      0.04     -0.39
   10   15    1     -2.40     -1.92
    9   15    1      0.32     -0.18
    8   15    1      2.34      2.32
    7   15    1     -0.28      1.37
    6   15    1     -0.81      0.77
    5   15    1      0.13     -1.47
    4   15    1     -2.62     -2.25
    3   15    1     -0.50      0.28
    2   15    1      5.99     -1.19
    1   15    1     -0.55      1.14
    0   15    1     -4.65      5.60
   15   15    1      0.09      3.20
   15   16    1     -0.51     -0.62
   14   16    1      0.54      0.73
   13   16    1      0.83      0.51
   12   16    1      0.88     -0.99
   11   16    1     -0.50     -1.11
   10   16    1     -2.14     -0.31
    9   16    1      1.27     -0.94
    8   16    1     -0.35      0.24
    7   16    1     -1.43      1.07
    6   16    1      2.88     -0.54
    5   16    1     -0.66     -0.05
    4   16    1     -2.94      3.34
    3   16    1      2.86      0.91
    2   16    1      0.83     -3.92
    1   16    1     -2.89     -2.29
    0   16    1      2.13      1.74
   16   16    1      0.69      0.42
   16   17    1      0.19      2.18
   15   17    1      0.59     -1.69
   14   17    1     -0.31     -1.00
   13   17    1     -0.98      2.50
   12   17    1     -0.64      1.02
   11   17    1      0.39     -1.03
   10   17    1      3.34      0.90
    9   17    1      0.88     -0.13
    8   17    1     -3.09     -4.38
    7   17    1     -0.95      1.51
    6   17    1      1.64      2.29
    5   17    1     -0.37     -1.56
    4   17    1     -0.92      0.30
    3   17    1      0.79     -0.31
    2   17    1      0.66      0.27
    1   17    1      0.83     -0.31
    0   17    1     -0.90     -1.00
   15   18    1     -1.37      1.54
   14   18    1     -0.66     -0.07
   13   18    1      0.52     -0.69
   12   18    1     -0.43      1.36
   11   18    1     -0.30      1.07
   10   18    1      0.71      0.07
    9   18    1      0.35      0.18
    8   18    1      1.32     -0.46
    7   18    1     -0.44     -1.45
    6   18    1     -2.34      0.17
    5   18    1     -0.03      0.65
    4   18    1      0.93     -1.84
    3   18    1     -0.13      0.34
    2   18    1     -0.23      0.96
    1   18    1      0.77     -0.36
    0   18    1      0.45      0.84
   14   19    1      0.54      0.66
   13   19    1      0.13      0.50
   12   19    1     -0.55     -0.55
   11   19    1     -0.08     -0.47
   10   19    1     -1.83     -0.77
    9   19    1     -0.24      0.38
    8   19    1      2.48      3.74
    7   19    1      0.12     -0.81
    6   19    1     -1.12     -1.98
    5   19    1      0.90      0.63
    4   19    1      0.48      0.04
    3   19    1     -1.25      0.25
    2   19    1     -0.20     -0.19
    1   19    1      0.14      0.92
    0   19    1     -1.01     -1.48
   13   20    1     -1.28      1.09
   12   20    1      0.42     -0.91
   11   20    1     -1.53      0.67
   10   20    1     -0.81      0.02
    9   20    1      0.76     -0.36
    8   20    1     -0.17      0.92
    7   20    1      1.70      0.50
    6   20    1      0.42      0.08
    5   20    1     -0.01      1.36
    4   20    1      0.58     -0.45
    3   20    1     -2.00     -3.32
    2   20    1     -0.35      0.62
    1   20    1      1.40      1.93
    0   20    1     -0.65     -0.67
   11   21    1     -0.01      0.48
   10   21    1     -0.40      0.40
    9   21    1      0.29     -0.29
    8   21    1     -1.33     -0.90
    7   21    1     -0.68      0.49
    6   21    1      1.20      0.60
    5   21    1      0.70      1.08
    4   21    1      0.32     -0.98
    3   21    1      0.30     -2.83
    2   21    1     -2.32      3.06
    1   21    1     -2.19      2.58
    0   21    1      3.75     -2.72
    9   22    1     -1.44     -0.48
    8   22    1     -0.37     -0.77
    7   22    1      0.13      0.01
    6   22    1      0.27      0.26
    5   22    1     -0.98      0.35
    4   22    1     -0.48      1.21
    3   22    1      1.29      0.70
    2   22    1      0.51     -0.30
    1   22    1     -0.53     -0.13
    0   22    1      0.17     -1.26
    5   23    1     -0.90      0.81
    4   23    1      0.42      0.67
    3   23    1      0.01      2.17
    2   23    1     -0.11     -1.88
    1   23    1      1.35     -2.81
    0   23    1     -0.03      2.64
    6   23    1     -0.37     -0.35
    0    1    2     10.13     -4.74
    1    1    2     -1.74      0.85
    1    2    2     -5.19      3.01
    0    2    2     -0.05     10.64
    2    3    2      0.26     -8.93
    1    3    2    -13.53     -0.89
    0    3    2     -6.19      7.42
    3    3    2      5.88      0.29
    3    4    2     -4.21     -5.13
    2    4    2     14.31     20.72
    1    4    2      2.64      8.91
    0    4    2     -1.01    -30.67
    4    4    2     -2.36     -1.52
    4    5    2      1.04     -2.05
    3    5    2      0.13     -1.36
    2    5    2      7.14      7.01
    1    5    2     14.36      1.11
    0    5    2     -9.08     -3.61
    5    5    2     -4.88     -0.14
    5    6    2     -7.21      1.96
    4    6    2      0.28      9.04
    3    6    2      8.58     -3.68
    2    6    2     -1.64    -21.43
    1    6    2     -1.90      2.03
    0    6    2     -0.10     26.37
    6    6    2     -1.39      0.07
    6    7    2     -2.64     -3.53
    5    7    2      2.44     -1.52
    4    7    2      0.40      7.22
    3    7    2      2.24      1.42
    2    7    2      0.30     -5.37
    1    7    2    -11.84     -0.05
    0    7    2      2.08      0.01
    7    7    2     -3.80      0.74
    7    8    2      1.08     -1.78
    6    8    2      5.33      0.85
    5    8    2      3.80     -1.89
    4    8    2     -4.02     -4.92
    3    8    2     -0.30      5.83
    2    8    2     -4.38      4.67
    1    8    2     -3.09    -10.53
    0    8    2      2.54     -2.04
    8    8    2     -3.55     -1.10
    8    9    2     -0.96     -1.86
    7    9    2      4.21      0.28
    6    9    2      2.56      6.63
    5    9    2     -2.26      3.57
    4    9    2      1.61     -8.91
    3    9    2     -3.30     -3.05
    2    9    2     -6.11      3.36
    1    9    2      8.42     -0.27
    0    9    2      5.96      1.28
    9    9    2     -1.88      0.29
    9   10    2     -0.20      1.97
    8   10    2      2.49     -0.58
    7   10    2     -0.24      0.19
    6   10    2     -2.67     -1.24
    5   10    2      1.48      0.86
    4   10    2     -0.71      2.72
    3   10    2     -4.46     -1.53
    2   10    2      6.25      3.65
    1   10    2      2.64      0.43
    0   10    2     -0.42     -9.96
   10   10    2     -1.02      0.54
   10   11    2      2.96      0.07
    9   11    2      0.16      1.01
    8   11    2     -2.73      2.19
    7   11    2     -1.95     -0.63
    6   11    2      0.48     -4.21
    5   11    2      1.53     -3.13
    4   11    2     -1.50      1.70
    3   11    2      1.18      3.05
    2   11    2      4.10      3.92
    1   11    2     -0.03     -0.56
    0   11    2     -4.82     -0.30
   11   11    2      0.77      0.25
   11   12    2     -0.61      1.58
   10   12    2     -0.96     -1.34
    9   12    2     -1.29     -2.16
    8   12    2      1.89      0.20
    7   12    2      0.03     -0.53
    6   12    2     -4.04      1.32
    5   12    2     -2.70      0.41
    4   12    2      3.57      0.18
    3   12    2      4.53      0.14
    2   12    2     -1.26     -5.03
    1   12    2     -1.54      2.79
    0   12    2     -0.78      8.30
   12   12    2     -0.33      0.17
   12   13    2      1.24      0.72
   11   13    2     -1.45     -0.39
   10   13    2     -1.43      1.70
    9   13    2      1.25      0.83
    8   13    2      1.01     -1.22
    7   13    2     -0.52     -0.30
    6   13    2      0.70      0.75
    5   13    2     -0.46      0.65
    4   13    2     -0.76      0.98
    3   13    2      0.08     -0.64
    2   13    2      0.16     -3.92
    1   13    2     -1.93     -0.05
    0   13    2     -0.68     -0.52
   13   13    2      1.74     -0.01
   13   14    2     -1.48      2.21
   12   14    2      1.81      0.94
   11   14    2      0.50     -0.65
   10   14    2     -0.15      0.89
    9   14    2     -0.40     -1.21
    8   14    2     -2.23     -1.65
    7   14    2      1.31      2.00
    6   14    2      5.56      1.63
    5   14    2      0.41     -0.62
    4   14    2     -4.03     -2.04
    3   14    2     -1.94     -0.27
    2   14    2      0.06      0.59
    1   14    2      0.83     -0.17
    0   14    2     -0.23      0.74
   14   14    2     -2.42      0.16
   14   15    2      0.97      1.33
   13   15    2     -0.16      1.60
   12   15    2      1.05     -2.93
   11   15    2      0.20     -0.55
   10   15    2     -2.00      1.75
    9   15    2      0.08     -0.35
    8   15    2     -0.27     -0.83
    7   15    2      0.98     -1.42
    6   15    2      1.36     -0.30
    5   15    2     -1.06      1.52
    4   15    2     -0.29      2.51
    3   15    2     -0.11     -0.19
    2   15    2     -2.78     -1.56
    1   15    2      1.19     -0.08
    0   15    2      5.06     -0.23
   15   15    2     -1.45     -0.54
   15   16    2      1.04      1.54
   14   16    2      0.51      0.12
   13   16    2      0.59     -0.64
   12   16    2     -0.45     -1.56
   11   16    2     -2.36     -0.73
   10   16    2      0.66     -0.23
    9   16    2      2.27      0.49
    8   16    2     -0.31      1.79
    7   16    2     -0.15      1.14
    6   16    2     -2.78     -2.11
    5   16    2      0.33     -1.83
    4   16    2      3.31      1.25
    3   16    2     -2.20      0.79
    2   16    2     -0.74      2.03
    1   16    2      1.37     -1.46
    0   16    2     -0.09     -4.03
   16   16    2      1.01      0.43
   16   17    2     -0.95     -1.04
   15   17    2      1.66      0.57
   14   17    2      0.10      0.22
   13   17    2     -0.25     -1.80
   12   17    2     -1.90      1.70
   11   17    2      0.44      1.90
   10   17    2      2.58     -0.34
    9   17    2     -1.55     -1.85
    8   17    2      0.71     -0.08
    7   17    2      1.01      2.69
    6   17    2     -2.83     -0.94
    5   17    2      0.05     -1.36
    4   17    2      1.44     -1.26
    3   17    2      0.60     -0.08
    2   17    2      1.50      2.09
    1   17    2     -1.27      0.07
    0   17    2     -3.18      0.27
   15   18    2     -2.00     -0.25
   14   18    2      0.13      0.24
   13   18    2     -0.11     -0.14
   12   18    2     -0.64      1.13
   11   18    2      2.51      0.96
   10   18    2      0.25     -0.73
    9   18    2     -1.61      0.07
    8   18    2      1.18      0.06
    7   18    2     -0.57     -1.82
    6   18    2      0.21      0.03
    5   18    2      0.89      0.89
    4   18    2     -1.15      0.28
    3   18    2      0.04      0.09
    2   18    2      0.10      0.48
    1   18    2     -0.37      2.64
    0   18    2     -0.73     -1.33
   14   19    2     -0.20     -1.11
   13   19    2     -0.53     -0.49
   12   19    2      1.12      0.06
   11   19    2      1.01      1.00
   10   19    2     -1.68     -1.82
    9   19    2      0.42      0.19
    8   19    2      0.43      0.89
    7   19    2     -1.64     -1.52
    6   19    2     -0.15      2.48
    5   19    2      1.82      0.61
    4   19    2      0.59     -1.54
    3   19    2     -1.13     -0.06
    2   19    2      0.30     -0.52
    1   19    2      0.05      0.14
    0   19    2     -0.45     -0.45
   12   20    2     -0.06     -1.27
   11   20    2     -1.44     -0.61
   10   20    2     -0.23      1.08
    9   20    2      0.87      2.36
    8   20    2     -0.82      0.30
    7   20    2     -1.27     -1.76
    6   20    2      0.86      0.01
    5   20    2      0.09      0.92
    4   20    2     -0.18     -1.26
    3   20    2      3.24      0.44
    2   20    2      0.76     -1.04
    1   20    2     -2.06     -2.39
    0   20    2     -0.75      2.76
   13   20    2      0.25     -0.51
   11   21    2     -1.03     -3.33
   10   21    2      0.56      0.34
    9   21    2      0.72      1.51
    8   21    2     -0.99      0.34
    7   21    2     -0.82      0.57
    6   21    2      1.25     -2.72
    5   21    2      0.71     -0.12
    4   21    2     -0.82      2.32
    3   21    2     -0.71     -0.37
    2   21    2     -0.48      0.07
    1   21    2      1.14      0.43
    0   21    2      1.22     -0.46
    8   22    2     -0.27     -0.54
    7   22    2      1.25      0.71
    6   22    2     -0.64      0.36
    5   22    2     -0.74      0.20
    4   22    2      0.29     -0.01
    3   22    2     -2.24     -0.60
    2   22    2     -0.64      1.86
    1   22    2      2.16      0.05
    0   22    2      1.85     -2.21
    9   22    2     -0.32     -1.48
    1   23    2     -0.79      0.31
    0   23    2      0.72      0.96
    2   23    2     -0.41      0.00
    3   23    2      1.64      0.34
    4   23    2     -0.48     -1.67
    5   23    2     -2.15     -0.73
    6   23    2     -0.25      1.94
    0    1    3     -4.99     -5.47
    1    1    3      0.18      1.25
    1    2    3     -3.19      3.57
    0    2    3     -3.67      4.06
    2    2    3      0.24     -6.05
    2    3    3     -3.45      0.72
    1    3    3     -0.47      6.82
    0    3    3      3.77      3.27
    3    3    3     -0.71    -11.52
    3    4    3     -4.70     -7.44
    2    4    3      2.83      8.65
    1    4    3      2.06     -0.14
    0    4    3      5.22     -5.69
    4    4    3     -0.55     -6.63
    4    5    3     -3.49     12.09
    3    5    3      0.19      5.73
    2    5    3      1.97     -6.32
    1    5    3     -0.35     -7.50
    0    5    3     -0.48      0.09
    5    5    3      0.19      1.74
    5    6    3     -2.93     -4.80
    4    6    3     11.36      1.59
    3    6    3     -1.25      0.76
    2    6    3     -8.08     -2.44
    1    6    3      3.15      1.45
    0    6    3      1.12     -1.92
    6    6    3     -0.49      5.19
    6    7    3     -0.40      3.73
    5    7    3      4.08     -0.63
    4    7    3     -1.17     -5.40
    3    7    3     -2.26     -1.82
    2    7    3     -0.36      4.73
    1    7    3     -1.52      2.14
    0    7    3      0.52     -0.09
    7    7    3      1.08     -0.76
    7    8    3      0.46     -2.29
    6    8    3      5.75     -5.48
    5    8    3     -0.23     -1.25
    4    8    3     -9.13      1.81
    3    8    3      1.99      1.81
    2    8    3      3.02     -3.34
    1    8    3     -2.82      0.11
    0    8    3     -3.57      4.20
    8    8    3      0.12      4.08
    8    9    3      0.79      2.88
    7    9    3      1.60      0.12
    6    9    3     -0.34      0.66
    5    9    3     -3.47     -0.83
    4    9    3      2.59     -2.58
    3    9    3      3.83      1.18
    2    9    3     -0.77      1.33
    1    9    3     -3.61     -2.46
    0    9    3     -0.88     -2.43
    9    9    3      0.03      1.43
    9   10    3      0.87     -1.86
    8   10    3     -1.74      0.57
    7   10    3     -1.71      1.10
    6   10    3     -1.05     -0.81
    5   10    3      1.17      0.50
    4   10    3      4.46     -0.59
    3   10    3      3.95      2.15
    2   10    3     -1.15      0.53
    1   10    3     -2.93     -2.72
    0   10    3     -0.64      0.86
   10   10    3     -0.06      2.07
   10   11    3      2.07      0.66
    9   11    3     -0.27     -0.59
    8   11    3     -0.03     -2.49
    7   11    3     -0.94      0.05
    6   11    3     -1.55     -0.34
    5   11    3     -1.44      0.52
    4   11    3     -0.85      4.07
    3   11    3     -0.35      1.04
    2   11    3      0.53     -4.93
    1   11    3      4.37      1.23
    0   11    3      2.08      3.92
   11   11    3      0.81     -0.15
   11   12    3      1.09      0.85
   10   12    3     -0.38     -1.62
    9   12    3      0.59     -0.31
    8   12    3      1.17     -1.32
    7   12    3      1.11      0.65
    6   12    3      0.20      1.00
    5   12    3     -3.06      0.68
    4   12    3     -3.50      1.78
    3   12    3     -0.63     -2.37
    2   12    3      1.50      0.57
    1   12    3      1.52      1.88
    0   12    3      2.83     -2.61
   12   12    3      0.02      0.97
   12   13    3      0.07     -2.16
   11   13    3     -2.06      1.02
   10   13    3     -0.78     -0.23
    9   13    3     -0.03     -1.80
    8   13    3      0.37      3.39
    7   13    3      1.67      1.15
    6   13    3      0.24     -2.39
    5   13    3      2.45     -0.77
    4   13    3      1.56     -0.39
    3   13    3     -2.85     -0.45
    2   13    3     -0.87      0.72
    1   13    3     -0.41     -0.13
    0   13    3     -1.94      0.15
   13   13    3      0.38     -0.60
   13   14    3      0.61      2.36
   12   14    3     -1.04     -0.39
   11   14    3      1.05     -0.82
   10   14    3      0.66      1.07
    9   14    3     -1.42      0.29
    8   14    3      0.30      0.79
    7   14    3     -0.82     -2.12
    6   14    3     -1.64      0.24
    5   14    3      1.24      0.70
    4   14    3      2.60     -1.53
    3   14    3     -0.33      0.98
    2   14    3     -0.08     -1.00
    1   14    3      0.21     -0.42
    0   14    3     -2.38      2.30
   14   14    3     -0.48     -1.37
   14   15    3      0.09      0.40
   13   15    3     -0.64      0.96
   12   15    3      0.39      0.45
   11   15    3      1.21     -1.46
   10   15    3      0.33     -0.95
    9   15    3      0.31      1.71
    8   15    3     -0.20     -0.83
    7   15    3     -0.46     -0.27
    6   15    3     -0.99      2.07
    5   15    3     -2.51     -1.56
    4   15    3     -1.14     -2.13
    3   15    3      1.98      1.11
    2   15    3      3.30      3.01
    1   15    3      1.11      0.94
    0   15    3     -2.77     -3.06
   15   15    3      0.15     -0.01
   15   16    3     -0.02     -1.44
   14   16    3     -0.13      0.93
   13   16    3      0.30     -0.20
   12   16    3      1.75     -0.15
   11   16    3     -0.52      0.71
   10   16    3     -1.83     -0.61
    9   16    3     -0.75     -0.61
    8   16    3      1.42     -0.66
    7   16    3      0.62      2.17
    6   16    3     -0.60      0.59
    5   16    3      2.78     -1.41
    4   16    3     -1.03     -0.81
    3   16    3     -2.56     -0.68
    2   16    3      0.77      1.47
    1   16    3     -0.45      0.89
    0   16    3      0.50     -0.58
   16   16    3      0.06      1.41
   16   17    3      0.73      1.42
   15   17    3      0.19     -0.58
   14   17    3      0.16     -1.92
   13   17    3     -0.49     -0.05
   12   17    3     -1.00      0.96
   11   17    3     -1.09      0.33
   10   17    3     -0.38      1.48
    9   17    3      1.79     -0.52
    8   17    3      0.49     -1.20
    7   17    3     -1.06     -0.29
    6   17    3      2.16      0.33
    5   17    3      1.56      1.84
    4   17    3     -0.51     -1.09
    3   17    3     -0.91     -1.37
    2   17    3     -2.83      0.92
    1   17    3     -1.13     -1.06
    0   17    3      1.43      1.19
   15   18    3      0.11      2.47
   14   18    3     -1.02     -0.30
   13   18    3     -0.81     -0.06
   12   18    3     -0.10      1.76
   11   18    3      0.14     -2.15
   10   18    3      0.76     -1.05
    9   18    3      1.45      2.05
    8   18    3     -0.68      0.36
    7   18    3     -0.66     -0.64
    6   18    3      1.22     -0.72
    5   18    3     -1.79     -0.27
    4   18    3     -1.43      1.15
    3   18    3      1.34     -0.12
    2   18    3      0.12     -0.68
    1   18    3      0.76     -0.49
    0   18    3      1.62      0.40
   14   19    3      0.61      1.85
   13   19    3      1.33     -1.48
   12   19    3      1.33     -0.65
   11   19    3      0.49      1.54
   10   19    3     -0.53     -0.11
    9   19    3     -1.92      0.25
    8   19    3     -0.35     -1.18
    7   19    3     -0.71     -0.74
    6   19    3     -0.30      0.14
    5   19    3      1.64      0.61
    4   19    3     -1.79      2.91
    3   19    3      0.94     -0.82
    2   19    3      2.89     -2.68
    1   19    3     -1.01      0.45
    0   19    3      1.26     -1.89
   12   20    3     -0.88     -0.93
   11   20    3     -2.16      2.71
   10   20    3     -0.32      0.69
    9   20    3      1.38     -2.55
    8   20    3     -0.22     -0.24
    7   20    3     -0.04      0.18
    6   20    3      0.46      1.44
    5   20    3     -0.75      1.35
    4   20    3      0.98     -0.94
    3   20    3      0.43      0.23
    2   20    3      0.15     -0.08
    1   20    3      0.20     -0.93
    0   20    3     -2.96     -1.79
   10   21    3      1.06      0.65
    9   21    3      1.13     -0.88
    8   21    3     -1.15      2.16
    7   21    3      0.84      0.68
    6   21    3     -0.75     -2.10
    5   21    3     -2.41      0.57
    4   21    3      3.72     -0.58
    3   21    3     -0.16     -0.23
    2   21    3     -3.52      1.27
    1   21    3      1.60      0.39
    0   21    3      0.37      1.38
    7   22    3      1.00     -0.08
    6   22    3     -0.44     -1.44
    5   22    3      0.31     -1.30
    4   22    3     -0.44      1.13
    2   22    3     -0.49      0.25
    1   22    3      0.00     -0.17
    0   22    3      2.04      0.67
    3   22    3     -0.45      1.43
    8   22    3      0.37     -0.42
    1   23    3      0.00     -0.13
    0   23    3     -0.29      0.43
    2   23    3      1.31     -0.60
    3   23    3     -1.13      0.93
    4   23    3     -1.80     -0.54
    5   23    3      0.67     -1.36
    0    0    4     23.78      0.04
    0    1    4     -0.42     -3.91
    1    1    4      5.15     -0.10
    1    2    4      2.46     -2.29
    0    2    4    -17.54     -1.89
    2    2    4     12.81      2.37
    2    3    4     -2.10     -0.47
    1    3    4     -6.96     -3.02
    0    3    4     -0.15      0.25
    3    3    4      8.42      0.08
    3    4    4      2.70      2.23
    2    4    4     -1.72     -1.02
    1    4    4     -6.50     -1.08
    0    4    4      3.16      0.77
    4    4    4     -2.93     -1.06
    4    5    4      1.56      1.79
    3    5    4     -3.52      1.02
    2    5    4      2.48     -2.55
    1    5    4      3.29      2.58
    0    5    4      0.24      3.89
    5    5    4      3.19      1.35
    5    6    4     -1.10      2.76
    4    6    4      3.39     -1.20
    3    6    4     -1.92      0.50
    2    6    4     -2.21      6.03
    1    6    4      4.52     -1.65
    0    6    4      3.85     -0.12
    6    6    4     -3.19     -0.09
    6    7    4     -0.82      0.14
    5    7    4     -4.95      1.20
    4    7    4      0.35      0.12
    3    7    4      3.81     -4.17
    2    7    4     -4.80     -0.75
    1    7    4     -1.41      2.61
    0    7    4      0.58      2.67
    7    7    4      2.68     -0.19
    7    8    4      1.51     -0.46
    6    8    4     -0.36      1.85
    5    8    4     -0.04      0.71
    4    8    4      0.80     -2.19
    3    8    4     -0.98     -8.91
    2    8    4     -2.37     -0.63
    1    8    4     -0.05      7.13
    0    8    4      1.62     -0.18
    8    8    4      1.19     -0.49
    8    9    4     -1.39     -1.62
    7    9    4     -0.01      0.37
    6    9    4      2.72      1.02
    5    9    4      1.26      0.77
    4    9    4     -2.15     -0.86
    3    9    4      1.53      0.06
    2    9    4      3.36      1.23
    1    9    4     -2.39     -2.44
    0    9    4      0.10     -1.73
    9    9    4      0.57     -0.61
    9   10    4     -1.76     -2.76
    8   10    4      0.64      1.64
    7   10    4      1.30      1.95
    6   10    4     -1.32     -1.35
    5   10    4     -1.61     -1.34
    4   10    4      0.22      3.91
    3   10    4      1.68      5.13
    2   10    4      3.41     -6.77
    1   10    4      1.68     -4.15
    0   10    4     -5.42      1.11
   10   10    4      0.11      1.04
   10   11    4     -0.18     -1.13
    9   11    4     -1.13     -0.15
    8   11    4      0.98     -0.46
    7   11    4     -1.34     -0.70
    6   11    4     -0.71      2.36
    5   11    4      2.23      0.19
    4   11    4      1.04     -0.94
    3   11    4     -3.90      1.35
    2   11    4     -1.81      0.55
    1   11    4      2.77      1.24
    0   11    4      0.01     -1.18
   11   11    4      2.29      0.47
   11   12    4     -0.91      0.16
   10   12    4     -0.87      0.63
    9   12    4      0.66      0.63
    8   12    4      0.30     -3.03
    7   12    4     -0.44     -1.95
    6   12    4      0.47      1.76
    5   12    4      0.71      0.27
    4   12    4     -0.06     -1.11
    3   12    4      1.20      1.42
    2   12    4     -2.13      1.89
    1   12    4     -4.86     -0.80
    0   12    4      3.23     -0.02
   12   12    4      0.63      0.12
   12   13    4      0.29      0.52
   11   13    4     -2.23      1.18
   10   13    4      0.53      0.26
    9   13    4      0.52      1.45
    8   13    4      1.00      0.99
    7   13    4      0.40     -1.24
    6   13    4     -0.86     -2.28
    5   13    4     -0.82     -1.02
    4   13    4     -1.29      1.75
    3   13    4      0.53      0.64
    2   13    4      2.02     -1.20
    1   13    4     -0.43     -1.11
    0   13    4     -0.36     -0.03
   13   13    4      3.75     -0.15
   13   14    4     -1.24     -0.23
   12   14    4     -0.23     -1.74
   11   14    4      1.66      1.45
   10   14    4     -0.17      0.18
    9   14    4      0.03     -1.30
    8   14    4     -0.82      0.66
    7   14    4      0.45      0.81
    6   14    4      1.30     -0.58
    5   14    4     -1.50      0.09
    4   14    4     -0.78      1.54
    3   14    4     -1.59     -1.00
    2   14    4      0.58      0.01
    1   14    4      4.66      0.65
    0   14    4     -0.69     -0.86
   14   14    4      0.39      0.15
   14   15    4      0.40      1.14
   13   15    4     -2.19      2.79
   12   15    4      0.88     -1.51
   11   15    4      2.97     -2.56
   10   15    4     -0.09      0.44
    9   15    4     -2.07     -1.75
    8   15    4     -2.11     -0.62
    7   15    4      0.80      3.06
    6   15    4      0.58     -0.67
    5   15    4      0.55     -0.92
    4   15    4      0.70      2.00
    3   15    4      0.52     -0.44
    2   15    4      0.38     -0.72
    1   15    4     -1.04      1.03
    0   15    4     -0.30     -0.45
   15   15    4      0.12      0.40
   15   16    4      0.09      0.24
   14   16    4      1.44     -0.19
   13   16    4      0.76      0.60
   12   16    4      0.69      1.03
   11   16    4     -1.95     -1.75
   10   16    4      0.82     -0.36
    9   16    4      1.11      0.60
    8   16    4     -1.77      1.31
    7   16    4     -1.36      1.72
    6   16    4      1.07     -1.80
    5   16    4      2.44     -1.74
    4   16    4     -0.46     -0.49
    3   16    4     -0.51     -0.22
    2   16    4      1.13      0.72
    1   16    4     -1.29      0.61
    0   16    4     -1.78     -0.22
   16   16    4     -3.93      0.16
   15   17    4      0.45      0.29
   14   17    4     -0.53     -0.95
   13   17    4      0.71     -2.43
   12   17    4     -0.47      0.81
   11   17    4     -2.94      2.44
   10   17    4      0.55      0.02
    9   17    4      2.14      1.27
    8   17    4      0.21      0.64
    7   17    4      0.98     -1.67
    6   17    4      0.08      1.13
    5   17    4     -1.60     -1.55
    4   17    4      0.38     -3.09
    3   17    4     -1.73      3.00
    2   17    4     -0.87     -0.70
    1   17    4      2.10     -3.58
    0   17    4     -0.19      4.74
   16   17    4     -0.20     -0.22
   14   18    4     -2.73     -1.22
   13   18    4      0.70      0.79
   12   18    4      0.27      0.92
   11   18    4      1.33     -0.43
   10   18    4      0.59      0.12
    9   18    4     -0.76      1.38
    8   18    4     -0.06     -0.86
    7   18    4     -1.32     -2.60
    6   18    4     -0.03      0.82
    5   18    4      1.14      2.10
    4   18    4      0.58     -0.51
    3   18    4      0.80      0.57
    2   18    4     -3.14      0.39
    1   18    4     -1.95     -1.10
    0   18    4      4.51      0.30
   13   19    4     -1.93     -0.81
   12   19    4     -2.43      0.61
   11   19    4      2.88     -1.14
   10   19    4      1.18     -0.84
    9   19    4     -0.45     -0.42
    8   19    4      0.89     -0.08
    7   19    4     -3.12      0.16
    6   19    4     -0.06     -0.46
    5   19    4      1.85      3.72
    4   19    4     -0.60      0.46
    3   19    4      2.19     -3.63
    2   19    4     -0.61      3.99
    1   19    4     -1.63      1.44
    0   19    4      0.00     -7.15
   11   20    4      0.19      0.60
   10   20    4     -0.98      0.06
    9   20    4      0.18     -0.42
    8   20    4      1.89      1.09
    7   20    4      1.43      0.34
    6   20    4     -1.35     -0.09
    5   20    4     -2.38      0.27
    4   20    4     -1.28     -1.06
    3   20    4      0.68     -1.42
    2   20    4      4.79      1.05
    1   20    4      1.47      1.32
    0   20    4     -5.16      0.05
    9   21    4     -0.54     -0.98
    8   21    4     -0.13     -0.14
    7   21    4      2.12     -0.35
    6   21    4     -0.27      0.48
    5   21    4     -1.02     -0.54
    4   21    4      0.17     -0.12
    3   21    4     -0.46      1.39
    2   21    4      1.28     -1.49
    1   21    4      0.39      0.22
    0   21    4      0.04      2.59
   10   21    4     -2.13      0.70
    2   22    4     -2.84     -1.84
    1   22    4     -0.55     -0.97
    0   22    4      2.72      0.10
    3   22    4      0.05      1.97
    4   22    4      1.57      1.34
    5   22    4     -0.82     -1.42
    6   22    4     -0.03      0.05
    7   22    4      1.04      0.28
    0   23    4      0.27      1.05
    1   23    4     -0.01      1.54
    2   23    4     -1.29     -0.92
    3   23    4      0.02     -0.11
    0    1    5     -0.10     -0.55
    1    1    5      0.20      4.11
    1    2    5      0.75     -0.62
    0    2    5      3.03      4.06
    2    2    5      1.42     -0.95
    2    3    5      1.39      1.73
    1    3    5      1.67     -2.70
    0    3    5     -1.03      0.18
    3    3    5     -0.32     -0.43
    3    4    5      1.79     -2.83
    2    4    5      3.05     -4.77
    1    4    5     -0.96      2.39
    0    4    5     -0.21     -0.92
    4    4    5      0.15      4.82
    4    5    5     -0.19     -3.12
    3    5    5     -3.14      0.40
    2    5    5     -1.63      4.30
    1    5    5      2.23     -0.39
    0    5    5      5.58     -4.76
    5    5    5      0.45      0.07
    5    6    5     -1.79      2.29
    4    6    5      1.19     -2.71
    3    6    5     -2.27      1.61
    2    6    5     -2.17      3.40
    1    6    5      2.63     -1.23
    0    6    5      0.15     -0.11
    6    6    5     -0.37      2.39
    6    7    5     -2.58     -2.75
    5    7    5     -0.38      1.18
    4    7    5      3.11      4.55
    3    7    5     -0.40      0.73
    2    7    5     -1.72     -5.76
    1    7    5     -0.83      1.18
    0    7    5     -3.75      4.50
    7    7    5      0.56     -3.18
    7    8    5     -1.19     -0.61
    6    8    5      1.79     -0.61
    5    8    5      3.16     -0.03
    4    8    5     -1.27     -1.39
    3    8    5     -0.07      0.41
    2    8    5     -1.20      1.89
    1    8    5     -3.62     -1.98
    0    8    5      0.27      0.34
    8    8    5     -0.06     -0.12
    8    9    5      1.11      0.69
    7    9    5     -0.37      0.14
    6    9    5     -1.35     -1.23
    5    9    5     -1.66      0.54
    4    9    5     -0.20      1.35
    3    9    5      5.14     -1.86
    2    9    5      0.21     -1.47
    1    9    5     -3.25      0.70
    0    9    5      0.29      0.59
    9    9    5      0.51      0.18
    9   10    5     -0.19      1.00
    8   10    5     -0.29      0.32
    7   10    5     -0.37     -0.26
    6   10    5      0.03     -0.46
    5   10    5     -0.54      0.53
    4   10    5      1.77      1.93
    3   10    5     -0.11     -0.95
    2   10    5     -0.01     -0.97
    1   10    5      2.62      2.09
    0   10    5     -1.30     -1.38
   10   10    5      0.55      0.52
   10   11    5     -1.17     -0.01
    9   11    5      0.58      1.46
    8   11    5     -0.77     -1.75
    7   11    5     -0.71      1.32
    6   11    5      1.47      3.26
    5   11    5      0.26     -1.99
    4   11    5      0.73     -2.89
    3   11    5     -2.41      1.76
    2   11    5     -0.83      2.26
    1   11    5      3.98     -2.60
    0   11    5      0.36     -1.08
   11   11    5     -0.54     -2.85
   11   12    5     -0.08     -1.99
   10   12    5      2.28     -0.22
    9   12    5      1.06      2.07
    8   12    5     -1.67      0.25
    7   12    5     -1.62      0.22
    6   12    5     -0.37     -0.75
    5   12    5      0.72     -2.42
    4   12    5     -0.41     -0.43
    3   12    5      0.33      1.16
    2   12    5      1.40      0.74
    1   12    5     -0.92     -0.25
    0   12    5     -1.19     -0.61
   12   12    5     -0.35      0.82
   12   13    5     -0.48      1.04
   11   13    5     -0.33      1.10
   10   13    5      0.55     -1.41
    9   13    5      0.26     -1.12
    8   13    5     -0.23      2.98
    7   13    5      1.01     -0.74
    6   13    5      1.08     -2.93
    5   13    5     -0.71      0.40
    4   13    5     -1.56      0.85
    3   13    5      0.56      0.78
    2   13    5      1.40      0.64
    1   13    5     -2.34      1.22
    0   13    5     -0.68      0.29
   13   13    5      0.67      0.08
   13   14    5      1.06     -1.17
   12   14    5      0.25      1.02
   11   14    5     -1.06      1.67
   10   14    5     -1.88     -1.03
    9   14    5     -0.66     -2.32
    8   14    5      2.82     -0.06
    7   14    5      2.57      0.87
    6   14    5     -3.20     -0.09
    5   14    5     -2.33      1.36
    4   14    5      1.65      1.46
    3   14    5      1.38     -0.94
    2   14    5     -0.21     -2.20
    1   14    5     -1.65     -1.26
    0   14    5      0.96      1.65
   14   14    5     -0.12     -1.81
   14   15    5      0.61      0.16
   13   15    5     -0.75      0.36
   12   15    5      1.04      0.16
   11   15    5      0.15     -0.59
   10   15    5      0.20     -0.29
    9   15    5     -0.47     -0.27
    8   15    5      0.43     -0.47
    7   15    5     -0.55      1.00
    6   15    5     -0.78      0.29
    5   15    5      0.58      0.77
    4   15    5     -2.03      0.79
    3   15    5      1.49     -2.64
    2   15    5      1.60     -0.61
    1   15    5     -1.34      1.71
    0   15    5      0.64     -1.24
   15   15    5      0.44      0.43
   15   16    5      1.75     -0.27
   14   16    5     -0.71      2.37
   13   16    5     -1.38      0.24
   12   16    5      0.29     -2.28
   11   16    5      0.85      0.30
   10   16    5      0.17      0.40
    9   16    5     -1.46     -0.60
    8   16    5      0.50      1.19
    7   16    5      1.40      0.40
    6   16    5      0.91     -0.11
    5   16    5     -0.55      0.53
    4   16    5     -1.50     -0.63
    3   16    5     -0.06     -1.33
    2   16    5      0.15      0.18
    1   16    5      0.89      1.34
    0   16    5      0.16      0.11
   16   16    5     -0.17     -0.40
   15   17    5     -0.40     -1.03
   14   17    5     -0.97     -0.08
   13   17    5     -0.06     -0.25
   12   17    5      0.11     -0.56
   11   17    5      0.49     -0.02
   10   17    5     -0.22      1.10
    9   17    5      0.13      0.62
    8   17    5     -0.69     -0.53
    7   17    5     -0.56      0.27
    6   17    5      0.61     -0.01
    5   17    5      2.25     -1.54
    4   17    5      0.78     -0.52
    3   17    5     -2.86      1.83
    2   17    5      0.37      0.52
    1   17    5      0.74     -0.62
    0   17    5     -1.11      0.93
   14   18    5      0.31      0.18
   13   18    5     -0.34      0.48
   12   18    5      0.64      1.80
   11   18    5     -0.27     -0.26
   10   18    5     -0.30     -0.22
    9   18    5      1.87      0.19
    8   18    5     -1.96     -2.44
    7   18    5     -2.16     -0.97
    6   18    5      1.99      1.88
    5   18    5      1.32      0.23
    4   18    5     -0.19     -0.26
    3   18    5     -1.07      1.42
    2   18    5     -0.02      0.27
    1   18    5      1.33     -0.53
    0   18    5     -0.45     -1.07
   12   19    5     -1.35      0.84
   11   19    5     -1.42      0.84
   10   19    5     -0.21      0.27
    9   19    5      0.70     -0.46
    8   19    5      0.48     -1.10
    7   19    5      0.35     -1.14
    6   19    5     -0.19      1.52
    5   19    5     -2.26      1.41
    4   19    5      1.30     -0.79
    3   19    5      1.53     -0.67
    2   19    5     -2.03     -1.04
    1   19    5      1.08     -0.99
    0   19    5      0.78      1.00
   10   20    5      0.36      0.68
    9   20    5      0.32      0.04
    8   20    5      0.16      0.95
    7   20    5     -0.37      0.10
    6   20    5     -0.32     -0.38
    5   20    5      0.03     -0.01
    4   20    5      0.55     -1.48
    3   20    5      0.12     -0.81
    2   20    5     -1.53      1.51
    1   20    5      0.78      1.42
    0   20    5      1.16      0.39
   11   20    5     -1.16      0.38
    5   21    5     -1.28      0.72
    4   21    5      0.18      1.12
    3   21    5      1.03     -0.11
    2   21    5      1.34     -0.50
    1   21    5     -0.51      0.28
    0   21    5     -0.56      0.29
    6   21    5     -2.16     -0.74
    7   21    5      0.82     -0.46
    8   21    5      1.07      0.96
    9   21    5     -1.47     -0.08
    3   22    5     -0.30      1.22
    2   22    5      1.13     -1.21
    1   22    5     -1.45     -1.56
    0   22    5      0.07      0.55
    4   22    5     -0.94      1.16
    5   22    5      0.10     -1.26
    6   22    5     -0.21     -0.54
    0    1    6     -3.70     -1.04
    1    1    6      1.64     -0.08
    1    2    6      2.42     -1.40
    0    2    6      0.00      2.21
    2    2    6     -5.90     -0.28
    2    3    6     -2.18     -0.10
    1    3    6      0.17     -0.01
    0    3    6      5.72     -0.08
    3    3    6     -0.24     -0.20
    3    4    6     -2.94      1.33
    2    4    6      2.18      3.87
    1    4    6      0.32      1.64
    0    4    6      1.10     -6.49
    4    4    6     -2.58     -0.18
    4    5    6      3.10      0.15
    3    5    6     -0.84      0.65
    2    5    6     -0.33     -0.54
    1    5    6     -0.08     -0.58
    0    5    6     -1.19     -0.45
    5    5    6      2.78     -0.02
    5    6    6     -1.02     -1.65
    4    6    6      1.69      0.58
    3    6    6      3.66     -0.94
    2    6    6      0.99     -2.22
    1    6    6     -1.73      0.98
    0    6    6     -0.14      4.21
    6    6    6     -3.84     -0.54
    6    7    6     -2.15     -0.34
    5    7    6     -0.40     -2.89
    4    7    6      1.08     -0.07
    3    7    6      0.55      0.52
    2    7    6      0.65      1.39
    1    7    6     -1.46      1.19
    0    7    6     -1.66      0.38
    7    7    6     -2.39      0.48
    7    8    6      0.02      1.16
    6    8    6      0.62      1.32
    5    8    6     -1.42     -1.06
    4    8    6      0.36      0.79
    3    8    6      0.07     -0.11
    2    8    6     -2.17     -1.93
    1    8    6      0.48     -0.61
    0    8    6     -0.64      1.41
    8    8    6      1.36     -0.12
    8    9    6      0.95      0.45
    7    9    6      1.90      0.06
    6    9    6      1.13     -0.82
    5    9    6     -0.42      2.46
    4    9    6     -0.97      0.47
    3    9    6      0.34     -1.14
    2    9    6     -0.16      0.04
    1    9    6     -0.59     -0.59
    0    9    6      0.01      0.40
    9    9    6     -0.96     -0.46
    9   10    6      0.13     -0.51
    8   10    6     -1.07      1.45
    7   10    6      1.11      0.25
    6   10    6      0.84     -0.66
    5   10    6      0.89      1.04
    4   10    6     -1.26     -1.79
    3   10    6     -1.69     -0.32
    2   10    6      2.67      1.79
    1   10    6      0.56      0.94
    0   10    6      0.64     -0.71
   10   10    6     -0.85      0.13
   10   11    6     -1.27      1.07
    9   11    6      0.02      2.39
    8   11    6     -0.37     -0.08
    7   11    6      0.66     -2.22
    6   11    6     -0.62     -0.82
    5   11    6     -0.45      1.59
    4   11    6      0.86      0.46
    3   11    6     -1.60     -1.26
    2   11    6      0.20     -0.81
    1   11    6      2.99      0.48
    0   11    6     -0.53      0.12
   11   11    6     -0.65     -0.54
   11   12    6      0.61     -0.82
   10   12    6     -0.26      0.36
    9   12    6     -0.62      0.79
    8   12    6      0.05     -0.01
    7   12    6      0.26     -1.40
    6   12    6      2.06     -0.03
    5   12    6     -0.14      0.48
    4   12    6     -1.61     -0.25
    3   12    6     -0.18      1.44
    2   12    6     -0.79      0.45
    1   12    6      0.15     -2.85
    0   12    6     -0.48     -0.76
   12   12    6      1.09     -0.42
   12   13    6      0.66     -1.06
   11   13    6      0.41      1.03
   10   13    6     -0.51     -1.47
    9   13    6      0.92     -0.95
    8   13    6      0.86      0.47
    7   13    6     -0.71      0.30
    6   13    6     -1.20     -0.01
    5   13    6     -0.48     -1.20
    4   13    6      0.61      2.54
    3   13    6      0.90      0.60
    2   13    6     -1.09     -2.82
    1   13    6     -0.10      0.25
    0   13    6      2.02     -0.18
   13   13    6     -0.33      0.42
   13   14    6      0.16     -1.35
   12   14    6     -1.54      0.92
   11   14    6      1.17      0.91
   10   14    6      1.16      0.14
    9   14    6     -1.05      0.14
    8   14    6     -0.14     -0.92
    7   14    6     -0.74     -0.30
    6   14    6     -2.03     -0.46
    5   14    6      1.47      0.25
    4   14    6      1.11      1.88
    3   14    6      0.32     -1.43
    2   14    6      0.36     -1.64
    1   14    6     -0.93      1.96
    0   14    6      0.08      1.23
   14   14    6      2.28     -0.50
   14   15    6     -1.30     -0.78
   13   15    6     -0.63      0.42
   12   15    6     -0.85     -0.56
   11   15    6      0.04     -0.33
   10   15    6      1.26      1.76
    9   15    6     -2.10      0.04
    8   15    6     -0.59     -1.09
    7   15    6      2.09      0.38
    6   15    6      2.20      1.77
    5   15    6     -1.02     -0.32
    4   15    6     -1.32     -3.82
    3   15    6      0.88      0.82
    2   15    6     -0.50      3.19
    1   15    6     -1.42     -0.64
    0   15    6      0.19      0.13
   15   15    6      3.52     -0.94
   15   16    6      1.33     -0.82
   14   16    6      0.44      0.76
   13   16    6     -0.27      0.54
   12   16    6     -1.81     -1.24
   11   16    6     -0.46     -0.35
   10   16    6      0.60      0.73
    9   16    6      0.75     -0.18
    8   16    6     -0.02     -0.40
    7   16    6     -0.65      0.32
    6   16    6      0.66      0.67
    5   16    6     -0.30      0.57
    4   16    6     -0.06     -0.52
    3   16    6      0.39     -0.16
    2   16    6      0.07      0.51
    1   16    6      0.13     -1.39
    0   16    6      0.22     -0.72
   14   17    6      2.37      0.38
   13   17    6      0.18      0.17
   12   17    6     -1.11      0.61
   11   17    6      0.78      0.68
   10   17    6      0.14     -1.71
    9   17    6      0.14     -1.00
    8   17    6     -0.22      1.63
    7   17    6     -1.86     -0.75
    6   17    6      0.03     -0.78
    5   17    6      2.39      1.65
    4   17    6     -1.35      0.30
    3   17    6     -1.12     -0.14
    2   17    6      1.86     -0.21
    1   17    6      0.82     -0.66
    0   17    6     -0.79     -0.40
   13   18    6     -0.67     -0.34
   12   18    6      2.09      0.04
   11   18    6      1.15      0.23
   10   18    6     -0.09      0.13
    9   18    6     -0.79     -0.08
    8   18    6      0.07      0.27
    7   18    6      0.53      0.42
    6   18    6     -1.50      0.07
    5   18    6     -0.72     -1.04
    4   18    6      1.66     -0.83
    3   18    6      1.05      0.24
    2   18    6     -1.04      0.83
    1   18    6     -0.69      1.81
    0   18    6     -0.43     -0.57
   11   19    6     -1.01     -1.28
   10   19    6     -1.27      1.06
    9   19    6      2.25      0.63
    8   19    6     -0.87     -1.54
    7   19    6     -0.56      2.96
    6   19    6      0.86      0.10
    5   19    6     -1.55     -3.49
    4   19    6      1.44      0.60
    3   19    6      0.43      1.05
    2   19    6     -1.39      0.46
    1   19    6      1.14      0.24
    0   19    6      0.24     -0.36
   12   19    6      2.30      0.00
    6   20    6      0.02     -0.33
    5   20    6     -1.00      0.12
    4   20    6      0.70      1.31
    3   20    6     -2.76      0.79
    2   20    6     -0.47     -0.25
    1   20    6      2.62     -0.52
    0   20    6     -0.18     -0.85
    7   20    6      1.51     -0.73
    8   20    6      0.19      0.18
    9   20    6      0.52      0.45
   10   20    6     -0.71     -1.44
    5   21    6      0.36      1.89
    4   21    6     -0.01      1.31
    3   21    6      2.06     -1.94
    2   21    6      0.90     -1.37
    1   21    6     -6.87      1.61
    0   21    6     -0.11      0.17
    6   21    6     -1.99     -0.86
    7   21    6      0.43     -2.18
    8   21    6      1.10      1.04
    2   22    6      0.79      0.48
    1   22    6     -2.39     -1.59
    0   22    6      0.27      0.75
    3   22    6      2.56      0.35
    4   22    6     -2.05     -1.21
    5   22    6      0.86     -0.72
    0    1    7     -2.06     -2.47
    1    1    7     -0.31     -1.68
    1    2    7     -3.31      1.00
    0    2    7     -0.49      0.21
    2    2    7      0.51      0.08
    2    3    7     -0.45      2.39
    1    3    7      2.25      2.00
    0    3    7     -1.62     -1.63
    3    3    7      0.43      1.37
    3    4    7      1.25      0.86
    2    4    7      0.30     -0.83
    1    4    7      2.52     -1.96
    0    4    7      0.41     -0.24
    4    4    7     -0.54     -0.69
    4    5    7      3.10     -1.85
    3    5    7      1.66     -1.96
    2    5    7     -1.24     -1.88
    1    5    7     -2.34     -0.72
    0    5    7      1.63      1.89
    5    5    7     -0.15      1.25
    5    6    7      0.73      2.37
    4    6    7      1.45      0.80
    3    6    7     -1.72     -0.91
    2    6    7     -0.36      1.22
    1    6    7      0.15      1.06
    0    6    7     -0.35      0.12
    6    6    7     -0.44     -0.23
    6    7    7     -0.24      0.18
    5    7    7      0.96      0.07
    4    7    7     -1.21      1.77
    3    7    7     -1.81     -0.26
    2    7    7      0.95     -1.36
    1    7    7      0.78      0.19
    0    7    7      0.46      0.70
    7    7    7     -0.11      0.78
    7    8    7      0.61     -2.79
    6    8    7     -0.77     -1.80
    5    8    7      1.87      1.08
    4    8    7      1.27      0.87
    3    8    7     -1.32     -1.87
    2    8    7     -1.08      0.18
    1    8    7     -0.98      1.79
    0    8    7      0.67     -0.07
    8    8    7     -0.79     -1.54
    8    9    7      1.13      2.17
    7    9    7     -0.01     -0.35
    6    9    7     -0.65     -0.59
    5    9    7      0.16     -0.08
    4    9    7     -0.12     -2.42
    3    9    7      0.13      0.95
    2    9    7      0.69      1.73
    1    9    7      0.03     -0.68
    0    9    7     -0.79     -0.59
    9    9    7     -0.25      0.02
    9   10    7      0.39     -0.77
    8   10    7      0.40      4.77
    7   10    7     -0.65      1.25
    6   10    7      0.11     -0.85
    5   10    7     -1.08     -1.31
    4   10    7     -1.91      0.64
    3   10    7      1.94      1.26
    2   10    7      0.87     -1.16
    1   10    7      0.01     -1.34
    0   10    7      0.20     -0.36
   10   10    7     -0.51     -4.93
   10   11    7      1.40     -0.66
    9   11    7      0.65      0.26
    8   11    7      0.67      1.03
    7   11    7     -0.07     -0.83
    6   11    7      0.29     -1.88
    5   11    7      0.39      0.46
    4   11    7     -0.65      3.42
    3   11    7     -0.41      0.60
    2   11    7     -0.29     -2.09
    1   11    7     -0.26     -0.91
    0   11    7      0.96      0.18
   11   11    7     -0.27     -1.72
   11   12    7      2.28     -0.09
   10   12    7     -1.39      2.31
    9   12    7      0.73     -0.19
    8   12    7      0.03     -2.12
    7   12    7     -1.44     -0.15
    6   12    7      1.66      1.15
    5   12    7      0.98      0.30
    4   12    7      0.21     -0.52
    3   12    7     -1.03     -0.41
    2   12    7     -0.76     -0.15
    1   12    7     -0.45      1.05
    0   12    7     -0.29      0.16
   12   12    7     -0.10     -1.98
   12   13    7      1.97      0.79
   11   13    7      1.28      1.91
   10   13    7      0.32      1.28
    9   13    7     -0.48     -0.36
    8   13    7     -1.38     -3.30
    7   13    7     -1.04      0.41
    6   13    7     -0.06      1.67
    5   13    7     -0.24      0.50
    4   13    7      0.26     -0.83
    3   13    7      1.56     -2.10
    2   13    7      0.17      1.80
    1   13    7     -0.55      1.94
    0   13    7     -1.51     -0.84
   13   13    7     -0.05     -1.26
   13   14    7      1.98      0.08
   12   14    7      0.59      2.03
   11   14    7     -1.98      0.35
   10   14    7      0.63     -1.90
    9   14    7      0.02     -0.37
    8   14    7     -0.13     -0.14
    7   14    7      0.82      0.39
    6   14    7      0.45      1.23
    5   14    7     -0.91     -0.32
    4   14    7     -1.14     -1.66
    3   14    7      1.13      0.75
    2   14    7      0.20      1.21
    1   14    7      0.18     -1.37
    0   14    7      0.48     -0.19
   14   14    7      0.15     -0.79
   14   15    7     -0.54      0.55
   13   15    7      0.98     -0.94
   12   15    7      0.53     -0.61
   11   15    7     -0.72     -0.14
   10   15    7     -2.24     -0.70
    9   15    7      0.27      0.94
    8   15    7      0.83      1.56
    7   15    7      0.36     -0.64
    6   15    7      0.45      0.53
    5   15    7      0.47     -0.93
    4   15    7      1.25     -1.83
    3   15    7     -1.01      0.74
    2   15    7     -1.15      0.35
    1   15    7      0.05      0.23
    0   15    7      0.42      0.33
   15   15    7     -0.99      1.57
   14   16    7      2.19     -0.02
   13   16    7      0.04      0.26
   12   16    7     -1.89     -1.22
   11   16    7      0.60     -0.97
   10   16    7      0.52      1.76
    9   16    7     -1.40      0.73
    8   16    7     -1.16     -0.83
    7   16    7      1.27      0.24
    6   16    7      0.07      0.51
    5   16    7     -0.54     -0.71
    4   16    7      0.68     -0.40
    3   16    7      0.18      0.78
    2   16    7      0.73     -0.15
    1   16    7      0.35     -0.64
    0   16    7     -0.58      0.70
   13   17    7     -0.87      0.65
   12   17    7     -0.67     -0.47
   11   17    7     -0.04     -0.55
   10   17    7      1.55      0.49
    9   17    7     -0.26      0.09
    8   17    7     -0.28      0.55
    7   17    7      1.55      0.33
    6   17    7     -1.01     -0.72
    5   17    7     -1.61     -0.14
    4   17    7      0.53      0.43
    3   17    7     -0.39      1.26
    2   17    7      0.03      0.04
    1   17    7      2.27     -1.69
    0   17    7     -0.39     -0.11
   11   18    7      0.96      1.65
   10   18    7     -0.81     -0.88
    9   18    7      0.53     -1.72
    8   18    7      1.29      1.82
    7   18    7     -0.77      0.11
    6   18    7     -1.44     -2.19
    5   18    7      0.29      2.00
    4   18    7      0.54      1.79
    3   18    7     -0.63     -2.66
    2   18    7      0.39     -1.10
    1   18    7      0.56      1.34
    0   18    7     -0.97      0.74
   12   18    7      1.67      0.18
    8   19    7     -0.05      0.13
    7   19    7      0.95     -0.15
    6   19    7      0.79      0.13
    5   19    7     -0.40      0.95
    4   19    7     -1.58     -0.24
    3   19    7     -1.36     -0.28
    2   19    7      1.04     -0.77
    1   19    7      1.66      1.82
    0   19    7      0.93      0.65
    9   19    7     -0.40     -1.42
   10   19    7     -0.73     -0.57
   11   19    7     -0.34      0.63
    7   20    7     -0.86     -0.11
    6   20    7     -1.26      0.09
    5   20    7      1.34     -1.96
    4   20    7     -0.02      1.40
    3   20    7     -0.34      1.20
    2   20    7      0.45     -0.53
    1   20    7     -2.74      2.13
    0   20    7      0.47     -0.39
    8   20    7      0.65     -1.08
    9   20    7      0.81      1.50
    4   21    7      0.38      2.15
    3   21    7      4.27     -2.10
    2   21    7     -1.25     -0.58
    1   21    7     -6.70     -1.29
    0   21    7      0.39      0.28
    5   21    7      1.32     -0.70
    6   21    7      0.13     -0.80
    0    0    8     -1.24     -0.09
    0    1    8     -0.52     -0.90
    1    1    8     -0.67      0.24
    1    2    8     -3.09     -0.26
    0    2    8     -0.55     -0.18
    2    2    8      0.95      0.46
    2    3    8      2.34     -1.01
    1    3    8      1.81      0.72
    0    3    8      0.31      2.47
    3    3    8     -1.89     -0.33
    3    4    8     -2.56     -0.44
    2    4    8     -1.05      0.12
    1    4    8      2.68     -0.24
    0    4    8      0.01     -0.25
    4    4    8      2.02      0.59
    4    5    8      1.28     -1.54
    3    5    8     -0.07      0.80
    2    5    8     -2.15      2.47
    1    5    8     -1.32     -1.03
    0    5    8      0.36     -1.78
    5    5    8      1.91     -0.49
    5    6    8     -1.04      0.22
    4    6    8     -0.84     -0.56
    3    6    8      0.64      0.80
    2    6    8      0.72     -1.59
    1    6    8      0.22     -0.60
    0    6    8      1.98      0.65
    6    6    8     -1.67      0.41
    6    7    8     -1.27      0.48
    5    7    8      0.73     -0.76
    4    7    8     -0.25      2.09
    3    7    8     -0.32      0.33
    2    7    8      0.86     -1.67
    1    7    8     -0.01      0.97
    0    7    8     -0.18     -0.20
    7    7    8     -0.89     -0.25
    7    8    8      1.81      0.83
    6    8    8      0.74     -1.43
    5    8    8      0.12     -1.65
    4    8    8     -0.69      0.91
    3    8    8     -0.45     -0.12
    2    8    8     -0.72      0.45
    1    8    8      0.45      0.43
    0    8    8      0.20      0.28
    8    8    8      1.31     -0.30
    8    9    8     -1.98     -2.26
    7    9    8      0.07     -0.31
    6    9    8      3.03      1.96
    5    9    8      0.12      1.65
    4    9    8     -1.10     -1.12
    3    9    8     -0.54     -0.46
    2    9    8     -0.94      0.28
    1    9    8      0.50     -1.76
    0    9    8      0.18      0.13
    9    9    8     -0.77      0.42
    9   10    8      0.25     -1.83
    8   10    8      1.16     -2.31
    7   10    8     -1.63      0.17
    6   10    8     -0.96      1.65
    5   10    8      1.27      0.77
    4   10    8      0.29     -0.49
    3   10    8      0.31      0.02
    2   10    8      1.10      1.47
    1   10    8     -2.03     -0.09
    0   10    8     -1.95     -1.00
   10   10    8     -0.28      0.21
   10   11    8     -0.63     -1.06
    9   11    8      0.38      1.05
    8   11    8      0.94      3.01
    7   11    8     -0.57      0.04
    6   11    8     -2.26     -2.12
    5   11    8     -0.70     -1.58
    4   11    8      1.15     -0.17
    3   11    8      1.67     -0.23
    2   11    8      1.36      0.29
    1   11    8     -0.95      2.27
    0   11    8     -0.24      0.41
   11   11    8      0.33     -0.07
   11   12    8      0.88      1.13
   10   12    8     -0.82      0.17
    9   12    8     -0.80      0.21
    8   12    8     -2.35      2.02
    7   12    8      2.76      0.23
    6   12    8      1.03     -1.44
    5   12    8     -2.90     -0.86
    4   12    8      0.82      0.04
    3   12    8     -0.02     -0.63
    2   12    8     -0.99     -0.41
    1   12    8      3.15      0.98
    0   12    8      1.09     -0.24
   12   12    8      1.50     -0.34
   12   13    8     -1.60      1.65
   11   13    8      1.22     -0.80
   10   13    8      1.29      0.27
    9   13    8     -0.34     -0.91
    8   13    8     -0.31     -2.31
    7   13    8      0.75      0.17
    6   13    8      1.28     -0.10
    5   13    8     -1.75      1.66
    4   13    8     -1.50      1.55
    3   13    8      0.59     -0.46
    2   13    8      0.15     -0.27
    1   13    8      0.57     -0.94
    0   13    8     -0.18     -0.46
   13   13    8     -1.23     -0.15
   13   14    8      0.24     -0.83
   12   14    8      1.31      0.21
   11   14    8      0.05     -0.74
   10   14    8      0.99     -1.19
    9   14    8      1.60      1.75
    8   14    8     -1.10      1.57
    7   14    8     -2.97     -2.65
    6   14    8      1.93     -0.82
    5   14    8      2.62      3.00
    4   14    8     -1.03     -1.40
    3   14    8      0.00     -1.07
    2   14    8     -0.08      1.61
    1   14    8     -3.41     -0.25
    0   14    8     -0.21      0.51
   14   14    8     -4.63      0.37
   14   15    8     -0.95     -0.97
   13   15    8     -0.90     -1.20
   12   15    8      1.02     -1.32
   11   15    8     -0.36      2.31
   10   15    8      0.45     -0.06
    9   15    8      0.33     -0.68
    8   15    8     -1.53      1.41
    7   15    8      0.14      0.11
    6   15    8      0.92      1.36
    5   15    8      1.04     -0.77
    4   15    8     -0.40     -1.94
    3   15    8     -0.89      0.34
    2   15    8     -0.12     -0.19
    1   15    8     -0.23     -0.52
    0   15    8      0.46      0.83
   13   16    8      0.44      2.30
   12   16    8     -1.18      0.29
   11   16    8     -0.64     -1.03
   10   16    8     -0.59      0.42
    9   16    8     -0.47     -0.92
    8   16    8      1.64     -2.12
    7   16    8      1.76      2.70
    6   16    8     -1.70      2.54
    5   16    8     -2.21     -3.40
    4   16    8      0.89      1.04
    3   16    8      1.14      2.96
    2   16    8     -0.67     -2.85
    1   16    8      0.76     -1.28
    0   16    8      0.75      0.44
   11   17    8     -2.28     -0.86
   10   17    8     -1.55      0.08
    9   17    8      0.57      1.33
    8   17    8      4.12     -1.17
    7   17    8     -0.43     -1.08
    6   17    8     -4.47     -0.11
    5   17    8      0.90     -0.58
    4   17    8      2.95      1.17
    3   17    8      0.08      1.57
    2   17    8     -0.62     -0.68
    1   17    8     -0.52     -0.61
    0   17    8     -0.02     -0.23
   12   17    8     -0.68      0.83
    9   18    8     -2.43     -0.58
    8   18    8      0.35      0.16
    7   18    8      1.41     -0.47
    6   18    8     -1.28     -0.51
    5   18    8      0.71      1.43
    4   18    8      1.03      0.86
    3   18    8     -0.18     -1.93
    2   18    8     -0.17     -1.09
    1   18    8     -0.94      0.97
    0   18    8      0.01      0.27
   10   18    8     -0.05     -0.34
   11   18    8      0.34      0.77
    8   19    8     -2.90      1.88
    7   19    8      0.51      1.13
    6   19    8      3.08     -0.80
    5   19    8      0.59     -0.56
    4   19    8     -1.14     -1.10
    3   19    8     -3.49     -0.73
    2   19    8     -0.06      2.29
    1   19    8      2.61      2.88
    0   19    8     -0.62     -1.08
    6   20    8      1.91     -1.83
    5   20    8      0.71     -0.13
    4   20    8     -2.56     -0.24
    3   20    8     -1.16     -0.24
    2   20    8      1.99      3.19
    1   20    8      2.73      0.37
    0   20    8     -0.91     -0.84
    7   20    8     -2.74     -0.06
    3   21    8      4.08     -1.84
    2   21    8      0.13     -1.34
    1   21    8     -2.56     -2.52
    0   21    8      0.26      1.18
    4   21    8     -0.63      0.29
    0    1    9     -2.96      2.56
    1    1    9      0.49     -0.18
    1    2    9     -2.31     -1.57
    0    2    9      0.36      0.26
    2    2    9      0.23     -0.63
    2    3    9      0.11      0.75
    1    3    9      0.12      0.08
    0    3    9      2.26     -1.70
    3    3    9      0.78     -0.23
    3    4    9      2.00      0.74
    2    4    9      0.53     -0.30
    1    4    9     -1.39     -0.43
    0    4    9     -0.71     -0.09
    4    4    9     -0.20      0.25
    4    5    9      0.45     -1.88
    3    5    9     -0.44      0.37
    2    5    9      0.17     -1.17
    1    5    9     -0.43      0.06
    0    5    9     -2.13      2.02
    5    5    9      0.66     -0.24
    5    6    9      0.22      1.45
    4    6    9      1.04     -0.26
    3    6    9     -1.47     -0.17
    2    6    9     -0.44      1.17
    1    6    9      2.23      0.96
    0    6    9     -1.26     -0.91
    6    6    9      0.44      1.78
    6    7    9      0.50     -1.94
    5    7    9      0.30     -0.48
    4    7    9      0.31      1.72
    3    7    9      0.81     -0.38
    2    7    9     -1.60      1.07
    1    7    9     -0.37      0.14
    0    7    9      1.72     -2.80
    7    7    9     -0.38      0.68
    7    8    9     -1.48      0.23
    6    8    9      0.76     -2.21
    5    8    9      0.18      0.03
    4    8    9     -1.63      0.58
    3    8    9      0.14      0.15
    2    8    9      1.39     -0.30
    1    8    9      0.63     -0.37
    0    8    9      0.12     -0.43
    8    8    9      0.27      1.18
    8    9    9     -0.62      0.19
    7    9    9      0.11     -0.24
    6    9    9     -0.48      1.03
    5    9    9     -1.06      1.02
    4    9    9      0.51     -1.52
    3    9    9     -0.40     -0.15
    2    9    9      1.55     -0.45
    1    9    9      1.25     -0.45
    0    9    9     -1.90      2.52
    9    9    9      0.19     -0.19
    9   10    9      0.22     -0.12
    8   10    9     -0.38      0.06
    7   10    9      0.37     -0.40
    6   10    9      0.45      0.10
    5   10    9     -0.71      0.64
    4   10    9     -0.64      0.18
    3   10    9      0.80     -1.03
    2   10    9     -0.75     -0.74
    1   10    9     -1.02      0.29
    0   10    9      1.45      1.48
   10   10    9      0.64      0.57
   10   11    9     -0.06     -0.31
    9   11    9     -1.88     -0.93
    8   11    9     -0.57      0.81
    7   11    9      1.03      0.72
    6   11    9      0.46     -0.42
    5   11    9      1.40     -0.01
    4   11    9      0.36      0.58
    3   11    9     -0.87     -0.81
    2   11    9     -2.30      0.24
    1   11    9     -0.44      0.80
    0   11    9      2.32     -1.97
   11   11    9      0.14      1.32
   11   12    9     -0.71     -0.13
   10   12    9      0.06     -1.07
    9   12    9     -0.95      0.02
    8   12    9      1.30      0.57
    7   12    9      1.71     -0.57
    6   12    9     -1.88      0.23
    5   12    9      0.48      0.55
    4   12    9      1.53     -0.58
    3   12    9     -1.68      0.00
    2   12    9     -0.68      1.30
    1   12    9      0.98     -0.06
    0   12    9     -0.82     -0.82
   12   12    9     -0.13     -0.15
   12   13    9     -0.15      0.06
   11   13    9     -0.81     -1.56
   10   13    9      0.46      0.36
    9   13    9      1.71     -0.10
    8   13    9      0.68      0.06
    7   13    9     -0.51     -0.67
    6   13    9     -1.30     -0.66
    5   13    9     -1.27      0.81
    4   13    9     -0.35     -0.51
    3   13    9      1.01      0.54
    2   13    9      2.20      0.91
    1   13    9     -0.72      0.02
    0   13    9     -1.00      1.37
   13   13    9      0.08      2.13
   13   14    9      0.28      0.65
   12   14    9      0.98      0.87
   11   14    9     -0.31     -0.07
   10   14    9     -1.44      0.77
    9   14    9      1.09     -0.05
    8   14    9      0.56     -0.70
    7   14    9     -0.85      1.10
    6   14    9     -0.82      1.29
    5   14    9     -0.62     -1.83
    4   14    9      0.84     -1.03
    3   14    9      0.56      0.25
    2   14    9     -0.32     -1.47
    1   14    9      1.00      1.75
    0   14    9      1.64      1.70
   14   14    9     -0.07     -1.89
   12   15    9      0.09      1.60
   11   15    9      0.74      0.79
   10   15    9     -0.47     -0.24
    9   15    9     -0.12      1.80
    8   15    9     -0.62     -2.31
    7   15    9     -0.60     -0.64
    6   15    9      2.30      1.55
    5   15    9     -0.16     -1.21
    4   15    9     -0.88      1.15
    3   15    9      1.18     -0.12
    2   15    9     -0.97     -1.56
    1   15    9     -0.74      0.46
    0   15    9     -0.07     -0.38
   13   15    9     -0.67     -0.63
   11   16    9     -0.20      0.33
   10   16    9     -0.11     -0.05
    9   16    9     -0.94      0.04
    8   16    9     -0.87      0.31
    7   16    9      0.32     -0.04
    6   16    9      1.97     -1.09
    5   16    9      0.92      0.13
    4   16    9     -1.04      0.77
    3   16    9      0.34      0.39
    2   16    9      0.53      1.12
    1   16    9     -2.68     -2.21
    0   16    9     -1.61     -1.55
   12   16    9      0.27     -0.97
   10   17    9      0.13      2.12
    9   17    9     -0.77     -0.88
    8   17    9      1.23     -0.06
    7   17    9      0.62      0.76
    6   17    9     -1.91     -0.60
    5   17    9      0.99     -0.13
    4   17    9      0.25      0.38
    3   17    9     -1.84      0.82
    2   17    9      0.65     -0.20
    1   17    9      2.04     -2.10
    0   17    9     -0.16     -0.35
   11   17    9     -0.29      0.75
    8   18    9     -0.48     -0.02
    7   18    9     -0.71      0.00
    6   18    9     -0.59      0.13
    5   18    9      0.61      0.62
    4   18    9      0.37      0.69
    3   18    9     -0.04      0.37
    2   18    9      0.35     -0.08
    1   18    9     -0.19     -0.82
    0   18    9     -0.90     -0.84
    9   18    9     -0.51      0.12
    7   19    9     -0.47     -0.21
    6   19    9      0.33      0.21
    5   19    9      0.14     -0.21
    4   19    9      0.22     -1.48
    3   19    9     -0.27      0.56
    2   19    9      0.24      1.02
    1   19    9     -0.60      0.83
    0   19    9      0.62      0.74
    8   19    9     -0.89      1.85
    4   20    9     -0.46     -0.08
    3   20    9      0.34     -1.07
    2   20    9     -1.31     -1.91
    1   20    9      1.56      1.82
    0    1   10      1.22      0.34
    1    1   10      0.08      0.16
    1    2   10     -0.98      0.33
    0    2   10      3.33      2.02
    2    2   10     -0.63      0.05
    2    3   10      0.39      2.64
    1    3   10      0.16     -0.18
    0    3   10      0.03      0.57
    3    3   10     -0.83      0.59
    3    4   10     -0.64     -0.06
    2    4   10      1.05     -0.12
    1    4   10      0.55      1.64
    0    4   10     -1.99     -1.64
    4    4   10     -0.27      0.85
    4    5   10     -0.36      0.59
    3    5   10      1.10      0.63
    2    5   10      0.80     -0.50
    1    5   10     -0.59     -0.49
    0    5   10     -1.33      0.28
    5    5   10     -1.23     -0.34
    5    6   10     -0.81     -0.40
    4    6   10      0.65      0.31
    3    6   10      1.22      1.52
    2    6   10      0.00      0.22
    1    6   10     -0.67     -4.13
    0    6   10      0.02      0.18
    6    6   10     -1.53      0.23
    6    7   10     -0.15     -0.11
    5    7   10      1.14      0.23
    4    7   10      0.77     -0.24
    3    7   10     -0.87     -2.04
    2    7   10     -0.02     -1.62
    1    7   10      1.27      0.80
    0    7   10     -0.94     -0.56
    7    7   10     -1.81      0.40
    7    8   10     -0.40     -1.99
    6    8   10      0.28      1.14
    5    8   10      0.58      1.10
    4    8   10      0.24     -1.76
    3    8   10     -0.74      0.63
    2    8   10      0.98      1.87
    1    8   10      0.60      1.90
    0    8   10     -0.48     -2.37
    8    8   10     -0.68      0.29
    8    9   10     -0.69     -0.03
    7    9   10      2.36     -4.32
    6    9   10      0.52     -0.81
    5    9   10     -0.69      1.73
    4    9   10     -0.66     -0.02
    3    9   10     -1.24      2.08
    2    9   10      0.09      2.08
    1    9   10      0.54     -1.38
    0    9   10      0.79     -0.89
    9    9   10     -1.83      0.61
    9   10   10      1.14     -0.26
    8   10   10     -0.35     -0.71
    7   10   10     -0.29      1.40
    6   10   10      1.32      0.19
    5   10   10      0.01     -1.49
    4   10   10     -1.00      0.06
    3   10   10      0.17     -0.63
    2   10   10     -0.38      0.00
    1   10   10     -0.08      0.60
    0   10   10      0.73      0.33
   10   10   10     -0.35      0.03
   10   11   10     -2.20     -0.95
    9   11   10      0.85     -2.10
    8   11   10      1.33     -1.43
    7   11   10     -0.97      3.66
    6   11   10     -1.03      3.81
    5   11   10      0.37     -1.33
    4   11   10      1.79     -2.01
    3   11   10      1.38     -1.58
    2   11   10     -0.36     -0.72
    1   11   10     -1.88      1.48
    0   11   10     -1.33      1.02
   11   11   10     -1.04     -0.14
   11   12   10      1.06      0.21
   10   12   10      0.50      0.52
    9   12   10     -0.07     -0.34
    8   12   10      1.10     -0.11
    7   12   10      0.58     -1.23
    6   12   10     -0.98     -0.30
    5   12   10     -1.10      1.91
    4   12   10      0.21      0.59
    3   12   10     -0.32     -0.47
    2   12   10     -0.67     -1.31
    1   12   10      0.55     -0.39
    0   12   10      0.28      1.73
   12   12   10     -0.93      0.01
   12   13   10      0.62     -1.77
   11   13   10     -0.31     -0.14
   10   13   10      0.55      0.97
    9   13   10     -0.11      0.45
    8   13   10     -0.71      1.31
    7   13   10     -0.42     -0.03
    6   13   10      0.60     -2.99
    5   13   10     -0.35     -0.53
    4   13   10     -1.14      3.31
    3   13   10     -0.09      0.09
    2   13   10     -1.91     -2.61
    1   13   10      1.99      0.31
    0   13   10      4.86     -0.08
   13   13   10      2.92     -0.22
   13   14   10     -0.40     -2.60
   12   14   10      0.37      0.23
   11   14   10     -1.21      1.03
   10   14   10     -0.26     -0.74
    9   14   10     -0.01      0.86
    8   14   10     -0.32     -0.01
    7   14   10      0.10     -0.63
    6   14   10     -0.07      0.40
    5   14   10      1.07     -1.22
    4   14   10      0.61      0.12
    3   14   10     -0.15      1.46
    2   14   10     -0.47     -0.01
    1   14   10     -0.47     -0.15
    0   14   10      0.23     -0.40
   12   15   10     -3.76      3.00
   11   15   10      0.58      0.04
   10   15   10      2.24     -1.02
    9   15   10      0.85     -0.27
    8   15   10     -0.39      0.34
    7   15   10      0.07     -0.06
    6   15   10     -0.42     -0.93
    5   15   10     -0.14     -0.33
    4   15   10      0.84     -1.11
    3   15   10      1.46      2.10
    2   15   10      1.18      2.70
    1   15   10     -5.18     -1.57
    0   15   10     -3.07     -0.21
   10   16   10     -0.84      1.01
    9   16   10      0.07      0.62
    8   16   10     -0.07      0.32
    7   16   10     -1.11      2.09
    6   16   10      1.10     -1.10
    5   16   10      0.54     -0.47
    4   16   10     -0.97      0.15
    3   16   10      0.58     -1.94
    2   16   10      0.94      0.30
    1   16   10     -0.60      0.59
    0   16   10     -1.09     -0.13
    9   17   10     -1.50      0.59
    8   17   10      1.16     -1.05
    7   17   10      0.88     -0.62
    6   17   10      0.74      1.11
    5   17   10      0.01      1.98
    4   17   10     -1.89     -0.32
    3   17   10     -1.92     -3.16
    2   17   10      1.96      0.26
    1   17   10      5.93      1.46
    0   17   10     -2.02     -0.03
    7   18   10      0.80     -0.48
    6   18   10     -2.43     -0.26
    5   18   10     -0.61      0.97
    4   18   10      1.81      0.38
    3   18   10     -0.12      0.01
    2   18   10     -0.10     -1.13
    1   18   10      0.49      0.28
    0   18   10     -0.13      1.37
    8   18   10      0.89      1.17
    5   19   10     -0.57     -0.68
    4   19   10      1.00      0.32
    3   19   10      0.60      1.69
    1   19   10     -1.09     -0.90
    0   19   10      2.86      0.13
    2   19   10     -1.87     -1.09
    0    1   11     -1.05      0.57
    1    1   11      0.11      0.33
    1    2   11     -0.94     -0.21
    0    2   11      0.39     -0.02
    2    2   11     -1.27      0.46
    2    3   11     -2.17      2.04
    1    3   11      0.69      1.03
    0    3   11      2.84     -2.03
    3    3   11      0.04     -1.23
    3    4   11     -0.27     -1.30
    2    4   11      1.85     -1.68
    1    4   11      0.73      0.43
    0    4   11     -1.62      1.47
    4    4   11      0.80      2.13
    4    5   11     -1.13     -1.03
    3    5   11      0.61      1.78
    2    5   11      2.58     -2.50
    1    5   11     -1.60     -2.83
    0    5   11     -1.17      3.60
    5    5   11      0.77      0.73
    5    6   11      0.41      1.45
    4    6   11      0.77     -1.17
    3    6   11     -0.18      0.13
    2    6   11      0.35     -0.60
    1    6   11     -1.48      0.79
    0    6   11     -2.65      2.61
    6    6   11      0.57     -1.47
    6    7   11      0.32     -2.14
    5    7   11      0.18     -0.50
    4    7   11      1.28      0.92
    3    7   11      0.25      0.15
    2    7   11     -1.22      3.02
    1    7   11      0.60      0.92
    0    7   11     -3.11     -3.22
    7    7   11      0.07     -0.87
    7    8   11     -1.21      1.55
    6    8   11      1.89      2.83
    5    8   11     -0.48      0.15
    4    8   11     -1.77      0.62
    3    8   11      0.09     -0.30
    2    8   11     -0.81      0.28
    1    8   11      2.77     -1.86
    0    8   11      3.04     -2.90
    8    8   11     -0.76     -2.54
    8    9   11     -0.20     -0.43
    7    9   11      0.30      1.69
    6    9   11      0.23      0.66
    5    9   11     -0.60     -0.52
    4    9   11     -1.25     -1.08
    3    9   11     -0.79     -1.05
    2    9   11     -0.33     -0.77
    1    9   11      1.08      1.23
    0    9   11      3.74      1.52
    9    9   11     -0.17     -2.65
    9   10   11     -0.56      1.36
    8   10   11     -0.52      0.20
    7   10   11      1.55     -0.62
    6   10   11      0.46     -0.95
    5   10   11      0.62     -1.06
    4   10   11      0.42     -0.56
    3   10   11     -0.16      1.01
    2   10   11     -1.71      3.14
    1   10   11     -2.07      1.18
    0   10   11      2.82     -3.33
   10   10   11      0.41     -0.33
   10   11   11      2.37     -0.26
    9   11   11     -0.83      1.86
    8   11   11     -1.71     -1.20
    7   11   11      1.34     -0.62
    6   11   11     -0.97      1.03
    5   11   11     -0.07      0.28
    4   11   11      1.09      1.78
    3   11   11      0.15     -0.22
    2   11   11      0.88     -2.82
    1   11   11     -1.23     -0.49
    0   11   11     -0.01      0.50
   11   11   11     -0.15     -0.23
   11   12   11      1.41      0.48
   10   12   11     -0.74      1.61
    9   12   11      1.17     -1.43
    8   12   11      1.86     -1.57
    7   12   11     -0.84      1.11
    6   12   11     -3.18      0.75
    5   12   11     -1.39     -1.46
    4   12   11      0.67      0.41
    3   12   11      1.56      0.05
    2   12   11      3.50     -3.04
    1   12   11     -0.66      0.94
    0   12   11     -4.51      4.97
   12   12   11      0.86      0.12
   12   13   11      3.69      2.13
   11   13   11      1.88     -2.76
   10   13   11     -3.79     -0.77
    9   13   11     -1.98      0.35
    8   13   11      1.47      0.06
    7   13   11     -0.57     -0.52
    6   13   11     -0.42     -0.75
    5   13   11      1.98      0.93
    4   13   11      2.70     -1.33
    3   13   11     -0.94     -0.49
    2   13   11     -2.77      4.73
    1   13   11      0.26      0.10
    0   13   11     -2.95     -2.06
   13   13   11     -0.39      3.90
   11   14   11     -0.88      0.25
   10   14   11      0.41     -1.00
    9   14   11      0.00      0.86
    8   14   11     -0.77      1.89
    7   14   11      0.86     -1.05
    6   14   11      1.82     -1.04
    5   14   11      0.22      0.87
    4   14   11      0.07     -0.37
    3   14   11     -2.51      1.01
    2   14   11     -3.71      1.87
    1   14   11      3.11     -2.72
    0   14   11      3.77     -3.52
   10   15   11      2.12      0.50
    9   15   11      4.37     -0.69
    8   15   11      0.10      1.12
    7   15   11     -1.43      0.79
    6   15   11      0.51     -0.42
    5   15   11     -1.77     -1.84
    4   15   11     -3.33      1.19
    3   15   11      1.09      1.27
    2   15   11      3.21     -3.66
    1   15   11      0.26     -0.06
    0   15   11      1.52      1.37
    9   16   11     -1.03      0.73
    8   16   11     -0.40     -0.46
    7   16   11      0.06     -1.52
    6   16   11      0.13      0.72
    5   16   11      1.00      3.15
    4   16   11      0.15     -0.55
    3   16   11      0.61     -2.65
    2   16   11      1.07     -0.60
    1   16   11     -1.35      1.03
    0   16   11     -1.82      1.80
    7   17   11      0.34     -1.02
    6   17   11      0.02     -0.47
    4   17   11      0.00      0.26
    3   17   11     -0.38     -0.81
    2   17   11     -0.79     -0.70
    1   17   11     -0.16     -0.54
    0   17   11      1.71      1.11
    5   17   11      0.82      2.17
    5   18   11     -0.20     -3.21
    3   18   11      0.98      1.17
    2   18   11      1.72     -1.19
    1   18   11     -1.42      1.41
    0   18   11     -1.20      0.94
    4   18   11     -0.97      1.06
    0    0   12      1.73     -0.01
    0    1   12     -0.13     -0.25
    1    1   12      0.41      0.10
    1    2   12      1.27     -0.02
    0    2   12     -0.13     -0.56
    2    2   12     -0.36      0.77
    2    3   12      1.10      0.11
    1    3   12     -0.93      0.36
    0    3   12     -0.01     -0.10
    3    3   12      1.51     -0.61
    3    4   12     -0.98      0.10
    2    4   12      0.70     -1.04
    1    4   12      0.17     -0.78
    0    4   12     -0.73      0.34
    4    4   12     -0.52     -0.25
    4    5   12      1.24     -0.50
    3    5   12     -0.84      0.99
    2    5   12     -2.20     -1.62
    1    5   12      0.38      0.30
    0    5   12      0.40      1.22
    5    5   12      0.88     -0.25
    5    6   12      0.84     -4.06
    4    6   12      0.95     -0.76
    3    6   12      0.08     -0.04
    2    6   12     -0.84     -0.42
    1    6   12     -3.76      1.75
    0    6   12      0.74     -0.02
    6    6   12     -1.49     -0.05
    6    7   12      1.71     -3.62
    5    7   12     -0.54      0.94
    4    7   12     -1.86     -0.12
    3    7   12      0.16     -0.37
    2    7   12      2.07      1.50
    1    7   12      0.58     -0.99
    0    7   12     -0.35     -0.84
    7    7   12     -0.77      0.14
    7    8   12     -0.10     -4.05
    6    8   12      0.55     -2.66
    5    8   12     -2.37      5.42
    4    8   12      0.31      1.72
    3    8   12      0.91     -0.97
    2    8   12      0.67      0.72
    1    8   12      2.40     -0.92
    0    8   12     -1.42      0.13
    8    8   12     -0.80      0.24
    8    9   12      0.61     -0.85
    7    9   12      0.86     -0.44
    6    9   12     -1.45      1.91
    5    9   12     -0.65     -1.70
    4    9   12      1.40     -1.18
    3    9   12      0.02      1.50
    2    9   12     -1.60      0.45
    1    9   12     -0.06      0.58
    0    9   12      0.23     -0.74
    9    9   12      1.59      0.22
    9   10   12     -0.12      0.43
    8   10   12     -1.52     -1.07
    7   10   12     -0.52      2.17
    6   10   12      0.74      3.36
    5   10   12      1.03     -2.39
    4   10   12     -0.28     -2.65
    3   10   12     -0.34     -0.09
    2   10   12     -0.09      0.10
    1   10   12     -0.01      0.47
    0   10   12      0.10     -0.17
   10   10   12      2.13     -0.13
   10   11   12      0.10      0.41
    9   11   12     -2.03     -0.96
    8   11   12      1.22     -0.04
    7   11   12     -0.82      0.21
    6   11   12     -0.06     -0.64
    5   11   12      1.65      1.09
    4   11   12     -1.12      0.47
    3   11   12      0.40     -1.31
    2   11   12      0.89      0.76
    1   11   12     -0.61     -0.19
    0   11   12     -0.08     -1.36
   11   11   12      1.47      0.25
   11   12   12     -0.69     -0.01
   10   12   12      0.39      0.62
    9   12   12      0.93     -0.25
    8   12   12      0.84     -0.15
    7   12   12     -1.11     -0.32
    6   12   12      0.13     -2.32
    5   12   12      1.09     -0.05
    4   12   12     -1.14      2.09
    3   12   12     -0.68      1.78
    2   12   12      0.39      1.35
    1   12   12      0.40     -1.38
    0   12   12      0.30     -0.15
   12   12   12     -2.02     -0.50
   11   13   12      0.04     -1.14
   10   13   12      1.34      0.50
    9   13   12      0.92     -0.28
    8   13   12     -1.17     -0.35
    7   13   12      0.57      0.98
    6   13   12     -0.49      0.12
    5   13   12     -1.76      0.78
    4   13   12      1.19     -0.15
    3   13   12      0.36     -0.43
    2   13   12     -0.63     -1.50
    1   13   12     -0.12     -1.23
    0   13   12     -0.22      3.39
   10   14   12     -2.83     -0.34
    9   14   12      0.31     -0.22
    8   14   12      2.10      1.03
    7   14   12      0.61      0.55
    6   14   12     -1.79     -0.23
    5   14   12     -0.35     -1.39
    4   14   12      0.96      0.64
    3   14   12     -0.15     -0.34
    2   14   12      0.38     -2.68
    1   14   12     -0.22      1.03
    0   14   12     -0.68      0.46
    9   15   12     -0.89      0.00
    8   15   12      0.85     -0.43
    6   15   12     -0.81     -0.36
    5   15   12      1.98     -0.77
    4   15   12      0.46      1.20
    3   15   12     -1.17     -0.25
    2   15   12      0.56     -0.83
    1   15   12     -0.10      2.29
    0   15   12      0.20     -0.17
    7   15   12      0.02     -0.19
    5   16   12     -1.23      2.12
    4   16   12     -0.20     -2.91
    3   16   12      0.83     -0.87
    2   16   12     -1.19      1.97
    1   16   12      1.03     -0.33
    0   16   12      1.61     -0.31
    6   16   12      1.35      2.14
    4   17   12     -1.18     -0.52
    3   17   12      0.20      0.72
    2   17   12     -0.65      1.56
    1   17   12      0.58     -0.53
    0   17   12     -0.09     -2.48
    0    1   13     -2.08      2.32
    1    1   13      0.13     -3.29
    1    2   13     -1.62     -1.90
    0    2   13     -0.59     -0.22
    2    2   13      0.35      1.15
    2    3   13     -1.01      1.11
    1    3   13     -2.86      2.52
    0    3   13      0.69     -1.10
    3    3   13      0.23     -0.59
    3    4   13     -0.20     -0.44
    2    4   13     -0.65     -0.28
    1    4   13      1.12      1.67
    0    4   13      0.14     -0.28
    4    4   13      0.29      0.75
    4    5   13     -0.97     -0.35
    3    5   13     -0.90     -1.22
    2    5   13      0.21      0.64
    1    5   13      0.57      1.73
    0    5   13      1.00     -0.99
    5    5   13     -0.13     -2.03
    5    6   13     -0.01      0.18
    4    6   13     -0.10     -0.56
    3    6   13     -0.63     -0.23
    2    6   13     -0.01     -0.01
    1    6   13     -0.62     -1.34
    0    6   13      0.75      0.09
    6    6   13     -0.21      0.78
    6    7   13     -0.64     -0.47
    5    7   13     -0.02      2.20
    4    7   13      0.79      1.09
    3    7   13     -1.33      0.62
    2    7   13      0.10     -0.77
    1    7   13      2.23     -2.37
    0    7   13     -0.29      0.40
    7    7   13     -0.56     -0.74
    7    8   13      0.94     -0.18
    6    8   13      1.27     -0.60
    5    8   13     -0.15      0.00
    4    8   13     -1.51      0.76
    3    8   13     -0.57     -0.05
    2    8   13      0.83      0.09
    1    8   13      1.38      1.75
    0    8   13     -0.51     -0.30
    8    8   13      0.49     -0.10
    8    9   13      0.20     -1.50
    7    9   13     -0.52     -1.48
    6    9   13      0.41      1.23
    5    9   13      0.51     -0.45
    4    9   13     -0.51     -0.56
    3    9   13      1.31      1.18
    2    9   13      1.03      0.27
    1    9   13     -0.78     -0.98
    0    9   13     -0.89      0.96
    9    9   13      0.14      2.50
    9   10   13     -0.67     -1.09
    8   10   13      1.22      0.32
    7   10   13     -1.66      2.18
    6   10   13     -2.32      0.93
    5   10   13      0.69     -0.72
    4   10   13      1.75     -0.18
    3   10   13      2.84     -1.04
    2   10   13      0.05     -1.42
    1   10   13     -5.00     -1.69
    0   10   13      0.11      0.78
   10   10   13     -0.08     -2.29
   10   11   13     -4.69     -0.30
    9   11   13      1.26     -0.96
    8   11   13      1.57      0.70
    7   11   13     -0.40      1.21
    6   11   13      0.65      0.30
    5   11   13     -0.64     -0.60
    4   11   13     -0.20     -0.12
    3   11   13      0.12     -1.32
    2   11   13      0.03     -1.28
    1   11   13     -0.70      1.92
    0   11   13     -1.12      1.21
    9   12   13      1.56      1.32
    8   12   13     -1.21      0.74
    7   12   13      2.16     -2.43
    6   12   13      1.19     -1.14
    5   12   13     -3.52      1.32
    4   12   13     -0.32     -1.21
    3   12   13     -0.81      2.57
    2   12   13     -1.34      1.72
    1   12   13      3.68     -0.89
    0   12   13      0.88      0.63
    9   13   13     -1.95     -0.32
    8   13   13     -2.74      0.54
    7   13   13      1.25     -0.38
    6   13   13     -0.25     -0.43
    5   13   13      0.23      0.01
    4   13   13      0.85     -0.71
    3   13   13     -0.60      0.98
    2   13   13     -1.81      1.13
    1   13   13      0.64     -0.82
    0   13   13      2.35     -2.15
    8   14   13     -0.73     -2.26
    7   14   13     -2.00      0.87
    6   14   13      0.73      2.07
    5   14   13      4.84     -1.23
    4   14   13     -0.67      1.28
    3   14   13     -3.27     -1.16
    2   14   13      0.89     -1.67
    1   14   13      1.25      1.90
    0   14   13     -0.50     -0.55
    5   15   13      0.68      1.00
    4   15   13     -0.45      0.76
    3   15   13      0.17     -0.52
    2   15   13      0.19      0.37
    1   15   13      0.27     -0.68
    0   15   13     -0.05     -0.72
    6   15   13     -0.67     -0.57
    1   16   13     -1.45     -0.37
    0   16   13     -1.98     -1.75
    0    1   14     -1.11      0.15
    1    1   14      4.13      0.23
    1    2   14      0.65      1.11
    0    2   14      0.09      1.07
    2    2   14     -2.15     -0.42
    2    3   14     -0.69     -0.31
    1    3   14     -0.37      0.79
    0    3   14      0.87     -0.30
    3    3   14     -1.11      0.77
    3    4   14      1.09      0.62
    2    4   14      0.21      2.59
    1    4   14      0.24     -0.90
    0    4   14      0.22     -3.04
    4    4   14      1.05     -0.28
    4    5   14     -2.15      0.92
    3    5   14      1.06      1.79
    2    5   14      0.21      2.08
    1    5   14     -2.07     -2.16
    0    5   14     -0.15      0.11
    5    5   14      0.31     -0.31
    5    6   14      4.27      1.60
    4    6   14     -1.88      2.31
    3    6   14     -2.84      0.11
    2    6   14      2.43     -2.47
    1    6   14      0.21      1.07
    0    6   14     -0.48      2.18
    6    6   14      0.12     -0.83
    6    7   14     -1.21      0.11
    5    7   14     -1.09     -1.19
    4    7   14      0.41      0.77
    3    7   14      0.95      0.19
    2    7   14     -0.19     -1.90
    1    7   14      0.55      1.18
    0    7   14      1.13     -0.16
    7    7   14     -0.12     -0.39
    7    8   14     -0.59      0.93
    6    8   14      0.44      0.75
    5    8   14     -2.75      0.93
    4    8   14      1.01     -0.83
    3    8   14      2.82     -2.22
    2    8   14     -1.35     -0.64
    1    8   14     -0.63     -0.70
    0    8   14      0.35      1.74
    8    8   14     -1.12      0.23
    8    9   14      0.92      0.84
    7    9   14      0.60     -1.30
    6    9   14     -1.38      0.97
    5    9   14      0.95      3.58
    4    9   14      1.32     -1.94
    3    9   14     -1.75     -3.02
    2    9   14     -0.73      0.38
    1    9   14      0.39      0.71
    0    9   14      0.15      0.13
    9    9   14     -0.46      0.02
    9   10   14     -0.14      0.63
    8   10   14     -0.12     -0.29
    7   10   14      0.82     -1.28
    6   10   14      0.86     -1.36
    5   10   14      0.64      0.48
    4   10   14     -0.34      0.27
    3   10   14      0.17      0.77
    2   10   14     -1.45      3.45
    1   10   14     -0.98     -1.75
    0   10   14      0.07     -5.55
   10   10   14      1.17      0.02
    9   11   14     -0.10     -0.26
    8   11   14      1.27     -1.36
    7   11   14      0.38      1.11
    6   11   14     -0.11      0.43
    5   11   14     -0.71     -2.14
    4   11   14     -0.98      0.64
    3   11   14      0.85      2.42
    2   11   14      0.96      0.46
    1   11   14     -0.01     -1.38
    0   11   14     -0.73      0.25
    7   12   14      0.47      1.44
    6   12   14     -1.39      1.93
    5   12   14      0.27     -3.49
    4   12   14      0.62     -1.47
    3   12   14     -2.01      1.67
    2   12   14      1.05     -3.76
    1   12   14      1.59      4.24
    0   12   14      0.11      6.95
    8   12   14      0.69      1.26
    5   13   14      0.65     -0.81
    4   13   14     -0.53      1.33
    3   13   14     -0.06     -0.08
    2   13   14      0.54     -0.96
    1   13   14     -0.13      0.45
    0   13   14     -1.69     -0.17
    6   13   14      2.53     -0.67
    3   14   14      2.52     -0.45
    2   14   14      0.63      2.23
    1   14   14     -1.37     -4.11
    0    1   15      0.76      0.42
    1    1   15      0.22     -1.49
    1    2   15      1.04     -0.90
    0    2   15     -3.16      1.99
    2    2   15      1.39     -4.27
    2    3   15      0.09     -0.73
    1    3   15     -0.28      1.87
    0    3   15     -0.26      0.07
    3    3   15      0.38     -3.08
    3    4   15     -2.03      0.92
    2    4   15      0.00      3.17
    1    4   15      0.27      0.82
    0    4   15      0.44     -0.74
    4    4   15      0.39     -2.70
    4    5   15     -1.50     -1.31
    3    5   15      0.18      0.52
    2    5   15      1.75     -0.52
    1    5   15      0.32     -0.24
    0    5   15      0.27      0.51
    5    5   15      0.20      1.73
    5    6   15     -0.26     -0.22
    4    6   15      1.45      0.42
    3    6   15      2.45      0.29
    2    6   15     -3.67     -1.16
    1    6   15     -0.63     -0.25
    0    6   15      3.97     -2.43
    6    6   15     -0.57      2.10
    6    7   15      2.39     -1.01
    5    7   15      1.10     -1.70
    4    7   15      0.32      0.19
    3    7   15     -1.45      0.19
    2    7   15     -2.46      2.71
    1    7   15      0.32     -0.05
    0    7   15     -0.88     -1.01
    7    7   15     -0.03      2.80
    7    8   15      1.34     -0.98
    6    8   15      0.33      0.43
    5    8   15     -0.19      2.95
    4    8   15     -1.22     -1.53
    3    8   15      0.32     -1.46
    2    8   15      3.76      0.25
    1    8   15     -1.64      0.67
    0    8   15     -3.95      3.27
    8    8   15      0.16     -0.08
    8    9   15     -0.09      0.21
    7    9   15      0.17     -2.23
    6    9   15      0.21      0.71
    5    9   15     -0.69     -1.68
    4    9   15     -1.12      0.58
    3    9   15      1.50      2.33
    2    9   15      1.26     -2.82
    1    9   15     -1.00     -0.74
    0    9   15      1.62      1.37
    7   10   15     -0.97      1.41
    6   10   15     -0.23     -3.39
    5   10   15      0.75     -2.06
    4   10   15     -0.52      2.46
    3   10   15     -2.06      0.05
    2   10   15     -0.51      0.26
    1   10   15      2.26      0.03
    0   10   15      1.30     -1.24
    5   11   15     -0.89      2.93
    3   11   15     -0.62     -2.62
    2   11   15     -1.26      1.99
    1   11   15      1.72      1.33
    0   11   15     -1.16     -0.90
    4   11   15      2.79     -0.69
    2   12   15     -2.00     -1.09
    1   12   15     -0.38     -1.05
    0   12   15      0.60     -0.50
    1    2   16     -0.35      0.22
    2    2   16      0.15      0.51
    2    3   16     -0.88      1.07
    1    3   16     -0.58     -0.25
    0    3   16      0.32     -1.70
    3    3   16      0.31     -0.15
    3    4   16     -0.68      0.27
    2    4   16     -1.74     -1.13
    1    4   16      1.69     -0.02
    0    4   16      1.95     -0.13
    4    4   16      0.05     -0.28
    4    5   16     -1.46      0.48
    3    5   16      1.61     -0.61
    2    5   16      2.04     -0.38
    1    5   16     -0.18      1.70
    0    5   16      0.18     -0.39
    5    5   16     -2.42      0.00
    5    6   16      0.23     -0.40
    4    6   16      1.28      0.60
    3    6   16     -0.07     -0.11
    2    6   16      0.95      0.89
    1    6   16      0.08      0.33
    0    6   16     -2.67      0.19
    6    6   16     -0.45     -0.05
    6    7   16     -0.42      0.64
    5    7   16      0.68      1.56
    4    7   16      2.14     -1.51
    3    7   16     -0.72      0.14
    2    7   16     -1.38     -1.29
    1    7   16      0.42     -3.32
    0    7   16     -0.06      3.99
    7    7   16     -1.17      0.06
    5    8   16      1.22      0.29
    4    8   16     -1.09     -1.93
    3    8   16      1.01     -0.01
    2    8   16      1.94      0.30
    1    8   16     -1.14     -0.07
    0    8   16     -1.62     -0.41
    4    9   16     -0.96      1.99
    3    9   16     -1.08      0.15
    2    9   16     -0.07      1.62
    1    9   16     -0.14      4.01
    0    9   16     -0.27     -4.24
    2    2    0    176.00     -6.37
   17   17    0      1.01     -0.20
   16   18    0      0.10     -0.50
   17   18    0      0.41      0.20
   15   19    0      1.44      0.06
   16   19    0      1.13      0.52
   14   20    0      1.97      1.73
   15   20    0      1.70     -0.07
   12   21    0      0.12      0.06
   13   21    0      0.66     -0.28
   14   21    0      0.63      0.48
   10   22    0     -0.56     -3.61
   11   22    0      2.21     -0.53
   12   22    0      2.00      2.44
    7   23    0     -1.55     -1.28
    8   23    0      1.51     -0.19
    9   23    0      0.58      0.04
   10   23    0     -0.35     -0.53
    2    2    1     -2.16    -63.16
   17   17    1     -0.35      0.26
   16   18    1      0.40     -0.74
   17   18    1      1.35     -1.64
   15   19    1     -0.09     -0.34
   16   19    1      0.26     -1.60
   14   20    1      0.50     -0.17
   15   20    1      2.10     -2.68
   12   21    1      1.55     -0.60
   13   21    1     -0.16     -1.08
   14   21    1     -0.50     -0.14
   10   22    1      0.36     -0.39
   11   22    1      1.70     -0.83
   12   22    1      0.07      0.39
    7   23    1      1.78     -2.48
    8   23    1     -0.50      0.24
    9   23    1     -1.57      0.97
   10   23    1      0.93     -0.41
    2    2    2    -24.78      0.60
   17   17    2     -1.73      0.00
   16   18    2     -1.25     -0.79
   17   18    2      1.24     -0.65
   15   19    2     -1.02      0.31
   16   19    2      0.16      1.86
   14   20    2      0.45      0.29
   15   20    2      0.55     -0.92
   12   21    2     -0.06      0.29
   13   21    2      0.16      1.84
   10   22    2      0.57     -0.52
   11   22    2      0.36      0.83
   12   22    2      0.04      0.67
    7   23    2      1.04     -0.09
    8   23    2      1.31     -0.66
    9   23    2      0.19     -0.03
   10   23    2     -0.72     -0.02
   17   17    3     -0.18      0.34
   16   18    3      0.27     -1.88
   17   18    3      0.18     -1.91
   15   19    3     -0.62      0.13
   16   19    3     -1.53     -1.10
   13   20    3      0.97     -1.08
   14   20    3      1.06     -0.25
   11   21    3     -0.42     -1.03
   12   21    3     -0.47     -1.15
   13   21    3     -0.09      1.11
    9   22    3     -2.07      1.13
   10   22    3      0.23      0.54
   11   22    3      1.66     -1.12
    6   23    3      0.34      1.62
    7   23    3      0.63     -0.36
    8   23    3      0.88     -1.05
    9   23    3     -0.71      0.98
   17   17    4      0.29      0.02
   15   18    4     -1.36     -0.80
   16   18    4      2.76      0.58
   14   19    4      1.08      0.17
   15   19    4      0.86      1.26
   12   20    4     -0.67     -1.47
   13   20    4     -1.22     -0.82
   14   20    4      1.13      0.68
   11   21    4     -1.69      0.22
   12   21    4      2.66     -1.17
   13   21    4      1.46      1.70
    8   22    4     -0.50     -0.61
    9   22    4     -0.13     -0.17
   10   22    4      0.29      0.19
   11   22    4     -0.86     -0.27
    4   23    4      0.94      0.67
    5   23    4     -0.48     -1.99
    6   23    4     -0.81     -0.53
    7   23    4      0.11      0.43
    8   23    4      0.27     -0.11
    9   23    4      0.78      1.31
   16   17    5      1.20      0.34
   17   17    5     -0.20      1.45
   15   18    5     -0.34     -0.05
   16   18    5     -0.23     -1.64
   13   19    5      0.97     -0.38
   14   19    5      1.62     -0.84
   15   19    5     -0.03      0.83
   12   20    5     -0.36     -1.03
   13   20    5      1.33     -0.35
   10   21    5      0.43     -0.27
   11   21    5      1.80      0.24
   12   21    5      0.20     -1.15
    7   22    5      0.69     -0.16
    8   22    5      0.66      0.04
    9   22    5     -0.66      0.83
   10   22    5     -0.30     -0.11
    0   23    5      0.74     -1.77
    1   23    5      0.79     -0.44
    2   23    5     -1.30      1.06
    3   23    5     -2.66      0.50
    4   23    5     -0.73     -0.35
    5   23    5      2.67     -1.18
    6   23    5      2.10      0.00
    7   23    5     -0.44      0.88
    8   23    5     -1.20     -0.47
   16   16    6      0.29     -0.13
   15   17    6     -2.19      0.24
   16   17    6     -1.31     -0.25
   14   18    6     -1.84     -0.12
   15   18    6     -0.26      0.26
   13   19    6      0.07     -0.39
   14   19    6     -1.36     -0.18
   11   20    6     -1.42     -0.12
   12   20    6     -0.13      1.15
   13   20    6      0.96     -0.15
    9   21    6     -0.83      0.30
   10   21    6      0.81     -0.67
   11   21    6      0.17      0.73
    6   22    6      1.38     -0.05
    7   22    6     -1.52      1.17
    8   22    6     -0.41      0.03
    9   22    6      0.47     -0.74
    0   23    6     -1.17      0.70
    1   23    6      5.53     -1.46
    2   23    6      0.29     -0.06
    3   23    6     -1.65      1.35
    4   23    6     -0.19     -0.31
    5   23    6      0.07     -0.10
    6   23    6      0.48      0.03
   15   16    7     -0.80     -0.80
   16   16    7      0.04     -0.06
   14   17    7      0.66     -1.00
   15   17    7      0.91     -0.79
   16   17    7     -0.68      1.28
   13   18    7     -1.33     -0.93
   14   18    7     -1.66      0.01
   12   19    7      0.53      0.66
   13   19    7      0.19     -0.01
   10   20    7      0.55      0.37
   11   20    7     -1.11     -1.35
   12   20    7     -0.91     -0.01
    7   21    7     -2.20      1.37
    8   21    7     -0.03     -0.59
    9   21    7      0.20      0.26
   10   21    7      0.22      0.17
    0   22    7      0.73     -1.12
    1   22    7      2.78     -3.77
    2   22    7     -1.59      1.41
    3   22    7     -0.01      0.57
    4   22    7      0.19     -1.80
    5   22    7     -0.85      1.19
    6   22    7      1.53      0.90
    7   22    7      0.55     -0.42
    8   22    7     -1.11     -0.13
    0   23    7     -0.36     -0.49
    1   23    7      3.28     -0.15
    2   23    7      0.57      0.32
    3   23    7     -2.10      1.80
    4   23    7      0.04     -1.04
   15   15    8      0.85     -0.18
   14   16    8      3.18     -0.94
   15   16    8      0.16     -1.84
   16   16    8     -2.46      0.24
   13   17    8      2.10      0.73
   14   17    8      0.49      0.19
   15   17    8     -0.72     -0.51
   12   18    8      0.22      0.25
   13   18    8      0.52     -0.45
   14   18    8     -0.32      0.29
    9   19    8     -1.11     -0.40
   10   19    8      0.31     -0.66
   11   19    8      1.62     -0.84
   12   19    8      0.85     -0.62
    8   20    8     -0.82      0.58
    9   20    8      2.70      0.14
   10   20    8      0.14      0.20
    5   21    8     -1.46      2.31
    6   21    8     -0.15      0.47
    7   21    8     -0.22     -0.46
    8   21    8      0.58     -1.27
    0   22    8     -0.44      0.04
    1   22    8     -2.02     -0.59
    2   22    8     -0.33     -1.06
    3   22    8      0.67      0.19
    4   22    8      1.04     -0.70
    5   22    8      0.10      0.36
    6   22    8     -0.85      1.16
   14   15    9     -0.16     -0.87
   15   15    9      0.22     -1.73
   13   16    9      0.73     -0.19
   14   16    9     -0.56      1.37
   15   16    9     -0.25     -0.33
   12   17    9     -0.59     -2.18
   13   17    9      0.47     -1.03
   14   17    9      0.53      0.63
   10   18    9      1.67     -0.63
   11   18    9      1.05     -0.61
   12   18    9     -0.96      0.86
    9   19    9      0.76     -0.15
   10   19    9      0.07     -2.21
   11   19    9     -0.31     -0.73
    0   20    9      3.26      3.16
    5   20    9     -1.84      0.56
    6   20    9      0.36      0.02
    7   20    9      0.69     -0.38
    8   20    9     -0.18     -0.01
    9   20    9      0.94     -0.36
    0   21    9     -0.72     -0.33
    1   21    9     -0.68      0.65
    2   21    9     -0.82     -0.28
    3   21    9      0.78     -1.31
    4   21    9      0.14      0.49
    5   21    9     -0.07      0.41
    6   21    9      0.64     -0.88
    0   22    9     -2.76     -2.93
    1   22    9     -0.27     -0.29
    2   22    9      1.39      1.70
   14   14   10     -0.09      0.21
   13   15   10     -3.07     -0.02
   14   15   10      2.13     -2.15
   15   15   10      2.04      0.31
   11   16   10      1.12     -2.58
   12   16   10     -0.10     -0.40
   13   16   10     -0.54      1.56
   14   16   10      0.67     -0.30
   10   17   10     -2.08      1.10
   11   17   10      0.28     -0.25
   12   17   10      2.15     -1.75
    9   18   10     -0.82     -1.52
   10   18   10      0.72     -1.30
   11   18   10     -0.19      1.28
    6   19   10     -0.40      0.27
    7   19   10     -0.24     -0.51
    8   19   10     -0.89      0.20
    9   19   10      0.74     -0.04
    0   20   10      0.77     -2.05
    1   20   10      0.03     -0.64
    2   20   10     -0.33      1.73
    3   20   10      0.01      0.73
    4   20   10     -1.37     -0.85
    5   20   10     -0.12      0.05
    6   20   10      1.56      0.50
    7   20   10      0.06     -0.45
    0   21   10     -1.38      0.06
    1   21   10     -1.76      0.00
    2   21   10      0.45      0.16
    3   21   10      0.29      0.07
   12   14   11     -0.47     -0.74
   13   14   11      1.42     -1.64
   14   14   11      0.05      0.97
   11   15   11     -2.91      2.50
   12   15   11     -2.80     -1.44
   13   15   11      0.69     -2.18
   10   16   11     -0.15      0.02
   11   16   11      0.35     -0.90
   12   16   11      0.25      0.05
    8   17   11      0.17      0.30
    9   17   11     -2.26      0.31
   10   17   11     -0.43     -0.38
   11   17   11      1.59     -0.85
    6   18   11     -0.17     -0.13
    7   18   11     -1.22      2.30
    8   18   11      0.68     -0.06
    9   18   11      0.83     -0.83
    0   19   11     -1.95     -1.72
    1   19   11      0.32      0.47
    2   19   11     -0.80      2.77
    3   19   11      0.43      0.74
    4   19   11      1.14     -1.18
    5   19   11     -0.90     -1.38
    6   19   11      0.21      0.50
    7   19   11      1.04      0.52
    0   20   11      1.23     -1.50
    1   20   11      0.69     -0.90
    2   20   11     -1.23      0.91
    3   20   11     -0.20      0.20
   12   13   12      0.18     -0.74
   13   13   12     -0.42      0.17
   11   14   12     -0.52      0.63
   12   14   12      2.08      0.17
   13   14   12     -0.29     -0.63
   10   15   12     -1.41      0.08
   11   15   12      0.16      0.66
   12   15   12      0.78      0.82
    7   16   12      0.45     -0.85
    8   16   12     -1.85     -1.11
    9   16   12     -0.47      0.01
   10   16   12      1.76      0.12
    5   17   12     -0.91      0.15
    6   17   12      1.59      0.55
    7   17   12     -0.25     -0.81
    8   17   12     -0.08      0.10
    9   17   12      0.62      0.72
    0   18   12     -0.33     -0.07
    1   18   12     -1.35      0.27
    2   18   12     -0.04     -0.84
    3   18   12     -0.43      0.01
    4   18   12      0.30      2.29
    5   18   12      0.74     -0.30
    6   18   12     -0.06     -1.40
    0   19   12     -0.08      1.06
    1   19   12      0.20     -0.44
    2   19   12      0.99     -0.52
    3   19   12      0.24     -0.38
   11   11   13     -0.06      1.26
   10   12   13      0.79      1.92
   11   12   13     -3.89     -0.30
   12   12   13     -0.39     -2.39
   10   13   13      4.86      0.71
   11   13   13      0.44     -0.37
   12   13   13     -2.94     -0.66
    9   14   13     -0.87     -0.08
   10   14   13      0.51      0.11
   11   14   13      1.02      0.30
    7   15   13     -1.43     -0.15
    8   15   13      2.16      0.35
    9   15   13      1.12      0.02
    2   16   13      0.65      1.91
    3   16   13      2.67     -0.40
    4   16   13      0.41     -0.02
    5   16   13     -2.27      0.88
    6   16   13     -0.44     -2.41
    7   16   13      0.46     -0.58
    8   16   13      0.56      2.17
    0   17   13     -1.31      1.88
    1   17   13     -1.18      1.41
    2   17   13      1.32     -0.26
    3   17   13      0.35     -0.11
    4   17   13      0.34     -0.26
    5   17   13     -0.45     -0.58
    0   18   13      1.51      1.43
   10   11   14     -1.29      0.17
   11   11   14      0.08      0.16
    9   12   14     -1.02     -0.35
   10   12   14     -0.81     -1.81
   11   12   14      1.00      0.22
    7   13   14     -1.16      0.15
    8   13   14     -2.10      0.25
    9   13   14      0.60      0.33
   10   13   14      0.51     -0.12
    0   14   14     -0.21     -4.99
    4   14   14     -0.61      1.58
    5   14   14     -1.15      2.02
    6   14   14      0.17     -0.87
    7   14   14     -0.63     -0.70
    8   14   14      0.29     -1.15
    0   15   14      1.04     -0.16
    1   15   14      0.68      0.37
    2   15   14     -0.43      0.78
    3   15   14     -0.14     -0.86
    4   15   14      0.81     -1.50
    5   15   14     -0.28      1.17
    6   15   14     -1.81      0.28
    7   15   14      0.33     -0.62
    0   16   14     -0.11      2.01
    1   16   14      1.09      1.71
    2   16   14     -0.07     -0.80
    3   16   14     -1.97     -0.82
    4   16   14      0.15     -0.99
    9    9   15      0.12      3.83
    8   10   15      0.92      0.15
    9   10   15      0.70     -0.49
   10   10   15      0.41      2.16
    6   11   15     -2.12     -0.64
    7   11   15      0.48     -0.09
    8   11   15      0.45     -0.30
    9   11   15     -0.12     -1.38
    3   12   15      1.05      0.94
    4   12   15      0.83      0.02
    5   12   15     -0.73      0.44
    6   12   15      1.32      1.83
    7   12   15      0.61     -0.75
    8   12   15     -1.71     -0.96
    0   13   15      0.25      0.15
    1   13   15     -1.42     -1.45
    2   13   15      1.61     -1.12
    3   13   15      0.03      0.86
    4   13   15     -2.19     -0.01
    5   13   15      0.76     -1.30
    6   13   15      1.08      1.06
    7   13   15     -0.22      1.39
    0   14   15     -0.90      0.94
    1   14   15     -0.54      0.70
    2   14   15      1.47      0.68
    3   14   15      0.14     -0.53
    4   14   15     -0.18     -1.15
    0    0   16     -2.24      0.59
    0    1   16     -0.04      0.53
    1    1   16      0.32     -0.28
    0    2   16      1.08     -0.53
    6    8   16     -0.75      1.40
    7    8   16     -1.78      0.11
    8    8   16      0.80      0.26
    5    9   16      0.75     -2.58
    6    9   16      1.00     -1.95
    7    9   16      1.31      1.12
    8    9   16      0.22      0.57
    9    9   16     -1.63      0.09
    0   10   16      4.74      0.35
    1   10   16     -0.42     -0.25
    2   10   16     -3.54      0.15
    3   10   16     -0.13     -0.07
    4   10   16      1.20      0.72
    5   10   16     -1.27      0.45
    6   10   16      0.24     -0.85
    7   10   16      1.72     -0.08
    0   11   16      0.14      2.12
    1   11   16      0.13     -2.42
    2   11   16      0.41     -1.00
    3   11   16      0.59      0.47
    4   11   16      0.27     -0.95
    5   11   16     -0.65      1.37
    6   11   16     -0.75      1.20
    0   12   16     -2.89      0.12
    1   12   16      0.51      0.24
    2   12   16      2.19     -0.72
    3   12   16     -0.52     -0.11
    4   12   16     -0.97      0.40
    0    0    0      0.00      0.00
# SQUEEZE RESULTS (Version = 160117)
# Note: Data are Listed for all Voids in the P1 Unit Cell
# i.e. Centre of Gravity, Solvent Accessible Volume,
# Recovered number of Electrons in the Void and
# Details about the Squeezed Material
loop_
  _platon_squeeze_void_nr
  _platon_squeeze_void_average_x
  _platon_squeeze_void_average_y
  _platon_squeeze_void_average_z
  _platon_squeeze_void_volume
  _platon_squeeze_void_count_electrons
  _platon_squeeze_void_content
   1  0.250  0.250 -0.011       537       142 ' '
   2  0.250  0.750 -0.051       534       141 ' '
   3  0.750  0.750 -0.015       531       141 ' '
   4  0.750  0.250  0.027       534       141 ' '
# Missing Reflections Below sin(th)/lambda = 0.25
loop_
  _platon_missing_refln_index_h
  _platon_missing_refln_index_k
  _platon_missing_refln_index_l
  _platon_missing_refln_theta
    2    2    0     6.466
    2    2    1     7.185
    2    2    2     9.011
_platon_squeeze_void_probe_radius                  1.20
_platon_squeeze_details
)
TITL 20170620e1_a.res in P4(3)2(1)2
CELL   19.3615   19.3615   14.1645     90.00     90.00     90.00
SPGR P43212
# Solvent Accessible Volume =      2143
# Electrons Found in S.A.V. =       565
# Note: Atoms in Void as Cxxx and Qxxx all others
C101 0.251 0.342 0.210 !       1.28 eA-3
C102 0.771 0.348 0.155 !       1.25 eA-3
C103 0.343 0.761 0.849 !       1.23 eA-3
C104 0.687 0.363 0.188 !       1.23 eA-3
C105 0.330 0.325 0.527 !       1.23 eA-3
C106 0.838 0.188 0.728 !       1.18 eA-3
C107 0.224 0.658 0.717 !       1.17 eA-3
Q108 0.324 0.620 0.713 !       1.13 eA-3
C109 0.162 0.781 0.935 !       1.13 eA-3
C110 0.687 0.141 0.016 !       1.08 eA-3
Q111 0.794 0.809 0.007 !       1.07 eA-3
C112 0.142 0.796 0.975 !       1.06 eA-3
C113 0.765 0.137 0.962 !       1.06 eA-3
C114 0.158 0.155 0.885 !       1.05 eA-3
C115 0.708 0.345 0.123 !       1.05 eA-3
C116 0.153 0.139 0.989 !       1.05 eA-3
C117 0.156 0.717 0.064 !       1.04 eA-3
C118 0.743 0.840 0.650 !       1.03 eA-3
C119 0.309 0.202 0.361 !       1.03 eA-3
Q120 0.778 0.625 0.697 !       1.01 eA-3
C121 0.312 0.845 0.582 !       1.01 eA-3
C122 0.217 0.802 0.204 !       1.01 eA-3
C123 0.246 0.826 0.296 !       1.00 eA-3
C124 0.161 0.249 0.798 !       0.97 eA-3
Q125 0.782 0.360 0.053 !       0.97 eA-3
C126 0.780 0.669 0.084 !       0.97 eA-3
Q127 0.349 0.781 0.938 !       0.96 eA-3
C128 0.697 0.669 0.532 !       0.96 eA-3
C129 0.756 0.206 0.921 !       0.95 eA-3
C130 0.158 0.796 0.854 !       0.94 eA-3
C131 0.335 0.751 0.954 !       0.94 eA-3
C132 0.686 0.764 0.938 !       0.92 eA-3
Q133 0.678 0.093 0.102 !       0.92 eA-3
C134 0.633 0.799 0.144 !       0.91 eA-3
C135 0.653 0.205 0.234 !       0.90 eA-3
C136 0.248 0.880 0.416 !       0.90 eA-3
Q137 0.718 0.300 0.694 !       0.89 eA-3
C138 0.205 0.814 0.329 !       0.89 eA-3
C139 0.804 0.797 0.508 !       0.89 eA-3
C140 0.220 0.860 0.286 !       0.89 eA-3
C141 0.364 0.689 0.708 !       0.89 eA-3
C142 0.170 0.146 0.785 !       0.88 eA-3
C143 0.312 0.313 0.999 !       0.87 eA-3
C144 0.833 0.329 0.283 !       0.85 eA-3
C145 0.662 0.200 0.372 !       0.84 eA-3
C146 0.691 0.810 0.556 !       0.84 eA-3
C147 0.861 0.182 0.296 !       0.84 eA-3
C148 0.689 0.255 0.897 !       0.84 eA-3
Q149 0.790 0.797 0.892 !       0.83 eA-3
C150 0.816 0.810 0.566 !       0.83 eA-3
C151 0.824 0.363 0.334 !       0.81 eA-3
C152 0.344 0.298 0.886 !       0.81 eA-3
Q153 0.417 0.672 0.727 !       0.81 eA-3
Q154 0.672 0.142 0.840 !       0.81 eA-3
Q155 0.839 0.137 0.259 !       0.80 eA-3
C156 0.178 0.262 0.270 !       0.80 eA-3
C157 0.674 0.141 0.913 !       0.80 eA-3
Q158 0.744 0.348 0.559 !       0.79 eA-3
C159 0.648 0.812 0.405 !       0.78 eA-3
C160 0.297 0.219 0.701 !       0.78 eA-3
C161 0.242 0.297 0.516 !       0.78 eA-3
Q162 0.190 0.173 0.448 !       0.77 eA-3
C163 0.298 0.235 0.492 !       0.77 eA-3
C164 0.290 0.248 0.767 !       0.77 eA-3
C165 0.203 0.294 0.687 !       0.76 eA-3
C166 0.134 0.826 0.832 !       0.75 eA-3
C167 0.834 0.830 0.312 !       0.75 eA-3
C168 0.141 0.736 0.144 !       0.75 eA-3
C169 0.287 0.157 0.875 !       0.74 eA-3
Q170 0.860 0.296 0.701 !       0.74 eA-3
C171 0.784 0.671 0.587 !       0.74 eA-3
C172 0.732 0.296 0.082 !       0.73 eA-3
Q173 0.160 0.187 0.784 !       0.73 eA-3
C174 0.726 0.281 0.014 !       0.73 eA-3
Q175 0.388 0.675 0.644 !       0.73 eA-3
C176 0.788 0.811 0.737 !       0.73 eA-3
C177 0.665 0.857 0.465 !       0.72 eA-3
C178 0.750 0.779 0.918 !       0.72 eA-3
C179 0.356 0.142 0.895 !       0.72 eA-3
Q180 0.331 0.684 0.989 !       0.72 eA-3
C181 0.247 0.268 0.677 !       0.72 eA-3
C182 0.842 0.251 0.776 !       0.71 eA-3
Q183 0.376 0.661 0.594 !       0.70 eA-3
C184 0.777 0.752 0.172 !       0.69 eA-3
Q185 0.644 0.768 0.967 !       0.69 eA-3
C186 0.817 0.282 0.743 !       0.69 eA-3
C187 0.220 0.799 0.955 !       0.68 eA-3
C188 0.819 0.309 0.690 !       0.68 eA-3
Q189 0.856 0.685 0.885 !       0.68 eA-3
Q190 0.621 0.203 0.791 !       0.68 eA-3
Q191 0.739 0.636 0.056 !       0.67 eA-3
C192 0.668 0.204 0.843 !       0.66 eA-3
Q193 0.663 0.639 0.651 !       0.66 eA-3
C194 0.747 0.716 0.206 !       0.66 eA-3
C195 0.279 0.253 0.606 !       0.66 eA-3
C196 0.186 0.265 0.742 !       0.66 eA-3
C197 0.303 0.206 0.830 !       0.66 eA-3
Q198 0.162 0.295 0.326 !       0.65 eA-3
C199 0.281 0.810 0.374 !       0.65 eA-3
)
;
_shelx_fab_checksum              37928
loop_
_space_group_symop_operation_xyz
'x, y, z'
'-x, -y, z+1/2'
'-y+1/2, x+1/2, z+3/4'
'y+1/2, -x+1/2, z+1/4'
'-x+1/2, y+1/2, -z+3/4'
'x+1/2, -y+1/2, -z+1/4'
'y, x, -z'
'-y, -x, -z+1/2'
loop_
_atom_site_label
_atom_site_type_symbol
_atom_site_fract_x
_atom_site_fract_y
_atom_site_fract_z
_atom_site_U_iso_or_equiv
_atom_site_adp_type
_atom_site_occupancy
_atom_site_site_symmetry_order
_atom_site_calc_flag
_atom_site_refinement_flags_posn
_atom_site_refinement_flags_adp
_atom_site_refinement_flags_occupancy
_atom_site_disorder_assembly
_atom_site_disorder_group
Zn1 Zn 1.03591(3) 0.49192(3) 0.64061(5) 0.03610(19) Uani 1 1 d . . . . .
Zn2 Zn 0.46483(3) 0.53517(3) 0.2500 0.0357(2) Uani 1 2 d S T P . .
Zn3 Zn 0.49122(3) 0.49122(3) 0.5000 0.0372(2) Uani 1 2 d S T P C .
O1 O 0.9375(2) 0.4960(4) 0.6769(4) 0.092(2) Uani 1 1 d . U . . .
O2 O 0.9021(2) 0.4717(4) 0.8177(4) 0.0814(18) Uani 1 1 d . . . . .
O4 O 0.56216(17) 0.47658(18) 0.6054(3) 0.0387(8) Uani 1 1 d . . . . .
O6 O 0.4863(3) 0.4032(2) 0.4287(3) 0.0639(13) Uani 1 1 d . . . . .
O7 O 0.4550(4) 0.1140(3) 0.0892(4) 0.096(2) Uani 1 1 d . . . . .
O8 O 0.47183(18) 0.06203(18) 0.2224(3) 0.0392(8) Uani 1 1 d . . . . .
N1 N 0.7561(3) 0.4703(7) 0.8428(5) 0.126(4) Uani 1 1 d . . . . .
N2 N 0.6432(3) 0.4668(4) 0.7686(4) 0.079(2) Uani 1 1 d . . . . .
N3 N 0.5053(6) 0.2584(3) 0.4520(5) 0.113(4) Uani 1 1 d . . . . .
N4 N 0.4941(4) 0.1438(3) 0.3811(4) 0.075(2) Uani 1 1 d . . . . .
C1 C 0.8920(3) 0.4840(4) 0.7345(5) 0.0525(15) Uani 1 1 d . . . . .
C2 C 0.8206(4) 0.4860(6) 0.6956(6) 0.082(3) Uani 1 1 d . . . . .
C3 C 0.8132(4) 0.4821(7) 0.6027(7) 0.110(4) Uani 1 1 d . U . . .
H3 H 0.8523 0.4789 0.5649 0.131 Uiso 1 1 calc R U . . .
C4 C 0.7443(5) 0.4827(7) 0.5576(7) 0.122(4) Uani 1 1 d . U . . .
H4 H 0.7419 0.4837 0.4920 0.146 Uiso 1 1 calc R U . . .
C5 C 0.6842(3) 0.4817(6) 0.6077(6) 0.090(3) Uani 1 1 d . . . . .
C6 C 0.6928(3) 0.4753(3) 0.7071(4) 0.0498(15) Uani 1 1 d . . . . .
C7 C 0.7600(3) 0.4755(4) 0.7518(5) 0.0627(18) Uani 1 1 d . . . . .
C8 C 0.6173(3) 0.4863(5) 0.5596(5) 0.066(2) Uani 1 1 d . . . . .
C9 C 0.4765(4) 0.3928(3) 0.3465(5) 0.0605(18) Uani 1 1 d . . . . .
C10 C 0.4750(6) 0.3209(3) 0.3067(6) 0.082(3) Uani 1 1 d . . . . .
C11 C 0.4509(6) 0.3115(4) 0.2158(5) 0.087(3) Uani 1 1 d . . . . .
H11 H 0.4376 0.3498 0.1805 0.104 Uiso 1 1 calc R U . . .
C12 C 0.4458(5) 0.2441(4) 0.1748(5) 0.078(3) Uani 1 1 d . . . . .
H12 H 0.4303 0.2402 0.1129 0.094 Uiso 1 1 calc R U . . .
C13 C 0.4629(4) 0.1857(3) 0.2226(5) 0.0636(18) Uani 1 1 d . . . . .
C14 C 0.4820(4) 0.1933(3) 0.3184(4) 0.0495(15) Uani 1 1 d . . . . .
C15 C 0.4870(5) 0.2603(3) 0.3616(5) 0.070(2) Uani 1 1 d . . . . .
C16 C 0.4628(4) 0.1172(3) 0.1725(5) 0.0563(17) Uani 1 1 d . . . . .
S1 S 0.67495(17) 0.4737(9) 0.8733(2) 0.106(4) Uani 0.72(2) 1 d . . P A 1
S2 S 0.5166(7) 0.17798(13) 0.4803(3) 0.102(3) Uani 0.84(2) 1 d . . P B 1
O3 O 0.6115(11) 0.5164(15) 0.481(2) 0.071(7) Uani 0.42(3) 1 d . . P C 1
O5 O 0.4936(10) 0.4402(5) 0.2778(7) 0.044(4) Uani 0.42(3) 1 d . . P C 1
S1' S 0.6836(6) 0.4234(13) 0.8637(10) 0.074(5) Uani 0.28(2) 1 d . . P A 2
S2' S 0.4704(18) 0.1775(8) 0.4869(13) 0.065(6) Uani 0.16(2) 1 d . U P B 2
O3' O 0.6181(10) 0.4841(11) 0.4708(17) 0.073(5) Uani 0.58(3) 1 d . . P C 2
O5' O 0.4472(10) 0.4358(4) 0.2935(9) 0.066(5) Uani 0.58(3) 1 d . . P C 2
loop_
_atom_site_aniso_label
_atom_site_aniso_U_11
_atom_site_aniso_U_22
_atom_site_aniso_U_33
_atom_site_aniso_U_23
_atom_site_aniso_U_13
_atom_site_aniso_U_12
Zn1 0.0337(3) 0.0391(4) 0.0355(4) 0.0064(3) 0.0020(3) -0.0002(2)
Zn2 0.0338(3) 0.0338(3) 0.0396(6) -0.0011(3) -0.0011(3) 0.0013(3)
Zn3 0.0372(3) 0.0372(3) 0.0372(5) 0.0037(3) -0.0037(3) 0.0013(4)
O1 0.040(2) 0.179(6) 0.058(3) 0.031(4) 0.005(2) -0.002(3)
O2 0.036(2) 0.164(6) 0.044(3) 0.024(3) 0.007(2) 0.000(3)
O4 0.0324(17) 0.0444(19) 0.039(2) 0.0089(16) -0.0022(16) -0.0002(14)
O6 0.111(4) 0.038(2) 0.042(3) 0.0006(19) -0.006(3) 0.001(2)
O7 0.196(7) 0.058(3) 0.033(3) -0.002(2) -0.015(4) 0.000(4)
O8 0.0432(19) 0.0370(18) 0.037(2) -0.0034(16) -0.0063(16) -0.0018(13)
N1 0.046(3) 0.293(14) 0.039(3) -0.007(6) -0.005(3) -0.017(6)
N2 0.038(3) 0.161(7) 0.037(3) -0.006(4) -0.002(2) -0.026(3)
N3 0.249(12) 0.043(3) 0.048(4) -0.003(3) -0.046(6) 0.002(5)
N4 0.142(6) 0.033(2) 0.049(3) -0.002(2) -0.026(4) 0.011(3)
C1 0.030(2) 0.075(4) 0.053(4) 0.010(3) 0.009(3) -0.001(2)
C2 0.042(4) 0.149(8) 0.055(5) 0.020(5) 0.006(3) 0.000(4)
C3 0.055(4) 0.197(10) 0.077(6) 0.026(7) -0.002(4) -0.009(5)
C4 0.074(6) 0.215(11) 0.077(6) 0.041(7) 0.007(5) -0.020(7)
C5 0.036(3) 0.170(9) 0.064(5) 0.052(6) -0.004(3) 0.003(4)
C6 0.035(3) 0.075(4) 0.039(3) -0.001(3) 0.002(2) -0.008(2)
C7 0.034(3) 0.115(6) 0.039(3) 0.003(4) -0.001(3) -0.011(3)
C8 0.043(3) 0.109(6) 0.047(4) 0.031(4) -0.004(3) -0.003(3)
C9 0.096(5) 0.037(3) 0.049(4) 0.005(3) -0.009(4) 0.008(3)
C10 0.160(9) 0.035(3) 0.051(4) 0.001(3) -0.016(5) 0.004(4)
C11 0.164(9) 0.053(4) 0.044(4) 0.002(3) -0.024(5) 0.012(5)
C12 0.145(8) 0.049(4) 0.041(4) 0.000(3) -0.015(5) 0.007(4)
C13 0.103(5) 0.040(3) 0.047(4) -0.005(3) -0.014(4) 0.003(3)
C14 0.073(4) 0.034(3) 0.042(3) -0.003(2) -0.009(3) 0.006(2)
C15 0.134(7) 0.037(3) 0.039(4) 0.001(3) -0.020(4) 0.010(4)
C16 0.093(5) 0.038(3) 0.038(4) 0.001(3) -0.008(3) -0.001(3)
S1 0.0322(13) 0.250(13) 0.0361(16) -0.021(3) 0.0026(11) -0.020(3)
S2 0.216(9) 0.0355(11) 0.0557(19) -0.0063(10) -0.062(3) 0.015(2)
O3 0.042(7) 0.114(19) 0.058(12) 0.054(15) -0.004(7) 0.003(10)
O5 0.053(10) 0.037(4) 0.042(6) -0.006(4) 0.002(5) -0.004(4)
S1' 0.057(4) 0.130(13) 0.033(5) 0.015(6) -0.002(3) -0.009(5)
S2' 0.104(12) 0.055(6) 0.036(7) 0.003(5) -0.006(7) 0.009(6)
O3' 0.061(7) 0.103(13) 0.056(7) 0.028(10) -0.004(5) 0.013(8)
O5' 0.090(12) 0.035(4) 0.073(6) 0.002(4) -0.028(7) -0.013(4)
loop_
_atom_type_symbol
_atom_type_description
_atom_type_scat_dispersion_real
_atom_type_scat_dispersion_imag
_atom_type_scat_source
C C 0.0181 0.0091 'International Tables Vol C Tables 4.2.6.8 and 6.1.1.4'
H H 0.0000 0.0000 'International Tables Vol C Tables 4.2.6.8 and 6.1.1.4'
N N 0.0311 0.0180 'International Tables Vol C Tables 4.2.6.8 and 6.1.1.4'
O O 0.0492 0.0322 'International Tables Vol C Tables 4.2.6.8 and 6.1.1.4'
S S 0.3331 0.5567 'International Tables Vol C Tables 4.2.6.8 and 6.1.1.4'
Zn Zn -1.5491 0.6778 'International Tables Vol C Tables 4.2.6.8 and 6.1.1.4'
loop_
_geom_angle_atom_site_label_1
_geom_angle_atom_site_label_2
_geom_angle_atom_site_label_3
_geom_angle
_geom_angle_site_symmetry_1
_geom_angle_site_symmetry_3
O1 Zn1 O2 95.6(3) . 3_644
O1 Zn1 O8 89.96(18) . 7_656
O2 Zn1 O8 109.79(17) 3_644 7_656
O1 Zn1 O8 95.9(2) . 5_655
O2 Zn1 O8 99.25(17) 3_644 5_655
O8 Zn1 O8 149.67(14) 7_656 5_655
O1 Zn1 N4 172.4(3) . 7_656
O2 Zn1 N4 90.9(3) 3_644 7_656
O8 Zn1 N4 84.11(19) 7_656 7_656
O8 Zn1 N4 86.9(2) 5_655 7_656
O1 Zn1 O7 90.0(3) . 5_655
O2 Zn1 O7 156.25(18) 3_644 5_655
O8 Zn1 O7 93.24(16) 7_656 5_655
O8 Zn1 O7 57.15(15) 5_655 5_655
N4 Zn1 O7 85.7(3) 7_656 5_655
O1 Zn1 C16 93.5(3) . 5_655
O2 Zn1 C16 129.0(2) 3_644 5_655
O8 Zn1 C16 120.33(18) 7_656 5_655
O8 Zn1 C16 29.80(17) 5_655 5_655
N4 Zn1 C16 85.5(3) 7_656 5_655
O7 Zn1 C16 27.36(18) 5_655 5_655
O5 Zn2 O5 60.5(11) 8_665 .
O5' Zn2 O5' 113.8(12) 8_665 .
O5 Zn2 N2 103.8(6) 8_665 7_556
O5 Zn2 N2 161.8(6) . 7_556
O5' Zn2 N2 77.3(6) 8_665 7_556
O5' Zn2 N2 166.5(6) . 7_556
O5 Zn2 N2 161.8(6) 8_665 2_664
O5 Zn2 N2 103.8(6) . 2_664
O5' Zn2 N2 166.5(6) 8_665 2_664
O5' Zn2 N2 77.3(6) . 2_664
N2 Zn2 N2 93.0(5) 7_556 2_664
O5 Zn2 O4 90.4(3) 8_665 2_664
O5 Zn2 O4 99.4(3) . 2_664
O5' Zn2 O4 87.6(3) 8_665 2_664
O5' Zn2 O4 98.5(3) . 2_664
N2 Zn2 O4 89.44(19) 7_556 2_664
N2 Zn2 O4 82.80(18) 2_664 2_664
O5 Zn2 O4 99.4(3) 8_665 7_556
O5 Zn2 O4 90.4(3) . 7_556
O5' Zn2 O4 98.5(3) 8_665 7_556
O5' Zn2 O4 87.6(3) . 7_556
N2 Zn2 O4 82.80(18) 7_556 7_556
N2 Zn2 O4 89.44(19) 2_664 7_556
O4 Zn2 O4 168.7(2) 2_664 7_556
O6 Zn3 O6 100.2(3) 7_556 .
O6 Zn3 O4 106.50(18) 7_556 7_556
O6 Zn3 O4 101.47(17) . 7_556
O6 Zn3 O4 101.47(17) 7_556 .
O6 Zn3 O4 106.50(18) . .
O4 Zn3 O4 135.78(19) 7_556 .
O6 Zn3 O3 99.4(8) 7_556 7_556
O6 Zn3 O3 154.6(8) . 7_556
O4 Zn3 O3 57.2(6) 7_556 7_556
O4 Zn3 O3 85.1(6) . 7_556
O6 Zn3 O3 154.6(8) 7_556 .
O6 Zn3 O3 99.4(8) . .
O4 Zn3 O3 85.1(6) 7_556 .
O4 Zn3 O3 57.2(6) . .
O3 Zn3 O3 67.5(15) 7_556 .
O6 Zn3 C8 130.1(2) 7_556 .
O6 Zn3 C8 100.3(3) . .
O4 Zn3 C8 113.17(19) 7_556 .
O4 Zn3 C8 28.78(18) . .
O3 Zn3 C8 78.9(6) 7_556 .
O3 Zn3 C8 29.1(6) . .
O6 Zn3 C8 100.3(3) 7_556 7_556
O6 Zn3 C8 130.1(2) . 7_556
O4 Zn3 C8 28.78(18) 7_556 7_556
O4 Zn3 C8 113.17(19) . 7_556
O3 Zn3 C8 29.1(6) 7_556 7_556
O3 Zn3 C8 78.9(6) . 7_556
C8 Zn3 C8 100.2(4) . 7_556
C1 O1 Zn1 149.4(5) . .
C1 O2 Zn1 130.2(4) . 4_565
C8 O4 Zn3 99.9(4) . .
C8 O4 Zn2 135.9(4) . 2_665
Zn3 O4 Zn2 123.51(17) . 2_665
C9 O6 Zn3 130.4(4) . .
C16 O7 Zn1 85.7(4) . 5_645
C16 O8 Zn1 138.5(4) . 7_546
C16 O8 Zn1 96.2(3) . 5_645
Zn1 O8 Zn1 125.20(17) 7_546 5_645
C7 N1 S1 108.4(6) . .
C7 N1 S1' 105.2(8) . .
C6 N2 S1 108.8(4) . .
C6 N2 S1' 104.0(7) . .
C6 N2 Zn2 130.4(5) . 2_665
S1 N2 Zn2 119.6(3) . 2_665
S1' N2 Zn2 121.6(4) . 2_665
C15 N3 S2 107.5(5) . .
C15 N3 S2' 101.1(10) . .
C14 N4 S2 109.5(4) . .
C14 N4 S2' 105.4(8) . .
C14 N4 Zn1 127.8(4) . 7_546
S2 N4 Zn1 122.6(3) . 7_546
S2' N4 Zn1 120.2(6) . 7_546
O2 C1 O1 124.5(6) . .
O2 C1 C2 120.8(6) . .
O1 C1 C2 114.7(6) . .
C3 C2 C7 117.1(7) . .
C3 C2 C1 117.8(7) . .
C7 C2 C1 123.5(7) . .
C2 C3 C4 121.7(9) . .
C2 C3 H3 119.1 . .
C4 C3 H3 119.1 . .
C5 C4 C3 123.0(9) . .
C5 C4 H4 118.5 . .
C3 C4 H4 118.5 . .
C4 C5 C6 114.6(7) . .
C4 C5 C8 120.7(8) . .
C6 C5 C8 124.7(6) . .
N2 C6 C5 125.7(6) . .
N2 C6 C7 111.7(6) . .
C5 C6 C7 122.6(6) . .
N1 C7 C2 127.7(6) . .
N1 C7 C6 112.6(6) . .
C2 C7 C6 119.6(6) . .
O3' C8 O4 121.3(11) . .
O4 C8 O3 116.6(11) . .
O3' C8 C5 116.8(11) . .
O4 C8 C5 119.9(6) . .
O3 C8 C5 121.1(12) . .
O3' C8 Zn3 71.8(9) . .
O4 C8 Zn3 51.3(3) . .
O3 C8 Zn3 67.1(11) . .
C5 C8 Zn3 171.2(5) . .
O6 C9 O5' 122.8(8) . .
O6 C9 O5 122.4(8) . .
O6 C9 C10 121.6(6) . .
O5' C9 C10 112.4(7) . .
O5 C9 C10 110.9(7) . .
C11 C10 C15 117.0(7) . .
C11 C10 C9 118.6(7) . .
C15 C10 C9 123.7(7) . .
C10 C11 C12 121.4(7) . .
C10 C11 H11 119.3 . .
C12 C11 H11 119.3 . .
C13 C12 C11 122.7(7) . .
C13 C12 H12 118.7 . .
C11 C12 H12 118.7 . .
C12 C13 C14 117.0(6) . .
C12 C13 C16 120.0(6) . .
C14 C13 C16 123.0(6) . .
N4 C14 C13 127.8(6) . .
N4 C14 C15 110.8(6) . .
C13 C14 C15 121.3(6) . .
N3 C15 C10 126.3(6) . .
N3 C15 C14 113.7(6) . .
C10 C15 C14 120.0(6) . .
O7 C16 O8 121.0(6) . .
O7 C16 C13 120.9(6) . .
O8 C16 C13 118.1(6) . .
O7 C16 Zn1 67.0(4) . 5_645
O8 C16 Zn1 54.0(3) . 5_645
C13 C16 Zn1 172.1(5) . 5_645
N2 S1 N1 96.9(4) . .
N4 S2 N3 98.2(3) . .
C8 O3 Zn3 83.8(12) . .
C9 O5 Zn2 134.3(10) . .
N1 S1' N2 88.8(6) . .
N4 S2' N3 89.5(8) . .
C9 O5' Zn2 136.6(10) . .
loop_
_geom_bond_atom_site_label_1
_geom_bond_atom_site_label_2
_geom_bond_distance
_geom_bond_site_symmetry_2
Zn1 O1 1.975(5) .
Zn1 O2 2.028(5) 3_644
Zn1 O8 2.043(4) 7_656
Zn1 O8 2.104(4) 5_655
Zn1 N4 2.112(5) 7_656
Zn1 O7 2.387(5) 5_655
Zn1 C16 2.586(6) 5_655
Zn2 O5 1.961(9) 8_665
Zn2 O5 1.961(9) .
Zn2 O5' 2.049(9) 8_665
Zn2 O5' 2.049(9) .
Zn2 N2 2.109(5) 7_556
Zn2 N2 2.109(5) 2_664
Zn2 O4 2.127(4) 2_664
Zn2 O4 2.127(4) 7_556
Zn3 O6 1.984(4) 7_556
Zn3 O6 1.984(4) .
Zn3 O4 2.048(4) 7_556
Zn3 O4 2.048(4) .
Zn3 O3 2.39(2) 7_556
Zn3 O3 2.39(2) .
Zn3 C8 2.584(6) .
Zn3 C8 2.584(6) 7_556
O1 C1 1.224(7) .
O2 C1 1.218(8) .
O2 Zn1 2.028(5) 4_565
O4 C8 1.263(7) .
O4 Zn2 2.127(4) 2_665
O6 C9 1.197(8) .
O7 C16 1.192(8) .
O7 Zn1 2.387(5) 5_645
O8 C16 1.292(7) .
O8 Zn1 2.043(4) 7_546
O8 Zn1 2.104(4) 5_645
N1 C7 1.296(10) .
N1 S1 1.631(8) .
N1 S1' 1.698(14) .
N2 C6 1.306(8) .
N2 S1 1.611(6) .
N2 S1' 1.769(12) .
N2 Zn2 2.109(5) 2_665
N3 C15 1.330(9) .
N3 S2 1.622(7) .
N3 S2' 1.775(19) .
N4 C14 1.328(8) .
N4 S2 1.612(6) .
N4 S2' 1.697(16) .
N4 Zn1 2.112(5) 7_546
C1 C2 1.489(9) .
C2 C3 1.325(13) .
C2 C7 1.433(9) .
C3 C4 1.479(13) .
C3 H3 0.9300 .
C4 C5 1.364(11) .
C4 H4 0.9300 .
C5 C6 1.424(10) .
C5 C8 1.467(9) .
C6 C7 1.445(8) .
C8 O3' 1.26(2) .
C8 O3 1.26(3) .
C9 O5' 1.257(11) .
C9 O5 1.378(14) .
C9 C10 1.501(9) .
C10 C11 1.381(11) .
C10 C15 1.426(9) .
C11 C12 1.431(10) .
C11 H11 0.9300 .
C12 C13 1.359(9) .
C12 H12 0.9300 .
C13 C14 1.415(9) .
C13 C16 1.503(9) .
C14 C15 1.438(8) .
C16 Zn1 2.586(6) 5_645
