#------------------------------------------------------------------------------
#$Date: 2017-07-25 13:32:19 +0300 (Tue, 25 Jul 2017) $
#$Revision: 199276 $
#$URL: file:///home/coder/svn-repositories/cod/cif/1/54/66/1546682.cif $
#------------------------------------------------------------------------------
#
# This file is available in the Crystallography Open Database (COD),
# http://www.crystallography.net/. The original data for this entry
# were provided by IUCr Journals, http://journals.iucr.org/.
#
# The file may be used within the scientific community so long as
# proper attribution is given to the journal article from which the
# data were obtained.
#
data_1546682
loop_
_publ_author_name
'Sebbar, Nada Kheira'
'Ellouz, Mohamed'
'Ouzidan, Younes'
'Kaur, Manpreet'
'Essassi, El Mokhtar'
'Jasinski, Jerry P.'
_publ_section_title
;
 (<i>Z</i>)-2-Benzylidene-3-<i>n</i>-butoxy-2<i>H</i>-1,4-benzothiazine
;
_journal_coeditor_code           SJ4120
_journal_issue                   6
_journal_name_full               IUCrData
_journal_page_first              x170890
_journal_paper_doi               10.1107/S2414314617008902
_journal_volume                  2
_journal_year                    2017
_chemical_formula_iupac          'C19 H19 N O S'
_chemical_formula_moiety         'C19 H19 N O S'
_chemical_formula_sum            'C19 H19 N O S'
_chemical_formula_weight         309.41
_chemical_name_systematic
;
(<i>Z</i>)-2-Benzylidene-3-<i>n</i>-butoxy-2<i>H</i>-1,4-benzothiazine
;
_space_group_crystal_system      triclinic
_space_group_IT_number           2
_space_group_name_Hall           '-P 1'
_space_group_name_H-M_alt        'P -1'
_symmetry_space_group_name_Hall  '-P 1'
_symmetry_space_group_name_H-M   'P -1'
_atom_sites_solution_hydrogens   geom
_atom_sites_solution_primary     dual
_audit_creation_method
;
Olex2 1.2
(compiled 2017.03.28 svn.r3405 for OlexSys, GUI svn.r5337)
;
_cell_angle_alpha                112.013(9)
_cell_angle_beta                 109.259(8)
_cell_angle_gamma                98.120(7)
_cell_formula_units_Z            2
_cell_length_a                   7.7711(6)
_cell_length_b                   10.9897(11)
_cell_length_c                   11.4090(11)
_cell_measurement_reflns_used    1693
_cell_measurement_temperature    293(2)
_cell_measurement_theta_max      71.4720
_cell_measurement_theta_min      7.6940
_cell_volume                     812.78(16)
_computing_cell_refinement
;
CrysAlis PRO (Rigaku Oxford Diffraction, 2015)
;
_computing_data_collection
;
CrysAlis PRO (Rigaku Oxford Diffraction, 2015)
;
_computing_data_reduction
;
CrysAlis PRO (Rigaku Oxford Diffraction, 2015)
;
_computing_molecular_graphics
;
<i>OLEX2</i> (Dolomanov <i>et al.</i>,  2009)
;
_computing_publication_material
;
<i>OLEX2</i> (Dolomanov <i>et al.</i>,  2009)
;
_computing_structure_refinement
;
SHELXL2015 (Sheldrick, 2015b)
;
_computing_structure_solution
;
SHELXT (Sheldrick, 2015a)
;
_diffrn_ambient_temperature      293(2)
_diffrn_detector_area_resol_mean 16.0416
_diffrn_measured_fraction_theta_full 0.997
_diffrn_measured_fraction_theta_max 0.970
_diffrn_measurement_device       'four-circle diffractometer'
_diffrn_measurement_device_type  'Rigaku Oxford Diffraction'
_diffrn_measurement_method       '\w scans'
_diffrn_radiation_monochromator  graphite
_diffrn_radiation_type           CuK\a
_diffrn_radiation_wavelength     1.54184
_diffrn_reflns_av_R_equivalents  0.0206
_diffrn_reflns_limit_h_max       9
_diffrn_reflns_limit_h_min       -7
_diffrn_reflns_limit_k_max       12
_diffrn_reflns_limit_k_min       -13
_diffrn_reflns_limit_l_max       13
_diffrn_reflns_limit_l_min       -13
_diffrn_reflns_number            5063
_diffrn_reflns_theta_full        67.684
_diffrn_reflns_theta_max         71.323
_diffrn_reflns_theta_min         4.553
_exptl_absorpt_coefficient_mu    1.764
_exptl_absorpt_correction_T_max  1.00000
_exptl_absorpt_correction_T_min  0.61048
_exptl_absorpt_correction_type   multi-scan
_exptl_absorpt_process_details
;
(CrysAlis PRO; Rigaku Oxford Diffraction, 2015)
;
_exptl_crystal_colour            colourless
_exptl_crystal_density_diffrn    1.264
_exptl_crystal_description       'irregular fragment'
_exptl_crystal_F_000             328
_exptl_crystal_size_max          0.38
_exptl_crystal_size_mid          0.18
_exptl_crystal_size_min          0.08
_refine_diff_density_max         0.550
_refine_diff_density_min         -0.219
_refine_ls_extinction_method     none
_refine_ls_goodness_of_fit_ref   1.049
_refine_ls_hydrogen_treatment    constr
_refine_ls_matrix_type           full
_refine_ls_number_parameters     200
_refine_ls_number_reflns         3070
_refine_ls_number_restraints     0
_refine_ls_restrained_S_all      1.049
_refine_ls_R_factor_all          0.0587
_refine_ls_R_factor_gt           0.0484
_refine_ls_shift/su_max          0.000
_refine_ls_shift/su_mean         0.000
_refine_ls_structure_factor_coef Fsqd
_refine_ls_weighting_details
'w=1/[\s^2^(Fo^2^)+(0.0803P)^2^+0.0842P] where P=(Fo^2^+2Fc^2^)/3'
_refine_ls_weighting_scheme      calc
_refine_ls_wR_factor_gt          0.1308
_refine_ls_wR_factor_ref         0.1402
_reflns_number_gt                2492
_reflns_number_total             3070
_reflns_threshold_expression     'I > 2\s(I)'
_cod_data_source_file            sj4120sup1.cif
_cod_data_source_block           I
_cod_original_cell_volume        812.78(14)
_cod_database_code               1546682
_shelx_space_group_comment
;
The symmetry employed for this shelxl refinement is uniquely defined
by the following loop, which should always be used as a source of
symmetry information in preference to the above space-group names.
They are only intended as comments.
;
_shelx_hkl_file
;
   0   0  -1   43.25    0.84
   0   0   2   25.09    0.76
   0   0   2   23.68    0.92
   0   0   2   26.24    0.60
   0   0  -2   25.25    0.94
   0   0  -3  958.45    7.09
   0   0   3  970.06    7.69
   0   0   3  964.29    4.36
   0   0   4    2.78    0.41
   0   0   4    2.24    0.27
   0   0  -4    2.22    0.51
   0   0   4    1.42    0.46
   0   0   4    1.45    0.51
   0   0   5  171.30    4.43
   0   0   5  180.75    4.61
   0   0   6  104.11    4.01
   0   0   7    0.82    0.62
   0   0   8    3.08    0.76
   0   0   9    1.54    0.66
   0   0  10    7.77    1.12
   0   0  10    7.72    0.97
   0   0  11   13.11    1.05
   0   0  11   12.19    1.13
   0  -1  12   10.84    0.94
   0  -1  11    2.12    0.69
   0  -1  11    3.92    0.66
   0  -1  10   10.96    1.33
   0  -1  10   12.14    1.22
   0  -1   9   82.13    3.45
   0  -1   9   89.88    3.29
   0  -1   8  136.51    4.21
   0  -1   7   51.91    3.04
   0  -1   6    1.91    0.66
   0   1  -6    1.87    0.51
   0  -1   5  199.99    4.56
   0   1  -5  210.12    4.23
   0  -1   5  200.48    3.64
   0  -1   4   88.35    2.15
   0  -1   4   91.79    2.63
   0   1  -4   87.57    2.38
   0  -1   3  120.17    2.50
   0   1  -3  116.77    2.34
   0  -1   2 1180.33    6.21
   0   1  -2 1184.36    6.09
   0   1  -1  450.77    3.31
   0  -1   1  454.27    2.67
   0   1   0  677.54    3.72
   0   1   1 1658.71    6.23
   0   1   2  233.52    3.07
   0   1   3  206.71    3.51
   0   1   3  216.92    3.97
   0   1   4  280.71    5.30
   0   1   4  290.40    5.48
   0   1   5    7.76    1.11
   0   1   5    8.94    1.20
   0   1   6  165.16    5.32
   0   1   6  163.33    5.28
   0   1   7   82.29    3.16
   0   1   8    2.69    0.75
   0   1   9   30.17    2.10
   0   1  10    1.52    0.66
   0   1  10    1.69    0.53
   0   1  11    0.50    0.33
   0   1  11    1.37    0.38
   0  -2  12    0.44    0.41
   0  -2  11   19.08    1.36
   0  -2  11   16.57    1.52
   0  -2  10    4.97    0.81
   0  -2  10    3.83    0.82
   0  -2   9   29.41    1.84
   0  -2   9   24.09    1.89
   0  -2   8  119.85    3.86
   0  -2   7   51.92    2.92
   0   2  -6    0.44    0.31
   0  -2   6    0.32    0.46
   0  -2   6    0.89    0.40
   0   2  -5  195.84    3.98
   0  -2   5  187.89    3.79
   0  -2   5  194.24    4.28
   0   2  -4  175.00    3.35
   0  -2   4  174.05    3.35
   0   2  -3   11.46    0.83
   0  -2   3   11.64    0.78
   0   2  -2   12.21    0.82
   0  -2   2   13.84    0.69
   0   2  -1  453.13    4.24
   0   2   0  252.15    3.31
   0   2   1  120.27    2.03
   0   2   1  129.83    2.56
   0   2   2  356.94    4.92
   0   2   2  376.70    2.52
   0   2   3   45.35    1.78
   0   2   4  338.64    6.35
   0   2   4  337.23    6.35
   0   2   5   17.29    1.72
   0   2   5   15.87    1.65
   0   2   6   10.71    1.53
   0   2   6   11.64    1.57
   0   2   7   81.86    3.27
   0   2   7   89.31    3.36
   0   2   8   84.49    3.45
   0   2   9    1.80    0.65
   0   2  10    2.21    0.51
   0   2  10    2.14    0.54
   0  -3  12    7.04    0.93
   0  -3  11    1.52    0.70
   0  -3  10    5.77    1.13
   0  -3   9   13.77    1.47
   0  -3   8  342.79    7.84
   0  -3   7    8.15    1.03
   0   3  -7    8.98    1.10
   0  -3   7    7.16    1.09
   0  -3   6    0.60    0.41
   0  -3   6    0.06    0.39
   0   3  -6    0.27    0.29
   0   3  -5  222.72    4.40
   0  -3   5  212.29    4.37
   0  -3   5  209.47    4.30
   0   3  -4   11.35    1.00
   0  -3   4   12.45    0.95
   0   3  -3   88.22    2.53
   0  -3   3   90.12    2.12
   0   3  -2   17.00    1.08
   0   3  -1  126.80    2.81
   0   3   0    1.60    0.47
   0   3   1   61.33    2.24
   0   3   1   61.79    2.12
   0   3   2  131.07    3.45
   0   3   2  141.24    2.96
   0   3   3   98.98    2.83
   0   3   4    2.03    0.73
   0   3   4    2.59    0.75
   0   3   5   85.95    3.98
   0   3   5   85.96    3.99
   0   3   6   43.19    2.28
   0   3   6   45.29    2.36
   0   3   7    1.16    0.56
   0   3   7    0.87    0.50
   0   3   8    0.74    0.58
   0   3   8    0.11    0.34
   0   3   9   19.00    1.45
   0   3   9   18.20    1.36
   0   3  10    6.98    0.68
   0  -4  12    1.83    0.64
   0   4 -12    0.84    0.37
   0  -4  11   24.36    1.83
   0  -4  10   35.81    2.29
   0  -4   9   69.54    3.06
   0  -4   8    6.52    1.10
   0  -4   7  107.09    3.85
   0   4  -7  104.91    3.72
   0  -4   7  100.49    3.60
   0  -4   6  163.90    4.26
   0  -4   6  155.69    4.29
   0   4  -6  165.14    4.34
   0  -4   5  170.44    3.86
   0   4  -5  171.59    4.22
   0  -4   4  844.35    7.48
   0   4  -4  837.67    8.93
   0   4  -3   73.35    2.59
   0   4  -2  385.49    5.74
   0   4  -1  133.89    3.46
   0   4   0   48.63    2.22
   0   4   0   45.95    1.67
   0   4   1  514.16    5.64
   0   4   1  495.10    7.46
   0   4   1  509.18    7.04
   0   4   2    2.17    0.61
   0   4   2    4.53    0.81
   0   4   3   15.45    1.54
   0   4   4   48.06    2.93
   0   4   4   50.59    3.02
   0   4   4   53.71    3.09
   0   4   5   15.81    1.35
   0   4   5   17.65    1.49
   0   4   6   59.09    2.81
   0   4   6   58.73    2.74
   0   4   7    0.73    0.49
   0   4   7    0.55    0.45
   0   4   8   19.72    1.45
   0   4   8   20.00    1.50
   0   4   9   -0.04    0.32
   0  -5  13   -0.60    0.36
   0  -5  12   26.55    1.77
   0   5 -12   26.04    1.55
   0  -5  11    2.05    0.67
   0  -5  10   30.95    2.06
   0  -5   9   21.61    1.76
   0  -5   8   39.19    2.19
   0  -5   8   41.11    2.57
   0   5  -7    4.50    0.84
   0  -5   7    3.23    0.80
   0   5  -6    1.27    0.53
   0  -5   5  184.46    3.97
   0   5  -5  195.02    4.89
   0   5  -4    1.67    0.57
   0   5  -3   67.31    2.78
   0   5  -2  324.96    6.03
   0   5  -1   43.26    2.33
   0   5   0  945.85    8.52
   0   5   0  919.53   11.15
   0   5   1  106.13    3.96
   0   5   1  104.13    3.67
   0   5   2   22.80    1.99
   0   5   2   25.45    1.99
   0   5   3  159.62    5.52
   0   5   4    1.27    0.53
   0   5   5   21.32    1.72
   0   5   5   22.88    1.66
   0   5   6    4.37    0.83
   0   5   6    3.39    0.77
   0   5   7   22.75    1.66
   0   5   8    0.42    0.35
   0  -6  13   33.36    1.57
   0  -6  12    0.10    0.47
   0   6 -11    8.37    0.98
   0  -6  11    6.76    1.10
   0   6 -10   82.82    3.16
   0  -6  10   71.92    3.13
   0  -6   9    0.46    0.46
   0  -6   8   15.09    1.45
   0   6  -7  121.56    4.45
   0  -6   7  108.55    4.15
   0   6  -6   18.98    1.73
   0   6  -5    6.55    1.01
   0   6  -4   36.21    2.28
   0   6  -3   40.93    2.47
   0   6  -2  155.06    4.78
   0   6  -1   64.27    3.22
   0   6   0   15.48    1.56
   0   6   0   18.49    1.83
   0   6   1    4.08    0.98
   0   6   1    5.95    1.07
   0   6   2   43.02    3.01
   0   6   3    7.33    1.02
   0   6   4  122.40    4.08
   0   6   5    5.45    0.96
   0   6   6   32.04    1.97
   0   6   7   12.49    1.09
   0  -7  13    0.15    0.32
   0  -7  12   15.59    1.35
   0  -7  11    2.30    0.72
   0  -7  10    2.38    0.76
   0  -7   9   16.34    1.62
   0  -7   8    1.11    0.57
   0  -7   7    7.36    1.03
   0   7  -7    8.28    1.25
   0   7  -6    2.85    0.77
   0   7  -5   51.88    2.97
   0   7  -4  222.29    6.25
   0   7  -3   89.29    4.05
   0   7  -2  103.22    4.45
   0   7  -1   54.80    3.35
   0   7   0   27.66    2.43
   0   7   0   31.44    2.40
   0   7   1    4.18    0.76
   0   7   2    0.58    0.43
   0   7   3   16.99    1.57
   0   7   4   12.14    1.35
   0   7   5    6.97    0.97
   0   7   6   24.97    1.54
   0  -8  13    8.50    0.69
   0  -8  13    8.78    0.78
   0  -8  12    4.94    0.80
   0  -8  11    5.07    0.91
   0  -8  10   24.89    1.88
   0  -8   9   20.83    1.79
   0  -8   8  132.60    4.36
   0  -8   7    0.71    0.59
   0  -8   7    0.49    0.37
   0  -8   6   21.89    1.73
   0  -8   6   21.00    1.69
   0   8  -5  138.58    5.29
   0   8  -4    6.34    1.20
   0   8  -3  232.31    7.27
   0  -8   2    4.26    0.78
   0   8  -1    3.67    0.74
   0  -8   1    3.71    0.74
   0   8   0   21.35    1.75
   0   8   1   34.43    2.26
   0   8   2    4.77    0.93
   0   8   3   18.50    1.61
   0   8   4    5.12    0.89
   0   8   5   11.63    1.08
   0  -9  12    2.84    0.59
   0  -9  12    3.35    0.57
   0  -9  11   31.43    1.87
   0  -9  10   31.24    2.02
   0  -9   9    2.45    0.80
   0  -9   8   92.33    3.64
   0  -9   7    1.58    0.59
   0  -9   7    1.17    0.48
   0  -9   6    7.34    1.08
   0  -9   6    7.85    1.14
   0  -9   5   21.71    1.83
   0  -9   5   23.22    1.88
   0  -9   4  261.41    5.93
   0  -9   4  259.24    6.19
   0  -9   3    8.31    1.17
   0   9  -3    8.31    1.11
   0  -9   3    9.64    1.16
   0   9  -2   16.81    1.57
   0  -9   2   18.03    1.55
   0  -9   1   15.09    1.43
   0   9  -1   16.19    1.57
   0   9   0    5.77    1.00
   0   9   1    2.39    0.67
   0   9   2   -0.08    0.55
   0   9   3   20.80    1.54
   0   9   4    8.30    0.88
   0 -10  12    9.28    0.73
   0 -10  12    9.68    0.85
   0 -10  11    0.27    0.43
   0 -10  11    0.75    0.33
   0 -10  10   -0.25    0.48
   0 -10  10    0.06    0.29
   0 -10   9    6.38    0.81
   0 -10   9    5.39    0.93
   0 -10   8    0.78    0.45
   0 -10   8    0.93    0.66
   0 -10   7   56.87    2.81
   0 -10   7   54.60    2.81
   0 -10   6   10.45    1.29
   0 -10   6    9.33    1.19
   0  10  -5   81.26    3.20
   0 -10   5   80.14    3.34
   0 -10   5   81.98    3.50
   0 -10   4    4.93    0.95
   0 -10   4    5.60    0.95
   0  10  -4    6.13    0.97
   0  10  -3    1.42    0.62
   0 -10   3    0.51    0.48
   0 -10   2   61.73    2.87
   0  10  -2   60.69    2.88
   0  10  -1    8.17    1.12
   0  10   0    0.64    0.56
   0  10   1    1.21    0.58
   0  10   2   14.48    1.22
   0  10   3    0.07    0.28
   0 -11  11    3.07    0.55
   0 -11  10   17.72    1.33
   0 -11   9    2.62    0.70
   0 -11   8    7.42    1.03
   0 -11   8    6.61    0.90
   0 -11   7    7.68    1.03
   0 -11   7    5.41    0.87
   0 -11   6    2.01    0.65
   0 -11   6    3.54    0.82
   0 -11   5    6.14    0.98
   0  11  -5    5.68    0.86
   0 -11   4   -0.19    0.40
   0  11  -4    0.49    0.46
   0  11  -3   23.22    1.70
   0 -11   3   23.04    1.70
   0 -11   2    5.78    0.83
   0  11  -2    7.57    1.01
   0  11  -1   10.41    1.13
   0  11   0   22.69    1.51
   0  11   1    6.92    0.78
   0 -12  10    0.30    0.29
   0 -12   9    9.17    0.88
   0 -12   8    3.74    0.65
   0 -12   7   -0.09    0.38
   0 -12   6    2.36    0.61
   0  12  -4    2.35    0.54
   0 -12   4    2.53    0.58
   0  12  -3    1.76    0.48
   0 -12   3    1.78    0.44
   0  12  -2   15.22    1.12
   0  12  -1    5.30    0.64
   0 -13   7    1.73    0.40
   0 -13   6    5.56    0.66
   0 -13   5    0.39    0.27
   1 -13   4    0.02    0.29
   1 -13   5   19.61    1.25
   1 -13   6    0.80    0.37
   1 -13   6    1.22    0.41
   1 -13   7    5.05    0.64
   1 -13   7    4.89    0.63
   1 -13   8    1.83    0.41
  -1  12   0    7.00    0.68
  -1  12  -1   12.82    1.00
  -1  12  -2    2.54    0.52
   1 -12   2    2.02    0.51
   1 -12   3    0.41    0.41
   1 -12   4   26.75    1.70
   1 -12   4   25.64    1.73
   1 -12   5    0.95    0.54
   1 -12   6    1.81    0.63
   1 -12   7   16.68    1.40
   1 -12   8    7.10    0.91
   1 -12   9    6.13    0.78
   1 -12  10    4.06    0.56
  -1  11   2    4.14    0.62
  -1  11   1   17.39    1.28
  -1  11   0    0.47    0.39
   1 -11   1   30.44    1.88
  -1  11  -1   30.69    1.90
  -1  11  -2   49.66    2.39
   1 -11   2   44.74    2.40
   1 -11   3    1.55    0.65
   1 -11   3    1.32    0.55
   1 -11   4    1.32    0.61
   1 -11   5    1.55    0.70
   1 -11   6   12.80    1.41
   1 -11   7   -0.31    0.53
   1 -11   8    5.39    0.93
   1 -11   9    2.93    0.72
   1 -11   9    2.08    0.44
   1 -11  10    8.78    0.97
   1 -11  10    8.83    0.78
   1 -11  11    0.11    0.28
  -1  10   4    7.60    0.73
  -1  10   3   24.13    1.50
  -1  10   2    4.75    0.80
  -1  10   1    2.91    0.76
  -1  10   0    9.77    1.20
   1 -10   0    8.50    1.07
  -1  10  -1   10.57    1.24
   1 -10   1    9.69    1.23
   1 -10   2   23.88    1.88
  -1  10  -2   23.21    1.78
   1 -10   3    1.37    0.68
   1 -10   4   18.57    1.71
   1 -10   4   20.74    1.82
   1 -10   5   23.30    1.81
   1 -10   5   20.69    1.86
   1 -10   6    0.69    0.63
   1 -10   7    0.01    0.55
   1 -10   8   67.53    3.08
   1 -10   8   65.57    2.63
   1 -10   9   20.43    1.46
   1 -10   9   20.53    1.68
   1 -10  10    1.83    0.49
   1 -10  10    2.02    0.64
   1 -10  11    2.29    0.57
   1 -10  11    1.81    0.44
  -1   9   5    6.69    0.75
  -1   9   4    6.54    0.89
  -1   9   3   -0.01    0.49
  -1   9   2   20.40    1.71
  -1   9   1    5.06    0.94
   1  -9  -1    4.41    0.80
   1  -9   0  103.00    3.74
  -1   9   0   94.68    3.65
   1  -9   1   40.93    2.42
  -1   9  -1   41.64    2.39
  -1   9  -2   -0.31    0.39
   1  -9   2    0.84    0.61
   1  -9   3   47.19    2.66
   1  -9   3   46.85    2.67
   1  -9   4  104.42    3.86
   1  -9   4  109.66    4.04
   1  -9   5  214.72    5.37
   1  -9   5  197.73    5.45
   1  -9   6    0.05    0.33
   1  -9   6   -0.40    0.58
   1  -9   7   14.92    1.33
   1  -9   7   17.19    1.69
   1  -9   8   56.45    2.86
   1  -9   9   17.36    1.58
   1  -9  10   15.88    1.45
   1  -9  11    0.19    0.31
   1  -9  11    0.23    0.40
   1  -9  12    1.10    0.33
   1  -9  12    1.20    0.41
  -1   8   6   20.22    1.32
  -1   8   5   10.01    1.12
  -1   8   4   11.01    1.28
  -1   8   3   11.38    1.32
  -1   8   2    6.38    1.03
   1  -8  -1   17.97    1.53
  -1   8   1   14.21    1.45
  -1   8   0   34.89    2.16
   1  -8   0   34.44    2.15
   1  -8   0   35.11    2.12
   1  -8   1   57.52    2.73
  -1   8  -1   53.65    3.10
  -1   8  -2   66.79    3.87
  -1   8  -3   10.29    1.53
  -1   8  -4   40.47    2.88
   1  -8   5   85.79    3.42
  -1   8  -5   90.00    4.14
   1  -8   6    2.49    0.65
   1  -8   7    0.85    0.60
   1  -8   8    1.64    0.72
   1  -8   9    0.68    0.60
   1  -8  10    0.57    0.56
   1  -8  11    2.28    0.66
   1  -8  12   17.15    1.20
   1  -8  12   16.77    1.09
  -1   7   7   36.17    1.75
  -1   7   6   -0.25    0.44
  -1   7   5   29.25    2.01
  -1   7   4   53.28    2.77
  -1   7   3   24.25    1.87
  -1   7   2   58.28    2.77
  -1   7   1    9.60    1.30
  -1   7   1   11.47    1.63
  -1   7   0    1.29    0.56
  -1   7   0    1.52    0.68
  -1   7  -1    8.44    1.29
  -1   7  -1   11.90    1.34
  -1   7  -2  170.42    5.52
  -1   7  -3    1.35    0.63
  -1   7  -4  109.25    4.30
  -1   7  -5    1.02    0.46
   1  -7   6   46.71    2.83
   1  -7   7   31.84    2.12
   1  -7   8   22.43    1.83
   1  -7   9    1.04    0.61
   1  -7  10    4.65    0.91
   1  -7  11   10.70    1.21
   1  -7  12    2.17    0.45
   1  -7  12    2.28    0.55
  -1   6   8    5.30    0.68
  -1   6   7    0.35    0.43
  -1   6   6   10.38    1.21
  -1   6   5    0.50    0.48
  -1   6   4  170.20    4.77
  -1   6   3  252.87    5.56
  -1   6   2    6.24    1.00
  -1   6   2    6.52    1.17
  -1   6   1   37.40    2.27
  -1   6   1   39.21    2.69
  -1   6   1   36.61    2.11
  -1   6   0   47.10    2.36
  -1   6   0   46.85    2.83
  -1   6  -1  209.29    4.95
  -1   6  -1  206.96    5.56
  -1   6  -2    1.55    0.57
  -1   6  -3   35.55    2.18
  -1   6  -4   48.53    2.52
  -1   6  -5   19.39    1.61
   1  -6   6   16.10    1.66
   1  -6   7    1.13    0.74
   1  -6   7    0.55    0.48
   1  -6   8   10.81    1.22
   1  -6   9   62.07    2.85
   1  -6   9   58.92    2.97
   1  -6  10    7.74    1.10
   1  -6  10    8.52    1.22
   1  -6  11    1.40    0.61
   1  -6  12    4.77    0.72
   1  -6  12    4.40    0.58
  -1   5   9   14.56    0.99
  -1   5   9   14.92    1.02
  -1   5   8   11.45    1.18
  -1   5   7    9.40    1.15
  -1   5   6   42.90    2.44
  -1   5   5  119.53    3.93
  -1   5   4   98.84    4.52
  -1   5   4  103.01    4.24
  -1   5   3  123.09    4.70
  -1   5   2  137.56    4.66
  -1   5   2  144.84    4.15
  -1   5   2  145.32    4.01
  -1   5   1   21.31    1.48
  -1   5   1   21.00    1.49
  -1   5   1   21.57    1.78
  -1   5   0  343.27    6.53
  -1   5   0  322.87    5.58
  -1   5  -1    7.07    0.97
  -1   5  -2    0.84    0.47
  -1   5  -3   42.07    2.13
  -1   5  -4   51.78    2.34
   1  -5   5    5.33    0.85
   1  -5   5    6.10    1.03
  -1   5  -5    6.36    0.84
   1  -5   6  101.95    3.88
   1  -5   6  104.84    3.84
   1  -5   7   29.01    2.22
   1  -5   7   28.92    2.19
   1  -5   8   38.09    2.23
   1  -5   9   17.02    1.59
   1  -5  10   41.35    2.35
   1  -5  11   19.80    1.57
   1  -5  11   17.00    1.49
   1  -5  12    2.76    0.59
  -1   4  10    3.34    0.47
  -1   4   9    8.42    0.98
  -1   4   8    1.49    0.56
  -1   4   7    1.84    0.59
  -1   4   6    6.16    0.96
  -1   4   5   19.31    1.87
  -1   4   4    3.46    0.73
  -1   4   4    3.51    0.74
  -1   4   3   57.97    2.53
  -1   4   2  434.14    6.31
  -1   4   2  433.39    6.25
  -1   4   1  390.06    5.59
  -1   4   1  386.84    5.38
  -1   4   0    7.86    0.81
  -1   4   0    7.25    0.90
  -1   4  -1  216.34    4.18
  -1   4  -2   45.81    1.87
  -1   4  -3  174.06    3.76
   1  -4   3  177.78    3.84
   1  -4   4   25.59    1.72
   1  -4   4   25.35    1.60
  -1   4  -4   27.39    1.51
  -1   4  -5  204.48    4.15
   1  -4   5  202.45    4.82
   1  -4   6   55.64    2.73
   1  -4   6   52.64    2.74
   1  -4   7    6.01    1.17
   1  -4   7    4.87    0.94
   1  -4   8   87.38    3.36
   1  -4   9   15.48    1.51
   1  -4  10   14.93    1.50
   1  -4  11    4.07    0.85
   1  -4  12    9.77    0.87
   1  -4  12   11.28    1.01
  -1   4 -12    9.27    0.77
  -1   3  10   23.98    1.40
  -1   3   9    3.75    0.76
  -1   3   8   33.48    2.15
  -1   3   8   29.91    2.04
  -1   3   7  151.97    4.47
  -1   3   6   34.27    2.02
  -1   3   6   33.45    2.53
  -1   3   5   26.85    2.05
  -1   3   5   22.65    1.79
  -1   3   4   94.25    3.32
  -1   3   4   90.68    3.20
  -1   3   3    0.10    0.35
  -1   3   2  201.88    3.82
  -1   3   2  220.16    3.87
   1  -3  -1   71.11    1.11
  -1   3   1   73.18    2.12
   1  -3   0   96.61    1.36
  -1   3   0   98.77    2.53
  -1   3  -1   37.45    1.45
   1  -3   2    1.88    0.46
  -1   3  -2    4.92    0.57
   1  -3   3   24.20    1.46
   1  -3   3   28.28    1.49
  -1   3  -3   27.99    1.27
   1  -3   4  364.16    5.67
  -1   3  -4  353.33    4.57
   1  -3   4  347.46    5.71
  -1   3  -5  100.46    2.72
   1  -3   5   96.45    3.18
   1  -3   5   95.19    3.31
   1  -3   6   17.84    1.65
   1  -3   6   18.20    1.55
   1  -3   7  145.07    4.54
   1  -3   7  148.37    5.11
   1  -3   8    6.82    1.06
   1  -3   8    7.58    0.96
   1  -3   9    1.68    0.72
   1  -3   9    2.95    0.67
   1  -3  10    0.06    0.33
   1  -3  10    1.14    0.69
   1  -3  11   20.07    1.35
   1  -3  11   17.82    1.46
  -1   3 -12   -0.26    0.20
   1  -3  12    0.68    0.41
  -1   2  11    0.39    0.26
  -1   2  10    0.02    0.44
  -1   2  10   -0.06    0.27
  -1   2   9    7.34    1.09
  -1   2   9    6.51    1.00
  -1   2   8   18.41    1.61
  -1   2   8   19.48    1.71
  -1   2   7   46.79    2.41
  -1   2   7   48.89    2.44
  -1   2   6   38.77    2.57
  -1   2   6   38.64    2.54
  -1   2   5  113.47    3.82
  -1   2   5  109.75    3.70
  -1   2   4   14.54    1.26
  -1   2   4   13.74    1.18
  -1   2   3   16.19    1.15
  -1   2   2   79.13    2.13
  -1   2   2   82.89    1.98
  -1   2   1  150.12    2.21
   1  -2   0   44.87    0.94
  -1   2  -1  122.39    1.95
   1  -2   1  115.78    1.87
   1  -2   2 2263.08   11.38
  -1   2  -2 2270.01    8.52
   1  -2   3    0.19    0.34
   1  -2   3    0.26    0.29
  -1   2  -3    0.55    0.21
  -1   2  -4    0.78    0.30
   1  -2   4    0.54    0.42
   1  -2   4    0.49    0.42
   1  -2   5  285.54    5.19
   1  -2   5  292.04    5.92
   1  -2   6  143.78    4.07
   1  -2   6  142.16    4.69
   1  -2   7    3.57    0.97
   1  -2   8    3.51    0.73
   1  -2   8    3.30    0.80
   1  -2   9    2.96    0.84
   1  -2   9    3.48    0.74
   1  -2  10    1.59    0.56
   1  -2  10    2.06    0.76
   1  -2  11    1.39    0.57
  -1   1  11    3.90    0.69
  -1   1  11    4.06    0.63
  -1   1  10   18.57    1.52
  -1   1  10   14.98    1.41
  -1   1   9   60.23    2.92
  -1   1   9   64.31    2.97
  -1   1   8    5.60    0.95
  -1   1   8    5.50    0.85
  -1   1   7   19.05    1.91
  -1   1   6   13.59    1.51
  -1   1   5   96.82    3.30
  -1   1   5  100.77    3.29
  -1   1   4   67.19    2.30
  -1   1   4   65.02    2.36
   1  -1  -3  571.45    6.24
  -1   1   3  561.35    6.06
  -1   1   3  579.69    5.53
   1  -1  -2   13.52    0.85
  -1   1   1   30.53    0.65
   1  -1  -1   27.30    0.42
   1  -1   0  437.71    2.78
  -1   1  -1  117.74    1.03
  -1   1  -2    2.75    0.27
   1  -1   3   56.93    2.02
   1  -1   3   60.30    1.86
   1  -1   3   58.06    2.15
   1  -1   4  113.78    3.45
   1  -1   4  114.46    2.90
   1  -1   5   39.58    1.93
   1  -1   5   39.39    2.31
   1  -1   6   33.12    2.39
   1  -1   7   19.46    1.57
   1  -1   8   78.46    3.11
   1  -1   8   71.22    3.22
   1  -1   9   12.71    1.33
   1  -1   9   12.56    1.45
   1  -1  10    2.38    0.79
   1  -1  10    1.67    0.55
   1  -1  11    6.48    0.87
  -1   0  12    9.39    0.83
  -1   0  11    6.05    0.78
  -1   0  11    6.26    0.94
  -1   0  10    3.29    0.79
  -1   0   9  106.18    3.80
  -1   0   9   98.88    3.74
  -1   0   8   39.02    2.19
  -1   0   8   37.22    2.17
  -1   0   7   46.72    2.84
  -1   0   6  245.85    5.65
   1   0  -5   55.90    2.41
  -1   0   4  104.64    2.85
  -1   0   4  110.05    1.71
   1   0  -4  111.71    2.91
   1   0  -3   53.54    1.75
  -1   0   3   53.87    0.99
   1   0  -2  337.44    3.59
   1   0  -1 1066.86    4.80
  -1   0   1 1062.01    4.63
   1   0   0   62.94    1.02
   1   0   0   70.42    0.84
   1   0   1  232.42    2.68
   1   0   1  229.46    2.51
   1   0   2    0.66    0.27
   1   0   2    0.52    0.22
   1   0   3  232.51    4.49
   1   0   3  237.51    3.24
   1   0   4    7.72    1.02
   1   0   4    6.26    0.90
   1   0   4    7.38    0.66
   1   0   5   26.48    2.04
   1   0   5   26.39    1.98
   1   0   6  147.38    5.25
   1   0   7   -0.67    0.46
   1   0   8    9.42    1.25
   1   0   8    9.11    1.13
   1   0   9   60.99    2.95
   1   0   9   53.61    2.57
   1   0  10   11.64    1.11
   1   0  10   11.65    1.27
   1   0  11   -0.23    0.35
  -1  -1  12    0.32    0.37
  -1  -1  11    2.30    0.70
  -1  -1  10   18.90    1.71
  -1  -1  10   24.89    1.69
  -1  -1   9    7.23    1.09
  -1  -1   9    8.34    1.07
  -1  -1   8    5.57    1.14
   1   1  -7   31.11    2.14
  -1  -1   7   32.69    2.26
   1   1  -6  414.92    6.89
  -1  -1   6  403.34    6.84
   1   1  -5   94.15    2.97
  -1  -1   5   94.97    2.83
  -1  -1   5   95.17    2.17
   1   1  -4   27.18    1.42
   1   1  -3  451.21    4.97
   1   1  -2  196.58    2.90
   1   1  -1   15.67    0.77
   1   1   0  981.89    5.64
   1   1   0  979.16    5.11
   1   1   0  994.63    4.42
   1   1   1    2.40    0.45
   1   1   1    1.71    0.33
   1   1   2    0.45    0.33
   1   1   3  559.62    7.45
   1   1   3  543.45    7.24
   1   1   4   17.41    1.52
   1   1   4   18.95    1.64
   1   1   4   17.92    1.10
   1   1   5  129.65    4.64
   1   1   5  127.80    4.70
   1   1   6   14.05    1.28
   1   1   6   16.91    1.95
   1   1   7   -0.15    0.44
   1   1   8   15.67    1.48
   1   1   8   13.17    1.45
   1   1   9   -0.06    0.41
   1   1   9    1.06    0.64
   1   1  10    1.00    0.41
   1   1  10    0.39    0.42
   1   2 -13    5.98    0.62
  -1  -2  12    0.03    0.49
  -1  -2  11    4.59    0.89
  -1  -2  10    0.91    0.59
  -1  -2   9   21.84    1.76
   1   2  -8   22.98    1.99
  -1  -2   8   22.34    2.01
  -1  -2   7   74.79    3.19
   1   2  -7   67.84    3.06
  -1  -2   6  161.42    4.06
   1   2  -6  157.52    4.25
  -1  -2   6  150.09    3.36
   1   2  -5  691.04    8.06
  -1  -2   5  700.83    7.17
   1   2  -4  143.81    3.35
  -1  -2   4  152.19    2.72
   1   2  -3  320.93    4.62
  -1  -2   3  330.00    3.03
   1   2  -2 1334.89    8.90
   1   2  -1   44.26    1.56
   1   2  -1   43.16    0.71
   1   2   0  155.56    1.77
   1   2   0  149.37    1.27
   1   2   0  148.80    2.91
   1   2   0  147.73    2.34
   1   2   1  146.92    3.28
   1   2   1  148.19    1.86
   1   2   1  142.75    2.97
   1   2   1  146.49    2.39
   1   2   1  143.05    2.99
   1   2   2    0.39    0.39
   1   2   2    0.81    0.36
   1   2   3    5.35    0.88
   1   2   4    8.44    1.17
   1   2   4   10.95    1.43
   1   2   5   15.90    1.80
   1   2   5   16.82    1.90
   1   2   6   52.95    2.56
   1   2   7   92.41    3.57
   1   2   8    6.14    1.06
   1   2   8    6.25    0.95
   1   2   9   11.82    1.11
   1   2   9   13.31    1.28
   1   2  10    9.57    0.85
   1   2  10   10.07    0.79
   1   3 -13    0.15    0.23
  -1  -3  12    8.38    1.06
  -1  -3  11    7.09    1.09
  -1  -3  10    1.90    0.68
  -1  -3   9    1.68    0.67
   1   3  -8   57.43    3.12
  -1  -3   8   59.37    3.06
   1   3  -7   67.71    3.11
  -1  -3   7   75.30    3.01
   1   3  -6    0.83    0.40
  -1  -3   6    0.65    0.39
   1   3  -5    1.00    0.53
  -1  -3   5    0.95    0.33
   1   3  -4   73.11    2.61
  -1  -3   4   78.01    1.80
   1   3  -3  249.34    4.53
   1   3  -2  144.10    3.37
   1   3  -1   12.65    1.04
   1   3  -1   13.93    0.52
   1   3   0   99.16    1.50
   1   3   0   94.86    2.80
   1   3   1  243.43    4.36
   1   3   1  243.78    4.69
   1   3   1  257.49    5.01
   1   3   1  264.51    3.55
   1   3   2  354.32    6.08
   1   3   2  366.80    6.42
   1   3   3   31.89    2.19
   1   3   3   27.88    1.87
   1   3   4   62.10    3.45
   1   3   4   60.84    3.33
   1   3   5   51.35    2.41
   1   3   6    1.08    0.56
   1   3   7   21.26    1.74
   1   3   8   11.51    1.19
   1   3   8   12.67    1.31
   1   3   9   -0.01    0.31
   1   3   9    0.30    0.40
   1   4 -13    0.06    0.29
   1   4 -12   22.91    1.62
  -1  -4  12   22.99    1.70
  -1  -4  11   41.24    2.36
  -1  -4  10    0.58    0.52
  -1  -4   9   51.54    2.61
   1   4  -8  212.03    6.07
  -1  -4   7    5.02    0.86
   1   4  -7    3.85    0.79
   1   4  -6  186.31    4.97
   1   4  -5  465.57    7.45
   1   4  -4    2.39    0.65
   1   4  -3   30.42    1.80
   1   4  -2    1.22    0.51
   1   4  -1  184.05    4.33
   1   4   0   47.56    2.23
   1   4   0   48.43    2.34
   1   4   1   29.35    1.33
   1   4   1   30.04    1.96
   1   4   1   27.73    1.87
   1   4   1   27.93    1.68
   1   4   2  152.78    4.60
   1   4   2  156.23    4.59
   1   4   3   41.03    2.58
   1   4   3   42.71    2.75
   1   4   4    4.14    0.70
   1   4   4    5.91    0.87
   1   4   5    2.43    0.61
   1   4   5    0.56    0.47
   1   4   6    3.78    0.85
   1   4   7   18.98    1.56
   1   4   7   18.60    1.53
   1   4   8    9.86    1.01
   1   4   8   10.73    0.99
  -1  -5  13   13.87    1.19
   1   5 -13   15.32    1.11
   1   5 -12    2.49    0.64
   1   5 -11    5.64    0.92
  -1  -5  11    5.32    0.96
  -1  -5  10   35.09    2.25
  -1  -5   9   87.98    3.48
  -1  -5   9   82.81    3.32
  -1  -5   8    3.52    0.82
   1   5  -8    4.49    0.93
   1   5  -7    6.17    1.04
   1   5  -6   74.93    3.33
   1   5  -5   64.98    2.96
   1   5  -4    4.63    0.86
   1   5  -3   16.45    1.51
   1   5  -2   29.27    1.97
   1   5  -1  179.86    4.92
   1   5   0  128.58    4.11
   1   5   0  127.98    4.29
   1   5   1  128.89    4.52
   1   5   1  127.83    4.46
   1   5   2   11.17    1.43
   1   5   3    8.27    1.03
   1   5   3    5.81    0.81
   1   5   4   48.48    2.40
   1   5   4   52.55    2.61
   1   5   5   32.89    2.05
   1   5   5   35.71    2.17
   1   5   6   30.51    1.86
   1   5   6   25.22    1.74
   1   5   7   -0.25    0.40
   1   5   7    0.06    0.28
   1   6 -13    0.83    0.34
  -1  -6  13    0.31    0.44
   1   6 -12    0.23    0.35
  -1  -6  12    0.50    0.56
   1   6 -11   30.74    1.99
   1   6 -10    7.36    1.05
   1   6  -9   46.59    2.43
  -1  -6   9   42.85    2.46
   1   6  -8   66.58    3.59
  -1  -6   8   64.16    3.26
  -1  -6   8   72.40    3.11
   1   6  -7   52.55    3.06
   1   6  -6    8.34    1.22
   1   6  -5    1.38    0.58
   1   6  -4   67.55    3.23
   1   6  -3   69.61    3.34
   1   6  -2   42.37    2.66
   1   6  -1   25.01    2.10
   1   6   0   38.40    2.59
   1   6   0   37.14    2.63
   1   6   1    1.82    0.62
   1   6   1    2.86    0.81
   1   6   2   -0.13    0.30
   1   6   3  265.68    5.53
   1   6   3  263.42    5.95
   1   6   4   25.84    1.78
   1   6   4   26.43    1.90
   1   6   5   11.04    1.17
   1   6   5   10.84    1.16
   1   6   6    6.21    0.75
   1   6   6    5.09    0.76
  -1  -7  13   23.41    1.41
  -1  -7  12   17.39    1.45
   1   7 -12   19.66    1.36
  -1  -7  11    3.24    0.78
   1   7 -11    3.55    0.72
  -1  -7  10    5.66    0.93
   1   7 -10    4.89    0.86
  -1  -7  10    4.12    0.91
  -1  -7   9    3.03    0.76
  -1  -7   9    2.65    0.75
  -1  -7   8   18.57    1.62
  -1  -7   8   19.47    1.70
  -1  -7   7   20.36    1.68
   1   7  -7   21.20    2.04
   1   7  -6   47.19    2.97
   1   7  -5   15.71    1.73
   1   7  -4    6.53    1.16
   1   7  -3   11.82    1.58
   1   7  -2  175.30    6.00
   1   7  -1   43.16    2.85
   1   7  -1   43.54    3.05
   1   7   0   49.36    2.64
   1   7   0   49.95    2.54
   1   7   1    5.27    0.92
   1   7   2   81.66    3.05
   1   7   2   76.07    3.27
   1   7   3    1.37    0.50
   1   7   3    0.77    0.47
   1   7   4   13.35    1.31
   1   7   4   13.29    1.22
   1   7   5   26.78    1.59
  -1  -8  13   -0.09    0.31
  -1  -8  12    8.33    1.00
  -1  -8  11    2.41    0.70
  -1  -8  10   11.63    1.28
  -1  -8  10   10.41    1.26
  -1  -8   9   21.70    1.79
  -1  -8   9   21.66    1.77
  -1  -8   8    8.29    1.16
  -1  -8   8    6.43    1.06
  -1  -8   7   13.38    1.38
  -1  -8   7   13.37    1.46
  -1  -8   6   74.02    3.26
  -1  -8   6   71.39    2.95
  -1  -8   5   48.32    2.64
  -1  -8   4   50.31    2.68
  -1  -8   3   10.38    1.28
  -1  -8   2   42.52    2.50
   1   8  -2   39.40    2.28
   1   8  -1   57.50    2.84
   1   8   0   43.53    2.51
   1   8   1   23.14    1.87
   1   8   2    2.46    0.72
   1   8   3    3.72    0.78
   1   8   4   19.79    1.38
  -1  -9  12    0.67    0.43
  -1  -9  11    7.60    0.96
  -1  -9  10    7.70    1.04
  -1  -9  10    7.30    1.04
  -1  -9   9   30.96    2.05
  -1  -9   9   30.50    2.09
  -1  -9   8   71.19    3.26
  -1  -9   8   76.22    3.21
  -1  -9   7    3.20    0.78
  -1  -9   7    2.75    0.76
  -1  -9   6   -0.02    0.57
  -1  -9   5  263.60    6.35
  -1  -9   4   18.00    1.73
  -1  -9   3    4.02    0.91
   1   9  -3    7.29    1.09
   1   9  -2    0.43    0.53
   1   9  -1   10.45    1.28
   1   9   0   10.43    1.27
   1   9   1    0.32    0.46
   1   9   2   11.74    1.18
   1   9   3    4.67    0.69
  -1 -10  12    0.41    0.30
  -1 -10  12    0.29    0.18
  -1 -10  11    3.33    0.51
  -1 -10  11    3.26    0.61
  -1 -10  10    8.18    0.99
  -1 -10  10    8.50    1.00
  -1 -10   9    0.00    0.39
  -1 -10   9    0.17    0.48
  -1 -10   8   22.75    1.72
  -1 -10   8   21.09    1.75
  -1 -10   7    6.54    1.11
  -1 -10   7    6.26    0.97
  -1 -10   6   19.07    1.78
  -1 -10   5    1.37    0.69
   1  10  -4    5.83    1.01
  -1 -10   4    5.11    0.98
   1  10  -3   14.37    1.48
   1  10  -2   48.16    2.56
   1  10  -1    5.99    0.98
   1  10   0    0.02    0.48
   1  10   1   24.30    1.57
   1  10   2    1.10    0.37
  -1 -11  11    9.80    0.82
  -1 -11  10    4.98    0.71
  -1 -11  10    5.89    0.73
  -1 -11   9   15.84    1.26
  -1 -11   9   15.83    1.33
  -1 -11   8    5.08    0.91
  -1 -11   7   11.29    1.27
   1  11  -6    1.47    0.54
  -1 -11   6    1.63    0.64
   1  11  -5    0.31    0.37
  -1 -11   5   -0.13    0.52
   1  11  -4    8.96    1.09
   1  11  -3    8.63    1.05
   1  11  -2   14.60    1.31
   1  11  -1   15.09    1.23
   1  11   0    0.74    0.41
  -1 -12   9    0.55    0.32
  -1 -12   8    0.81    0.44
   1  12  -7   17.08    1.14
   1  12  -6    7.40    0.84
   1  12  -5    1.57    0.47
  -1 -12   5    1.56    0.45
   1  12  -4   13.75    1.11
   1  12  -3    9.93    0.92
   1  12  -2    5.93    0.68
   2 -13   3    4.79    0.63
   2 -13   4    4.18    0.63
   2 -13   5    0.69    0.36
   2 -13   6    0.30    0.36
   2 -13   6    0.50    0.32
   2 -13   7   -0.13    0.25
   2 -13   7    0.10    0.32
   2 -12   0    5.83    0.65
   2 -12   1    0.27    0.37
   2 -12   2    9.96    1.08
   2 -12   3    7.90    1.00
   2 -12   4    0.01    0.38
   2 -12   4    0.77    0.47
   2 -12   5   -0.12    0.37
   2 -12   5   -0.12    0.53
   2 -12   6    1.71    0.56
   2 -12   7    3.18    0.73
   2 -12   8    0.98    0.34
   2 -12   8    0.07    0.39
   2 -12   9   10.35    0.90
  -2  11   2   11.54    0.95
  -2  11   1    1.94    0.53
   2 -11  -1    1.67    0.48
  -2  11   0   12.40    1.13
   2 -11   0   10.07    1.12
   2 -11   1   26.64    1.87
   2 -11   2    5.20    0.96
   2 -11   2    5.81    1.04
   2 -11   3    3.94    0.89
   2 -11   3    6.36    1.04
   2 -11   4   -0.07    0.58
   2 -11   5   12.43    1.41
   2 -11   6   13.00    1.45
   2 -11   7   -0.02    0.55
   2 -11   7   -0.39    0.29
   2 -11   8    1.43    0.64
   2 -11   8    2.13    0.48
   2 -11   9    5.76    0.70
   2 -11   9    4.20    0.72
   2 -11  10    7.38    0.69
   2 -11  10    8.00    0.82
  -2  10   4   16.27    1.14
  -2  10   3    4.64    0.77
  -2  10   2    7.59    1.00
   2 -10  -2    8.53    0.99
   2 -10  -1    3.56    0.76
  -2  10   1    3.95    0.77
  -2  10   0   13.41    1.33
   2 -10   0   12.72    1.38
   2 -10   1    0.02    0.53
   2 -10   1    0.19    0.51
   2 -10   2   45.23    2.65
   2 -10   2   43.04    2.58
   2 -10   3   -0.14    0.56
   2 -10   4   19.78    1.86
   2 -10   5   21.08    1.88
   2 -10   6   11.43    1.18
   2 -10   6    8.26    1.21
   2 -10   7   60.08    2.93
   2 -10   7   60.09    2.61
   2 -10   8   24.62    1.83
   2 -10   8   22.05    1.55
   2 -10   9    1.31    0.47
   2 -10   9    1.98    0.67
   2 -10  10   -0.27    0.46
   2 -10  10    0.22    0.27
   2 -10  11   11.09    0.82
   2 -10  11   10.88    0.87
  -2   9   5    2.92    0.60
  -2   9   4    0.37    0.43
   2  -9  -3   18.75    1.47
  -2   9   3   16.27    1.49
  -2   9   2    3.81    0.80
   2  -9  -2    3.37    0.71
   2  -9  -1    2.81    0.71
  -2   9   1    3.65    0.81
  -2   9   0    4.48    0.82
   2  -9   0    5.14    1.03
   2  -9   0    3.39    0.84
   2  -9   1   22.57    1.86
   2  -9   1   23.63    1.95
   2  -9   2   -0.22    0.54
   2  -9   3  146.31    4.74
   2  -9   4  187.70    5.38
   2  -9   5    5.52    0.87
   2  -9   5    5.98    1.06
   2  -9   6    3.65    0.90
   2  -9   6    3.12    0.66
   2  -9   7    1.21    0.67
   2  -9   7    0.48    0.42
   2  -9   8   72.76    2.92
   2  -9   8   67.54    3.09
   2  -9   9    7.97    1.08
   2  -9   9    6.00    0.89
   2  -9  10   33.00    1.92
   2  -9  10   31.96    1.75
   2  -9  11   10.37    0.93
   2  -9  11   11.24    0.92
  -2   8   6    3.65    0.72
  -2   8   5    0.74    0.57
  -2   8   4   12.90    1.42
  -2   8   3    0.68    0.44
   2  -8  -3    0.78    0.46
   2  -8  -2   29.41    1.99
  -2   8   2   31.91    2.14
   2  -8  -1   23.89    1.81
  -2   8   1   21.08    1.70
   2  -8   0   63.21    2.88
   2  -8   0   61.74    2.92
  -2   8  -1   27.17    2.24
   2  -8   1   26.03    1.93
  -2   8  -1   27.57    2.49
  -2   8  -2    0.97    0.64
  -2   8  -2    1.75    0.74
   2  -8   3  362.80    7.90
   2  -8   3  331.84    6.79
   2  -8   4  109.93    3.94
   2  -8   4  107.43    4.46
   2  -8   5   43.95    2.29
   2  -8   5   41.02    2.43
   2  -8   6    4.59    0.84
   2  -8   6    4.38    0.90
   2  -8   7    7.45    1.11
   2  -8   8   47.31    2.58
   2  -8   9    0.57    0.48
   2  -8   9    1.44    0.54
   2  -8  10    1.72    0.53
   2  -8  10    1.52    0.54
   2  -8  11    5.31    0.67
   2  -8  11    6.84    0.81
  -2   7   7    0.34    0.43
  -2   7   6   32.99    2.07
  -2   7   5   53.62    2.73
  -2   7   4    2.64    0.76
   2  -7  -4    2.30    0.59
  -2   7   3    1.46    0.62
   2  -7  -3    1.50    0.52
  -2   7   2    3.67    0.75
   2  -7  -2    3.14    0.62
  -2   7   1   25.84    2.41
  -2   7   1   23.38    1.97
  -2   7   0    3.73    0.90
  -2   7   0    3.34    0.87
  -2   7  -1    0.86    0.48
  -2   7  -1    0.55    0.53
  -2   7  -2   59.88    3.17
   2  -7   3    2.83    0.85
  -2   7  -3    3.59    0.78
   2  -7   4   64.60    3.33
   2  -7   5   50.12    3.01
   2  -7   6   15.20    1.48
   2  -7   7   -0.15    0.47
   2  -7   8    0.32    0.55
   2  -7   9    0.42    0.48
   2  -7  10   33.50    1.89
   2  -7  10   30.44    1.95
   2  -7  11    0.64    0.38
   2  -7  11    1.60    0.42
  -2   6   8    7.01    0.93
  -2   6   7   35.70    2.18
  -2   6   6    5.83    0.98
  -2   6   5    2.45    0.73
   2  -6  -4  212.95    4.96
  -2   6   4  207.82    5.24
  -2   6   3    1.29    0.61
  -2   6   3    1.77    0.74
  -2   6   2   -0.04    0.43
  -2   6   2    0.36    0.48
  -2   6   1    4.33    0.87
  -2   6   1    3.72    0.91
  -2   6   0   51.28    2.64
  -2   6   0   57.50    2.98
  -2   6  -1    2.83    0.76
  -2   6  -1    3.29    0.75
  -2   6  -2  282.37    6.03
   2  -6   3    7.49    1.12
  -2   6  -3    7.57    1.02
   2  -6   4    1.25    0.67
   2  -6   5   28.09    2.23
   2  -6   6    1.03    0.64
   2  -6   7   35.29    2.24
   2  -6   8    9.97    1.26
   2  -6   9    0.37    0.47
   2  -6  10   32.34    1.90
   2  -6  10   30.55    1.97
   2  -6  11    9.37    0.86
   2  -6  11   11.09    1.05
  -2   5   9    3.95    0.67
  -2   5   8   16.58    1.47
  -2   5   7    7.22    1.04
  -2   5   6   13.87    1.44
  -2   5   5  116.13    3.88
   2  -5  -5  119.88    3.66
  -2   5   4   34.62    2.43
  -2   5   3   94.77    3.69
  -2   5   2   26.87    1.86
  -2   5   2   26.59    2.03
  -2   5   1  391.42    7.11
  -2   5   1  378.40    5.56
  -2   5   0  729.34    9.42
  -2   5   0  712.16    8.80
  -2   5  -1   64.66    2.60
  -2   5  -2  219.41    4.59
   2  -5   2  197.56    4.56
   2  -5   3   59.98    2.71
   2  -5   4   13.67    1.44
   2  -5   5   97.51    3.88
   2  -5   5   96.35    3.84
   2  -5   6   35.35    2.49
   2  -5   6   34.16    2.51
   2  -5   7   30.75    1.85
   2  -5   8    0.82    0.47
   2  -5   8    1.60    0.60
   2  -5   9   26.69    1.77
   2  -5   9   25.74    1.92
   2  -5   9   25.25    1.86
   2  -5  10    1.04    0.50
   2  -5  10    2.08    0.63
   2  -5  11    4.59    0.68
   2  -5  11    3.62    0.65
  -2   4  10    6.31    0.76
  -2   4   9    5.47    0.87
  -2   4   8    5.28    0.91
  -2   4   7   10.47    1.24
  -2   4   6  102.91    3.66
  -2   4   5    5.20    1.03
  -2   4   4   27.55    2.04
  -2   4   3   92.12    3.32
  -2   4   2  318.44    5.70
  -2   4   2  352.68    4.92
   2  -4  -1  283.47    3.39
  -2   4   1  285.93    4.04
   2  -4   0  197.64    2.92
   2  -4   0  202.12    3.39
  -2   4   0  199.08    4.18
  -2   4   0  203.25    4.20
  -2   4  -1   90.73    2.61
   2  -4   1   89.28    2.20
   2  -4   1   91.08    2.54
  -2   4  -2    0.80    0.32
   2  -4   2    1.03    0.48
   2  -4   3   14.16    1.33
   2  -4   3   12.35    1.20
   2  -4   4  624.18    8.96
   2  -4   4  615.13    8.52
   2  -4   5   16.78    1.60
   2  -4   5   18.66    1.71
   2  -4   6   27.17    2.13
   2  -4   6   28.83    2.27
   2  -4   7   66.99    2.87
   2  -4   8   12.99    1.42
   2  -4   9   32.68    2.02
   2  -4   9   30.20    2.04
   2  -4  10   14.57    1.32
   2  -4  10   12.87    1.33
   2  -4  10   12.58    1.20
   2  -4  11   13.26    1.15
  -2   3  10    0.61    0.40
  -2   3   9   28.81    1.97
  -2   3   8   18.95    1.67
  -2   3   7  102.03    3.66
  -2   3   6    1.94    0.82
  -2   3   5  125.15    4.32
  -2   3   4   76.61    3.09
  -2   3   4   77.67    2.67
  -2   3   3    6.13    0.88
   2  -3  -2  110.14    2.22
  -2   3   2  106.16    3.01
   2  -3  -1   40.21    1.06
  -2   3   1   37.55    1.68
  -2   3   1   39.40    1.16
  -2   3   0   59.53    1.87
   2  -3   0   56.28    1.57
  -2   3  -1  404.13    4.29
   2  -3   1  406.69    4.71
   2  -3   2   24.36    1.55
  -2   3  -2   24.38    0.93
   2  -3   3  272.65    4.89
   2  -3   3  272.74    5.36
   2  -3   4   61.68    2.59
   2  -3   4   60.25    2.78
   2  -3   5   22.96    1.77
   2  -3   5   24.99    1.97
   2  -3   6   24.28    2.14
   2  -3   6   24.92    1.97
   2  -3   7   67.66    2.76
   2  -3   7   68.41    2.94
   2  -3   8   53.08    2.74
   2  -3   8   57.16    2.69
   2  -3   9   18.41    1.68
   2  -3  10    7.24    1.03
   2  -3  10    8.06    0.98
   2  -3  11    0.08    0.25
   2  -3  11    0.22    0.36
  -2   2  11    9.76    0.86
  -2   2  11    7.91    0.84
  -2   2  10   15.59    1.41
  -2   2   9   17.85    1.64
  -2   2   8   78.22    3.27
  -2   2   7  181.26    4.67
  -2   2   6   83.46    3.69
  -2   2   5   22.45    1.76
  -2   2   5   22.73    1.54
  -2   2   4  220.50    4.85
  -2   2   4  239.70    4.18
  -2   2   3   80.21    2.62
  -2   2   3   87.97    2.05
  -2   2   2    2.83    0.54
   2  -2  -1  154.63    1.95
  -2   2   1  154.42    2.98
   2  -2   0 1243.15    6.67
   2  -2   1  322.58    4.80
  -2   2  -1  315.37    2.31
   2  -2   1  321.02    3.96
   2  -2   1  318.34    4.03
   2  -2   2    0.75    0.36
   2  -2   2    0.64    0.36
   2  -2   2    0.44    0.42
   2  -2   3   75.78    2.49
   2  -2   3   79.62    2.93
   2  -2   4  101.05    3.21
   2  -2   4  100.52    3.61
   2  -2   5  127.62    4.51
   2  -2   5  132.00    4.08
   2  -2   6   11.81    1.54
   2  -2   7   65.78    2.81
   2  -2   7   64.06    2.93
   2  -2   8  162.36    4.83
   2  -2   8  158.04    4.52
   2  -2   9    1.52    0.54
   2  -2   9    1.64    0.71
   2  -2  10    0.16    0.52
   2  -2  11    9.49    0.76
   2  -2  11    9.13    0.85
   2  -1 -12   28.20    1.30
  -2   1  11    0.52    0.39
  -2   1  11    0.44    0.32
  -2   1  10   10.18    1.17
  -2   1  10    8.47    1.14
  -2   1   9    7.51    1.05
  -2   1   9    6.78    1.09
  -2   1   8   -0.06    0.33
  -2   1   7   12.32    1.52
  -2   1   6   18.31    1.72
  -2   1   5   62.20    2.70
  -2   1   4  696.02    8.02
   2  -1  -4  695.06    8.12
  -2   1   3    5.42    0.71
   2  -1  -3    5.71    0.72
  -2   1   2  171.11    3.04
   2  -1  -2  172.78    3.00
  -2   1   1 3580.73   12.40
   2  -1  -1 3560.87   10.87
   2  -1   0 1991.04    8.84
   2  -1   1   81.14    2.35
   2  -1   1   86.30    2.11
   2  -1   1   83.20    2.12
   2  -1   2   15.60    1.24
   2  -1   2   12.88    0.97
   2  -1   2   15.61    1.05
   2  -1   2   16.36    1.07
   2  -1   3   89.19    2.92
   2  -1   3   90.71    2.76
   2  -1   3   93.06    3.24
   2  -1   4    0.71    0.60
   2  -1   5   29.43    2.30
   2  -1   6   24.87    2.33
   2  -1   7   28.91    2.03
   2  -1   7   28.03    1.90
   2  -1   8   20.54    1.68
   2  -1   8   20.42    1.81
   2  -1   9   15.05    1.38
   2  -1   9   19.21    1.68
   2  -1  10   13.29    1.21
  -2   0  11    2.94    0.71
  -2   0  11    2.56    0.69
  -2   0  10   28.22    2.03
  -2   0  10   28.98    2.00
  -2   0   9   24.73    1.88
  -2   0   9   26.43    1.92
  -2   0   8   27.81    1.84
  -2   0   8   31.42    2.47
  -2   0   7   54.05    2.94
   2   0  -6   29.27    2.02
  -2   0   5  660.13    8.23
   2   0  -5  665.39    8.41
   2   0  -4   79.15    2.59
   2   0  -4   79.00    1.42
  -2   0   4   76.16    2.49
   2   0  -3  405.70    5.07
  -2   0   3  410.04    5.00
   2   0  -2  142.37    2.56
  -2   0   2  142.54    2.45
   2   0  -2  142.19    2.08
   2   0  -1  915.20    5.10
  -2   0   1  925.80    5.08
   2   0  -1  913.77    4.14
   2   0   0 9999.00   20.55
   2   0   1   16.59    0.96
   2   0   1   14.50    0.48
   2   0   1   14.75    1.06
   2   0   1   14.93    0.93
   2   0   1   15.27    0.95
   2   0   2   23.22    1.52
   2   0   2   23.20    1.39
   2   0   2   23.20    1.24
   2   0   3  149.74    4.29
   2   0   3  153.38    4.10
   2   0   3  153.27    3.41
   2   0   4    5.09    1.01
   2   0   4    4.46    0.95
   2   0   5    4.53    1.08
   2   0   6  102.78    3.57
   2   0   6   97.16    3.70
   2   0   6   96.79    3.41
   2   0   7    6.94    1.03
   2   0   7    6.71    1.09
   2   0   8    1.59    0.57
   2   0   8    1.24    0.65
   2   0   9    9.61    1.10
   2   0   9   11.21    1.28
   2   0  10    0.69    0.39
   2   1 -13    7.67    0.68
  -2  -1  12   14.90    1.26
  -2  -1  11   24.90    1.83
  -2  -1  10    1.46    0.57
  -2  -1  10    2.32    0.69
  -2  -1   9   27.42    1.94
  -2  -1   9   26.73    1.89
   2   1  -8  136.34    5.10
  -2  -1   8  138.65    4.90
   2   1  -7   64.95    3.19
  -2  -1   7   66.87    3.01
   2   1  -6    1.09    0.57
  -2  -1   6    1.37    0.51
   2   1  -5  102.33    3.26
   2   1  -4  144.40    3.49
  -2  -1   4  145.19    3.21
  -2  -1   3   87.13    2.13
   2   1  -3   81.69    1.50
   2   1  -3   83.03    2.35
  -2  -1   2 1843.98    7.84
   2   1  -2 1831.05    9.83
  -2  -1   1  939.68    3.80
   2   1  -1  948.92    6.25
   2   1  -1  931.75    6.47
   2   1   0   85.07    1.92
   2   1   0   79.76    2.12
   2   1   0   83.27    1.99
   2   1   0   83.99    2.01
   2   1   0   77.99    1.98
   2   1   1   12.81    1.04
   2   1   1   14.43    0.88
   2   1   1   14.56    0.92
   2   1   1   12.64    0.90
   2   1   2   31.43    1.89
   2   1   2   31.67    1.54
   2   1   3  157.47    4.67
   2   1   3  158.70    3.67
   2   1   3  152.37    4.45
   2   1   4    1.10    0.64
   2   1   4    2.39    0.86
   2   1   5   31.84    2.66
   2   1   5   32.26    2.68
   2   1   6   43.88    2.42
   2   1   6   46.45    2.63
   2   1   6   46.73    2.49
   2   1   7   45.33    2.56
   2   1   7   41.73    2.39
   2   1   8    4.55    0.83
   2   1   8    4.16    0.93
   2   1   9    6.95    0.95
   2   1   9    6.70    0.85
   2   2 -13   13.96    1.05
  -2  -2  12   13.12    1.26
  -2  -2  11    2.18    0.72
  -2  -2  11    3.76    0.85
  -2  -2  10    7.04    1.04
  -2  -2   9  165.57    4.63
  -2  -2   9  175.46    4.69
   2   2  -8    2.96    0.80
   2   2  -7    0.11    0.38
  -2  -2   7    0.18    0.30
   2   2  -6   39.67    2.29
  -2  -2   6   39.46    1.86
  -2  -2   5   11.74    0.86
   2   2  -5   11.46    1.17
  -2  -2   4   32.69    1.06
   2   2  -4   30.13    0.97
   2   2  -4   29.83    1.67
   2   2  -3   12.84    1.07
  -2  -2   3    9.65    0.34
   2   2  -2   81.13    2.43
   2   2  -1   49.57    1.47
   2   2  -1   46.17    1.87
   2   2   0   15.87    1.14
   2   2   0   16.36    1.13
   2   2   0   17.30    0.89
   2   2   0   15.62    0.97
   2   2   1   70.96    2.40
   2   2   1   73.33    2.66
   2   2   1   67.50    2.47
   2   2   1   70.53    2.12
   2   2   2  235.01    5.38
   2   2   2  238.11    4.54
   2   2   3    0.54    0.36
   2   2   3    0.42    0.60
   2   2   3    0.64    0.53
   2   2   4   55.70    3.37
   2   2   4   64.67    3.58
   2   2   5   42.40    2.39
   2   2   5   44.83    2.32
   2   2   6   15.09    1.48
   2   2   6   17.49    1.69
   2   2   6   15.09    1.51
   2   2   7    0.37    0.49
   2   2   7    1.38    0.68
   2   2   8   24.37    1.64
   2   2   8   24.05    1.74
   2   2   9    1.80    0.52
   2   2   9    1.32    0.37
   2   3 -13   -0.22    0.34
   2   3 -12    4.28    0.83
  -2  -3  11    0.05    0.44
  -2  -3  11    0.60    0.54
  -2  -3  10    0.05    0.56
  -2  -3  10   -0.08    0.47
  -2  -3   9   54.62    2.65
   2   3  -8  292.71    7.41
   2   3  -7   73.94    3.45
   2   3  -6   30.70    2.07
   2   3  -5  185.30    4.66
   2   3  -4  148.07    3.96
   2   3  -3   37.14    1.94
   2   3  -2  106.39    3.24
   2   3  -1    1.32    0.27
   2   3  -1    1.04    0.46
   2   3   0   24.66    1.30
   2   3   0   24.02    1.56
   2   3   0   27.18    1.70
   2   3   1   22.29    1.54
   2   3   1   26.49    1.40
   2   3   1   28.11    1.88
   2   3   1   27.70    1.74
   2   3   2    0.71    0.41
   2   3   3   67.89    3.53
   2   3   3   64.05    2.74
   2   3   4   19.58    1.49
   2   3   5    9.79    1.17
   2   3   6   23.53    1.84
   2   3   6   22.08    1.76
   2   3   7    5.09    0.83
   2   3   7    4.52    0.92
   2   3   8    4.70    0.77
   2   3   8    3.53    0.62
   2   4 -13    0.31    0.33
   2   4 -12   20.95    1.65
  -2  -4  12   19.31    1.57
   2   4 -11    8.43    1.13
  -2  -4  11    8.74    1.18
  -2  -4  10  114.67    3.94
  -2  -4  10  118.38    4.15
  -2  -4   9  157.12    4.66
  -2  -4   9  157.89    4.53
   2   4  -8   39.80    2.77
   2   4  -7    7.80    1.19
   2   4  -6  112.65    4.07
   2   4  -5  365.99    6.98
   2   4  -4  326.49    6.35
   2   4  -3   66.23    2.86
   2   4  -2  339.65    6.52
   2   4  -1  131.93    3.79
   2   4  -1  132.96    4.09
   2   4   0    0.76    0.48
   2   4   0    0.36    0.30
   2   4   0    1.03    0.45
   2   4   1  159.27    4.89
   2   4   1  161.07    4.75
   2   4   2   27.44    1.89
   2   4   3    4.93    0.79
   2   4   3    3.49    0.78
   2   4   3    4.28    0.86
   2   4   4    3.08    0.67
   2   4   5   12.82    1.36
   2   4   5   10.71    1.24
   2   4   6   10.58    1.19
   2   4   6    9.10    1.16
   2   4   7    9.64    1.06
   2   4   7    8.27    0.89
  -2  -5  13   10.12    1.04
   2   5 -13   11.15    1.07
   2   5 -12   20.70    1.64
  -2  -5  12   22.88    1.70
   2   5 -11    7.94    1.12
  -2  -5  11    6.98    1.06
  -2  -5  10   62.57    3.08
   2   5 -10   66.29    3.03
   2   5  -9   18.13    1.58
  -2  -5   9   18.80    1.69
   2   5  -8  114.67    4.75
   2   5  -7   45.64    2.84
   2   5  -6   86.32    3.72
   2   5  -5   55.40    2.91
   2   5  -4    6.26    0.99
   2   5  -3    2.89    0.78
   2   5  -2    4.81    0.94
   2   5  -1   66.25    3.07
   2   5  -1   63.60    3.19
   2   5   0  239.08    4.81
   2   5   0  245.07    6.31
   2   5   0  239.23    6.26
   2   5   1    0.42    0.53
   2   5   2    2.05    0.56
   2   5   2    0.78    0.46
   2   5   3   57.29    2.67
   2   5   3   48.47    2.46
   2   5   4   18.11    1.54
   2   5   5    0.23    0.51
   2   5   5    0.01    0.31
   2   5   6    5.18    0.85
   2   5   6    5.97    0.77
   2   6 -13   36.15    1.80
  -2  -6  13   33.42    1.74
   2   6 -12    1.87    0.58
  -2  -6  12    1.23    0.52
  -2  -6  12    1.39    0.62
   2   6 -11    2.68    0.71
  -2  -6  11    2.56    0.76
   2   6 -10   14.88    1.47
  -2  -6  10   15.78    1.57
   2   6  -9    6.58    0.98
  -2  -6   9    5.62    0.96
  -2  -6   8   10.55    1.27
  -2  -6   8    8.76    1.06
   2   6  -8   11.49    1.23
   2   6  -7   20.34    1.99
   2   6  -6    6.69    1.10
   2   6  -5   18.10    1.80
   2   6  -4  129.34    4.73
   2   6  -3   28.36    2.32
   2   6  -2    7.93    1.28
   2   6  -1  171.95    5.74
   2   6  -1  172.05    4.52
   2   6  -1  178.18    5.59
   2   6   0    2.15    0.64
   2   6   0    2.35    0.61
   2   6   0    1.94    0.70
   2   6   1    1.20    0.51
   2   6   1    0.30    0.37
   2   6   2   56.00    2.72
   2   6   2   58.37    2.69
   2   6   3   19.33    1.59
   2   6   3   20.12    1.60
   2   6   4   19.96    1.56
   2   6   5    0.90    0.48
  -2  -7  13    5.47    0.72
   2   7 -12    2.65    0.60
  -2  -7  12    2.99    0.70
  -2  -7  12    1.31    0.52
   2   7 -11   13.64    1.32
  -2  -7  11   13.14    1.38
  -2  -7  11   12.52    1.30
   2   7 -10   17.15    1.53
  -2  -7  10   14.60    1.52
  -2  -7  10   16.90    1.56
  -2  -7   9  105.35    4.00
  -2  -7   9  112.87    3.82
   2   7  -9  114.59    3.87
  -2  -7   8   18.97    1.74
  -2  -7   7   18.72    1.69
   2   7  -6   40.29    2.85
  -2  -7   6   45.00    2.52
   2   7  -5    0.34    0.38
   2   7  -4   79.25    4.05
   2   7  -3   79.62    4.13
   2   7  -2   27.55    1.93
  -2  -7   2   31.42    2.04
   2   7  -2   27.35    2.48
   2   7  -1   15.66    1.49
   2   7  -1   18.21    1.65
   2   7   0   18.78    1.65
   2   7   0   21.03    1.83
   2   7   1    0.33    0.52
   2   7   2    9.83    1.20
   2   7   2    9.94    1.14
   2   7   3    2.85    0.66
   2   7   3    2.77    0.66
   2   7   4   11.01    1.06
  -2  -8  13    5.57    0.65
  -2  -8  12   18.44    1.40
  -2  -8  12   17.43    1.30
  -2  -8  11    1.34    0.61
  -2  -8  11    0.28    0.36
  -2  -8  10   13.19    1.33
  -2  -8  10   12.52    1.41
  -2  -8   9   10.33    1.31
  -2  -8   8   95.42    3.87
  -2  -8   7   15.85    1.60
  -2  -8   6    1.23    0.72
  -2  -8   5  100.65    3.89
  -2  -8   4   42.18    2.52
   2   8  -3   32.95    2.12
  -2  -8   3   31.84    2.19
   2   8  -2    1.26    0.60
   2   8  -2    1.18    0.58
  -2  -8   2    1.17    0.55
   2   8  -1    4.63    0.94
   2   8  -1    4.23    0.87
   2   8   0   -0.02    0.42
   2   8   1    6.41    1.00
   2   8   1    6.47    0.91
   2   8   2    0.83    0.47
   2   8   2    0.37    0.37
   2   8   3   30.14    1.59
   2   8   3   29.92    1.55
  -2  -9  12   -0.10    0.32
  -2  -9  12    0.88    0.35
  -2  -9  11   32.47    1.77
  -2  -9  11   34.13    1.97
  -2  -9  10    8.22    1.12
  -2  -9   9   18.00    1.67
  -2  -9   8   24.11    1.98
  -2  -9   7   -0.08    0.55
  -2  -9   6   37.80    2.47
  -2  -9   5   66.25    3.23
  -2  -9   4   99.65    3.88
   2   9  -3    0.18    0.49
  -2  -9   3   -0.27    0.54
   2   9  -2   24.32    1.88
   2   9  -1    0.33    0.45
   2   9   0    4.67    0.84
   2   9   0    4.47    0.73
   2   9   1    2.49    0.61
   2   9   1    2.11    0.50
   2   9   2    2.93    0.53
  -2 -10  12    9.84    0.79
  -2 -10  11   -0.42    0.42
  -2 -10  10    1.08    0.59
  -2 -10   9   19.64    1.67
  -2 -10   8    9.40    1.25
  -2 -10   7   24.07    1.92
  -2 -10   6   24.54    1.95
  -2 -10   5   59.72    2.98
   2  10  -4    0.26    0.48
  -2 -10   4   -0.18    0.60
   2  10  -3   28.54    1.97
   2  10  -2    7.59    1.06
   2  10  -1    8.03    1.01
   2  10   0    5.80    0.80
   2  10   1    3.42    0.51
  -2 -11  11    1.55    0.40
  -2 -11  10    8.12    0.91
  -2 -11   9    1.25    0.52
  -2 -11   8    1.39    0.62
  -2 -11   7    0.97    0.61
   2  11  -6    0.00    0.40
  -2 -11   6   -0.06    0.50
   2  11  -5   -0.26    0.52
   2  11  -4    2.15    0.63
   2  11  -3   15.95    1.33
   2  11  -2   25.74    1.52
   2  11  -1   -0.05    0.29
  -2 -12   9    2.29    0.51
   2  12  -8    7.41    0.72
   2  12  -7    3.10    0.56
   2  12  -6   -0.25    0.32
   2  12  -5    0.42    0.33
   2  12  -4    2.76    0.50
   2  12  -3    0.52    0.26
   3 -13   2    0.35    0.24
   3 -13   3   19.86    1.16
   3 -13   4    2.69    0.48
   3 -13   5    8.38    0.76
   3 -13   6    0.98    0.35
   3 -12   0    4.20    0.63
   3 -12   1   26.73    1.62
   3 -12   2   20.92    1.50
   3 -12   3    5.15    0.87
   3 -12   3    5.69    0.86
   3 -12   4   11.52    1.22
   3 -12   4    9.97    1.07
   3 -12   5    2.27    0.65
   3 -12   5    1.64    0.51
   3 -12   6   -0.04    0.39
   3 -12   6    0.19    0.35
   3 -12   7    0.46    0.38
   3 -12   8    0.89    0.38
   3 -11  -2    0.30    0.28
   3 -11  -1    5.67    0.82
   3 -11   0   -0.36    0.54
   3 -11   1   16.40    1.52
   3 -11   2   20.07    1.73
   3 -11   2   17.60    1.63
   3 -11   3    1.41    0.67
   3 -11   3    1.44    0.60
   3 -11   4    0.65    0.58
   3 -11   4    0.44    0.44
   3 -11   5   16.13    1.53
   3 -11   5   15.17    1.40
   3 -11   6    7.14    0.93
   3 -11   6    6.96    1.04
   3 -11   6    5.34    0.75
   3 -11   7    2.38    0.69
   3 -11   7    2.25    0.52
   3 -11   8   35.58    1.85
   3 -11   8   35.15    1.67
   3 -11   9    0.44    0.31
   3 -11   9    0.73    0.29
  -3  10   4    0.26    0.27
  -3  10   3    9.37    0.99
   3 -10  -3   10.53    1.06
  -3  10   2   13.06    1.19
   3 -10  -2   13.12    1.30
   3 -10  -1    6.93    1.06
   3 -10   0   40.31    2.46
   3 -10   1    7.99    1.24
   3 -10   1    7.09    1.15
   3 -10   2   -0.03    0.56
   3 -10   2    1.20    0.62
   3 -10   3    7.97    1.24
   3 -10   3    7.71    1.19
   3 -10   4    2.79    0.87
   3 -10   4    1.88    0.57
   3 -10   5   19.34    1.77
   3 -10   5   23.49    1.69
   3 -10   6    1.24    0.64
   3 -10   6    0.87    0.45
   3 -10   7   -0.22    0.40
   3 -10   7   -0.54    0.59
   3 -10   8   27.70    1.80
   3 -10   8   23.61    1.57
   3 -10   9   21.18    1.42
   3 -10   9   21.60    1.35
   3 -10  10    0.13    0.25
  -3   9   5    0.44    0.38
  -3   9   4    4.49    0.77
   3  -9  -4    5.60    0.81
  -3   9   3   10.63    1.17
   3  -9  -3   11.78    1.25
  -3   9   2    5.62    0.89
   3  -9  -2    5.32    0.92
   3  -9  -1    0.31    0.47
   3  -9   0   67.99    3.22
   3  -9   0   72.10    3.29
   3  -9   1   35.71    2.38
   3  -9   1   36.10    2.40
   3  -9   2   15.86    1.63
   3  -9   3   21.12    1.65
   3  -9   3   18.68    1.77
   3  -9   4  106.03    4.09
   3  -9   4  112.06    3.79
   3  -9   5   31.10    2.22
   3  -9   5   32.12    2.07
   3  -9   6    4.29    0.93
   3  -9   6    4.09    0.80
   3  -9   7   13.35    1.42
   3  -9   7   12.74    1.32
   3  -9   8    3.46    0.75
   3  -9   8    4.30    0.86
   3  -9   9    0.13    0.39
   3  -9   9   -0.30    0.37
   3  -9  10    5.38    0.70
   3  -9  10    5.81    0.70
  -3   8   7    0.16    0.29
  -3   8   6   17.78    1.43
  -3   8   5   30.20    1.99
   3  -8  -5   31.23    1.84
  -3   8   4    0.27    0.41
   3  -8  -4   -0.14    0.40
  -3   8   3    1.52    0.59
   3  -8  -3    1.66    0.59
  -3   8   2   14.43    1.37
   3  -8  -2   15.35    1.50
   3  -8  -1    0.78    0.43
   3  -8  -1    0.91    0.57
   3  -8   0    3.06    0.72
   3  -8   0    3.06    0.77
   3  -8   1    1.26    0.53
   3  -8   1    2.58    0.65
   3  -8   2   25.49    1.96
   3  -8   2   26.70    1.80
   3  -8   3   87.44    3.59
   3  -8   3   88.10    3.32
   3  -8   4    0.61    0.58
   3  -8   4    1.66    0.58
   3  -8   5   30.82    2.16
   3  -8   5   26.93    1.92
   3  -8   6   11.84    1.37
   3  -8   6   11.39    1.28
   3  -8   7   -0.09    0.41
   3  -8   7   -1.80    0.67
   3  -8   8    0.10    0.52
   3  -8   8    1.37    0.54
   3  -8   9    4.46    0.77
   3  -8   9    3.71    0.75
   3  -8  10    1.24    0.42
   3  -8  10    1.83    0.46
  -3   7   8    4.39    0.64
  -3   7   7   31.56    1.90
  -3   7   6   22.63    1.76
   3  -7  -6   20.79    1.50
  -3   7   5    0.99    0.58
   3  -7  -5    1.30    0.51
  -3   7   4   24.13    1.86
   3  -7  -4   23.29    1.76
  -3   7   3   50.26    2.54
   3  -7  -3   53.44    2.63
   3  -7  -2   10.58    1.18
  -3   7   1   16.80    1.79
  -3   7   1   18.96    2.06
   3  -7  -1   17.48    1.48
  -3   7   0    8.00    1.26
  -3   7   0    8.23    1.30
  -3   7  -1   86.73    3.96
  -3   7  -2   52.93    3.19
   3  -7   3    7.06    1.18
   3  -7   4   75.42    3.75
   3  -7   4   79.95    3.15
   3  -7   5   11.33    1.29
   3  -7   5   11.26    1.26
   3  -7   6   -0.69    0.44
   3  -7   6    1.71    0.62
   3  -7   7    0.87    0.49
   3  -7   7    0.80    0.54
   3  -7   8   12.66    1.35
   3  -7   8   13.62    1.37
   3  -7   9    5.80    0.86
   3  -7   9    6.50    0.92
   3  -7  10    0.47    0.34
  -3   6   9    0.33    0.30
  -3   6   8   16.79    1.40
  -3   6   7    0.50    0.53
  -3   6   6   -0.24    0.44
   3  -6  -6    0.78    0.42
  -3   6   5    1.78    0.56
   3  -6  -5    1.14    0.49
  -3   6   4  337.16    6.51
   3  -6  -4  327.13    6.28
  -3   6   3   20.97    2.00
  -3   6   3   21.28    2.13
   3  -6  -3   19.80    1.52
  -3   6   2    3.60    0.90
  -3   6   2    4.06    0.98
  -3   6   1   35.53    2.38
  -3   6   1   38.14    2.55
  -3   6   0    2.63    0.69
  -3   6   0    2.51    0.75
  -3   6  -1   55.62    2.98
   3  -6   2    3.61    0.78
   3  -6   3    0.61    0.47
   3  -6   4   -0.19    0.55
   3  -6   5    9.31    1.12
   3  -6   6   50.79    2.43
   3  -6   6   46.80    2.53
   3  -6   7   32.07    2.12
   3  -6   7   32.35    1.99
   3  -6   7   32.07    2.11
   3  -6   8   -0.05    0.40
   3  -6   8    0.11    0.39
   3  -6   8   -0.11    0.45
   3  -6   9   30.30    1.77
   3  -6   9   30.84    1.88
   3  -6  10   16.17    1.14
  -3   5   9    1.44    0.51
  -3   5   8   -0.09    0.55
   3  -5  -7    4.13    0.75
  -3   5   7    3.53    0.83
  -3   5   6   64.61    3.03
   3  -5  -6   66.00    2.86
  -3   5   5  270.37    5.85
   3  -5  -5  259.86    5.55
  -3   5   4   43.22    2.80
  -3   5   3  111.33    4.15
  -3   5   2  403.48    7.45
  -3   5   1    5.50    0.94
  -3   5   1    4.87    0.86
  -3   5   0  124.60    4.02
  -3   5   0  131.96    3.90
   3  -5   1   24.59    1.50
   3  -5   1   27.39    1.54
   3  -5   2   31.92    1.90
   3  -5   3    2.34    0.70
   3  -5   4   11.16    1.39
   3  -5   5    1.75    0.66
   3  -5   5    1.61    0.74
   3  -5   6    8.03    1.02
   3  -5   7    3.42    0.74
   3  -5   8   26.78    1.84
   3  -5   8   28.63    1.92
   3  -5   9    0.24    0.37
   3  -5  10    2.82    0.55
  -3   4  10    0.45    0.37
  -3   4   9   17.52    1.54
  -3   4   8   51.46    2.70
  -3   4   7   13.05    1.43
   3  -4  -7   14.97    1.38
  -3   4   6    0.62    0.44
   3  -4  -6    0.32    0.40
  -3   4   5   19.29    1.92
  -3   4   4   25.01    2.02
  -3   4   3    0.71    0.56
  -3   4   2   89.34    3.24
   3  -4  -2   89.13    2.42
  -3   4   1  175.37    4.37
   3  -4  -1  172.99    3.36
  -3   4   0    1.75    0.63
   3  -4   0    0.77    0.33
  -3   4   0    0.32    0.29
   3  -4   0    1.35    0.42
   3  -4   1    4.22    0.68
   3  -4   1    3.02    0.55
   3  -4   2    0.40    0.38
   3  -4   3   71.85    2.92
   3  -4   4   70.09    3.18
   3  -4   4   72.52    3.55
   3  -4   5    8.64    1.26
   3  -4   5    8.52    1.30
   3  -4   6   -0.23    0.45
   3  -4   7   26.93    1.88
   3  -4   8    9.62    1.17
   3  -4   8   10.79    1.27
   3  -4   9    4.12    0.77
   3  -4   9    4.67    0.77
   3  -4  10   17.46    1.23
   3  -4  10   18.07    1.24
  -3   3  11    1.72    0.47
  -3   3  10   19.75    1.57
  -3   3   9    6.75    1.04
  -3   3   8    4.21    0.87
  -3   3   7  124.01    4.05
   3  -3  -7  133.00    3.96
  -3   3   6   79.45    3.84
  -3   3   5    4.13    0.99
  -3   3   4   10.75    1.30
  -3   3   3   13.83    1.31
   3  -3  -3   12.89    1.00
   3  -3  -2    4.74    0.62
  -3   3   2    4.81    0.78
  -3   3   1   80.99    2.71
   3  -3  -1   77.05    2.29
  -3   3   0    1.38    0.55
  -3   3   0    0.62    0.25
   3  -3   0    0.85    0.34
   3  -3   1   88.10    2.51
   3  -3   1   94.59    2.78
   3  -3   2   93.42    3.50
   3  -3   2   91.36    2.84
   3  -3   2   95.33    3.05
   3  -3   3    5.73    0.88
   3  -3   3    6.73    1.11
   3  -3   4   97.28    4.07
   3  -3   4   99.19    3.68
   3  -3   5   40.67    2.80
   3  -3   6   30.76    2.15
   3  -3   7   62.81    2.94
   3  -3   8   11.49    1.33
   3  -3   9    1.77    0.61
   3  -3   9    1.41    0.57
   3  -3  10    0.74    0.34
   3  -3  10    1.10    0.41
  -3   2  11    6.80    0.93
  -3   2  10   24.96    1.82
  -3   2   9    4.74    0.94
  -3   2   8   31.97    2.13
  -3   2   7    0.57    0.46
   3  -2  -7    1.55    0.48
  -3   2   6    0.47    0.55
  -3   2   5   93.36    3.63
  -3   2   4   67.10    2.80
  -3   2   3   38.96    1.96
  -3   2   2   41.52    1.85
   3  -2  -2   44.46    1.74
  -3   2   1  114.99    2.84
   3  -2  -1  109.24    2.70
  -3   2   0   63.84    2.12
   3  -2   0   61.41    1.92
   3  -2   0   61.78    2.09
   3  -2   1  143.89    3.90
   3  -2   1  152.25    3.51
   3  -2   1  147.11    3.28
   3  -2   2  361.48    6.71
   3  -2   2  353.70    5.62
   3  -2   2  362.69    5.90
   3  -2   3    4.29    0.96
   3  -2   4   36.64    2.59
   3  -2   5    4.33    1.06
   3  -2   6   41.36    2.29
   3  -2   6   39.93    2.47
   3  -2   6   45.67    2.43
   3  -2   7    8.55    1.15
   3  -2   7    9.62    1.27
   3  -2   8    5.62    1.01
   3  -2   9    1.90    0.58
   3  -2   9    3.68    0.82
   3  -2  10    2.39    0.48
   3  -2  10    3.46    0.55
  -3   1  12    3.81    0.61
   3  -1 -12    2.54    0.44
  -3   1  11   -0.43    0.43
  -3   1  10   13.53    1.43
  -3   1   9   92.33    3.63
  -3   1   8    0.13    0.34
  -3   1   7   10.69    1.46
  -3   1   6   11.82    1.41
  -3   1   5   24.51    1.77
   3  -1  -5   23.81    1.78
  -3   1   4   60.74    2.50
   3  -1  -4   60.21    2.50
  -3   1   3   91.39    2.73
   3  -1  -3   89.84    2.69
  -3   1   2   43.40    1.67
   3  -1  -2   45.32    1.69
  -3   1   1   49.91    1.68
   3  -1  -1   53.35    1.92
  -3   1   0    0.84    0.26
   3  -1   0    1.35    0.45
   3  -1   1   98.19    3.17
   3  -1   1  106.67    2.94
   3  -1   2   60.67    2.81
   3  -1   2   56.23    2.40
   3  -1   3   39.18    2.52
   3  -1   4   11.90    1.60
   3  -1   5   32.59    2.07
   3  -1   5   33.56    2.12
   3  -1   5   33.54    2.02
   3  -1   6    0.13    0.35
   3  -1   6    0.19    0.49
   3  -1   6    0.49    0.48
   3  -1   7    1.40    0.56
   3  -1   7    2.60    0.82
   3  -1   8   38.47    2.32
   3  -1   9   15.99    1.26
   3  -1   9   15.17    1.30
   3   0 -12    4.49    0.69
  -3   0  12    4.00    0.72
  -3   0  11   13.39    1.37
  -3   0  10   13.85    1.47
  -3   0   9    8.73    1.16
  -3   0   8   10.11    1.17
  -3   0   8   11.28    1.45
   3   0  -7  153.14    5.31
  -3   0   6    6.38    1.05
   3   0  -6    8.66    1.19
  -3   0   5  238.43    5.09
   3   0  -5  248.18    5.38
  -3   0   4  165.09    3.76
   3   0  -4  159.75    2.78
   3   0  -4  155.89    3.83
  -3   0   3    0.47    0.33
   3   0  -3    0.16    0.30
   3   0  -3    0.50    0.27
   3   0  -2  442.93    5.01
   3   0  -2  442.94    4.84
   3   0  -2  431.71    5.39
   3   0  -2  436.21    4.93
   3   0  -1 1034.96    8.22
   3   0  -1 1020.78    5.80
  -3   0   1 1039.62    6.19
   3   0   0   64.04    2.15
   3   0   0   64.11    2.12
   3   0   0   59.59    2.19
   3   0   1   63.38    2.63
   3   0   1   69.08    2.40
   3   0   1   65.08    2.37
   3   0   2   20.97    1.47
   3   0   2   23.51    1.64
   3   0   2   18.73    1.66
   3   0   3  118.81    4.14
   3   0   3  113.92    4.43
   3   0   4    7.09    1.33
   3   0   4    6.51    1.22
   3   0   5   36.40    2.18
   3   0   5   34.32    2.25
   3   0   5   38.90    2.21
   3   0   5   37.13    2.25
   3   0   6    6.51    1.08
   3   0   6    4.75    0.96
   3   0   6    4.47    1.01
   3   0   7    1.08    0.62
   3   0   7    1.36    0.70
   3   0   8    2.76    0.80
   3   0   9    0.53    0.34
   3   0   9    0.18    0.36
   3   1 -13    3.25    0.52
   3   1 -12    6.16    0.85
  -3  -1  12    6.41    0.93
  -3  -1  11    0.11    0.42
  -3  -1  10   27.86    1.91
  -3  -1  10   21.92    1.84
  -3  -1   9   35.84    2.13
  -3  -1   9   36.14    2.24
   3   1  -8   31.88    2.59
   3   1  -7    2.63    0.77
   3   1  -6  330.97    6.81
   3   1  -5  296.37    5.84
  -3  -1   5  291.91    5.34
   3   1  -5  289.85    4.08
  -3  -1   4    5.69    0.74
   3   1  -4    6.33    0.65
   3   1  -4    6.95    0.89
  -3  -1   3    8.68    0.73
   3   1  -3    7.48    0.72
   3   1  -3    9.90    0.75
   3   1  -3    8.38    0.87
  -3  -1   2   86.05    1.80
   3   1  -2   76.62    2.16
   3   1  -2   83.11    2.24
   3   1  -2   82.75    2.32
   3   1  -2   81.81    2.28
   3   1  -1   96.46    2.17
   3   1  -1   92.11    2.52
   3   1  -1   95.09    2.49
   3   1  -1  101.45    2.42
   3   1  -1   89.14    2.48
   3   1   0   97.68    2.75
   3   1   0   97.69    2.77
   3   1   0  100.15    2.70
   3   1   1   35.26    1.79
   3   1   1   35.60    1.82
   3   1   1   33.13    1.96
   3   1   2   23.26    1.60
   3   1   2   22.58    1.76
   3   1   2   19.61    1.75
   3   1   3   93.41    3.41
   3   1   3   87.07    4.00
   3   1   3   91.46    3.94
   3   1   4   21.64    1.57
   3   1   4   23.20    2.30
   3   1   4   22.84    1.79
   3   1   4   23.79    1.74
   3   1   4   24.33    1.72
   3   1   5   39.26    2.39
   3   1   5   32.96    2.39
   3   1   5   40.38    2.30
   3   1   5   36.69    2.29
   3   1   6   32.19    2.28
   3   1   6   32.26    2.17
   3   1   6   33.11    2.20
   3   1   7    4.96    0.89
   3   1   7    5.17    0.94
   3   1   8   11.99    1.21
   3   2 -13   -0.18    0.28
  -3  -2  13    0.07    0.31
   3   2 -12    0.53    0.46
  -3  -2  12    0.29    0.44
   3   2 -11   -0.04    0.46
  -3  -2  11    0.35    0.52
  -3  -2  10    5.73    0.94
  -3  -2   9    5.00    0.90
  -3  -2   9    4.99    0.86
   3   2  -8    1.91    0.68
   3   2  -7   93.77    4.00
   3   2  -6    0.96    0.34
   3   2  -6    0.63    0.44
   3   2  -5   54.92    2.59
   3   2  -4   63.57    1.91
   3   2  -4   63.43    2.58
   3   2  -3  408.75    5.05
   3   2  -3  407.00    5.43
   3   2  -2   44.23    1.80
   3   2  -2   39.25    1.73
   3   2  -2   42.83    1.92
   3   2  -2   38.21    1.62
   3   2  -1   15.72    1.18
   3   2  -1   13.10    1.05
   3   2  -1   14.03    0.99
   3   2  -1   13.02    1.05
   3   2   0   89.38    2.87
   3   2   0   94.83    2.85
   3   2   0   98.32    2.75
   3   2   0   96.84    3.10
   3   2   1  217.78    4.80
   3   2   2   16.26    1.66
   3   2   2   13.75    1.33
   3   2   3    9.53    1.52
   3   2   3    9.31    1.21
   3   2   4   27.47    1.87
   3   2   4   24.55    1.99
   3   2   4   25.94    1.89
   3   2   4   25.74    1.84
   3   2   5    5.41    0.98
   3   2   5    4.52    0.94
   3   2   5    4.53    0.85
   3   2   6    2.96    0.73
   3   2   6    3.95    0.91
   3   2   6    4.52    0.93
   3   2   7   32.97    1.99
   3   2   7   32.48    1.93
   3   2   8    1.15    0.48
   3   3 -13    0.52    0.40
  -3  -3  13    0.11    0.31
   3   3 -12   26.74    1.84
  -3  -3  12   28.47    1.94
   3   3 -11    0.35    0.42
  -3  -3  11    0.17    0.52
   3   3 -10   13.99    1.41
  -3  -3  10   15.88    1.62
   3   3  -9    1.13    0.45
   3   3  -8  115.37    4.84
   3   3  -7    1.41    0.56
   3   3  -6   27.81    2.08
   3   3  -5   14.04    1.42
   3   3  -4   30.54    1.97
   3   3  -4   31.78    1.56
   3   3  -3   89.97    3.27
   3   3  -3   90.25    2.61
   3   3  -2   37.79    1.84
   3   3  -2   39.90    1.67
   3   3  -2   37.93    2.11
   3   3  -1   42.94    2.14
   3   3  -1   40.47    1.93
   3   3  -1   44.24    2.34
   3   3  -1   45.27    2.24
   3   3   0    2.85    0.65
   3   3   0    3.19    0.64
   3   3   0    4.07    0.79
   3   3   1   12.07    1.27
   3   3   2   86.86    3.47
   3   3   2   94.23    4.21
   3   3   3   27.70    1.94
   3   3   3   27.37    2.00
   3   3   3   30.42    1.92
   3   3   4    2.71    0.70
   3   3   4    1.83    0.62
   3   3   4    2.22    0.64
   3   3   5   14.06    1.47
   3   3   5   14.97    1.49
   3   3   5   13.64    1.45
   3   3   6   17.10    1.54
   3   3   6   14.26    1.33
   3   3   7    0.46    0.43
   3   4 -13   10.42    1.06
  -3  -4  13   11.25    1.09
   3   4 -12    6.97    1.02
  -3  -4  12    6.69    1.07
   3   4 -11   22.11    1.76
  -3  -4  11   22.37    1.86
   3   4 -10    2.02    0.65
  -3  -4  10    1.69    0.71
   3   4  -9  122.71    3.96
  -3  -4   9  114.95    4.07
   3   4  -8   44.98    3.06
   3   4  -7    1.91    0.72
   3   4  -6  102.49    4.12
   3   4  -5   62.23    3.11
   3   4  -4    1.95    0.65
   3   4  -3    5.26    0.93
   3   4  -2   44.29    2.19
   3   4  -2   49.58    2.74
   3   4  -2   43.59    2.32
   3   4  -1   17.35    1.38
   3   4  -1   19.46    1.69
   3   4   0   82.59    3.38
   3   4   0   82.34    3.02
   3   4   0   84.45    3.62
   3   4   1   25.48    1.97
   3   4   2    0.70    0.49
   3   4   2    0.89    0.55
   3   4   3    3.22    0.77
   3   4   3    3.34    0.71
   3   4   3    4.22    0.96
   3   4   3    2.71    0.74
   3   4   4    4.47    0.90
   3   4   5    1.11    0.61
   3   4   5    0.83    0.46
   3   4   6    1.80    0.67
   3   4   6    1.31    0.39
   3   5 -13    1.95    0.55
  -3  -5  13    2.46    0.59
  -3  -5  13    1.91    0.51
   3   5 -12   12.32    1.27
  -3  -5  12   12.57    1.36
   3   5 -11    3.84    0.82
  -3  -5  11    1.25    0.65
   3   5 -10    0.92    0.50
  -3  -5  10   -0.10    0.52
   3   5  -9  102.67    3.71
  -3  -5   9   99.10    3.83
   3   5  -8   18.98    1.60
  -3  -5   8   17.50    1.60
   3   5  -7   96.91    4.32
   3   5  -6   13.32    1.58
   3   5  -5   38.99    2.65
   3   5  -4   27.61    2.22
   3   5  -3    1.80    0.68
   3   5  -2    0.78    0.57
   3   5  -2    0.90    0.50
   3   5  -2    0.86    0.45
   3   5  -1   87.31    3.87
   3   5  -1   80.17    3.15
   3   5   0   10.27    1.24
   3   5   1   35.84    2.34
   3   5   2   30.39    2.19
   3   5   2   29.76    1.96
   3   5   3    1.48    0.55
   3   5   4    3.69    0.77
   3   5   5   16.48    1.37
   3   5   6   11.58    0.94
  -3  -6  13   11.64    1.11
  -3  -6  13   11.20    0.97
   3   6 -12    4.81    0.81
  -3  -6  12    5.47    0.91
  -3  -6  12    3.66    0.68
   3   6 -11   23.68    1.79
  -3  -6  11   22.31    1.83
   3   6 -10   24.60    1.87
  -3  -6  10   24.21    2.00
   3   6  -9   13.11    1.38
  -3  -6   9   14.48    1.54
  -3  -6   8   41.91    2.51
  -3  -6   7   34.29    2.22
   3   6  -6   13.45    1.67
   3   6  -5   11.93    1.59
   3   6  -4    2.62    0.79
   3   6  -3   14.60    1.66
   3   6  -3   13.50    1.52
   3   6  -3    9.58    1.43
   3   6  -2  106.82    3.99
   3   6  -2  109.72    3.89
   3   6  -2  110.85    3.70
   3   6  -1   25.47    1.83
   3   6  -1   24.43    1.91
   3   6   0   -0.78    0.45
   3   6   0    0.53    0.53
   3   6   1    2.99    0.66
   3   6   1    2.29    0.77
   3   6   2   21.61    1.69
   3   6   3   77.79    3.00
   3   6   4    4.47    0.75
   3   6   5   10.81    0.89
  -3  -7  13    8.30    0.88
  -3  -7  12   14.48    1.37
  -3  -7  11    0.43    0.59
  -3  -7  10    2.39    0.84
  -3  -7   9    0.38    0.56
  -3  -7   8    1.81    0.73
  -3  -7   7    8.27    1.18
  -3  -7   6    2.04    0.70
   3   7  -5    9.77    1.15
  -3  -7   5   10.17    1.26
   3   7  -4    6.54    0.97
   3   7  -4    7.16    0.99
  -3  -7   4    8.07    1.12
   3   7  -3   14.21    1.48
   3   7  -3   17.12    1.50
  -3  -7   3   15.35    1.44
   3   7  -2   47.51    2.67
   3   7  -1   48.15    2.63
   3   7  -1   49.38    2.73
   3   7   0   37.08    2.25
   3   7   0   34.36    2.31
   3   7   1   25.54    1.78
   3   7   1   23.82    1.74
   3   7   2   33.59    1.93
   3   7   3    6.43    0.85
  -3  -8  13    2.72    0.51
  -3  -8  12   -0.05    0.45
  -3  -8  11    0.39    0.48
  -3  -8  10   15.62    1.53
  -3  -8   9   35.28    2.35
  -3  -8   8   10.00    1.38
   3   8  -7   13.99    1.37
  -3  -8   7   13.53    1.51
   3   8  -6  137.80    4.21
  -3  -8   6  129.81    4.41
   3   8  -5    1.92    0.60
  -3  -8   5    1.38    0.69
   3   8  -4    6.83    1.00
   3   8  -4    5.79    0.95
  -3  -8   4    5.08    0.89
   3   8  -3    9.00    1.19
  -3  -8   3    8.47    1.10
   3   8  -2    7.88    1.13
   3   8  -2    7.47    1.11
   3   8  -1    3.22    0.82
   3   8  -1    4.27    0.87
   3   8   0    0.15    0.37
   3   8   0    0.20    0.52
   3   8   1    1.99    0.51
   3   8   1    2.21    0.62
   3   8   2    9.20    0.90
  -3  -9  12    1.38    0.46
  -3  -9  11   11.19    1.18
  -3  -9  10    2.08    0.73
   3   9  -9    0.82    0.43
  -3  -9   9    1.11    0.69
   3   9  -8   11.49    1.17
  -3  -9   8    9.88    1.32
   3   9  -7    0.97    0.46
  -3  -9   7    0.21    0.60
   3   9  -6    7.51    1.01
  -3  -9   6    5.36    1.02
   3   9  -5  121.97    3.84
  -3  -9   5  117.63    4.05
   3   9  -4    0.33    0.40
  -3  -9   4   -0.15    0.56
   3   9  -3    0.97    0.55
   3   9  -3    0.46    0.44
   3   9  -2    0.68    0.52
   3   9  -1    1.10    0.54
   3   9   0    1.34    0.47
   3   9   0    1.42    0.46
   3   9   1    9.82    0.81
  -3 -10  12    1.68    0.40
  -3 -10  11    0.12    0.36
  -3 -10  10    8.17    1.02
  -3 -10   9   18.00    1.55
  -3 -10   8    1.20    0.66
  -3 -10   7   30.79    2.03
  -3 -10   6   18.93    1.60
   3  10  -5    3.57    0.87
  -3 -10   5    1.55    0.61
   3  10  -4    4.16    0.83
   3  10  -3    0.83    0.50
   3  10  -2   20.51    1.43
   3  10  -2   20.13    1.28
   3  10  -1    1.25    0.41
   3  10  -1    0.95    0.34
  -3 -11  11   10.78    0.83
  -3 -11  10   -0.05    0.36
  -3 -11   9    2.51    0.60
  -3 -11   8    1.59    0.54
   3  11  -7    8.31    0.94
  -3 -11   7    8.55    1.00
   3  11  -6    0.47    0.44
   3  11  -5   -0.83    0.43
   3  11  -4    7.56    0.84
   3  11  -3   30.83    1.50
   3  12  -7    1.06    0.32
   3  12  -6    1.94    0.39
   4 -12   0    6.86    0.79
   4 -12   1    6.81    0.84
   4 -12   2   -0.16    0.32
   4 -12   3    4.49    0.68
   4 -12   4    2.67    0.62
   4 -12   4    2.11    0.49
   4 -12   5    2.12    0.54
   4 -12   5    1.53    0.36
   4 -12   6    0.05    0.32
   4 -11  -2   11.76    1.04
   4 -11  -1   14.86    1.29
   4 -11   0    0.09    0.41
   4 -11   1   13.15    1.36
   4 -11   2    7.20    1.04
   4 -11   2    6.60    1.03
   4 -11   3    0.69    0.54
   4 -11   3    0.57    0.52
   4 -11   4    1.30    0.42
   4 -11   4    1.05    0.52
   4 -11   4    1.44    0.49
   4 -11   5    3.02    0.63
   4 -11   5    2.47    0.66
   4 -11   6    9.63    1.04
   4 -11   6    8.94    0.91
   4 -11   7    7.51    0.82
   4 -11   7    6.12    0.72
   4 -11   8    1.65    0.39
   4 -10  -4    9.22    0.86
   4 -10  -3    8.67    0.99
   4 -10  -2    0.28    0.40
   4 -10  -1    0.03    0.49
   4 -10   0    7.41    1.14
   4 -10   1    2.80    0.78
   4 -10   1    2.11    0.70
   4 -10   2    0.58    0.55
   4 -10   2    0.51    0.37
   4 -10   2    0.48    0.49
   4 -10   3    4.26    0.80
   4 -10   3    3.95    0.94
   4 -10   3    5.28    0.97
   4 -10   4    6.09    1.03
   4 -10   4    6.90    1.01
   4 -10   4    5.75    0.91
   4 -10   5    0.47    0.51
   4 -10   5   -0.04    0.45
   4 -10   6   15.15    1.38
   4 -10   6   12.56    1.21
   4 -10   7   18.45    1.39
   4 -10   7   17.65    1.33
   4 -10   8   30.10    1.52
   4 -10   8   29.64    1.56
   4 -10   9    2.35    0.42
  -4   9   5    2.08    0.48
   4  -9  -5    2.68    0.54
   4  -9  -4    3.61    0.72
   4  -9  -3    1.48    0.58
   4  -9  -2    1.32    0.54
   4  -9  -1   12.40    1.44
   4  -9   0   25.29    2.00
   4  -9   0   23.60    1.98
   4  -9   1    6.66    1.08
   4  -9   1    5.98    1.07
   4  -9   1    6.46    0.95
   4  -9   2    1.79    0.70
   4  -9   2    3.60    0.79
   4  -9   2    3.05    0.79
   4  -9   3  212.99    5.75
   4  -9   3  211.89    5.58
   4  -9   3  210.95    5.36
   4  -9   4   73.99    3.37
   4  -9   4   69.83    3.10
   4  -9   5    8.72    1.20
   4  -9   5    8.06    1.12
   4  -9   6    6.25    1.00
   4  -9   6    6.49    0.96
   4  -9   7    0.87    0.47
   4  -9   7    0.34    0.40
   4  -9   8    9.95    1.03
   4  -9   9    0.18    0.27
  -4   8   7    8.98    0.82
   4  -8  -6   19.56    1.35
  -4   8   6   17.08    1.35
  -4   8   5    4.60    0.77
   4  -8  -5    4.43    0.81
  -4   8   4    1.59    0.52
   4  -8  -4    1.04    0.40
   4  -8  -3    0.56    0.44
   4  -8  -2   35.76    2.30
   4  -8  -1   -0.05    0.39
   4  -8   0   16.53    1.45
   4  -8   0   15.81    1.56
   4  -8   0   15.58    1.57
   4  -8   1    8.34    1.19
   4  -8   1    7.88    1.18
   4  -8   1    8.08    1.07
   4  -8   2   34.74    2.36
   4  -8   2   30.05    2.17
   4  -8   2   34.71    2.19
   4  -8   3  119.57    4.29
   4  -8   3  119.91    4.12
   4  -8   4   72.51    3.03
   4  -8   4   74.07    3.36
   4  -8   4   66.64    3.13
   4  -8   5    6.86    1.05
   4  -8   5    4.61    0.90
   4  -8   5    4.83    0.93
   4  -8   6    1.35    0.60
   4  -8   6    1.21    0.60
   4  -8   6    0.69    0.46
   4  -8   7    8.22    1.01
   4  -8   7    8.68    1.09
   4  -8   8   10.08    1.10
   4  -8   9   16.89    1.18
  -4   7   8   16.63    1.18
  -4   7   7    3.55    0.72
   4  -7  -7    2.62    0.53
  -4   7   6    5.21    0.91
   4  -7  -6    3.33    0.69
  -4   7   5   42.40    2.38
   4  -7  -5   47.57    2.46
  -4   7   4    0.02    0.31
   4  -7  -4   -0.05    0.43
   4  -7  -3    9.95    1.22
   4  -7  -2    0.88    0.43
   4  -7  -1   11.38    1.24
   4  -7  -1   10.28    1.20
   4  -7  -1   10.62    1.14
   4  -7   0   36.30    2.18
   4  -7   0   37.54    2.23
   4  -7   0   40.69    2.18
   4  -7   1   20.69    1.67
   4  -7   1   21.26    1.69
   4  -7   1   21.11    1.63
   4  -7   2    4.37    0.89
   4  -7   2    5.42    0.90
   4  -7   3   20.66    1.65
   4  -7   3   20.23    1.72
   4  -7   4   -1.28    0.65
   4  -7   4    0.78    0.45
   4  -7   5    1.65    0.56
   4  -7   5    1.36    0.59
   4  -7   6    7.11    0.99
   4  -7   6    7.91    1.15
   4  -7   7   -0.25    0.68
   4  -7   7    1.13    0.55
   4  -7   8   -0.79    0.52
   4  -7   8   -0.04    0.37
   4  -7   9   -0.19    0.36
   4  -7   9   -0.29    0.31
  -4   6   9    1.95    0.47
  -4   6   8    0.47    0.45
   4  -6  -7   21.57    1.56
  -4   6   7   23.59    1.78
  -4   6   6    0.10    0.41
   4  -6  -6    1.49    0.56
  -4   6   5   50.20    2.57
   4  -6  -5   47.20    2.51
   4  -6  -4   86.39    3.37
   4  -6  -3    2.63    0.65
  -4   6   2   10.31    1.41
  -4   6   1    0.65    0.55
  -4   6   0    5.67    1.07
  -4   6  -1    0.07    0.58
   4  -6   2   56.41    2.87
  -4   6  -2   53.84    3.19
   4  -6   3    1.74    0.65
   4  -6   3    0.71    0.41
   4  -6   3    1.30    0.49
   4  -6   4   -0.61    0.64
   4  -6   4    0.44    0.36
   4  -6   5   28.04    1.90
   4  -6   5   27.29    1.99
   4  -6   6   24.35    1.77
   4  -6   6   22.17    1.81
   4  -6   7    0.97    0.48
   4  -6   7    1.20    0.57
   4  -6   8    4.62    0.81
   4  -6   8    6.24    0.88
   4  -6   9    5.34    0.73
  -4   5  10    2.02    0.44
  -4   5   9    0.05    0.40
  -4   5   8   13.53    1.39
  -4   5   7    7.71    1.12
   4  -5  -7    8.01    1.06
  -4   5   6   64.30    2.97
   4  -5  -6   61.99    2.86
  -4   5   5   56.25    2.66
   4  -5  -5   56.58    2.68
   4  -5  -4   71.83    2.92
  -4   5   3    1.02    0.59
  -4   5   2    2.45    0.77
  -4   5   1  276.57    6.50
  -4   5   0   32.26    2.30
   4  -5   0   33.68    1.95
   4  -5   1  149.26    4.05
  -4   5  -1  143.66    4.81
   4  -5   1  159.39    4.42
   4  -5   2    2.51    0.67
   4  -5   3   21.50    1.89
   4  -5   4   19.08    1.56
   4  -5   4   17.20    1.50
   4  -5   5    9.50    1.15
   4  -5   5    9.44    1.19
   4  -5   6   11.93    1.30
   4  -5   6   12.06    1.32
   4  -5   7   16.25    1.48
   4  -5   7   15.91    1.49
   4  -5   8    0.16    0.42
   4  -5   9   12.46    1.09
  -4   4  10    1.37    0.54
  -4   4   9   15.05    1.45
  -4   4   8    8.32    1.18
   4  -4  -8    8.43    1.09
   4  -4  -7   79.94    3.20
  -4   4   7   82.50    3.40
  -4   4   6   41.12    2.31
   4  -4  -6   39.70    2.26
   4  -4  -5   62.61    2.74
  -4   4   4    1.78    0.67
  -4   4   3   16.22    1.60
  -4   4   2  294.38    6.29
   4  -4  -2  297.23    5.30
  -4   4   1   60.64    2.82
   4  -4  -1   59.36    2.43
  -4   4   0  166.89    4.63
   4  -4   0  168.43    4.26
  -4   4  -1  162.12    4.61
   4  -4   1  163.42    4.45
   4  -4   1  157.17    4.00
   4  -4   2   45.17    2.36
   4  -4   3   74.31    3.37
   4  -4   4  117.18    3.77
   4  -4   5   -0.05    0.41
   4  -4   5   -0.25    0.46
   4  -4   5   -0.16    0.34
   4  -4   6    2.72    0.72
   4  -4   7    1.08    0.57
   4  -4   8    0.12    0.42
   4  -4   9   11.04    1.02
   4  -3 -11    6.12    0.63
  -4   3  11    5.62    0.79
  -4   3  10   13.06    1.33
  -4   3   9   17.81    1.61
   4  -3  -8   22.34    1.71
  -4   3   8   23.41    1.86
   4  -3  -7  164.61    4.59
  -4   3   7  164.45    4.66
   4  -3  -6   10.79    1.15
  -4   3   6   11.19    1.17
  -4   3   5   35.68    2.50
  -4   3   4   44.35    2.56
   4  -3  -4   44.02    2.16
  -4   3   3    9.14    1.15
   4  -3  -3    8.84    0.98
  -4   3   2    3.92    0.75
   4  -3  -2    4.68    0.75
  -4   3   1   47.84    2.29
   4  -3  -1   50.27    2.22
  -4   3   0   80.03    2.93
   4  -3   0   72.81    2.76
  -4   3  -1   73.64    2.83
   4  -3   1   72.51    2.95
   4  -3   2   45.72    2.53
   4  -3   3   74.45    3.90
   4  -3   4   62.57    2.78
   4  -3   5    2.23    0.66
   4  -3   5    3.12    0.75
   4  -3   5    1.29    0.57
   4  -3   6   13.93    1.44
   4  -3   6   14.66    1.64
   4  -3   7   86.86    3.39
   4  -3   8    1.25    0.56
   4  -3   9   15.76    1.15
  -4   2  11   -0.51    0.45
   4  -2 -11    0.50    0.28
  -4   2  10    3.06    0.81
  -4   2   9   17.09    1.62
   4  -2  -8   11.65    1.29
  -4   2   8   12.20    1.36
   4  -2  -7   25.30    1.78
  -4   2   7   24.61    1.76
  -4   2   6   13.12    1.59
  -4   2   5   22.12    1.89
  -4   2   4    6.58    1.02
   4  -2  -4    6.31    0.90
  -4   2   3    3.12    0.69
   4  -2  -3    2.90    0.62
  -4   2   2   42.70    2.03
   4  -2  -2   43.45    2.05
  -4   2   1  217.90    4.37
   4  -2  -1  209.09    4.48
  -4   2   0  397.06    5.75
   4  -2   0  392.42    6.33
   4  -2   1    8.23    1.04
   4  -2   2    8.94    1.32
   4  -2   3   84.75    4.21
   4  -2   4    5.65    0.89
   4  -2   4    6.70    0.98
   4  -2   5   12.40    1.40
   4  -2   5   11.57    1.37
   4  -2   6   16.90    1.76
   4  -2   6   17.12    1.60
   4  -2   7   11.33    1.31
   4  -2   7   10.66    1.22
   4  -2   8   27.42    1.75
   4  -2   8   30.60    1.76
   4  -2   9    1.94    0.43
  -4   1  12   10.57    0.99
  -4   1  11    0.00    0.45
   4  -1 -11   -0.20    0.25
  -4   1  10   40.87    2.42
  -4   1   9    0.96    0.57
  -4   1   8    0.82    0.45
  -4   1   7   11.98    1.59
  -4   1   6   32.85    2.30
  -4   1   5  151.31    4.52
   4  -1  -5  151.13    4.63
  -4   1   4  163.87    4.30
   4  -1  -4  172.55    4.37
  -4   1   3   96.87    3.02
   4  -1  -3  102.36    3.12
  -4   1   2    1.85    0.46
   4  -1  -2    1.31    0.51
  -4   1   1  455.51    5.46
   4  -1  -1  443.47    6.43
   4  -1   0  346.55    5.96
   4  -1   1   23.25    1.72
   4  -1   1   22.61    1.90
   4  -1   2    0.55    0.56
   4  -1   3    9.73    1.55
   4  -1   4    4.22    0.82
   4  -1   4    3.53    0.78
   4  -1   5   -0.32    0.58
   4  -1   5    0.79    0.66
   4  -1   5    0.09    0.44
   4  -1   6   34.31    2.41
   4  -1   6   39.68    2.34
   4  -1   7   17.40    1.54
   4  -1   7   17.00    1.49
   4  -1   8    0.17    0.40
   4  -1   8    0.23    0.36
   4   0 -12    4.69    0.70
  -4   0  12    3.93    0.75
   4   0 -11    5.44    0.87
  -4   0  10    5.24    0.97
   4   0 -10    6.23    0.96
   4   0  -9   10.72    1.23
  -4   0   9    8.50    1.21
   4   0  -8   19.96    1.61
  -4   0   8   20.44    1.66
   4   0  -7   64.46    3.56
  -4   0   6   20.47    1.75
   4   0  -6   22.48    1.91
  -4   0   5  250.16    5.41
   4   0  -5  257.04    5.75
  -4   0   4   91.54    2.98
   4   0  -4   89.10    3.03
   4   0  -3    0.04    0.23
  -4   0   3    0.01    0.28
   4   0  -3    0.09    0.33
   4   0  -2   85.65    2.83
   4   0  -1  857.16    8.99
   4   0   0  786.34    9.01
   4   0   0  770.68    9.01
   4   0   1   15.83    1.59
   4   0   1   16.17    1.46
   4   0   2   20.83    1.98
   4   0   3    0.40    0.52
   4   0   3    1.34    0.54
   4   0   4    0.39    0.46
   4   0   4    0.68    0.48
   4   0   4    0.02    0.49
   4   0   4    0.40    0.38
   4   0   5    5.83    1.06
   4   0   5    6.41    1.20
   4   0   5    7.24    1.08
   4   0   5    8.13    1.17
   4   0   6   29.63    2.23
   4   0   6   29.46    1.99
   4   0   7    8.55    1.07
   4   0   7    9.34    1.10
   4   0   8    0.09    0.29
   4   0   8    0.57    0.36
   4   1 -13   21.11    1.18
  -4  -1  13   22.17    1.31
   4   1 -12    0.73    0.41
  -4  -1  12    1.03    0.58
   4   1 -11   18.90    1.59
   4   1 -10   27.99    1.97
  -4  -1   9    3.70    0.85
   4   1  -9    3.20    0.71
   4   1  -9    5.10    0.81
   4   1  -8   24.30    1.78
   4   1  -8   29.70    1.83
  -4  -1   8   26.67    1.90
   4   1  -7   17.22    1.81
   4   1  -6    7.54    1.11
  -4  -1   5    0.36    0.34
   4   1  -5    1.26    0.43
   4   1  -5    1.05    0.44
  -4  -1   4   23.26    1.43
   4   1  -4   23.66    1.43
   4   1  -4   23.20    1.58
   4   1  -3  110.17    3.11
   4   1  -3  110.77    3.12
   4   1  -3  105.10    3.18
   4   1  -2  583.92    7.39
   4   1  -2  558.79    7.21
   4   1  -1  260.08    5.16
   4   1  -1  258.11    5.03
   4   1   0   24.83    1.72
   4   1   0   24.41    1.68
   4   1   1   57.28    2.74
   4   1   1   54.89    2.70
   4   1   2   -0.32    0.49
   4   1   3   21.69    1.79
   4   1   3   23.27    1.65
   4   1   3   19.86    1.63
   4   1   4    0.44    0.42
   4   1   4    0.32    0.57
   4   1   4    1.08    0.52
   4   1   4    0.08    0.33
   4   1   5   32.16    2.09
   4   1   5   35.20    2.38
   4   1   5   34.48    2.26
   4   1   6    0.29    0.54
   4   1   6    1.16    0.69
   4   1   7    6.26    0.84
   4   1   7    6.37    0.86
   4   2 -13    2.08    0.47
  -4  -2  13    2.34    0.53
   4   2 -12   14.56    1.31
  -4  -2  12   13.41    1.37
   4   2 -11    0.23    0.37
  -4  -2  11    1.15    0.64
   4   2 -10    0.22    0.42
   4   2  -9  114.18    3.89
   4   2  -8    4.42    0.79
   4   2  -7    1.56    0.59
   4   2  -6   30.05    1.75
   4   2  -6   31.42    2.27
   4   2  -5    6.75    0.86
   4   2  -5    7.06    1.04
   4   2  -4    1.35    0.49
   4   2  -4    1.67    0.53
   4   2  -4    1.73    0.49
   4   2  -3   58.40    2.38
   4   2  -3   53.36    2.33
   4   2  -3   56.62    2.37
   4   2  -2   90.84    3.14
   4   2  -2   92.79    3.10
   4   2  -2   91.81    2.98
   4   2  -1   15.34    1.42
   4   2  -1   15.23    1.29
   4   2   0   49.04    2.51
   4   2   1    4.63    0.90
   4   2   2   54.46    2.74
   4   2   2   60.14    2.89
   4   2   2   55.56    2.52
   4   2   3    6.79    1.13
   4   2   3    8.76    1.09
   4   2   3    5.59    0.90
   4   2   4    0.00    0.48
   4   2   4    0.48    0.69
   4   2   4    0.10    0.50
   4   2   4    0.65    0.48
   4   2   5   10.05    1.26
   4   2   5   11.88    1.28
   4   2   6   18.60    1.45
   4   2   6   17.69    1.44
   4   2   7    2.16    0.42
   4   2   7    2.71    0.52
   4   3 -13    3.54    0.64
  -4  -3  13    3.32    0.66
   4   3 -12    0.33    0.41
  -4  -3  12    0.13    0.56
   4   3 -11   11.79    1.29
  -4  -3  11   14.81    1.53
   4   3 -10    3.21    0.79
  -4  -3  10    2.39    0.74
   4   3  -9  142.87    4.42
  -4  -3   9  152.76    4.73
   4   3  -8    6.61    0.98
  -4  -3   8    9.60    1.19
   4   3  -7   10.24    1.45
   4   3  -6   66.02    2.85
   4   3  -6   63.25    3.33
   4   3  -5   10.67    1.17
   4   3  -5   10.05    1.30
   4   3  -4  104.45    3.34
   4   3  -4  101.20    3.42
   4   3  -4  105.07    3.88
   4   3  -4  100.76    3.35
   4   3  -3   41.03    2.22
   4   3  -3   40.21    2.21
   4   3  -3   38.80    2.00
   4   3  -2   58.39    2.74
   4   3  -2   50.29    2.45
   4   3  -1    1.56    0.66
   4   3  -1    2.15    0.67
   4   3   0   13.25    1.44
   4   3   1   35.61    2.30
   4   3   1   44.50    2.45
   4   3   2   12.44    1.38
   4   3   2   12.33    1.42
   4   3   2   12.84    1.28
   4   3   3    4.49    0.87
   4   3   3    5.38    0.90
   4   3   3    3.71    0.79
   4   3   3    3.09    0.78
   4   3   4    8.27    1.11
   4   3   4    9.04    1.13
   4   3   5   -0.08    0.47
   4   3   5    1.31    0.56
   4   3   6    1.05    0.46
   4   4 -13    1.24    0.45
  -4  -4  13    1.41    0.60
   4   4 -12   19.84    1.57
  -4  -4  12   20.56    1.69
   4   4 -11    3.03    0.76
  -4  -4  11    3.39    0.87
   4   4 -10  137.47    4.40
  -4  -4  10  152.40    4.80
   4   4  -9  141.93    4.46
  -4  -4   9  143.90    4.62
   4   4  -8   99.48    3.71
  -4  -4   8  101.06    3.77
   4   4  -7  108.95    4.00
   4   4  -7  105.62    4.68
   4   4  -6    7.99    1.14
   4   4  -6    6.76    1.19
   4   4  -5  152.33    4.58
   4   4  -5  156.17    5.31
   4   4  -5  163.22    4.59
   4   4  -4   50.20    2.58
   4   4  -4   54.87    2.76
   4   4  -4   52.98    3.04
   4   4  -3    1.24    0.56
   4   4  -3    0.96    0.57
   4   4  -2   12.63    1.43
   4   4  -2   12.68    1.38
   4   4  -1   14.95    1.49
   4   4  -1   16.06    1.56
   4   4  -1   16.25    1.42
   4   4   0    4.25    0.84
   4   4   0    5.78    0.88
   4   4   1    7.69    1.16
   4   4   1    8.55    1.16
   4   4   2    2.59    0.72
   4   4   2    2.80    0.74
   4   4   2    2.45    0.70
   4   4   3   10.95    1.24
   4   4   3   11.03    1.23
   4   4   4    1.85    0.62
   4   4   4    1.96    0.58
   4   4   5    0.80    0.48
  -4  -5  13   25.26    1.63
   4   5 -12    6.13    0.91
  -4  -5  12    6.30    1.03
   4   5 -11    1.41    0.58
  -4  -5  11    0.54    0.54
   4   5 -10   13.96    1.47
  -4  -5  10   12.28    1.46
   4   5  -9   14.62    1.50
  -4  -5   9   16.20    1.61
  -4  -5   8   35.59    2.33
  -4  -5   7    0.75    0.44
   4   5  -6   82.01    4.17
   4   5  -5   -0.27    0.63
   4   5  -5   -0.57    0.48
   4   5  -4    8.50    1.22
   4   5  -4   10.62    1.33
   4   5  -3    0.46    0.41
   4   5  -3   -0.11    0.39
   4   5  -2   28.99    2.12
   4   5  -2   33.14    2.09
   4   5  -1   78.96    3.53
   4   5   0   21.28    1.88
   4   5   1    5.37    1.00
   4   5   2   11.92    1.36
   4   5   2   10.85    1.24
   4   5   2   13.09    1.28
   4   5   3    2.86    0.75
   4   5   4    4.10    0.68
  -4  -6  13    6.53    0.84
  -4  -6  12    0.76    0.53
  -4  -6  11   17.62    1.66
  -4  -6  10    3.87    0.95
  -4  -6   9   18.99    1.78
  -4  -6   8    4.79    0.95
  -4  -6   7    4.20    0.84
  -4  -6   6    2.74    0.73
   4   6  -5    1.93    0.57
   4   6  -5    2.54    0.68
  -4  -6   5    1.64    0.55
   4   6  -4   59.59    2.94
   4   6  -4   61.14    2.89
   4   6  -3    4.10    0.81
   4   6  -3    5.15    0.97
   4   6  -2    4.38    0.92
   4   6  -1   49.53    2.83
   4   6   0    4.23    0.90
   4   6   1    8.78    1.22
   4   6   1    9.64    1.13
   4   6   2    7.47    1.00
   4   6   3    6.92    0.88
  -4  -7  13    9.91    0.95
  -4  -7  12    2.16    0.68
  -4  -7  11    2.11    0.74
  -4  -7  10    3.64    0.91
  -4  -7   9   49.96    2.77
  -4  -7   8   25.24    2.00
  -4  -7   7    1.21    0.62
   4   7  -6   14.35    1.46
  -4  -7   6   16.11    1.51
   4   7  -5   20.55    1.75
   4   7  -5   21.48    1.77
  -4  -7   5   20.51    1.69
   4   7  -4    3.29    0.83
   4   7  -4    3.00    0.78
   4   7  -3   19.37    1.77
   4   7  -3   18.56    1.67
   4   7  -2    0.91    0.52
   4   7  -2    0.21    0.52
   4   7  -1    0.11    0.32
   4   7  -1   -0.22    0.55
   4   7   0    0.61    0.55
   4   7   0   -0.05    0.55
   4   7   1    0.03    0.44
   4   7   2   13.98    1.11
  -4  -8  13   -0.02    0.29
  -4  -8  12   11.78    1.11
  -4  -8  11    0.26    0.50
  -4  -8  10    1.33    0.64
  -4  -8   9    7.45    1.14
   4   8  -8   16.61    1.50
  -4  -8   8   17.22    1.65
   4   8  -7   27.35    1.95
  -4  -8   7   26.24    1.96
   4   8  -6   17.21    1.57
  -4  -8   6   18.37    1.62
   4   8  -5    7.86    1.06
   4   8  -5    6.99    1.03
  -4  -8   5    7.85    1.05
   4   8  -4   33.24    2.15
   4   8  -4   33.43    2.16
   4   8  -3    4.42    0.84
   4   8  -3    3.26    0.80
   4   8  -2    0.24    0.37
   4   8  -2    0.08    0.48
   4   8  -1    2.88    0.57
   4   8   0    0.40    0.40
   4   8   1   -0.01    0.32
   4   9 -12    2.66    0.44
  -4  -9  12    3.03    0.56
   4   9 -11   19.30    1.24
  -4  -9  11   20.41    1.47
   4   9 -10    1.71    0.47
  -4  -9  10    0.43    0.53
   4   9  -9   32.35    1.86
  -4  -9   9   28.73    1.93
   4   9  -8    2.61    0.65
  -4  -9   8    3.09    0.78
   4   9  -7    5.47    0.85
  -4  -9   7    5.79    0.97
   4   9  -6   15.17    1.38
  -4  -9   6   13.05    1.31
  -4  -9   5   45.17    2.26
   4   9  -4    6.42    0.97
   4   9  -4    5.10    0.83
   4   9  -3    2.88    0.65
   4   9  -2    4.42    0.71
   4   9  -1    2.82    0.56
  -4 -10  11    1.12    0.39
   4  10 -10    1.32    0.36
  -4 -10  10    1.73    0.52
   4  10  -9    5.30    0.67
  -4 -10   9    5.37    0.83
   4  10  -8    1.46    0.40
  -4 -10   8    2.37    0.64
  -4 -10   7   10.24    1.07
   4  10  -6   29.58    1.80
   4  10  -5   10.28    1.07
   4  10  -4   -0.19    0.39
   4  10  -3   30.97    1.51
   4  10  -3   31.73    1.48
   4  11  -9    5.57    0.63
  -4 -11   9    5.33    0.64
   4  11  -8    0.31    0.30
   4  11  -7    0.13    0.26
   4  11  -6    0.07    0.30
   4  11  -5    0.27    0.22
   5 -12   0    0.56    0.27
   5 -12   1    8.94    0.79
   5 -12   2    8.23    0.76
   5 -12   3    6.97    0.67
   5 -12   4    0.41    0.19
   5 -11  -2    5.24    0.68
   5 -11  -1   -0.04    0.36
   5 -11   0   -0.08    0.36
   5 -11   1    2.16    0.57
   5 -11   2    0.35    0.33
   5 -11   3    0.07    0.36
   5 -11   3    0.51    0.32
   5 -11   4   -0.01    0.28
   5 -11   4    0.55    0.35
   5 -11   4    0.16    0.31
   5 -11   5   14.45    0.93
   5 -11   5   14.64    1.08
   5 -11   6    0.44    0.29
   5 -10  -4    1.53    0.42
   5 -10  -3   -0.16    0.38
   5 -10  -2    1.71    0.56
   5 -10  -1    3.00    0.73
   5 -10   0   33.18    2.17
   5 -10   1    1.34    0.56
   5 -10   2    0.03    0.41
   5 -10   2    0.06    0.49
   5 -10   2    0.41    0.41
   5 -10   3    9.83    1.17
   5 -10   3    8.50    1.06
   5 -10   4    1.13    0.43
   5 -10   4    1.32    0.52
   5 -10   5    2.93    0.52
   5 -10   5    2.14    0.60
   5 -10   6    0.44    0.39
   5 -10   7    2.60    0.52
   5  -9  -5    4.77    0.70
   5  -9  -4   -0.18    0.39
   5  -9  -3    8.46    1.10
   5  -9  -2    0.12    0.42
   5  -9  -1   25.68    1.98
   5  -9   0    3.48    0.85
   5  -9   1    5.91    1.02
   5  -9   1    7.03    1.08
   5  -9   1    7.82    1.10
   5  -9   2   35.31    2.29
   5  -9   2   36.22    2.25
   5  -9   3    0.57    0.53
   5  -9   4   30.36    1.82
   5  -9   4   31.66    2.08
   5  -9   5    0.91    0.52
   5  -9   6    2.90    0.65
   5  -9   7    4.46    0.69
   5  -9   8    0.44    0.28
   5  -8  -7    6.99    0.69
   5  -8  -6    0.01    0.33
   5  -8  -5   10.54    1.15
   5  -8  -4    3.20    0.76
   5  -8  -3    0.22    0.44
   5  -8  -2    7.03    1.11
   5  -8  -1    1.23    0.57
   5  -8   0   18.87    1.66
   5  -8   0   14.86    1.55
   5  -8   0   16.89    1.54
   5  -8   1    3.36    0.76
   5  -8   1    3.27    0.83
   5  -8   2   -0.02    0.44
   5  -8   3   59.19    3.01
   5  -8   4    2.02    0.58
   5  -8   4    1.16    0.61
   5  -8   5    1.25    0.69
   5  -8   5   -0.77    0.52
   5  -8   6    2.23    0.70
   5  -8   6    0.66    0.48
   5  -8   7    1.88    0.60
   5  -8   7    0.91    0.43
   5  -8   8    3.47    0.53
   5  -7  -7    8.54    0.91
  -5   7   7    7.52    0.87
   5  -7  -6   27.19    1.77
   5  -7  -5    4.43    0.85
   5  -7  -4    0.49    0.46
   5  -7  -3   10.71    1.29
   5  -7  -2    1.69    0.56
   5  -7  -1    0.84    0.49
   5  -7  -1    0.99    0.49
   5  -7   0    0.42    0.30
   5  -7   0    0.18    0.42
   5  -7   1   25.55    1.93
   5  -7   2    8.04    1.20
   5  -7   2    6.90    1.08
   5  -7   3   17.15    1.61
   5  -7   3   16.10    1.64
   5  -7   4   13.62    1.28
   5  -7   4   14.89    1.46
   5  -7   4   12.25    1.45
   5  -7   5   11.90    1.30
   5  -7   5   12.24    1.38
   5  -7   6    5.60    0.88
   5  -7   6    9.29    1.18
   5  -7   7    1.89    0.56
   5  -7   7    3.08    0.64
   5  -7   8    2.10    0.54
  -5   6   9    3.50    0.55
   5  -6  -9    3.04    0.52
  -5   6   8    0.64    0.35
  -5   6   7    0.09    0.33
   5  -6  -7    0.36    0.40
  -5   6   6    4.26    0.76
   5  -6  -6    5.41    0.91
   5  -6  -5   15.14    1.49
   5  -6  -4  151.43    4.54
   5  -6  -3    6.95    1.02
   5  -6  -2   20.98    1.66
   5  -6  -2   20.72    1.59
   5  -6  -1    7.70    1.00
   5  -6  -1    9.44    1.10
   5  -6   0   38.64    2.24
   5  -6   1    1.41    0.71
   5  -6   1    0.49    0.34
   5  -6   2    0.61    0.57
   5  -6   2    0.74    0.48
   5  -6   3    1.38    0.49
   5  -6   3    0.06    0.57
   5  -6   3    1.07    0.55
   5  -6   4    3.60    0.68
   5  -6   4    2.50    0.69
   5  -6   4    2.12    0.65
   5  -6   5    0.05    0.38
   5  -6   6    3.63    0.76
   5  -6   6    4.39    0.83
   5  -6   7    8.26    1.00
   5  -6   8    2.45    0.53
   5  -5 -10    0.07    0.19
  -5   5   9    2.09    0.59
   5  -5  -8   11.95    1.19
  -5   5   8   13.71    1.33
  -5   5   7    0.77    0.47
   5  -5  -7    0.77    0.46
   5  -5  -6   68.69    3.03
  -5   5   6   68.93    2.93
   5  -5  -5  188.88    5.00
   5  -5  -4    0.87    0.45
   5  -5  -3    2.66    0.61
  -5   5   2  141.65    4.99
   5  -5  -2  140.44    3.89
  -5   5   1    1.94    0.80
  -5   5   0    9.56    1.34
   5  -5   0   12.85    1.43
  -5   5  -1    2.89    0.82
   5  -5   1    3.31    0.74
   5  -5   1    4.28    0.97
   5  -5   1    2.67    0.64
   5  -5   2   11.23    1.20
   5  -5   2   10.10    1.19
   5  -5   2    9.06    1.00
   5  -5   2   10.16    1.18
   5  -5   3    3.35    0.69
   5  -5   3    2.68    0.72
   5  -5   3    2.54    0.66
   5  -5   4    0.10    0.42
   5  -5   4   -0.34    0.36
   5  -5   5    0.69    0.58
   5  -5   5    0.87    0.47
   5  -5   6    1.08    0.57
   5  -5   7    2.48    0.68
   5  -5   8    3.38    0.61
  -5   4  10    3.04    0.64
   5  -4 -10    3.53    0.62
  -5   4   9    2.66    0.70
   5  -4  -8   44.70    2.36
  -5   4   8   40.23    2.33
   5  -4  -7   10.55    1.26
  -5   4   7   11.56    1.30
   5  -4  -6   14.30    1.47
  -5   4   6   15.80    1.40
   5  -4  -5    0.11    0.35
   5  -4  -4    4.12    0.78
  -5   4   3   23.72    2.04
   5  -4  -3   25.99    1.84
  -5   4   2    4.55    0.92
   5  -4  -2    4.31    0.82
  -5   4   1    9.61    1.25
   5  -4  -1   11.24    1.30
  -5   4   0   -0.38    0.34
   5  -4   0    0.17    0.51
   5  -4   1   10.66    1.41
   5  -4   2   16.73    1.38
   5  -4   2   15.09    1.41
   5  -4   2   13.18    1.21
   5  -4   2   16.52    1.40
   5  -4   3   17.28    1.41
   5  -4   3   15.94    1.53
   5  -4   3   15.40    1.38
   5  -4   4   25.97    1.93
   5  -4   5   -0.11    0.49
   5  -4   5    0.52    0.60
   5  -4   6   -0.25    0.59
   5  -4   7    5.73    0.89
   5  -4   8    2.37    0.53
   5  -3 -11    5.49    0.63
  -5   3  10   -0.08    0.45
  -5   3   9    2.87    0.74
   5  -3  -8   12.11    1.31
  -5   3   8   13.57    1.43
   5  -3  -7   12.70    1.34
  -5   3   7   12.05    1.32
   5  -3  -6   26.54    1.87
   5  -3  -5   20.32    1.54
   5  -3  -5   19.58    1.70
  -5   3   4    8.38    1.26
   5  -3  -4    9.51    1.14
  -5   3   3    0.24    0.36
   5  -3  -3    0.52    0.43
  -5   3   2   15.43    1.45
   5  -3  -2   16.07    1.50
  -5   3   1   48.13    2.45
   5  -3  -1   48.94    2.58
   5  -3   0    4.42    0.92
   5  -3   1    5.32    1.00
   5  -3   2   19.61    1.45
   5  -3   2   20.83    1.67
   5  -3   3   11.79    1.14
   5  -3   3   11.87    1.34
   5  -3   3   12.81    1.32
   5  -3   3   12.70    1.31
   5  -3   4    5.58    0.98
   5  -3   4    6.65    1.07
   5  -3   4    5.64    0.97
   5  -3   5    3.31    0.79
   5  -3   5    5.51    1.04
   5  -3   5    3.10    0.83
   5  -3   6   23.59    1.80
   5  -3   7    6.98    0.95
   5  -3   8   14.09    1.04
  -5   2  12    0.18    0.27
   5  -2 -11    1.02    0.37
   5  -2 -10   29.47    1.87
  -5   2  10   26.69    1.89
  -5   2   9   23.27    1.84
  -5   2   8   16.92    1.55
  -5   2   7    4.98    0.90
   5  -2  -7    6.20    0.93
   5  -2  -6    6.22    0.90
  -5   2   5   17.46    1.74
   5  -2  -5   16.42    1.57
  -5   2   4   21.62    1.80
   5  -2  -4   21.38    1.72
  -5   2   3   15.67    1.42
   5  -2  -3   16.23    1.51
   5  -2  -2    5.16    0.89
   5  -2  -1    7.49    1.08
   5  -2   0    3.71    0.85
   5  -2   1  104.52    4.13
   5  -2   2    4.21    0.66
   5  -2   2    0.42    0.38
   5  -2   3    1.17    0.49
   5  -2   3    2.28    0.72
   5  -2   3    1.18    0.55
   5  -2   4   10.07    1.30
   5  -2   4    9.84    1.30
   5  -2   4   11.35    1.39
   5  -2   5    3.55    0.85
   5  -2   5    3.63    0.93
   5  -2   5    4.84    0.98
   5  -2   6    7.85    1.14
   5  -2   6   11.38    1.48
   5  -2   7    5.50    0.85
   5  -2   8    3.05    0.48
  -5   1  12    2.32    0.55
   5  -1 -11    9.80    0.98
   5  -1 -10    3.74    0.75
  -5   1   9   24.72    1.93
  -5   1   8    2.31    0.64
  -5   1   7    2.57    0.68
   5  -1  -7    3.63    0.75
  -5   1   6   11.20    1.43
   5  -1  -6    9.61    1.30
  -5   1   5    4.24    0.85
   5  -1  -5    4.08    0.86
  -5   1   4   53.50    2.59
   5  -1  -4   47.12    2.54
   5  -1  -3    0.09    0.41
   5  -1  -2   25.18    1.78
   5  -1  -1   48.91    2.55
   5  -1   0   29.81    2.13
   5  -1   1   29.66    2.22
   5  -1   2   24.58    1.61
   5  -1   2   24.24    1.88
   5  -1   2   26.37    1.91
   5  -1   3   37.33    2.40
   5  -1   3   32.13    2.23
   5  -1   4    2.10    0.77
   5  -1   4    2.36    0.70
   5  -1   4    2.43    0.73
   5  -1   5    0.84    0.55
   5  -1   5    0.42    0.59
   5  -1   6    0.99    0.57
   5  -1   6    1.95    0.86
   5  -1   7    1.32    0.44
  -5   0  12    0.00    0.40
   5   0 -11    5.96    0.81
   5   0 -10   42.82    2.28
   5   0  -9    8.24    1.09
   5   0  -8    0.56    0.49
   5   0  -7   59.63    2.70
  -5   0   6    7.73    1.12
   5   0  -6    9.30    1.29
   5   0  -5  161.88    4.84
   5   0  -4   22.51    1.76
   5   0  -3    1.14    0.56
   5   0  -2  158.24    4.44
   5   0  -1  128.46    4.13
   5   0   0    1.81    0.65
   5   0   1    7.08    0.88
   5   0   2    1.57    0.55
   5   0   2    0.40    0.48
   5   0   2    0.64    0.52
   5   0   3    1.80    0.55
   5   0   3    2.31    0.74
   5   0   4    0.74    0.57
   5   0   4    0.48    0.45
   5   0   4    1.06    0.72
   5   0   5   20.63    1.71
   5   0   5   19.50    1.51
   5   0   5   17.88    1.74
   5   0   6    3.04    0.69
   5   0   6    3.10    0.61
   5   0   7    0.14    0.22
  -5  -1  13   -0.16    0.32
   5   1 -12    1.73    0.46
  -5  -1  12    0.36    0.54
   5   1 -11    2.17    0.59
  -5  -1  11    3.97    0.92
   5   1 -10    4.05    0.85
   5   1 -10    4.92    0.84
   5   1  -9    2.97    0.68
   5   1  -9    4.42    0.82
   5   1  -8   19.12    1.69
   5   1  -8   23.03    1.72
   5   1  -7    6.36    0.91
   5   1  -7    5.79    1.09
   5   1  -5   69.56    3.26
   5   1  -4    9.33    1.19
   5   1  -3   58.63    2.74
   5   1  -2    8.70    1.12
   5   1  -1   37.69    2.31
   5   1   0    0.65    0.41
   5   1   0   -0.35    0.53
   5   1   1   23.02    1.65
   5   1   2    5.85    0.94
   5   1   2    7.52    1.18
   5   1   2    7.11    0.95
   5   1   3    3.96    0.87
   5   1   3    3.54    0.77
   5   1   3    4.52    1.01
   5   1   3    3.85    0.74
   5   1   4   23.49    1.82
   5   1   4   24.75    2.10
   5   1   4   27.62    1.86
   5   1   4   25.83    1.97
   5   1   5    1.21    0.51
   5   1   5    1.21    0.51
   5   1   5    1.41    0.66
   5   1   6    7.47    0.80
   5   1   6    7.44    0.76
  -5  -2  13    0.48    0.37
   5   2 -12    5.26    0.80
  -5  -2  12    6.23    0.96
   5   2 -11    4.57    0.81
  -5  -2  11    4.65    0.98
   5   2 -10    3.00    0.73
  -5  -2  10    4.02    0.92
   5   2  -9   -0.28    0.35
   5   2  -9   -0.25    0.36
  -5  -2   9   -0.50    0.70
   5   2  -8   28.36    2.08
   5   2  -8   33.96    2.07
  -5  -2   8   31.14    2.14
   5   2  -7   42.58    2.29
  -5  -2   7   42.85    2.39
   5   2  -6   18.77    1.60
   5   2  -6   18.26    1.84
   5   2  -5    5.40    0.91
   5   2  -5    4.61    0.92
   5   2  -4    2.86    0.72
   5   2  -4    2.06    0.68
   5   2  -4    2.07    0.67
   5   2  -3   68.63    3.16
   5   2  -3   65.65    2.91
   5   2  -2    2.77    0.72
   5   2  -2    1.95    0.61
   5   2  -1   17.02    1.38
   5   2  -1   14.16    1.50
   5   2   0    0.27    0.41
   5   2   0   -0.37    0.53
   5   2   1   43.01    2.59
   5   2   1   38.96    2.47
   5   2   1   44.34    2.25
   5   2   2    3.73    0.91
   5   2   2    3.45    0.71
   5   2   3    0.63    0.50
   5   2   3   -0.14    0.53
   5   2   3   -0.89    0.49
   5   2   4    4.34    0.91
   5   2   4    4.26    0.76
   5   2   5    7.82    0.88
   5   2   5    9.08    1.06
  -5  -3  13    0.97    0.44
  -5  -3  12    9.75    1.16
   5   3 -11    1.52    0.57
  -5  -3  11    1.33    0.71
   5   3 -10   12.99    1.39
  -5  -3  10   14.12    1.56
   5   3  -9    5.41    0.98
   5   3  -9    5.92    0.89
  -5  -3   9    5.16    0.99
   5   3  -8   23.51    1.74
  -5  -3   8   22.06    1.83
   5   3  -7    0.13    0.36
   5   3  -7    0.50    0.37
   5   3  -6    5.51    1.00
   5   3  -6    5.59    0.93
   5   3  -5    0.18    0.47
   5   3  -5   -0.01    0.44
   5   3  -4   35.71    2.39
   5   3  -4   34.04    2.29
   5   3  -4   33.35    2.19
   5   3  -3    0.90    0.49
   5   3  -3   -0.26    0.45
   5   3  -3    0.38    0.45
   5   3  -2    0.15    0.38
   5   3  -2    0.75    0.34
   5   3  -2    0.15    0.36
   5   3  -1   12.95    1.50
   5   3   0   28.14    2.17
   5   3   1   12.29    1.45
   5   3   1   11.17    1.39
   5   3   1   14.99    1.35
   5   3   2    3.09    0.71
   5   3   2    2.38    0.74
   5   3   2    2.50    0.61
   5   3   3    7.16    1.02
   5   3   3    7.69    1.21
   5   3   3    5.69    0.88
   5   3   4    0.52    0.42
   5   3   4    0.32    0.42
   5   3   5    0.49    0.34
  -5  -4  13   10.89    1.04
  -5  -4  12   -0.81    0.61
  -5  -4  11    0.27    0.61
  -5  -4  10    0.26    0.54
  -5  -4   9  106.20    4.00
  -5  -4   8    4.27    0.92
   5   4  -7   13.06    1.37
  -5  -4   7   11.27    1.28
   5   4  -6   38.12    2.33
   5   4  -5    0.37    0.36
   5   4  -5    0.94    0.55
   5   4  -4    5.63    0.91
   5   4  -4    5.07    0.94
   5   4  -3    0.32    0.38
   5   4  -3    0.04    0.45
   5   4  -2   13.84    1.54
   5   4  -2   15.18    1.45
   5   4  -1    0.53    0.51
   5   4   0   18.17    1.78
   5   4   0   21.92    1.83
   5   4   1   15.04    1.52
   5   4   1   13.35    1.42
   5   4   1   14.55    1.35
   5   4   2    3.03    0.74
   5   4   2    4.83    0.87
   5   4   2    4.72    0.93
   5   4   2    2.87    0.68
   5   4   3    0.70    0.44
   5   4   3   -0.76    0.45
   5   4   4    0.18    0.31
  -5  -5  13    5.07    0.74
  -5  -5  12    5.38    0.91
  -5  -5  11    8.83    1.21
  -5  -5  10    8.79    1.20
  -5  -5   9   45.46    2.63
  -5  -5   8    7.56    1.14
   5   5  -7   71.91    3.17
  -5  -5   7   63.11    2.98
   5   5  -6   -0.13    0.42
   5   5  -6    0.35    0.48
   5   5  -5    1.39    0.56
   5   5  -5    2.62    0.81
   5   5  -4    2.01    0.59
   5   5  -4    2.32    0.75
   5   5  -3   13.80    1.57
   5   5  -3   14.28    1.45
   5   5  -2   21.81    1.95
   5   5  -1    4.58    1.00
   5   5  -1    4.52    0.85
   5   5   0    2.00    0.73
   5   5   0    0.83    0.50
   5   5   0    1.44    0.56
   5   5   1    0.30    0.49
   5   5   1    0.55    0.48
   5   5   1    0.13    0.46
   5   5   2    4.56    0.71
   5   5   2    3.70    0.67
   5   5   3    0.46    0.33
  -5  -6  13    9.89    0.93
  -5  -6  12   10.90    1.13
  -5  -6  11    2.46    0.78
  -5  -6  10    3.20    0.82
  -5  -6   9    5.34    0.95
  -5  -6   8    1.39    0.65
   5   6  -7    1.00    0.47
  -5  -6   7    2.00    0.64
   5   6  -6   -0.94    0.52
   5   6  -6   -0.94    0.53
   5   6  -5    9.90    1.33
   5   6  -5    8.55    1.20
   5   6  -4    2.57    0.71
   5   6  -4    2.72    0.79
   5   6  -3    0.36    0.58
   5   6  -2   56.20    2.98
   5   6  -1   23.01    1.89
   5   6   0    4.45    0.91
   5   6   0    6.01    0.92
   5   6   1    3.97    0.68
   5   6   2   17.56    1.12
  -5  -7  13    0.20    0.28
  -5  -7  12    1.29    0.51
  -5  -7  11    1.40    0.63
  -5  -7  10   10.51    1.25
   5   7  -9    1.80    0.58
  -5  -7   9    2.12    0.73
   5   7  -8    0.05    0.41
  -5  -7   8   -0.64    0.60
   5   7  -7   22.91    1.85
  -5  -7   7   25.91    1.87
   5   7  -6    8.83    1.16
   5   7  -6    8.62    1.17
   5   7  -5    1.47    0.64
   5   7  -5   -0.11    0.52
   5   7  -4    1.62    0.66
   5   7  -4    1.08    0.57
   5   7  -3    6.24    1.09
   5   7  -2    2.00    0.68
   5   7  -1    2.17    0.69
   5   7  -1    2.37    0.66
   5   7   0    0.87    0.38
   5   7   1   18.04    1.09
   5   8 -12   -0.06    0.24
  -5  -8  12    0.30    0.32
   5   8 -11    4.57    0.67
  -5  -8  11    5.76    0.82
   5   8 -10    0.08    0.37
  -5  -8  10   -0.11    0.48
   5   8  -9    5.05    0.83
  -5  -8   9    4.52    0.85
   5   8  -8    5.78    0.92
  -5  -8   8    5.37    0.90
   5   8  -7    0.10    0.43
  -5  -8   7    0.28    0.42
   5   8  -6   43.25    2.22
   5   8  -6   44.01    2.41
   5   8  -5    0.98    0.50
   5   8  -4   -0.56    0.42
   5   8  -4    0.13    0.44
   5   8  -3    0.93    0.56
   5   8  -2    1.14    0.46
   5   8  -1   -0.41    0.43
   5   9 -11    1.33    0.35
  -5  -9  11    1.43    0.40
   5   9 -10    9.76    0.87
  -5  -9  10    9.18    0.90
   5   9  -9    2.57    0.57
  -5  -9   9    2.15    0.55
   5   9  -8    0.91    0.42
  -5  -9   8    1.79    0.54
   5   9  -7    1.36    0.49
  -5  -9   7    1.88    0.52
   5   9  -6   14.91    1.27
   5   9  -5   14.24    1.19
   5   9  -5   14.41    1.14
   5   9  -4    1.20    0.38
   5   9  -3   -0.03    0.38
   5  10  -8    2.82    0.50
   5  10  -7   24.96    1.33
   5  10  -6    5.39    0.61
   6 -11  -1    3.78    0.53
   6 -11   0    0.30    0.29
   6 -11   0   -0.28    0.24
   6 -11   1    0.40    0.30
   6 -11   2    0.59    0.33
   6 -11   3    1.52    0.34
   6 -10  -3    2.30    0.50
   6 -10  -2    0.68    0.30
   6 -10  -2    0.67    0.38
   6 -10  -1    6.49    0.82
   6 -10  -1    7.57    0.93
   6 -10   0    0.64    0.44
   6 -10   0    0.09    0.32
   6 -10   1    2.77    0.63
   6 -10   2    2.91    0.60
   6 -10   2    3.59    0.68
   6 -10   3    7.66    0.84
   6 -10   3    7.73    0.90
   6 -10   4    0.08    0.25
   6 -10   4    0.06    0.30
   6 -10   5    0.14    0.27
   6  -9  -5    0.46    0.30
   6  -9  -4    2.99    0.64
   6  -9  -3    0.01    0.37
   6  -9  -2    2.01    0.53
   6  -9  -2    3.68    0.77
   6  -9  -1    1.73    0.62
   6  -9   0   15.81    1.42
   6  -9   1    0.06    0.43
   6  -9   1    0.36    0.43
   6  -9   2    0.48    0.51
   6  -9   2    0.01    0.47
   6  -9   3   90.50    3.00
   6  -9   3   90.36    3.31
   6  -9   4   15.58    1.15
   6  -9   4   17.08    1.42
   6  -9   5    6.55    0.82
   6  -9   6    0.81    0.34
   6  -8  -6    6.97    0.80
   6  -8  -5    4.99    0.82
   6  -8  -4    0.25    0.44
   6  -8  -3    4.36    0.70
   6  -8  -3    5.09    0.94
   6  -8  -2   10.10    1.13
   6  -8  -2    8.17    1.12
   6  -8  -1    9.92    1.22
   6  -8   0    0.01    0.50
   6  -8   1    0.40    0.44
   6  -8   1    0.08    0.48
   6  -8   2   57.17    2.69
   6  -8   2   55.94    2.83
   6  -8   3   12.04    1.21
   6  -8   3   13.32    1.43
   6  -8   4   10.04    0.97
   6  -8   4   11.28    1.24
   6  -8   5    1.04    0.50
   6  -8   6    0.82    0.33
   6  -7  -7    9.40    0.97
   6  -7  -7    9.69    0.95
   6  -7  -6    1.66    0.52
   6  -7  -6    3.16    0.68
   6  -7  -5    9.09    1.08
   6  -7  -5    8.41    1.13
   6  -7  -4    0.31    0.44
   6  -7  -3    8.95    1.02
   6  -7  -3    7.23    1.08
   6  -7  -2    3.58    0.71
   6  -7  -2    2.66    0.66
   6  -7  -1    0.08    0.44
   6  -7   0    2.99    0.73
   6  -7   0    3.61    0.84
   6  -7   1    5.58    0.98
   6  -7   1    7.67    0.99
   6  -7   1    7.29    1.13
   6  -7   2    0.16    0.46
   6  -7   2    0.25    0.51
   6  -7   3   11.76    1.23
   6  -7   3   10.48    1.29
   6  -7   4    0.81    0.41
   6  -7   4    0.92    0.54
   6  -7   5    4.50    0.88
   6  -7   5    3.16    0.69
   6  -7   6    1.79    0.60
   6  -7   6   -0.68    0.34
   6  -7   7    1.56    0.47
   6  -6  -8    1.23    0.46
   6  -6  -7    4.59    0.87
   6  -6  -7    5.47    0.83
   6  -6  -6    0.43    0.43
   6  -6  -6    0.69    0.48
   6  -6  -5   44.84    2.56
   6  -6  -5   44.19    2.46
   6  -6  -4   10.90    1.28
   6  -6  -4   10.71    1.25
   6  -6  -3    0.66    0.38
   6  -6  -3    0.93    0.46
   6  -6  -2    2.26    0.59
   6  -6  -1    6.76    1.00
   6  -6  -1    7.41    1.08
   6  -6   0    9.44    1.18
   6  -6   0   11.52    1.34
   6  -6   1   14.64    1.48
   6  -6   1   17.74    1.68
   6  -6   1   15.67    1.44
   6  -6   1   15.92    1.59
   6  -6   2    3.92    0.77
   6  -6   2    5.60    1.09
   6  -6   2    3.47    0.65
   6  -6   2    3.40    0.79
   6  -6   3    4.71    0.81
   6  -6   3    3.93    0.91
   6  -6   3    3.23    0.76
   6  -6   4    0.81    0.58
   6  -6   4    0.80    0.49
   6  -6   5    3.54    0.81
   6  -6   5    5.69    0.87
   6  -6   6    9.65    1.03
   6  -6   7    0.28    0.36
   6  -5  -9   11.08    1.08
   6  -5  -8   -0.15    0.49
   6  -5  -7   24.67    1.79
   6  -5  -6   82.96    3.29
   6  -5  -5    0.79    0.39
   6  -5  -5    0.83    0.54
   6  -5  -4   21.40    1.82
   6  -5  -4   16.55    1.49
   6  -5  -3    9.45    1.04
   6  -5  -3    9.97    1.17
   6  -5  -2    8.98    1.05
   6  -5  -1   87.83    3.21
   6  -5  -1   90.97    3.46
   6  -5   0    0.74    0.47
   6  -5   0    2.09    0.78
   6  -5   0    0.61    0.43
   6  -5   0    0.54    0.43
   6  -5   1   65.14    2.95
   6  -5   1   67.86    3.10
   6  -5   1   70.62    2.98
   6  -5   1   68.24    3.05
   6  -5   2    4.48    0.82
   6  -5   2    4.32    0.93
   6  -5   2    4.07    0.73
   6  -5   2    4.20    0.88
   6  -5   3    1.95    0.60
   6  -5   3    0.96    0.50
   6  -5   4    1.68    0.63
   6  -5   6   -0.49    0.64
   6  -5   7   -0.06    0.34
   6  -4 -10    1.03    0.37
   6  -4  -9   10.26    1.14
   6  -4  -8    8.29    1.14
  -6   4   8    8.31    0.99
   6  -4  -7   72.82    3.30
   6  -4  -7   79.52    3.20
   6  -4  -6    2.70    0.75
   6  -4  -6    2.03    0.63
   6  -4  -5   45.41    2.71
   6  -4  -5   49.38    2.52
   6  -4  -4   10.23    1.01
   6  -4  -4    9.18    1.23
   6  -4  -4   10.80    1.17
   6  -4  -3    5.05    0.75
   6  -4  -2   57.36    2.45
   6  -4  -1   26.15    1.73
   6  -4  -1   21.98    1.74
   6  -4  -1   27.30    1.82
   6  -4   0   20.77    1.61
   6  -4   0   20.24    1.73
   6  -4   0   22.05    1.73
   6  -4   0   20.05    1.57
   6  -4   1    4.45    0.82
   6  -4   1    3.36    0.85
   6  -4   1    4.74    0.82
   6  -4   1    5.15    0.86
   6  -4   2    5.13    0.90
   6  -4   2    3.15    0.75
   6  -4   2    3.01    0.69
   6  -4   3   30.80    1.89
   6  -4   3   27.96    2.06
   6  -4   4    2.45    0.67
   6  -4   5   -1.04    0.75
   6  -4   6    6.42    0.85
   6  -4   7    1.57    0.41
   6  -3 -11    0.29    0.22
  -6   3  11    1.61    0.43
   6  -3 -10   10.88    1.08
   6  -3  -9    3.44    0.75
  -6   3   8   -0.12    0.37
   6  -3  -8    0.78    0.54
   6  -3  -7   27.49    2.05
   6  -3  -7   30.50    2.02
   6  -3  -6    2.56    0.71
   6  -3  -6    2.52    0.68
   6  -3  -5    3.50    0.81
   6  -3  -5    3.46    0.71
   6  -3  -4    0.49    0.33
   6  -3  -4    0.86    0.48
   6  -3  -3    4.77    0.73
   6  -3  -3    4.06    0.77
   6  -3  -2   18.58    1.38
   6  -3  -1   33.75    1.92
   6  -3  -1   33.14    2.03
   6  -3  -1   32.15    2.05
   6  -3  -1   32.89    1.91
   6  -3   0   10.13    1.12
   6  -3   0    9.86    1.23
   6  -3   0    9.60    1.15
   6  -3   0   10.98    1.10
   6  -3   1    1.45    0.52
   6  -3   1    0.17    0.53
   6  -3   1    1.06    0.52
   6  -3   2   50.54    2.47
   6  -3   2   52.83    2.84
   6  -3   2   59.64    2.82
   6  -3   3    1.88    0.59
   6  -3   3    1.53    0.55
   6  -3   3    3.39    0.85
   6  -3   3    2.26    0.69
   6  -3   4   10.38    1.29
   6  -3   4   10.76    1.26
   6  -3   4   11.39    1.33
   6  -3   5    5.59    0.91
   6  -3   5    7.83    1.14
   6  -3   6   -0.13    0.49
   6  -2 -11    5.19    0.66
  -6   2  11    6.39    0.81
   6  -2 -10    0.72    0.46
   6  -2  -9    5.79    0.95
   6  -2  -8    0.13    0.44
   6  -2  -7    2.81    0.73
   6  -2  -6    3.94    0.86
   6  -2  -6    3.35    0.72
   6  -2  -5    0.67    0.41
   6  -2  -5    0.16    0.28
   6  -2  -4    2.64    0.55
   6  -2  -4    2.24    0.64
   6  -2  -3    3.95    0.65
   6  -2  -3    3.63    0.76
   6  -2  -3    3.56    0.70
   6  -2  -2    0.48    0.36
   6  -2  -2    0.45    0.38
   6  -2  -1   21.84    1.54
   6  -2  -1   21.43    1.65
   6  -2   0   31.71    1.93
   6  -2   0   31.14    2.03
   6  -2   0   32.86    2.06
   6  -2   1    0.11    0.41
   6  -2   1   -0.10    0.46
   6  -2   2   -0.43    0.51
   6  -2   2    0.63    0.56
   6  -2   2   -0.39    0.48
   6  -2   3   21.03    1.82
   6  -2   3   18.77    1.70
   6  -2   3   20.74    1.75
   6  -2   4    0.34    0.50
   6  -2   4   -0.59    0.54
   6  -2   5    0.79    0.55
   6  -2   5    0.96    0.67
   6  -2   6    6.68    0.81
  -6   1  12    0.10    0.31
   6  -1 -11    3.24    0.59
  -6   1  11    3.12    0.69
   6  -1 -10   24.75    1.72
   6  -1  -9    0.90    0.51
   6  -1  -8    0.55    0.42
   6  -1  -7    2.35    0.69
   6  -1  -6   15.03    1.52
   6  -1  -5   82.44    3.51
   6  -1  -5   80.55    2.83
   6  -1  -4    6.13    0.81
   6  -1  -4    6.12    0.99
   6  -1  -4    5.68    0.83
   6  -1  -3   28.96    1.69
   6  -1  -3   28.35    2.00
   6  -1  -3   28.60    1.81
   6  -1  -2   39.63    2.01
   6  -1  -2   39.19    2.42
   6  -1  -2   41.36    2.22
   6  -1  -1    1.92    0.55
   6  -1  -1    0.91    0.51
   6  -1   0   28.29    1.84
   6  -1   1    5.64    0.90
   6  -1   1    6.86    1.03
   6  -1   2    4.15    0.81
   6  -1   2    3.34    0.79
   6  -1   2    2.76    0.79
   6  -1   3    0.44    0.44
   6  -1   3    0.86    0.53
   6  -1   3   -0.06    0.42
   6  -1   4    0.89    0.56
   6  -1   4    1.44    0.66
   6  -1   4   -0.07    0.60
   6  -1   5   -0.14    0.39
   6  -1   5    0.83    0.58
  -6   0  12    0.50    0.37
   6   0 -11   14.50    1.18
  -6   0  11   13.83    1.29
   6   0 -10    0.96    0.45
  -6   0  10    0.95    0.57
   6   0  -9   -0.17    0.39
   6   0  -8    7.48    1.07
   6   0  -7    7.08    1.08
   6   0  -6   52.67    2.76
   6   0  -5   24.20    1.91
   6   0  -5   24.25    1.58
   6   0  -4   13.65    1.18
   6   0  -4   12.05    1.36
   6   0  -4   11.56    1.14
   6   0  -3   21.44    1.48
   6   0  -3   20.28    1.79
   6   0  -3   21.58    1.59
   6   0  -2    8.22    0.99
   6   0  -2    8.87    1.22
   6   0  -2    9.28    1.11
   6   0  -1  229.60    5.04
   6   0  -1  226.02    5.92
   6   0   0   50.08    2.46
   6   0   1    3.85    0.80
   6   0   1    4.41    0.96
   6   0   2    1.78    0.67
   6   0   2    1.44    0.64
   6   0   3    0.31    0.50
   6   0   3   -0.31    0.45
   6   0   3   -0.04    0.51
   6   0   4    0.67    0.43
   6   0   4    0.45    0.48
   6   0   5   13.10    1.04
  -6  -1  12    1.05    0.51
   6   1 -11    3.72    0.65
  -6  -1  11    4.52    0.84
   6   1 -10   18.63    1.49
  -6  -1  10   15.26    1.52
   6   1  -9    9.04    1.12
  -6  -1   9    8.58    1.15
   6   1  -8   10.01    1.22
   6   1  -7    2.23    0.67
   6   1  -6    4.57    0.90
   6   1  -5    9.39    1.04
   6   1  -5    9.39    1.22
   6   1  -4    1.73    0.55
   6   1  -4    0.64    0.54
   6   1  -4    1.82    0.57
   6   1  -3  100.73    3.28
   6   1  -3   97.95    3.94
   6   1  -2  147.41    4.07
   6   1  -2  142.12    4.83
   6   1  -1   14.46    1.40
   6   1  -1   13.36    1.57
   6   1   0    1.98    0.72
   6   1   0    1.38    0.60
   6   1   1    6.90    1.06
   6   1   1    6.10    1.08
   6   1   2    1.60    0.66
   6   1   3    0.07    0.47
   6   1   3    1.55    0.72
   6   1   4    0.29    0.46
  -6  -2  13    0.23    0.29
  -6  -2  12    0.77    0.47
  -6  -2  11    0.52    0.46
   6   2 -10   13.76    1.28
  -6  -2  10   12.96    1.40
   6   2  -9    2.74    0.68
  -6  -2   9    3.54    0.85
   6   2  -9    3.73    0.80
   6   2  -8    0.68    0.47
   6   2  -7    0.06    0.37
   6   2  -7    0.29    0.46
   6   2  -6    0.04    0.44
   6   2  -5    4.52    0.80
   6   2  -5    3.68    0.74
   6   2  -5    4.58    0.93
   6   2  -4    0.31    0.45
   6   2  -4   -0.01    0.28
   6   2  -4   -0.08    0.49
   6   2  -3   27.57    2.20
   6   2  -3   30.47    1.91
   6   2  -3   29.36    1.89
   6   2  -2   27.70    2.23
   6   2  -2   24.78    1.78
   6   2  -1    2.67    0.78
   6   2  -1    2.63    0.80
   6   2   0   22.39    1.94
   6   2   0   22.11    1.92
   6   2   1   18.32    1.60
   6   2   1   18.47    1.74
   6   2   2    3.79    0.82
   6   2   2    4.67    0.95
   6   2   3    0.61    0.45
   6   2   4    1.89    0.53
  -6  -3  13    0.42    0.30
  -6  -3  12    0.58    0.45
  -6  -3  11   31.22    1.97
  -6  -3  10    1.16    0.63
   6   3  -9  168.28    4.66
  -6  -3   9  153.45    4.73
   6   3  -8   24.59    1.90
   6   3  -7    0.73    0.57
   6   3  -6   20.40    1.84
   6   3  -6   17.63    1.64
   6   3  -5    0.57    0.41
   6   3  -5    1.10    0.61
   6   3  -4   15.16    1.67
   6   3  -4   13.10    1.37
   6   3  -3   -0.15    0.31
   6   3  -3    0.32    0.51
   6   3  -2    1.11    0.66
   6   3  -1    0.43    0.49
   6   3   0    0.61    0.53
   6   3   0    0.16    0.49
   6   3   0    0.39    0.43
   6   3   1    4.94    0.85
   6   3   1    5.89    1.04
   6   3   1    6.30    0.87
   6   3   2    5.37    0.81
   6   3   2    5.47    0.95
   6   3   2    5.59    0.74
   6   3   3    0.75    0.38
   6   3   3    0.39    0.36
  -6  -4  13    3.54    0.55
  -6  -4  12    2.83    0.63
  -6  -4  11   13.79    1.33
  -6  -4  10   73.05    3.11
  -6  -4   9   47.14    2.62
   6   4  -8   21.65    1.81
   6   4  -7   52.47    2.83
   6   4  -7   37.07    2.42
   6   4  -6    0.63    0.43
   6   4  -6    1.36    0.64
   6   4  -5   14.67    1.64
   6   4  -5   13.20    1.44
   6   4  -4    5.88    1.02
   6   4  -4    7.30    1.23
   6   4  -3    8.94    1.31
   6   4  -2    6.94    1.19
   6   4  -1    0.39    0.59
   6   4  -1    1.00    0.61
   6   4   0    1.99    0.69
   6   4   0    2.89    0.71
   6   4   0    3.57    0.69
   6   4   1    0.07    0.39
   6   4   1   -0.16    0.35
   6   4   1    0.63    0.51
   6   4   1    0.35    0.35
   6   4   2    0.43    0.31
   6   4   2   -1.00    0.38
  -6  -5  12    2.82    0.59
  -6  -5  11   14.38    1.31
  -6  -5  10    0.79    0.46
  -6  -5   9    3.69    0.80
   6   5  -8    0.49    0.47
   6   5  -8    0.72    0.44
   6   5  -7    8.31    1.19
   6   5  -7    6.08    1.02
   6   5  -6   17.79    1.74
   6   5  -6   15.12    1.56
   6   5  -5    0.31    0.46
   6   5  -5   -0.20    0.52
   6   5  -4    5.50    0.97
   6   5  -4    8.16    1.27
   6   5  -3    1.86    0.76
   6   5  -2    4.35    0.98
   6   5  -2    4.76    0.85
   6   5  -1   23.63    1.82
   6   5  -1   26.28    1.73
   6   5  -1   27.80    1.70
   6   5   0    1.20    0.52
   6   5   0    0.69    0.41
   6   5   0    0.41    0.35
   6   5   1    0.49    0.31
   6   5   1    0.07    0.30
   6   6 -12    0.22    0.26
  -6  -6  12    0.76    0.40
   6   6 -11    4.72    0.70
  -6  -6  11    4.71    0.75
   6   6 -10    0.97    0.45
  -6  -6  10    1.18    0.60
   6   6  -9    3.70    0.77
  -6  -6   9    4.13    0.80
   6   6  -8    4.04    0.84
   6   6  -7    3.36    0.80
   6   6  -7    1.77    0.60
   6   6  -6    3.30    0.79
   6   6  -6    3.39    0.84
   6   6  -5    0.74    0.50
   6   6  -5    1.28    0.64
   6   6  -4    7.97    1.19
   6   6  -3    0.28    0.54
   6   6  -2    9.39    1.17
   6   6  -1    2.01    0.58
   6   6  -1    2.73    0.60
   6   6   0    0.35    0.32
   6   7 -12    3.08    0.45
   6   7 -11    1.13    0.38
  -6  -7  11    1.01    0.43
   6   7 -10    4.47    0.70
  -6  -7  10    4.81    0.74
   6   7  -9    1.28    0.53
  -6  -7   9    1.50    0.52
   6   7  -8   10.56    1.19
   6   7  -7    2.32    0.60
   6   7  -7    2.62    0.70
   6   7  -6    0.25    0.41
   6   7  -6    0.02    0.44
   6   7  -5    9.14    1.15
   6   7  -4   -0.02    0.47
   6   7  -3    2.70    0.66
   6   7  -2   -0.11    0.36
   6   7  -2    0.29    0.35
   6   8 -11    0.39    0.22
   6   8 -10    2.77    0.51
  -6  -8  10    3.41    0.54
   6   8  -9   12.77    1.07
   6   8  -8   -0.11    0.33
   6   8  -7    5.90    0.81
   6   8  -6   11.66    1.03
   6   8  -5    0.82    0.42
   6   8  -4    4.39    0.66
   6   8  -3    3.69    0.53
   7 -10  -1    0.24    0.27
   7 -10  -1    0.15    0.17
   7 -10   0    6.26    0.68
   7 -10   1    0.25    0.27
   7 -10   2    1.48    0.35
   7  -9  -4    0.28    0.20
   7  -9  -3    2.00    0.40
   7  -9  -2    0.71    0.34
   7  -9  -1   22.75    1.43
   7  -9  -1   21.17    1.34
   7  -9   0    0.13    0.35
   7  -9   0    0.01    0.26
   7  -9   1   -0.14    0.33
   7  -9   2   17.84    1.21
   7  -9   3    1.15    0.35
   7  -8  -5    0.46    0.34
   7  -8  -4    0.03    0.32
   7  -8  -3    0.20    0.27
   7  -8  -3   -0.23    0.37
   7  -8  -2    0.81    0.44
   7  -8  -1    0.24    0.45
   7  -8  -1    0.11    0.38
   7  -8   0    0.96    0.47
   7  -8   0    0.70    0.42
   7  -8   1    2.37    0.64
   7  -8   1    2.35    0.51
   7  -8   2    2.28    0.54
   7  -8   2    2.70    0.68
   7  -8   3   13.90    1.07
   7  -8   3   11.87    1.12
   7  -8   4    0.44    0.34
   7  -7  -6    6.29    0.83
   7  -7  -5    1.63    0.48
   7  -7  -4    9.13    1.06
   7  -7  -3    0.30    0.35
   7  -7  -2    0.54    0.38
   7  -7  -1    1.27    0.54
   7  -7  -1    1.03    0.49
   7  -7   0    5.03    0.89
   7  -7   0    5.33    0.86
   7  -7   1    0.23    0.45
   7  -7   1    0.76    0.36
   7  -7   1    0.87    0.56
   7  -7   2    0.96    0.45
   7  -7   2   -0.03    0.41
   7  -7   3    5.27    0.73
   7  -7   3    6.14    0.85
   7  -7   4    1.08    0.39
   7  -6  -8    1.59    0.42
   7  -6  -7    4.58    0.72
   7  -6  -6    4.28    0.73
   7  -6  -6    4.11    0.74
   7  -6  -5   23.75    1.70
   7  -6  -5   20.91    1.62
   7  -6  -4   28.90    1.66
   7  -6  -4   21.77    1.63
   7  -6  -3    6.08    0.86
   7  -6  -2    7.44    0.98
   7  -6  -1    0.16    0.44
   7  -6  -1    0.08    0.45
   7  -6   0   14.50    1.38
   7  -6   0   16.52    1.48
   7  -6   1   -0.08    0.42
   7  -6   1    0.55    0.41
   7  -6   1   -0.13    0.40
   7  -6   2    1.59    0.58
   7  -6   2    1.28    0.50
   7  -6   3   -0.38    0.39
   7  -6   3    0.15    0.35
   7  -6   4    3.25    0.82
   7  -6   5    2.71    0.63
   7  -5  -9    2.34    0.47
   7  -5  -8    3.60    0.69
   7  -5  -7    0.35    0.41
   7  -5  -6   54.74    2.76
   7  -5  -6   63.05    2.69
   7  -5  -5   47.24    2.60
   7  -5  -5   46.13    2.34
   7  -5  -4    0.29    0.34
   7  -5  -3    4.43    0.76
   7  -5  -2   10.34    1.12
   7  -5  -2    9.99    1.28
   7  -5  -1    0.61    0.49
   7  -5  -1    0.61    0.56
   7  -5   0   -0.38    0.39
   7  -5   0   -0.04    0.43
   7  -5   0   -0.11    0.33
   7  -5   1    0.12    0.47
   7  -5   1    0.92    0.52
   7  -5   1    0.99    0.46
   7  -5   2   -0.37    0.56
   7  -5   2    2.58    0.88
   7  -5   3    3.35    0.61
   7  -5   3    4.00    0.87
   7  -5   4    0.82    0.56
   7  -5   5    0.95    0.46
   7  -4  -9    0.78    0.42
   7  -4  -8    5.63    0.91
   7  -4  -7   -0.02    0.43
   7  -4  -7    0.00    0.27
   7  -4  -6   11.42    1.36
   7  -4  -6   13.35    1.28
   7  -4  -5    4.07    0.88
   7  -4  -5    4.70    0.79
   7  -4  -4    1.96    0.53
   7  -4  -4    2.20    0.63
   7  -4  -3    6.23    0.88
   7  -4  -3    5.56    1.01
   7  -4  -2    7.13    0.97
   7  -4  -2    5.64    1.03
   7  -4  -1    0.98    0.58
   7  -4  -1   -0.99    0.56
   7  -4   0   -0.35    0.50
   7  -4   0    0.83    0.66
   7  -4   0    0.43    0.43
   7  -4   1    0.67    0.45
   7  -4   1    2.40    0.85
   7  -4   1    1.27    0.55
   7  -4   2    5.87    0.89
   7  -4   2    6.08    1.04
   7  -4   3    1.48    0.43
   7  -4   3    1.66    0.60
   7  -4   4    3.21    0.70
   7  -4   5    0.80    0.37
   7  -3 -10    0.84    0.35
   7  -3  -9    0.36    0.39
   7  -3  -8   15.91    1.49
   7  -3  -7    0.09    0.43
   7  -3  -6    2.90    0.70
   7  -3  -6    3.49    0.67
   7  -3  -5    4.98    0.96
   7  -3  -5    4.72    0.82
   7  -3  -4    2.49    0.57
   7  -3  -4    4.56    0.89
   7  -3  -4    3.43    0.76
   7  -3  -3    4.23    0.73
   7  -3  -3    4.41    0.88
   7  -3  -2    0.00    0.45
   7  -3  -2    0.33    0.47
   7  -3  -1    0.91    0.46
   7  -3  -1    0.77    0.59
   7  -3   0    1.95    0.63
   7  -3   0    3.11    0.82
   7  -3   0    1.63    0.63
   7  -3   1    4.65    0.86
   7  -3   1    5.18    0.97
   7  -3   1    6.00    0.93
   7  -3   2    0.02    0.37
   7  -3   2   -0.58    0.64
   7  -3   2   -0.01    0.34
   7  -3   3    2.97    0.75
   7  -3   3    3.35    0.69
   7  -3   3    2.00    0.56
   7  -3   4   -0.37    0.46
   7  -3   5   -0.24    0.29
   7  -2 -11    2.79    0.45
   7  -2 -10    1.46    0.47
   7  -2  -9    8.84    1.06
   7  -2  -8    0.53    0.45
   7  -2  -7   -0.30    0.46
   7  -2  -6    0.27    0.43
   7  -2  -6    0.38    0.31
   7  -2  -5    0.30    0.39
   7  -2  -5   -0.26    0.41
   7  -2  -4   -0.06    0.38
   7  -2  -4    1.02    0.54
   7  -2  -4   -0.27    0.43
   7  -2  -3    1.37    0.48
   7  -2  -3    0.30    0.57
   7  -2  -3    0.81    0.45
   7  -2  -2    5.29    0.85
   7  -2  -2    6.75    1.07
   7  -2  -1   17.27    1.48
   7  -2  -1   17.88    1.68
   7  -2   0    0.18    0.43
   7  -2   1   21.79    1.67
   7  -2   1   19.99    1.65
   7  -2   1   21.52    1.72
   7  -2   1   22.09    1.65
   7  -2   2    3.59    0.74
   7  -2   2    5.57    0.89
   7  -2   2    3.60    0.77
   7  -2   2    4.88    0.87
   7  -2   3    2.52    0.65
   7  -2   3    4.16    0.79
   7  -2   3    2.60    0.64
   7  -2   4   -0.33    0.42
   7  -1 -11    6.47    0.65
   7  -1 -11    8.35    0.80
  -7   1  11    8.17    0.77
   7  -1 -10   18.55    1.38
   7  -1  -9    1.04    0.51
   7  -1  -8    0.27    0.43
   7  -1  -7    3.89    0.80
   7  -1  -6   10.23    1.36
   7  -1  -6   13.66    1.20
   7  -1  -5    3.81    0.69
   7  -1  -5    4.22    0.95
   7  -1  -5    3.59    0.71
   7  -1  -4    6.06    0.87
   7  -1  -4    7.05    1.18
   7  -1  -4    7.02    1.03
   7  -1  -3    2.51    0.60
   7  -1  -3    3.02    0.86
   7  -1  -3    1.97    0.65
   7  -1  -2    1.15    0.55
   7  -1  -2    2.51    0.77
   7  -1  -2    1.13    0.58
   7  -1  -1    1.98    0.63
   7  -1   0    8.47    1.13
   7  -1   1    4.64    0.88
   7  -1   1    2.27    0.70
   7  -1   2    0.01    0.40
   7  -1   2    0.26    0.44
   7  -1   3    3.17    0.73
   7  -1   3    3.53    0.71
   7   0 -11    0.20    0.28
  -7   0  11   -0.01    0.30
   7   0 -10    9.89    1.04
   7   0  -9    4.28    0.80
   7   0  -8    1.99    0.63
   7   0  -7    2.30    0.71
   7   0  -6    0.41    0.52
   7   0  -5   33.17    1.90
   7   0  -5   32.57    2.38
   7   0  -5   29.92    1.84
   7   0  -4    1.68    0.58
   7   0  -4    0.54    0.61
   7   0  -4    1.58    0.58
   7   0  -3    2.16    0.62
   7   0  -3    2.37    0.86
   7   0  -2   29.37    1.92
   7   0  -2   28.84    2.27
   7   0  -1    8.91    1.15
   7   0  -1    6.65    1.08
   7   0   0    1.32    0.70
   7   0   0    0.33    0.47
   7   0   1    1.04    0.58
   7   0   2   -0.12    0.41
   7   0   2   -0.10    0.48
   7   0   3    1.06    0.46
  -7  -1  11    0.82    0.41
   7   1 -10   -0.47    0.35
   7   1  -9    2.07    0.59
   7   1  -9    1.95    0.53
   7   1  -8    2.50    0.71
   7   1  -7    8.77    1.22
   7   1  -6    5.57    1.05
   7   1  -5    3.83    0.79
   7   1  -5    3.84    0.98
   7   1  -4    0.72    0.51
   7   1  -4    0.20    0.57
   7   1  -3   32.14    2.46
   7   1  -3   29.36    1.95
   7   1  -2    0.22    0.55
   7   1  -2    0.49    0.56
   7   1  -1    2.14    0.77
   7   1  -1    1.21    0.60
   7   1   0    0.40    0.52
   7   1   1    2.22    0.65
   7   1   1    2.99    0.77
   7   1   2    0.22    0.37
   7   1   2    1.13    0.55
   7   1   3    1.65    0.44
  -7  -2  11    4.40    0.66
   7   2 -10    0.72    0.48
   7   2  -9    0.78    0.44
   7   2  -8   13.35    1.42
   7   2  -7    7.61    1.13
   7   2  -6    2.94    0.85
   7   2  -5    2.59    0.75
   7   2  -5    2.10    0.79
   7   2  -4    1.52    0.61
   7   2  -4    1.09    0.73
   7   2  -3    1.50    0.68
   7   2  -3    0.86    0.69
   7   2  -2    1.27    0.61
   7   2  -1    7.26    1.08
   7   2  -1    7.97    1.17
   7   2   0   11.80    1.18
   7   2   0   10.31    1.24
   7   2   1    1.01    0.45
   7   2   1    1.20    0.58
   7   2   2   -0.09    0.35
  -7  -3  11    0.16    0.32
   7   3 -10    3.92    0.66
   7   3  -9   18.06    1.53
   7   3  -9   15.65    1.36
   7   3  -8    0.38    0.40
   7   3  -8    0.13    0.48
   7   3  -7    0.38    0.35
   7   3  -7    0.75    0.60
   7   3  -6   -0.39    0.38
   7   3  -6   -0.14    0.55
   7   3  -5    1.83    0.56
   7   3  -5    3.29    0.97
   7   3  -4    5.62    1.06
   7   3  -3   -0.33    0.64
   7   3  -2    0.98    0.61
   7   3  -1    1.27    0.56
   7   3  -1    0.89    0.53
   7   3   0    9.66    1.01
   7   3   0    9.05    1.06
   7   3   1    7.15    0.87
   7   3   1    5.90    0.75
   7   4 -11    3.98    0.57
   7   4 -10    0.04    0.29
   7   4  -9   34.17    1.97
   7   4  -9   27.11    1.76
   7   4  -8    6.00    0.91
   7   4  -8    6.78    1.02
   7   4  -7    3.64    0.78
   7   4  -7    3.52    0.86
   7   4  -6    4.74    0.84
   7   4  -6    5.74    1.00
   7   4  -5   -0.27    0.48
   7   4  -5   -0.20    0.61
   7   4  -4    1.43    0.73
   7   4  -3    3.07    0.81
   7   4  -2   -0.04    0.52
   7   4  -2   -0.24    0.51
   7   4  -1    0.50    0.38
   7   4  -1    0.25    0.40
   7   4   0    0.97    0.41
   7   4   0    0.76    0.31
   7   4   0    1.17    0.43
   7   5 -11    0.30    0.24
   7   5 -10    2.97    0.56
   7   5  -9    8.86    0.98
   7   5  -9    7.21    0.91
   7   5  -8    1.73    0.54
   7   5  -8    2.66    0.66
   7   5  -7    3.78    0.77
   7   5  -7    3.21    0.75
   7   5  -6    0.29    0.38
   7   5  -6    0.54    0.49
   7   5  -5   -0.17    0.53
   7   5  -4    1.14    0.66
   7   5  -4    1.53    0.50
   7   5  -3    5.21    0.90
   7   5  -3    6.44    0.81
   7   5  -2   16.02    1.32
   7   5  -2   14.72    1.10
   7   5  -1   -0.04    0.26
   7   5  -1    0.36    0.30
   7   6 -11    0.10    0.18
   7   6 -10    0.11    0.26
   7   6  -9    2.92    0.58
   7   6  -8    0.83    0.42
   7   6  -8    0.82    0.35
   7   6  -7    9.55    1.04
   7   6  -7   10.25    1.09
   7   6  -6    1.77    0.59
   7   6  -5    0.25    0.43
   7   6  -4    0.91    0.50
   7   6  -4    1.38    0.34
   7   6  -3    3.91    0.66
   7   6  -3    4.14    0.55
   7   7 -10    0.90    0.29
   7   7  -9    0.47    0.26
   7   7  -7    4.55    0.62
   7   7  -6    2.77    0.53
   7   7  -5    0.59    0.32
   8  -8  -4    0.12    0.22
   8  -8  -3    4.26    0.59
   8  -8  -2   -0.40    0.35
   8  -8  -2   -0.31    0.32
   8  -8  -1    3.37    0.56
   8  -8  -1    2.71    0.49
   8  -8   0   -0.45    0.34
   8  -8   0    0.48    0.25
   8  -8   1    1.88    0.44
   8  -7  -5    1.08    0.37
   8  -7  -4    2.11    0.52
   8  -7  -3    0.52    0.34
   8  -7  -3    0.16    0.35
   8  -7  -2    1.25    0.45
   8  -7  -2    1.67    0.51
   8  -7  -1    2.79    0.57
   8  -7  -1    4.98    0.74
   8  -7   0    2.60    0.60
   8  -7   0    2.68    0.52
   8  -7   1   -0.45    0.43
   8  -7   2    0.77    0.31
   8  -6  -6    0.64    0.33
   8  -6  -5    7.19    0.85
   8  -6  -4    1.40    0.40
   8  -6  -4    1.43    0.50
   8  -6  -3    2.24    0.53
   8  -6  -3    1.89    0.62
   8  -6  -2   -0.01    0.40
   8  -6  -2    0.59    0.42
   8  -6  -1    3.33    0.69
   8  -6  -1    3.59    0.73
   8  -6   0    5.00    0.81
   8  -6   0    5.72    0.80
   8  -6   1   10.94    1.04
   8  -6   2   -0.13    0.34
   8  -5  -7   23.81    1.41
   8  -5  -6   42.97    2.02
   8  -5  -6   47.08    1.93
   8  -5  -5    1.28    0.47
   8  -5  -4    0.57    0.35
   8  -5  -4    0.03    0.42
   8  -5  -3    1.88    0.52
   8  -5  -3    1.83    0.67
   8  -5  -2    0.60    0.43
   8  -5  -2    1.53    0.61
   8  -5  -1   16.18    1.36
   8  -5  -1   21.02    1.64
   8  -5   0   -0.34    0.56
   8  -5   1    4.62    0.76
   8  -5   2    1.32    0.42
   8  -4  -8    0.34    0.31
   8  -4  -7   20.04    1.49
   8  -4  -6   -0.14    0.37
   8  -4  -6    0.54    0.35
   8  -4  -5   10.15    1.08
   8  -4  -4    1.49    0.48
   8  -4  -4    2.66    0.71
   8  -4  -4    1.29    0.60
   8  -4  -3    7.76    0.92
   8  -4  -3    7.18    1.06
   8  -4  -2    7.16    0.94
   8  -4  -2    7.78    1.13
   8  -4  -1    6.61    0.93
   8  -4  -1    8.43    1.13
   8  -4   0    1.17    0.54
   8  -4   1    2.81    0.68
   8  -4   2    0.41    0.40
   8  -3  -9   -0.22    0.32
   8  -3  -8    2.73    0.62
   8  -3  -7   -0.04    0.37
   8  -3  -6   -0.03    0.30
   8  -3  -5    0.44    0.35
   8  -3  -5    0.24    0.35
   8  -3  -4    2.53    0.58
   8  -3  -4    1.85    0.66
   8  -3  -4    1.77    0.58
   8  -3  -3   -0.40    0.42
   8  -3  -3    0.52    0.47
   8  -3  -3   -0.07    0.44
   8  -3  -2    1.14    0.54
   8  -3  -2    1.46    0.68
   8  -3  -1    2.71    0.69
   8  -3  -1    3.86    0.69
   8  -3   0    2.70    0.71
   8  -3   1    1.52    0.58
   8  -3   2   14.22    1.06
   8  -2  -9    0.68    0.38
   8  -2  -9    0.45    0.37
   8  -2  -8   -0.04    0.40
   8  -2  -6    2.64    0.74
   8  -2  -6    2.47    0.54
   8  -2  -5    0.16    0.36
   8  -2  -5   -0.28    0.65
   8  -2  -5   -0.19    0.37
   8  -2  -4    0.06    0.37
   8  -2  -4    1.08    0.69
   8  -2  -4    0.38    0.44
   8  -2  -3    3.10    0.65
   8  -2  -3    3.89    0.90
   8  -2  -2    3.67    0.76
   8  -2  -1    0.64    0.54
   8  -2   0    2.84    0.76
   8  -2   0    1.19    0.45
   8  -2   1    2.86    0.66
   8  -2   1   -0.03    0.33
   8  -2   2    2.25    0.47
   8  -1 -10    2.30    0.49
   8  -1  -9   -0.01    0.34
   8  -1  -8   -0.15    0.46
   8  -1  -7    3.58    0.82
   8  -1  -6   -0.14    0.59
   8  -1  -5   16.62    1.29
   8  -1  -5   15.94    1.69
   8  -1  -4    0.14    0.39
   8  -1  -4    0.11    0.51
   8  -1  -3    2.03    0.62
   8  -1  -3    1.34    0.61
   8  -1  -2   12.97    1.26
   8  -1  -2   13.97    1.46
   8  -1  -1    1.42    0.66
   8  -1  -1    0.76    0.46
   8  -1   0    5.53    0.77
   8  -1   0    6.21    0.95
   8  -1   0    5.75    0.85
   8  -1   1    1.60    0.47
   8  -1   1    1.29    0.46
   8   0 -10    2.05    0.49
   8   0  -9    0.00    0.38
   8   0  -8    3.11    0.70
   8   0  -7    0.94    0.57
   8   0  -6   35.62    2.36
   8   0  -5    0.44    0.47
   8   0  -5   -0.55    0.64
   8   0  -4    1.27    0.56
   8   0  -4   -0.20    0.58
   8   0  -3    7.41    1.20
   8   0  -3    8.59    1.06
   8   0  -2    0.87    0.64
   8   0  -2    0.86    0.60
   8   0  -1   24.23    1.72
   8   0   0    9.11    1.02
   8   0   0   11.60    1.06
   8   0   1    0.19    0.29
   8   0   1    0.57    0.36
   8   1 -10   -0.08    0.31
   8   1  -9    0.40    0.41
   8   1  -8   11.95    1.24
   8   1  -7    0.45    0.53
   8   1  -6    0.69    0.58
   8   1  -5    1.49    0.73
   8   1  -4    2.14    0.79
   8   1  -3   36.79    2.40
   8   1  -2   28.67    1.93
   8   1  -2   32.04    2.02
   8   1  -1   -0.03    0.40
   8   1   0    5.21    0.76
   8   1   0    6.26    0.78
   8   2 -10   11.43    0.94
   8   2  -9    4.56    0.75
   8   2  -8    5.13    0.86
   8   2  -7    0.05    0.49
   8   2  -6    0.61    0.65
   8   2  -5    1.48    0.69
   8   2  -4    2.64    0.82
   8   2  -3    2.30    0.72
   8   2  -2    2.27    0.57
   8   2  -2    1.94    0.62
   8   2  -1   -0.14    0.37
   8   2   0    1.94    0.45
   8   2   0    2.07    0.49
   8   3 -10    0.24    0.24
   8   3  -9   30.30    1.65
   8   3  -8    9.93    1.10
   8   3  -7    0.87    0.58
   8   3  -6    1.76    0.61
   8   3  -5    0.34    0.48
   8   3  -4    1.95    0.65
   8   3  -3    1.99    0.59
   8   3  -3    1.96    0.51
   8   3  -2    0.99    0.42
   8   3  -2    0.85    0.41
   8   3  -1    0.33    0.28
   8   4  -9    2.40    0.50
   8   4  -8   -0.01    0.36
   8   4  -7    4.62    0.79
   8   4  -6    1.16    0.52
   8   4  -5    0.68    0.50
   8   4  -4    3.04    0.65
   8   4  -4    3.13    0.59
   8   4  -3   -0.66    0.38
   8   4  -3    0.13    0.26
   8   5  -8   -0.10    0.28
   8   5  -7    2.99    0.54
   8   5  -6    1.03    0.43
   8   5  -5    0.28    0.31
   9  -6  -2    0.90    0.34
   9  -5  -5    2.77    0.46
   9  -5  -4    0.09    0.26
   9  -5  -3    1.75    0.42
   9  -5  -2    0.42    0.33
   9  -5  -1    0.57    0.35
   9  -4  -6    4.06    0.62
   9  -4  -5    1.04    0.39
   9  -4  -4    3.12    0.52
   9  -4  -3    0.01    0.29
   9  -4  -2    0.17    0.34
   9  -4  -1    1.02    0.41
   9  -3  -7    0.08    0.30
   9  -3  -6    0.59    0.41
   9  -3  -5   -0.11    0.30
   9  -3  -4    0.45    0.32
   9  -3  -3    1.68    0.48
   9  -3  -2    1.36    0.47
   9  -3  -1    1.75    0.50
   9  -2  -8    0.13    0.29
   9  -2  -7    0.43    0.36
   9  -2  -6    0.40    0.39
   9  -2  -5    0.51    0.33
   9  -2  -5   -0.03    0.34
   9  -2  -4    0.87    0.39
   9  -2  -4    0.24    0.36
   9  -2  -3    0.44    0.42
   9  -2  -3   -0.34    0.31
   9  -2  -2    0.45    0.43
   9  -2  -2   -0.72    0.32
   9  -1  -8    0.26    0.29
   9  -1  -7   -0.01    0.35
   9  -1  -6    1.07    0.48
   9  -1  -5    2.60    0.64
   9  -1  -4    0.56    0.37
   9  -1  -4    0.07    0.37
   9  -1  -3    0.19    0.30
   9  -1  -2   -0.02    0.26
   9   0  -8    0.42    0.31
   9   0  -7    1.02    0.45
   9   0  -6    0.83    0.46
   9   0  -5    1.99    0.59
   9   0  -4    1.87    0.57
   9   0  -3    0.38    0.39
   9   0  -2    3.65    0.58
   9   1  -8    0.83    0.36
   9   1  -7    0.88    0.42
   9   1  -6    1.65    0.55
   9   1  -5    0.51    0.45
   9   1  -4    2.44    0.57
   9   1  -4    1.80    0.50
   9   1  -3    4.87    0.68
   9   2  -8    1.50    0.38
   9   2  -7    0.50    0.35
   9   2  -6   -0.39    0.36
   9   2  -5    0.30    0.33
   9   2  -5    0.08    0.30
   0   0   0    0.00    0.00
TITL OUDIZAN-3R in P-1
REM P-1 (#2 in standard setting)
CELL 1.54184   7.771117  10.989703  11.409039 112.0129 109.2589  98.1203
ZERR    2.00   0.000630   0.001099   0.001080   0.0091   0.0079   0.0074
LATT  1
SFAC C H N O S
UNIT 38.00 38.00 2.00 2.00 2.00
TREF
HKLF 4
END
_computing_structure_solution     'SHELXT 2014/5 (Sheldrick, 2014)'
_computing_structure_solution     'SHELXT 2014/5 (Sheldrick, 2014)'
;
_shelx_hkl_checksum              61533
_shelx_res_file
;
TITL oudizan-3r_a.res in P-1
REM Old TITL OUDIZAN-3R in P-1 #2
REM SHELXT solution in P-1
REM R1 0.170, Rweak 0.011, Alpha 0.040, Orientation as input
REM Formula found by SHELXT: C19 N O S
CELL 1.54184 7.7711 10.9897 11.409 112.013 109.259 98.12
ZERR 2 0.0006 0.0011 0.0011 0.009 0.008 0.007
LATT 1
SFAC C H N O S
UNIT 38 38 2 2 2
L.S. 10
PLAN  20
TEMP 20(2)
HTAB C11 S1
BOND $H
list 4
fmap 2
acta
OMIT 0 -6 5
REM <olex2.extras>
REM <HklSrc "%.\\OUDIZAN-3R.hkl">
REM </olex2.extras>
WGHT    0.080300    0.084200
FVAR       0.60889
S1    5    0.325222    0.772224    0.860523    11.00000    0.08428    0.03974 =
         0.03686    0.01300    0.02186    0.01518
O1    4    0.260186    0.416589    0.562072    11.00000    0.07035    0.03849 =
         0.03679    0.01699    0.02450    0.02013
N1    3    0.247225    0.615065    0.546268    11.00000    0.05523    0.04107 =
         0.04086    0.01935    0.02173    0.01536
C1    1    0.258700    0.548312    0.617556    11.00000    0.04651    0.03613 =
         0.03793    0.01324    0.01817    0.01160
C2    1    0.273162    0.594538    0.761057    11.00000    0.04437    0.03749 =
         0.03763    0.01500    0.01684    0.01224
C3    1    0.277906    0.834077    0.735726    11.00000    0.04559    0.04073 =
         0.04666    0.02017    0.01747    0.00985
C4    1    0.278767    0.970524    0.779803    11.00000    0.05601    0.04089 =
         0.05301    0.01345    0.01887    0.00824
AFIX  43
H4    2    0.301077    1.024207    0.871702    11.00000   -1.20000
AFIX   0
C5    1    0.246522    1.026768    0.687355    11.00000    0.06430    0.03811 =
         0.07602    0.02499    0.02533    0.01536
AFIX  43
H5    2    0.247734    1.118216    0.716999    11.00000   -1.20000
AFIX   0
C6    1    0.212403    0.946042    0.550304    11.00000    0.07437    0.05429 =
         0.06952    0.04036    0.03082    0.02372
AFIX  43
H6    2    0.190493    0.983176    0.487629    11.00000   -1.20000
AFIX   0
C7    1    0.211027    0.810456    0.507100    11.00000    0.06588    0.05125 =
         0.04967    0.02675    0.02723    0.02029
AFIX  43
H7    2    0.186951    0.756808    0.414804    11.00000   -1.20000
AFIX   0
C8    1    0.244944    0.752237    0.598821    11.00000    0.04471    0.04075 =
         0.04575    0.02155    0.01922    0.01237
C9    1    0.252092    0.502488    0.811285    11.00000    0.05773    0.04056 =
         0.04225    0.01668    0.02157    0.01304
AFIX  43
H9    2    0.225989    0.411510    0.748335    11.00000   -1.20000
AFIX   0
C10   1    0.263467    0.521959    0.948217    11.00000    0.05376    0.05222 =
         0.04566    0.02699    0.02363    0.02146
C11   1    0.351550    0.645155    1.069819    11.00000    0.06463    0.05372 =
         0.04514    0.02527    0.02166    0.01182
AFIX  43
H11   2    0.408867    0.723812    1.067286    11.00000   -1.20000
AFIX   0
C12   1    0.355543    0.652933    1.194191    11.00000    0.08219    0.06635 =
         0.04391    0.02563    0.02649    0.02046
AFIX  43
H12   2    0.414761    0.736598    1.274232    11.00000   -1.20000
AFIX   0
C13   1    0.272594    0.537875    1.200826    11.00000    0.08902    0.07707 =
         0.05605    0.04377    0.04051    0.03592
AFIX  43
H13   2    0.274549    0.543622    1.284708    11.00000   -1.20000
AFIX   0
C14   1    0.186861    0.414423    1.082322    11.00000    0.09711    0.06352 =
         0.07139    0.04601    0.04480    0.02505
AFIX  43
H14   2    0.131088    0.336172    1.086173    11.00000   -1.20000
AFIX   0
C15   1    0.182990    0.405803    0.957165    11.00000    0.08180    0.04998 =
         0.05333    0.02746    0.02953    0.01977
AFIX  43
H15   2    0.125925    0.321373    0.877975    11.00000   -1.20000
AFIX   0
C16   1    0.240656    0.356205    0.420347    11.00000    0.05550    0.03944 =
         0.03599    0.01472    0.02078    0.01237
AFIX  23
H16A  2    0.346158    0.406363    0.412570    11.00000   -1.20000
H16B  2    0.121993    0.358916    0.358767    11.00000   -1.20000
AFIX   0
C17   1    0.241123    0.210204    0.382549    11.00000    0.05363    0.04196 =
         0.04282    0.01802    0.02093    0.01593
AFIX  23
H17A  2    0.141297    0.163825    0.398166    11.00000   -1.20000
H17B  2    0.362723    0.209645    0.442693    11.00000   -1.20000
AFIX   0
C18   1    0.209369    0.131906    0.232162    11.00000    0.06687    0.05078 =
         0.04716    0.01447    0.02920    0.01762
AFIX  23
H18A  2    0.088388    0.133493    0.172269    11.00000   -1.20000
H18B  2    0.309806    0.178141    0.216951    11.00000   -1.20000
AFIX   0
C19   1    0.207735   -0.015782    0.192046    11.00000    0.09881    0.05327 =
         0.07150    0.01176    0.04410    0.02641
AFIX 137
H19A  2    0.192098   -0.059403    0.097293    11.00000   -1.50000
H19B  2    0.103721   -0.063695    0.201460    11.00000   -1.50000
H19C  2    0.326349   -0.018197    0.251864    11.00000   -1.50000
AFIX   0
HKLF 4
REM  oudizan-3r_a.res in P-1
REM R1 =  0.0484 for    2492 Fo > 4sig(Fo)  and  0.0587 for all    3070 data
REM    200 parameters refined using      0 restraints
END
WGHT      0.0803      0.0842
REM Highest difference peak  0.550,  deepest hole -0.219,  1-sigma level  0.047
Q1    1   0.3198  0.7028  0.9025  11.00000  0.05    0.55
Q2    1   0.2823  0.5881  0.7017  11.00000  0.05    0.27
Q3    1   0.2652  0.7973  0.6779  11.00000  0.05    0.23
Q4    1   0.3158  0.8210  0.7965  11.00000  0.05    0.22
Q5    1   0.2641  0.7971  0.5671  11.00000  0.05    0.20
Q6    1   0.3327  0.5788  1.1806  11.00000  0.05    0.17
Q7    1   0.1743  0.7652  0.5438  11.00000  0.05    0.17
Q8    1   0.2725  0.6019  0.9966  11.00000  0.05    0.16
Q9    1   0.2991  0.6408  1.1197  11.00000  0.05    0.15
Q10   1   0.2344  0.1787  0.3170  11.00000  0.05    0.15
Q11   1   0.3202  0.9012  0.7636  11.00000  0.05    0.15
Q12   1   0.2583  0.6601  0.6357  11.00000  0.05    0.14
Q13   1   0.2459  0.5253  0.8929  11.00000  0.05    0.14
Q14   1   0.0401  0.2822  1.0367  11.00000  0.05    0.13
Q15   1   0.1433  0.5628  0.5387  11.00000  0.05    0.13
Q16   1   0.5289  0.8181  0.9075  11.00000  0.05    0.13
Q17   1   0.2138  0.4111  1.0238  11.00000  0.05    0.13
Q18   1   0.4900  0.6966  1.0639  11.00000  0.05    0.13
Q19   1   0.1857  0.5800  0.4645  11.00000  0.05    0.13
Q20   1   0.2254  0.9739  0.7331  11.00000  0.05    0.13
;
_shelx_res_checksum              75023
_shelxl_version_number           2014/6
loop_
_space_group_symop_operation_xyz
'x, y, z'
'-x, -y, -z'
loop_
_atom_site_type_symbol
_atom_site_label
_atom_site_fract_x
_atom_site_fract_y
_atom_site_fract_z
_atom_site_U_iso_or_equiv
_atom_site_adp_type
_atom_site_calc_flag
_atom_site_occupancy
S S1 0.32522(9) 0.77222(5) 0.86052(5) 0.0565(2) Uani d 1
O O1 0.2602(2) 0.41659(14) 0.56207(14) 0.0475(4) Uani d 1
N N1 0.2472(2) 0.61507(17) 0.54627(17) 0.0448(4) Uani d 1
C C1 0.2587(3) 0.54831(19) 0.6176(2) 0.0413(4) Uani d 1
C C2 0.2732(3) 0.59454(19) 0.7611(2) 0.0406(4) Uani d 1
C C3 0.2779(3) 0.8341(2) 0.7357(2) 0.0451(5) Uani d 1
C C4 0.2788(3) 0.9705(2) 0.7798(2) 0.0544(5) Uani d 1
H H4 0.3011 1.0242 0.8717 0.065 Uiso calc 1
C C5 0.2465(3) 1.0268(2) 0.6874(3) 0.0609(6) Uani d 1
H H5 0.2477 1.1182 0.7170 0.073 Uiso calc 1
C C6 0.2124(4) 0.9460(3) 0.5503(3) 0.0611(6) Uani d 1
H H6 0.1905 0.9832 0.4876 0.073 Uiso calc 1
C C7 0.2110(3) 0.8105(2) 0.5071(2) 0.0530(5) Uani d 1
H H7 0.1870 0.7568 0.4148 0.064 Uiso calc 1
C C8 0.2449(3) 0.7522(2) 0.5988(2) 0.0430(4) Uani d 1
C C9 0.2521(3) 0.5025(2) 0.8113(2) 0.0475(5) Uani d 1
H H9 0.2260 0.4115 0.7483 0.057 Uiso calc 1
C C10 0.2635(3) 0.5220(2) 0.9482(2) 0.0474(5) Uani d 1
C C11 0.3516(3) 0.6452(2) 1.0698(2) 0.0546(5) Uani d 1
H H11 0.4089 0.7238 1.0673 0.065 Uiso calc 1
C C12 0.3555(4) 0.6529(3) 1.1942(3) 0.0641(6) Uani d 1
H H12 0.4148 0.7366 1.2742 0.077 Uiso calc 1
C C13 0.2726(4) 0.5379(3) 1.2008(3) 0.0652(7) Uani d 1
H H13 0.2745 0.5436 1.2847 0.078 Uiso calc 1
C C14 0.1869(4) 0.4144(3) 1.0823(3) 0.0692(7) Uani d 1
H H14 0.1311 0.3362 1.0862 0.083 Uiso calc 1
C C15 0.1830(4) 0.4058(3) 0.9572(3) 0.0599(6) Uani d 1
H H15 0.1259 0.3214 0.8780 0.072 Uiso calc 1
C C16 0.2407(3) 0.3562(2) 0.4203(2) 0.0442(5) Uani d 1
H H16A 0.3462 0.4064 0.4126 0.053 Uiso calc 1
H H16B 0.1220 0.3589 0.3588 0.053 Uiso calc 1
C C17 0.2411(3) 0.2102(2) 0.3825(2) 0.0461(5) Uani d 1
H H17A 0.1413 0.1638 0.3982 0.055 Uiso calc 1
H H17B 0.3627 0.2096 0.4427 0.055 Uiso calc 1
C C18 0.2094(4) 0.1319(2) 0.2322(2) 0.0559(6) Uani d 1
H H18A 0.0884 0.1335 0.1723 0.067 Uiso calc 1
H H18B 0.3098 0.1781 0.2170 0.067 Uiso calc 1
C C19 0.2077(5) -0.0158(3) 0.1920(3) 0.0771(8) Uani d 1
H H19A 0.1921 -0.0594 0.0973 0.116 Uiso calc 1
H H19B 0.1037 -0.0637 0.2015 0.116 Uiso calc 1
H H19C 0.3263 -0.0182 0.2519 0.116 Uiso calc 1
loop_
_atom_site_aniso_label
_atom_site_aniso_U_11
_atom_site_aniso_U_22
_atom_site_aniso_U_33
_atom_site_aniso_U_12
_atom_site_aniso_U_13
_atom_site_aniso_U_23
S1 0.0843(4) 0.0397(3) 0.0369(3) 0.0152(3) 0.0219(3) 0.0130(2)
O1 0.0704(9) 0.0385(7) 0.0368(7) 0.0201(6) 0.0245(7) 0.0170(6)
N1 0.0552(10) 0.0411(9) 0.0409(9) 0.0154(7) 0.0217(8) 0.0194(7)
C1 0.0465(10) 0.0361(10) 0.0379(10) 0.0116(8) 0.0182(8) 0.0132(8)
C2 0.0444(10) 0.0375(10) 0.0376(10) 0.0122(8) 0.0168(8) 0.0150(8)
C3 0.0456(10) 0.0407(10) 0.0467(11) 0.0098(8) 0.0175(9) 0.0202(9)
C4 0.0560(12) 0.0409(11) 0.0530(13) 0.0082(9) 0.0189(10) 0.0135(10)
C5 0.0643(14) 0.0381(11) 0.0760(16) 0.0154(10) 0.0253(12) 0.0250(11)
C6 0.0744(16) 0.0543(13) 0.0695(16) 0.0237(12) 0.0308(13) 0.0404(12)
C7 0.0659(14) 0.0512(12) 0.0497(12) 0.0203(10) 0.0272(10) 0.0267(10)
C8 0.0447(10) 0.0408(10) 0.0457(11) 0.0124(8) 0.0192(8) 0.0216(9)
C9 0.0577(12) 0.0406(10) 0.0422(11) 0.0130(9) 0.0216(9) 0.0167(9)
C10 0.0538(11) 0.0522(12) 0.0457(11) 0.0215(9) 0.0236(9) 0.0270(10)
C11 0.0646(13) 0.0537(13) 0.0451(12) 0.0118(10) 0.0217(10) 0.0253(10)
C12 0.0822(17) 0.0664(15) 0.0439(12) 0.0205(13) 0.0265(12) 0.0256(11)
C13 0.0890(18) 0.0771(17) 0.0560(14) 0.0359(14) 0.0405(13) 0.0438(13)
C14 0.0971(19) 0.0635(16) 0.0714(17) 0.0250(14) 0.0448(15) 0.0460(14)
C15 0.0818(16) 0.0500(13) 0.0533(13) 0.0198(11) 0.0295(12) 0.0275(11)
C16 0.0555(12) 0.0394(10) 0.0360(10) 0.0124(8) 0.0208(9) 0.0147(8)
C17 0.0536(12) 0.0420(11) 0.0428(11) 0.0159(9) 0.0209(9) 0.0180(9)
C18 0.0669(14) 0.0508(12) 0.0472(12) 0.0176(10) 0.0292(11) 0.0145(10)
C19 0.099(2) 0.0533(15) 0.0715(18) 0.0264(14) 0.0441(16) 0.0118(13)
loop_
_atom_type_symbol
_atom_type_description
_atom_type_scat_dispersion_real
_atom_type_scat_dispersion_imag
_atom_type_scat_source
C C 0.0181 0.0091 'International Tables Vol C Tables 4.2.6.8 and 6.1.1.4'
H H 0.0000 0.0000 'International Tables Vol C Tables 4.2.6.8 and 6.1.1.4'
N N 0.0311 0.0180 'International Tables Vol C Tables 4.2.6.8 and 6.1.1.4'
O O 0.0492 0.0322 'International Tables Vol C Tables 4.2.6.8 and 6.1.1.4'
S S 0.3331 0.5567 'International Tables Vol C Tables 4.2.6.8 and 6.1.1.4'
loop_
_geom_angle_atom_site_label_1
_geom_angle_atom_site_label_2
_geom_angle_atom_site_label_3
_geom_angle
C3 S1 C2 103.27(10)
C1 O1 C16 117.28(15)
C1 N1 C8 122.00(17)
O1 C1 C2 111.21(17)
N1 C1 O1 119.64(17)
N1 C1 C2 129.15(18)
C1 C2 S1 116.55(14)
C9 C2 S1 123.02(16)
C9 C2 C1 120.40(18)
C4 C3 S1 117.21(17)
C4 C3 C8 120.7(2)
C8 C3 S1 122.03(16)
C3 C4 H4 119.9
C5 C4 C3 120.2(2)
C5 C4 H4 119.9
C4 C5 H5 120.2
C4 C5 C6 119.6(2)
C6 C5 H5 120.2
C5 C6 H6 120.1
C7 C6 C5 119.9(2)
C7 C6 H6 120.1
C6 C7 H7 119.3
C6 C7 C8 121.4(2)
C8 C7 H7 119.3
C3 C8 N1 124.66(18)
C3 C8 C7 118.15(19)
C7 C8 N1 117.17(19)
C2 C9 H9 114.6
C2 C9 C10 130.9(2)
C10 C9 H9 114.6
C11 C10 C9 125.5(2)
C11 C10 C15 117.6(2)
C15 C10 C9 116.9(2)
C10 C11 H11 119.4
C12 C11 C10 121.2(2)
C12 C11 H11 119.4
C11 C12 H12 119.7
C13 C12 C11 120.5(2)
C13 C12 H12 119.7
C12 C13 H13 120.3
C14 C13 C12 119.4(2)
C14 C13 H13 120.3
C13 C14 H14 119.8
C13 C14 C15 120.4(2)
C15 C14 H14 119.8
C10 C15 H15 119.5
C14 C15 C10 120.9(2)
C14 C15 H15 119.5
O1 C16 H16A 110.3
O1 C16 H16B 110.3
O1 C16 C17 106.89(16)
H16A C16 H16B 108.6
C17 C16 H16A 110.3
C17 C16 H16B 110.3
C16 C17 H17A 109.2
C16 C17 H17B 109.2
C16 C17 C18 112.25(18)
H17A C17 H17B 107.9
C18 C17 H17A 109.2
C18 C17 H17B 109.2
C17 C18 H18A 109.0
C17 C18 H18B 109.0
H18A C18 H18B 107.8
C19 C18 C17 112.9(2)
C19 C18 H18A 109.0
C19 C18 H18B 109.0
C18 C19 H19A 109.5
C18 C19 H19B 109.5
C18 C19 H19C 109.5
H19A C19 H19B 109.5
H19A C19 H19C 109.5
H19B C19 H19C 109.5
loop_
_geom_bond_atom_site_label_1
_geom_bond_atom_site_label_2
_geom_bond_distance
S1 C2 1.754(2)
S1 C3 1.754(2)
O1 C1 1.349(2)
O1 C16 1.443(2)
N1 C1 1.275(3)
N1 C8 1.403(3)
C1 C2 1.480(3)
C2 C9 1.352(3)
C3 C4 1.390(3)
C3 C8 1.390(3)
C4 H4 0.9300
C4 C5 1.384(3)
C5 H5 0.9300
C5 C6 1.387(4)
C6 H6 0.9300
C6 C7 1.380(3)
C7 H7 0.9300
C7 C8 1.393(3)
C9 H9 0.9300
C9 C10 1.465(3)
C10 C11 1.389(3)
C10 C15 1.395(3)
C11 H11 0.9300
C11 C12 1.379(3)
C12 H12 0.9300
C12 C13 1.376(4)
C13 H13 0.9300
C13 C14 1.374(4)
C14 H14 0.9300
C14 C15 1.385(3)
C15 H15 0.9300
C16 H16A 0.9700
C16 H16B 0.9700
C16 C17 1.498(3)
C17 H17A 0.9700
C17 H17B 0.9700
C17 C18 1.516(3)
C18 H18A 0.9700
C18 H18B 0.9700
C18 C19 1.509(3)
C19 H19A 0.9600
C19 H19B 0.9600
C19 H19C 0.9600
loop_
_geom_hbond_atom_site_label_D
_geom_hbond_atom_site_label_H
_geom_hbond_atom_site_label_A
_geom_hbond_site_symmetry_A
_geom_hbond_distance_DH
_geom_hbond_distance_HA
_geom_hbond_distance_DA
_geom_hbond_angle_DHA
C11 H11 S1 . 0.93 2.51 3.155(2) 126.7
C17 H17A Cg2 2_566 0.97 2.82 3.665(3) 146

_cod_database_fobs_code 1546682
