#------------------------------------------------------------------------------
#$Date: 2019-03-18 09:35:25 +0200 (Mon, 18 Mar 2019) $
#$Revision: 214153 $
#$URL: file:///home/coder/svn-repositories/cod/cif/1/54/77/1547732.cif $
#------------------------------------------------------------------------------
#
# This file is available in the Crystallography Open Database (COD),
# http://www.crystallography.net/
#
# All data on this site have been placed in the public domain by the
# contributors.
#
data_1547732
loop_
_publ_author_name
'Nagamoto, Midori'
'Fukuda, Jun-Ichi'
'Hatano, Miyuki'
'Yorimitsu, Hideki'
'Nishimura, Takahiro'
_publ_section_title
;
 Hydroxoiridium-Catalyzed Hydroarylation of Alkynes and Bicycloalkenes
 with N-Sulfonylbenzamides.
;
_journal_issue                   21
_journal_name_full               'Organic letters'
_journal_page_first              5952
_journal_page_last               5955
_journal_paper_doi               10.1021/acs.orglett.7b02950
_journal_volume                  19
_journal_year                    2017
_chemical_formula_moiety         'C23 H21 N O3 S'
_chemical_formula_sum            'C23 H21 N O3 S'
_chemical_formula_weight         391.46
_space_group_crystal_system      triclinic
_space_group_IT_number           2
_space_group_name_Hall           '-P 1'
_space_group_name_H-M_alt        'P -1'
_symmetry_space_group_name_Hall  '-P 1'
_symmetry_space_group_name_H-M   'P -1'
_atom_sites_solution_hydrogens   geom
_audit_creation_method           SHELXL-2014/7
_cell_angle_alpha                88.185(18)
_cell_angle_beta                 78.40(2)
_cell_angle_gamma                72.259(15)
_cell_formula_units_Z            4
_cell_length_a                   9.0699(11)
_cell_length_b                   13.9562(14)
_cell_length_c                   17.516(2)
_cell_measurement_reflns_used    2194
_cell_measurement_temperature    93
_cell_measurement_theta_max      68.2
_cell_measurement_theta_min      25.2
_cell_volume                     2067.6(5)
_computing_structure_refinement  'SHELXL-2014/7 (Sheldrick, 2014)'
_diffrn_ambient_temperature      93(2)
_diffrn_detector_area_resol_mean 5.8140
_diffrn_measured_fraction_theta_full 0.972
_diffrn_measured_fraction_theta_max 0.968
_diffrn_measurement_device_type  'Rigaku XtaLAB P200'
_diffrn_measurement_method       \w
_diffrn_radiation_monochromator  graphite
_diffrn_radiation_source         'fine-focus sealed tube'
_diffrn_radiation_type           CuK\a
_diffrn_radiation_wavelength     1.54187
_diffrn_reflns_av_R_equivalents  0.0235
_diffrn_reflns_av_unetI/netI     0.0187
_diffrn_reflns_Laue_measured_fraction_full 0.972
_diffrn_reflns_Laue_measured_fraction_max 0.968
_diffrn_reflns_limit_h_max       10
_diffrn_reflns_limit_h_min       -8
_diffrn_reflns_limit_k_max       16
_diffrn_reflns_limit_k_min       -16
_diffrn_reflns_limit_l_max       21
_diffrn_reflns_limit_l_min       -21
_diffrn_reflns_number            26996
_diffrn_reflns_point_group_measured_fraction_full 0.972
_diffrn_reflns_point_group_measured_fraction_max 0.968
_diffrn_reflns_theta_full        67.687
_diffrn_reflns_theta_max         68.434
_diffrn_reflns_theta_min         6.569
_exptl_absorpt_coefficient_mu    1.574
_exptl_absorpt_correction_T_max  1.000
_exptl_absorpt_correction_T_min  0.868
_exptl_absorpt_correction_type   multi-scan
_exptl_absorpt_process_details   'REQAB (Rigaku, 1998)'
_exptl_crystal_colour            Colorless
_exptl_crystal_density_diffrn    1.258
_exptl_crystal_description       Prism
_exptl_crystal_F_000             824
_refine_diff_density_max         0.454
_refine_diff_density_min         -0.455
_refine_diff_density_rms         0.044
_refine_ls_extinction_method     none
_refine_ls_goodness_of_fit_ref   1.055
_refine_ls_hydrogen_treatment    constr
_refine_ls_matrix_type           full
_refine_ls_number_parameters     507
_refine_ls_number_reflns         7349
_refine_ls_number_restraints     0
_refine_ls_restrained_S_all      1.055
_refine_ls_R_factor_all          0.0345
_refine_ls_R_factor_gt           0.0308
_refine_ls_shift/su_max          0.001
_refine_ls_shift/su_mean         0.000
_refine_ls_structure_factor_coef Fsqd
_refine_ls_weighting_details
'w=1/[\s^2^(Fo^2^)+(0.0469P)^2^+0.6708P] where P=(Fo^2^+2Fc^2^)/3'
_refine_ls_weighting_scheme      calc
_refine_ls_wR_factor_gt          0.0823
_refine_ls_wR_factor_ref         0.0842
_reflns_Friedel_coverage         0.000
_reflns_number_gt                6587
_reflns_number_total             7349
_reflns_threshold_expression     'I > 2\s(I)'
_cod_data_source_file            ol7b02950_si_002.cif
_cod_data_source_block           170227FU
_cod_depositor_comments
;
The following automatic conversions were performed:

'_exptl_absorpt_correction_type' value 'Multi-scan' changed to
'multi-scan' according to
/home/data/users/saulius/crontab/automatic-downloads/rss-feeds/ACS/lib/dictionaries/cif_core.dic
dictionary named 'cif_core.dic' version 2.4.2 from 2011-04-26.

Automatic conversion script
Id: cif_fix_values 4973 2017-02-22 13:04:09Z antanas 

 Adding full bibliography for 1547732.cif.

2019-01-19
Z value and formula fixed to values more according to usual
chemical conventions.                 miguel
;
_cod_original_formula_sum            'C46 H42 N2 O6 S2'
_cod_original_formula_weight         782.93
_cod_original_formula_moiety         '2(C23 H21 N O3 S)'
_cod_original_formula_units_Z            2
_cod_database_code               1547732
_shelx_shelxl_version_number     2014/7
_shelx_space_group_comment
;
The symmetry employed for this shelxl refinement is uniquely defined
by the following loop, which should always be used as a source of
symmetry information in preference to the above space-group names.
They are only intended as comments.
;
_shelx_res_file
;

    170227FU.res created by SHELXL-2014/7

TITL
REM  Yadorkari-X generated
CELL 1.54187 9.0699 13.9562 17.5160 88.1850 78.4000 72.2590
ZERR 2.0 0.0011 0.0014 0.0020 0.0180 0.0200 0.0150
LATT 1
REM  SPGR P-1 triclinic
SFAC C H N O S
UNIT 92 84 4 12 4
L.S. 10
FMAP 2
PLAN -80
ACTA
CONF
HTAB
LIST 4
BOND $H
MERG 2
EQIV $1 -X, -Y, 1-Z
EQIV $2 -1-X, -Y, 1-Z

HTAB N1 O2_$1
HTAB N2 O1_$2
HTAB C22 O1
HTAB C24 O1
HTAB C24 S1_$2
HTAB N1 O2_$1
HTAB C49 N1_$1
HTAB C49 S1_$1
HTAB C49 O2
HTAB N2 O1_$2
HTAB C22 O5_$1
HTAB C22 O4_$2

WGHT    0.046900    0.670800
FVAR       2.43306
C1    1   -0.424056   -0.192426    0.863539    11.00000    0.01788    0.02473 =
         0.01837    0.00563   -0.00190   -0.00766
C2    1   -0.381289   -0.235373    0.788021    11.00000    0.01654    0.02270 =
         0.01819    0.00578   -0.00167   -0.00706
C3    1   -0.281686   -0.333442    0.772179    11.00000    0.02557    0.02579 =
         0.02026    0.00458    0.00024   -0.00298
AFIX  43
H3    2   -0.253550   -0.359612    0.721307    11.00000   -1.20000
AFIX   0
C4    1   -0.223442   -0.393045    0.831259    11.00000    0.03290    0.02870 =
         0.02758    0.00938    0.00121    0.00391
C5    1   -0.265374   -0.350304    0.906242    11.00000    0.03472    0.03678 =
         0.02414    0.01562   -0.00541    0.00048
AFIX  43
H4    2   -0.226795   -0.388354    0.946536    11.00000   -1.20000
AFIX   0
C6    1   -0.363046   -0.252597    0.922239    11.00000    0.03054    0.03221 =
         0.01754    0.00633   -0.00334   -0.00566
AFIX  43
H5    2   -0.388732   -0.226317    0.973009    11.00000   -1.20000
AFIX   0
C7    1   -0.116905   -0.500087    0.814121    11.00000    0.06962    0.03785 =
         0.03535    0.01406    0.00337    0.02087
AFIX 137
H6    2   -0.008787   -0.500426    0.800591    11.00000   -1.50000
H7    2   -0.143397   -0.528402    0.771441    11.00000   -1.50000
H8    2   -0.130912   -0.539375    0.859454    11.00000   -1.50000
AFIX   0
C8    1   -0.524440   -0.085998    0.882172    11.00000    0.01863    0.02411 =
         0.01550    0.00234   -0.00573   -0.00675
C9    1   -0.480325   -0.012248    0.841796    11.00000    0.01842    0.02632 =
         0.01499    0.00121   -0.00268   -0.00869
AFIX  43
H1    2   -0.384155   -0.031857    0.806589    11.00000   -1.20000
AFIX   0
C10   1   -0.661639   -0.070359    0.948562    11.00000    0.01737    0.02442 =
         0.01609    0.00600   -0.00556   -0.00510
C11   1   -0.706387    0.010830    1.002038    11.00000    0.02014    0.02731 =
         0.01708    0.00414   -0.00578   -0.00686
AFIX  43
H9    2   -0.653444    0.058972    0.994579    11.00000   -1.20000
AFIX   0
C12   1   -0.828566    0.020330    1.065928    11.00000    0.02203    0.03627 =
         0.01705    0.00093   -0.00489   -0.00348
AFIX  43
H10   2   -0.857138    0.074819    1.100832    11.00000   -1.20000
AFIX   0
C13   1   -0.908481   -0.050816    1.078171    11.00000    0.01841    0.04847 =
         0.01889    0.00842   -0.00189   -0.00876
AFIX  43
H11   2   -0.990246   -0.044328    1.121202    11.00000   -1.20000
AFIX   0
C14   1   -0.865758   -0.131658    1.025886    11.00000    0.02339    0.04015 =
         0.02734    0.01203   -0.00665   -0.01617
AFIX  43
H12   2   -0.919378   -0.179435    1.033651    11.00000   -1.20000
AFIX   0
C15   1   -0.743240   -0.141540    0.961990    11.00000    0.02436    0.02818 =
         0.02198    0.00515   -0.00646   -0.01002
AFIX  43
H13   2   -0.714899   -0.196440    0.927502    11.00000   -1.20000
AFIX   0
C16   1   -0.567931    0.096755    0.847183    11.00000    0.02167    0.02438 =
         0.01245    0.00405   -0.00124   -0.00925
C17   1   -0.721139    0.132070    0.833197    11.00000    0.02282    0.03043 =
         0.02623    0.00508   -0.00452   -0.01180
AFIX  43
H14   2   -0.769997    0.086665    0.820689    11.00000   -1.20000
AFIX   0
C18   1   -0.801231    0.234407    0.837799    11.00000    0.02337    0.03441 =
         0.03562    0.00969   -0.00444   -0.00411
AFIX  43
H15   2   -0.903229    0.257149    0.828215    11.00000   -1.20000
AFIX   0
C19   1   -0.729950    0.303024    0.856630    11.00000    0.03870    0.02336 =
         0.02791    0.00577   -0.00200   -0.00409
AFIX  43
H16   2   -0.784341    0.371513    0.860517    11.00000   -1.20000
AFIX   0
C20   1   -0.577643    0.268676    0.869529    11.00000    0.04420    0.02570 =
         0.02012    0.00637   -0.00899   -0.01656
AFIX  43
H17   2   -0.529341    0.314395    0.882040    11.00000   -1.20000
AFIX   0
C21   1   -0.495894    0.166627    0.864017    11.00000    0.02691    0.02844 =
         0.01690    0.00773   -0.00735   -0.01226
AFIX  43
H18   2   -0.392394    0.144605    0.871586    11.00000   -1.20000
AFIX   0
C22   1   -0.475421    0.027246    0.626167    11.00000    0.03470    0.01962 =
         0.02331    0.00428   -0.01303   -0.00939
AFIX  33
H37   2   -0.400619    0.048864    0.647324    11.00000   -1.50000
H38   2   -0.511870    0.072514    0.586765    11.00000   -1.50000
H39   2   -0.563521    0.027031    0.667003    11.00000   -1.50000
AFIX   0
O3    4   -0.234526   -0.100881    0.536735    11.00000    0.02858    0.03521 =
         0.01733    0.00600   -0.00168   -0.01498
O4    4   -0.496132   -0.126403    0.553514    11.00000    0.03071    0.02632 =
         0.02191    0.00419   -0.01330   -0.01365
C25   1   -0.449666   -0.176530    0.723356    11.00000    0.01765    0.01662 =
         0.01738    0.00059   -0.00322   -0.00664
N1    3   -0.339288   -0.165418    0.660410    11.00000    0.01443    0.01993 =
         0.01598    0.00365   -0.00409   -0.00420
AFIX  43
H35   2   -0.241386   -0.196717    0.659821    11.00000   -1.20000
AFIX   0
O1    4   -0.591136   -0.141323    0.725915    11.00000    0.01462    0.02868 =
         0.02551    0.00443   -0.00466   -0.00726
S1    5   -0.384585   -0.094493    0.584916    11.00000    0.02236    0.01993 =
         0.01405    0.00374   -0.00656   -0.00948
C26   1   -0.291937    0.389808    0.318721    11.00000    0.01926    0.01792 =
         0.02224    0.00335   -0.00252   -0.00928
C27   1   -0.197358    0.314424    0.263585    11.00000    0.01755    0.01798 =
         0.02272    0.00284   -0.00410   -0.00909
C28   1   -0.207214    0.322934    0.185004    11.00000    0.02805    0.02083 =
         0.02202    0.00076   -0.00464   -0.00954
AFIX  43
H19   2   -0.142920    0.271903    0.149404    11.00000   -1.20000
AFIX   0
C29   1   -0.311849    0.406670    0.159269    11.00000    0.03783    0.02410 =
         0.02530    0.00752   -0.01095   -0.01392
C30   1   -0.407168    0.481069    0.214518    11.00000    0.03520    0.01858 =
         0.03282    0.01021   -0.01156   -0.00606
AFIX  43
H20   2   -0.479722    0.536969    0.198723    11.00000   -1.20000
AFIX   0
C31   1   -0.396491    0.473792    0.292131    11.00000    0.02934    0.01699 =
         0.02741    0.00330   -0.00321   -0.00549
AFIX  43
H21   2   -0.459858    0.525582    0.327300    11.00000   -1.20000
AFIX   0
C32   1   -0.323019    0.417399    0.074298    11.00000    0.06518    0.03134 =
         0.02953    0.00984   -0.01951   -0.01231
AFIX 137
H22   2   -0.410249    0.396650    0.065807    11.00000   -1.50000
H23   2   -0.226871    0.375933    0.042609    11.00000   -1.50000
H24   2   -0.339029    0.486429    0.060515    11.00000   -1.50000
AFIX   0
C33   1   -0.284781    0.381234    0.403238    11.00000    0.01462    0.01703 =
         0.02106    0.00042   -0.00115   -0.00325
C34   1   -0.325162    0.306057    0.443145    11.00000    0.01739    0.01705 =
         0.02093   -0.00180   -0.00154   -0.00495
AFIX  43
H2    2   -0.365337    0.265780    0.417095    11.00000   -1.20000
AFIX   0
C35   1   -0.239396    0.462068    0.437260    11.00000    0.01821    0.01623 =
         0.02570    0.00337   -0.00632   -0.00415
C36   1   -0.127498    0.502227    0.392810    11.00000    0.02451    0.02551 =
         0.03228    0.00325   -0.00225   -0.01036
AFIX  43
H25   2   -0.078052    0.476171    0.342750    11.00000   -1.20000
AFIX   0
C37   1   -0.089357    0.580472    0.422490    11.00000    0.02763    0.02834 =
         0.04980    0.00557   -0.00710   -0.01684
AFIX  43
H26   2   -0.013280    0.605676    0.392601    11.00000   -1.20000
AFIX   0
C38   1   -0.163856    0.621337    0.496381    11.00000    0.02747    0.02290 =
         0.05247   -0.00377   -0.01450   -0.00961
AFIX  43
H27   2   -0.139075    0.674414    0.515924    11.00000   -1.20000
AFIX   0
C39   1   -0.275462    0.582601    0.540928    11.00000    0.02407    0.02384 =
         0.03557   -0.00514   -0.01064   -0.00400
AFIX  43
H28   2   -0.325713    0.609710    0.590627    11.00000   -1.20000
AFIX   0
C40   1   -0.312703    0.503672    0.511875    11.00000    0.01822    0.01929 =
         0.02735    0.00138   -0.00630   -0.00493
AFIX  43
H29   2   -0.387510    0.478034    0.542451    11.00000   -1.20000
AFIX   0
C41   1   -0.311446    0.281565    0.524891    11.00000    0.02381    0.01268 =
         0.02088   -0.00015   -0.00251   -0.00660
C42   1   -0.442473    0.277419    0.580994    11.00000    0.02328    0.01644 =
         0.02385    0.00100   -0.00240   -0.00708
AFIX  43
H30   2   -0.539883    0.288729    0.567022    11.00000   -1.20000
AFIX   0
C43   1   -0.427578    0.256384    0.657827    11.00000    0.03254    0.01853 =
         0.02131    0.00079    0.00187   -0.00868
AFIX  43
H31   2   -0.515850    0.255443    0.695207    11.00000   -1.20000
AFIX   0
C44   1   -0.282559    0.236880    0.678983    11.00000    0.04102    0.01928 =
         0.02180    0.00395   -0.00917   -0.01057
AFIX  43
H32   2   -0.273265    0.222917    0.730378    11.00000   -1.20000
AFIX   0
C45   1   -0.151064    0.238262    0.623115    11.00000    0.03109    0.02076 =
         0.03276    0.00441   -0.01348   -0.00953
AFIX  43
H33   2   -0.052983    0.224162    0.636888    11.00000   -1.20000
AFIX   0
C46   1   -0.165599    0.260646    0.546710    11.00000    0.02268    0.01964 =
         0.02658    0.00267   -0.00261   -0.00852
AFIX  43
H34   2   -0.076972    0.261701    0.509628    11.00000   -1.20000
AFIX   0
C47   1   -0.079787    0.225184    0.289309    11.00000    0.01467    0.02131 =
         0.01579    0.00019    0.00110   -0.00639
C48   1   -0.071267    0.037722    0.407629    11.00000    0.02842    0.02662 =
         0.01655    0.00169   -0.00118   -0.01217
AFIX  33
H40   2   -0.182443    0.045692    0.420280    11.00000   -1.50000
H41   2   -0.015324   -0.021094    0.431831    11.00000   -1.50000
H42   2   -0.052173    0.095902    0.426305    11.00000   -1.50000
AFIX   0
O5    4    0.159874    0.012470    0.287197    11.00000    0.01555    0.02546 =
         0.02428    0.00369   -0.00248   -0.00379
O6    4   -0.065842   -0.046530    0.275991    11.00000    0.02662    0.01929 =
         0.02416   -0.00027   -0.00860   -0.00777
N2    3   -0.100154    0.134450    0.272673    11.00000    0.01614    0.01853 =
         0.02015    0.00128   -0.00715   -0.00475
AFIX  43
H36   2   -0.165694    0.134740    0.243295    11.00000   -1.20000
AFIX   0
O2    4    0.023028    0.232365    0.322120    11.00000    0.01679    0.02378 =
         0.02814   -0.00110   -0.00611   -0.00740
S2    5   -0.005230    0.024322    0.306157    11.00000    0.01581    0.01727 =
         0.01518    0.00097   -0.00274   -0.00490

HKLF 4 1 1 0 0 0 1 0 0 0 1

REM
REM R1 =  0.0308 for    6587 Fo > 4sig(Fo)  and  0.0345 for all    7349 data
REM    507 parameters refined using      0 restraints

END

WGHT      0.0467      0.6803

REM Instructions for potential hydrogen bonds
HTAB C22 O5_$1
HTAB C22 O4_$2
HTAB C22 O1
HTAB N1 O2_$1
HTAB N2 O1_$2

REM Highest difference peak  0.454,  deepest hole -0.455,  1-sigma level  0.044
Q1    1  -0.7871 -0.1416  0.7241  11.00000  0.05    0.45
Q2    1  -0.9557 -0.0352  0.6394  11.00000  0.05    0.33
Q3    1  -0.2475 -0.1608  0.6712  11.00000  0.05    0.30
Q4    1  -0.7430 -0.4233  0.5800  11.00000  0.05    0.21
Q5    1  -0.9469  0.0365  0.5760  11.00000  0.05    0.20
Q6    1  -0.7856 -0.3619  0.7138  11.00000  0.05    0.20
Q7    1  -0.7149 -0.3859  0.6383  11.00000  0.05    0.20
Q8    1  -0.8569 -0.2803  0.7260  11.00000  0.05    0.19
Q9    1  -0.6042 -0.0770  0.9063  11.00000  0.05    0.19
Q10   1  -0.6545 -0.3616  0.5688  11.00000  0.05    0.19
Q11   1  -0.4129 -0.2111  0.7617  11.00000  0.05    0.18
Q12   1  -0.4565  0.0641  0.5659  11.00000  0.05    0.18
Q13   1  -0.6781 -0.2987  0.5121  11.00000  0.05    0.18
Q14   1  -0.3666 -0.1246  0.6399  11.00000  0.05    0.18
Q15   1  -0.7483 -0.3281  0.5800  11.00000  0.05    0.18
Q16   1  -0.7277 -0.3398  0.7050  11.00000  0.05    0.18
Q17   1  -1.0073 -0.0774  0.5759  11.00000  0.05    0.18
Q18   1  -0.4907 -0.0429  0.8828  11.00000  0.05    0.18
Q19   1  -0.4729 -0.1377  0.8730  11.00000  0.05    0.17
Q20   1  -0.7894 -0.4986  0.5901  11.00000  0.05    0.17
Q21   1  -0.4083 -0.2133  0.8231  11.00000  0.05    0.17
Q22   1  -0.6784 -0.4078  0.8749  11.00000  0.05    0.17
Q23   1  -0.7613 -0.3783  0.8290  11.00000  0.05    0.17
Q24   1  -0.9308 -0.0955  0.7092  11.00000  0.05    0.16
Q25   1  -0.6266 -0.2959  0.4437  11.00000  0.05    0.16
Q26   1  -0.6973 -0.4986  0.5378  11.00000  0.05    0.16
Q27   1  -0.5883 -0.2480  0.3874  11.00000  0.05    0.16
Q28   1  -0.7086 -0.3593  0.8263  11.00000  0.05    0.16
Q29   1  -0.2217 -0.3671  0.8640  11.00000  0.05    0.15
Q30   1  -0.5969  0.0268  0.6478  11.00000  0.05    0.15
Q31   1  -0.8197 -0.2738  0.4077  11.00000  0.05    0.15
Q32   1  -0.7578 -0.2839  0.4642  11.00000  0.05    0.15
Q33   1  -0.7294 -0.4861  0.5277  11.00000  0.05    0.15
Q34   1  -0.7019 -0.1052  0.9543  11.00000  0.05    0.15
Q35   1  -0.7015 -0.0186  0.9645  11.00000  0.05    0.15
Q36   1  -0.5349 -0.0602  0.8544  11.00000  0.05    0.15
Q37   1  -0.7061 -0.3600  0.9593  11.00000  0.05    0.14
Q38   1  -0.0835 -0.5238  0.7571  11.00000  0.05    0.14
Q39   1  -0.6410 -0.2616  0.4552  11.00000  0.05    0.14
Q40   1  -0.7884 -0.0878  0.5862  11.00000  0.05    0.14
Q41   1  -0.4366 -0.0225  0.5966  11.00000  0.05    0.14
Q42   1  -0.5343  0.0443  0.8500  11.00000  0.05    0.14
Q43   1  -0.6437 -0.4224  0.6909  11.00000  0.05    0.13
Q44   1  -0.6558  0.1163  0.8537  11.00000  0.05    0.13
Q45   1  -0.2366 -0.3602  0.8031  11.00000  0.05    0.13
Q46   1  -0.8116 -0.3242  0.7733  11.00000  0.05    0.13
Q47   1  -0.2505 -0.0819  0.5813  11.00000  0.05    0.13
Q48   1  -0.4034 -0.2204  0.8902  11.00000  0.05    0.13
Q49   1  -0.2722 -0.2888  0.9044  11.00000  0.05    0.12
Q50   1  -0.8895 -0.1755  0.7018  11.00000  0.05    0.12
Q51   1  -0.6370 -0.4353  0.8151  11.00000  0.05    0.12
Q52   1  -0.8575 -0.5603  0.6068  11.00000  0.05    0.12
Q53   1  -0.3537 -0.2851  0.7836  11.00000  0.05    0.12
Q54   1  -0.7138 -0.2230  0.9021  11.00000  0.05    0.12
Q55   1  -0.8983 -0.0785  1.0403  11.00000  0.05    0.12
Q56   1  -0.5678 -0.4792  0.9332  11.00000  0.05    0.11
Q57   1  -0.3020 -0.2661  0.7765  11.00000  0.05    0.11
Q58   1  -1.0231 -0.0376  1.2056  11.00000  0.05    0.11
Q59   1  -0.5418  0.1252  0.8703  11.00000  0.05    0.11
Q60   1  -0.3907 -0.1619  0.6956  11.00000  0.05    0.11
Q61   1  -0.4445  0.1119  0.5112  11.00000  0.05    0.11
Q62   1  -0.7709  0.2641  0.8700  11.00000  0.05    0.11
Q63   1  -0.5245 -0.1173  0.6056  11.00000  0.05    0.11
Q64   1  -0.8826 -0.4988  0.6690  11.00000  0.05    0.11
Q65   1  -0.3651 -0.2082  0.8803  11.00000  0.05    0.11
Q66   1  -0.7480  0.1790  0.8224  11.00000  0.05    0.11
Q67   1  -0.2964 -0.0540  0.7345  11.00000  0.05    0.11
Q68   1  -0.1605 -0.0166  0.7823  11.00000  0.05    0.11
Q69   1  -0.1710 -0.3724  0.9596  11.00000  0.05    0.11
Q70   1  -0.6606 -0.2212  0.6004  11.00000  0.05    0.11
Q71   1  -1.1184 -0.0142  0.7466  11.00000  0.05    0.10
Q72   1  -0.9007 -0.1243  0.6891  11.00000  0.05    0.10
Q73   1  -1.0049 -0.3095  0.6743  11.00000  0.05    0.10
Q74   1  -0.1624 -0.0629  0.5801  11.00000  0.05    0.10
Q75   1  -0.4207 -0.3319  0.4372  11.00000  0.05    0.10
Q76   1  -0.7489  0.4007  0.8473  11.00000  0.05    0.10
Q77   1  -1.1083 -0.0584  1.2835  11.00000  0.05    0.10
Q78   1  -1.0718 -0.2455  0.7411  11.00000  0.05    0.10
Q79   1  -0.5334  0.2215  0.8564  11.00000  0.05    0.10
Q80   1  -0.6160 -0.0941  0.6681  11.00000  0.05    0.10
;
_shelx_res_checksum              45353
_shelx_hkl_file
;
   0   0  -3 2128.19   72.30
   0   0   3 2052.37   70.04
   0   0  -3 2048.79   64.68
   0   0   3 2055.62   66.60
   0   0  -4 4474.24  143.57
   0   0   4 4200.73  134.10
   0   0  -4 4422.99  133.66
   0   0   4 4287.52  132.43
   0   0  -4 3895.61   99.94
   0   0  -513549.86  303.43
   0   0   512244.13  279.58
   0   0  -513029.02  280.37
   0   0   512479.26  276.53
   0   0  -512116.96  286.39
   0   0  -6   16.76   27.28
   0   0   6   -2.62   18.26
   0   0  -6   33.82   20.23
   0   0   6   13.72   17.15
   0   0  -773425.81  737.56
   0   0  -772960.98  700.62
   0   0  -828186.43  422.60
   0   0  -9 8477.64  217.17
   0   0  -9 8621.50  204.19
   0   0   9 8299.97  166.74
   0   0 -10  153.99   29.88
   0   0 -10  157.03   23.18
   0   0  10  156.08   22.94
   0   0  10  123.76   24.08
   0   0  10  158.67   27.50
   0   0 -10  125.08   24.22
   0   0 -10  177.81   26.75
   0   0 -11  866.13   51.59
   0   0 -11  807.41   45.48
   0   0  11  791.64   41.36
   0   0  11  807.36   42.19
   0   0  11  800.83   40.71
   0   0 -11  821.65   49.55
   0   0 -11  782.34   42.46
   0   0  11  774.50   42.57
   0   0  11  689.75   40.04
   0   0 -12  234.34   39.11
   0   0 -12  266.93   30.45
   0   0  12  258.17   28.04
   0   0  12  234.37   29.72
   0   0  12  253.51   30.33
   0   0 -12  245.82   35.98
   0   0 -12  222.11   27.90
   0   0  12  234.87   32.99
   0   0 -13  439.04   41.77
   0   0  13  475.44   38.28
   0   0 -13  506.49   44.83
   0   0 -13  427.02   37.76
   0   0  13  462.09   38.00
   0   0  14 2967.13   76.14
   0   0 -14 3050.83   77.94
   0   0 -14 3095.68   92.74
   0   0 -14 2898.13   78.68
   0   0  14 3078.60   80.94
   0   0  15  948.31   48.20
   0   0 -15  889.38   46.32
   0   0 -15  876.83   53.55
   0   0 -15  860.64   49.86
   0   0  15  943.52   46.87
   0   0  16 1833.46   62.35
   0   0 -16 1755.32   61.20
   0   0 -16 1848.05   75.03
   0   0 -16 1855.88   69.88
   0   0  16 1844.23   65.38
   0   0  17   96.91   33.27
   0   0 -17   90.17   30.40
   0   0 -17   81.04   35.83
   0   0 -17   57.78   23.25
   0   0  17   78.65   34.43
   0   0  18   68.85   24.80
   0   0 -18   67.40   33.21
   0   0 -18    6.06   43.13
   0   0 -18   66.15   33.99
   0   0  18   42.27   30.57
   0   0  19  259.73   35.06
   0   0 -19  305.55   40.55
   0   0  19  272.73   39.67
   0   0  20  625.91   46.05
   0   0 -20  676.28   54.36
   0   0  20  644.35   47.44
   0  -1  20  125.90   31.28
   0   1 -20  157.07   39.34
   0  -1  20  145.77   38.87
   0  -1  19 1476.05   57.41
   0   1 -19 1485.59   77.25
   0   1 -19 1449.74   63.52
   0  -1  19 1431.87   61.20
   0  -1  18  334.79   36.05
   0   1 -18  286.58   35.56
   0   1 -18  275.07   44.76
   0   1 -18  279.32   36.01
   0  -1  18  276.46   37.98
   0  -1  17   72.31   29.21
   0   1 -17   79.18   26.08
   0   1 -17  -27.85   43.39
   0   1 -17   24.78   33.44
   0  -1  17   59.28   33.25
   0  -1  16  150.17   33.09
   0   1 -16  158.98   30.55
   0   1 -16  166.17   37.55
   0   1 -16  116.37   35.60
   0  -1  16  152.73   26.46
   0  -1  15  435.60   36.91
   0   1 -15  376.11   33.45
   0   1 -15  453.23   46.70
   0   1 -15  357.88   36.76
   0  -1  15  431.02   35.21
   0  -1  14   48.91   21.97
   0  -1  14   51.58   26.46
   0   1 -14   66.87   40.19
   0   1 -14   26.67   20.09
   0  -1  14   53.62   29.19
   0  -1  13  -13.14   25.46
   0  -1  13    9.77   24.83
   0   1 -13   19.48   35.19
   0   1 -13    9.61   25.73
   0  -1  13    5.48   23.23
   0  -1  13   14.32   25.67
   0   1 -12   48.48   33.04
   0  -1  12   14.80   16.99
   0  -1  12   17.38   22.62
   0   1 -12    8.76   35.56
   0   1 -12   32.94   26.62
   0  -1  12    4.63   18.13
   0   1 -11   24.41   26.44
   0   1 -11   37.18   22.02
   0  -1  11   41.15   22.32
   0  -1  11   18.95   21.68
   0   1 -11   26.23   27.18
   0   1 -11   15.18   22.63
   0  -1  11   23.51   25.78
   0   1 -10  312.93   31.65
   0   1 -10  276.76   26.36
   0  -1  10  265.64   25.01
   0   1 -10  302.32   30.41
   0   1 -10  309.02   32.37
   0   1  -924112.80  357.09
   0   1  -8  219.12   34.96
   0   1  -8  241.98   27.90
   0  -1   8  204.97   26.48
   0   1  -734839.17  489.86
   0  -1   733161.40  480.23
   0   1  -6 4475.73  142.39
   0   1  -6 4436.60  133.55
   0  -1   6 3973.74  126.48
   0  -1   6 4510.80  139.01
   0  -1   514303.16  339.50
   0  -1   513219.24  292.19
   0  -1   514084.34  309.34
   0   1  -4 6786.03  194.77
   0  -1   4 6917.95  194.29
   0   1  -4 7408.41  202.11
   0  -1   4 6924.07  192.80
   0  -1   4 7161.23  201.27
   0   1  -4 6917.89  200.82
   0  -1   328408.88  336.91
   0   1  -329382.80  357.24
   0   1   390103.89  874.75
   0  -1  -390027.42  860.55
   0  -1  -391379.80  850.70
   0   1   389236.38  851.43
   0   1   385341.52  812.48
   0  -1  -4 9893.84  264.97
   0   1   4 9065.72  246.23
   0  -1  -4 9446.00  250.40
   0  -1  -4 9557.38  245.72
   0   1   4 9177.58  244.74
   0   1   4 9763.56  254.59
   0  -1  -4 9872.83  268.43
   0  -1  -587729.30  856.42
   0  -1  -586468.33  813.10
   0   1   584683.56  833.40
   0  -1  -586162.22  873.41
   0  -1  -6   20.81   25.15
   0   1   6    8.09   18.48
   0  -1  -6   12.18   18.33
   0  -1  -6    3.44   15.11
   0   1   6   34.31   19.43
   0   1   6    3.31   22.13
   0  -1  -732399.86  483.70
   0  -1  -731921.05  472.39
   0  -1  -732500.28  458.66
   0   1   732431.42  464.64
   0  -1  -8  164.20   32.70
   0  -1  -8  124.77   23.36
   0  -1  -8  141.17   25.23
   0   1   8  116.07   21.62
   0  -1  -9 3642.86  133.92
   0  -1  -9 3638.11  119.28
   0   1   9 3840.33  127.68
   0  -1 -10   21.76   17.96
   0  -1 -10    6.31   17.31
   0   1  10   -0.27   21.54
   0   1  10   14.07   21.39
   0   1  10    3.96   14.17
   0  -1 -10   18.99   24.15
   0   1  10    8.09   16.75
   0  -1 -11   44.73   27.20
   0  -1 -11   56.93   19.57
   0   1  11   59.43   23.84
   0   1  11   55.43   25.70
   0  -1 -11   62.77   27.73
   0  -1 -11   64.49   24.32
   0   1  11   52.82   24.91
   0  -1 -12 3569.11  112.56
   0  -1 -12 3528.52   83.76
   0   1  12 3540.88   86.61
   0   1  12 3461.42   84.83
   0  -1 -12 3476.57   84.20
   0  -1 -12 3522.26  100.95
   0  -1 -12 3458.62   92.40
   0   1  12 3422.89   85.75
   0  -1 -13   16.18   35.22
   0   1  13   19.23   19.73
   0  -1 -13   50.10   23.42
   0  -1 -13   30.67   32.70
   0  -1 -13   25.07   23.26
   0   1  13   62.78   26.55
   0   1  14 3007.19   79.03
   0  -1 -14 2820.37   73.66
   0  -1 -14 3048.45   92.69
   0  -1 -14 2967.09   83.42
   0   1  14 3141.67   83.20
   0   1  15   48.32   20.62
   0  -1 -15   35.51   26.75
   0  -1 -15   75.74   38.12
   0  -1 -15   95.87   31.44
   0   1  15   66.30   32.15
   0   1  16  689.05   43.78
   0  -1 -16  637.33   40.74
   0  -1 -16  566.73   53.17
   0  -1 -16  621.40   48.53
   0   1  16  672.83   47.57
   0   1  17 5384.90  134.86
   0  -1 -17 4902.92  126.35
   0  -1 -17 5151.05  152.39
   0  -1 -17 5394.53  140.46
   0   1  17 5358.34  141.17
   0   1  18 1391.64   59.76
   0  -1 -18 1298.30   54.32
   0  -1 -18 1492.48   62.29
   0   1  18 1435.91   63.41
   0   1  19 1336.10   57.41
   0  -1 -19 1276.71   54.16
   0  -1 -19 1307.16   59.07
   0   1  19 1388.71   60.23
   0   1  20   97.08   31.36
   0   1  20  103.01   36.82
   0  -1 -20   78.39   43.77
   0   1  20  100.89   35.99
   0  -2  20 2973.76   82.00
   0   2 -20 2826.93  111.54
   0  -2  20 2954.62   86.31
   0  -2  19    7.73   33.61
   0   2 -19   10.33   38.53
   0   2 -19   34.02   36.55
   0  -2  19   25.85   30.19
   0  -2  18    9.17   23.87
   0   2 -18   16.79   40.79
   0   2 -18    7.84   30.08
   0  -2  18    9.44   28.97
   0   2 -17 2747.27   78.12
   0   2 -17 2801.45   88.08
   0   2 -17 2893.82   84.22
   0  -2  17 2963.12   80.75
   0   2 -16   35.47   24.31
   0   2 -16  -11.53   39.01
   0   2 -16    9.48   30.43
   0  -2  16   22.99   32.73
   0   2 -15  528.94   41.50
   0   2 -15  489.94   36.32
   0  -2  15  580.11   43.72
   0  -2  14 5875.91  108.16
   0   2 -14 6125.51  122.96
   0   2 -14 5959.44  124.05
   0  -2  14 5862.60  113.06
   0  -2  14 6260.85  115.43
   0  -2  13   37.01   25.38
   0   2 -13    6.65   33.81
   0   2 -13   11.48   26.45
   0  -2  13   17.78   23.72
   0   2 -12  228.33   39.48
   0  -2  12  225.39   32.77
   0  -2  12  213.55   30.82
   0   2 -12  235.80   35.80
   0   2 -12  231.64   31.76
   0  -2  12  257.00   26.58
   0   2 -11  576.17   44.67
   0  -2  11  607.33   39.66
   0  -2  11  573.12   38.26
   0   2 -11  562.90   39.79
   0  -2  11  600.43   37.68
   0   2 -1029733.29  385.43
   0   2 -1028604.76  341.92
   0  -2  1029427.56  377.48
   0  -2  1027811.14  341.64
   0   2 -1028316.78  359.84
   0   2  -9 9883.28  241.77
   0   2  -9 9154.93  218.74
   0  -2   9 9933.00  236.99
   0   2  -8 1733.23   69.12
   0   2  -8 1768.91   58.07
   0  -2   8 1924.39   66.33
   0   2  -7  144.61   35.01
   0   2  -7  164.39   24.90
   0  -2   7  122.72   23.19
   0  -2   7  138.01   24.71
   0   2  -626867.08  331.16
   0   2  -627621.15  324.28
   0  -2   626662.38  324.07
   0  -2   524949.53  256.62
   0   2  -526883.31  319.02
   0  -2   524814.72  282.13
   0  -2   526510.57  327.52
   0   2  -525383.22  268.12
   0   2  -4 5806.45  168.49
   0   2  -4 6170.19  174.20
   0  -2   4 5909.39  172.91
   0   2  -4 5495.09  168.03
   0   2  -312220.75  269.52
   0   2  -312780.60  280.85
   0  -2   312913.24  288.81
   0   2  -312155.18  279.38
   0   2  -224590.91  496.35
   0  -2   223910.11  489.07
   0  -2   225064.63  219.94
   0   2  -224600.87  497.39
   0  -2   224765.65  232.25
   0   2  -225053.19  253.63
   0   2  -1  223.95   29.36
   0  -2   1  238.81   27.70
   0  -2   1  243.16   24.59
   0   2  -1  241.19   23.84
   0  -2   1  235.85   30.64
   0   2  -1  235.02   29.66
   0   2   0 8339.29  226.71
   0  -2   0 8457.47  236.97
   0   2   0 8276.37  218.29
   0  -2   0 9014.77  233.59
   0   2   0 8145.92  220.52
   0   2   0 8777.56  236.35
   0  -2   0 8526.22  232.41
   0   2   1  104.84   22.07
   0   2   1  108.39   27.84
   0   2   1  135.94   20.90
   0  -2  -1  108.70   16.42
   0   2   1  104.82   19.36
   0   2   1   99.70   22.17
   0  -2  -1  101.40   16.37
   0  -2  -269186.70  698.39
   0   2   268176.16  701.09
   0  -2  -270291.58  681.85
   0   2   266334.31  648.31
   0  -2  -269385.73  685.37
   0  -2  -3  101.81   29.53
   0   2   3  103.71   25.66
   0  -2  -3  149.03   22.60
   0   2   3  105.83   25.39
   0  -2  -3  109.41   25.96
   0  -2  -4 1271.52   64.37
   0   2   4 1281.62   58.20
   0  -2  -4 1560.16   56.80
   0  -2  -4 1373.70   51.62
   0   2   4 1319.11   52.89
   0   2   4 1348.32   54.14
   0  -2  -4 1274.34   56.81
   0  -2  -5 5341.83  163.28
   0   2   5 5175.69  166.23
   0  -2  -5 5333.12  155.98
   0  -2  -5 5413.82  153.24
   0   2   5 4885.60  160.41
   0   2   5 5014.62  147.67
   0  -2  -5 5157.27  159.06
   0  -2  -6 1689.64   68.06
   0   2   6 1488.97   63.29
   0  -2  -6 1625.91   58.58
   0  -2  -6 1664.20   56.57
   0   2   6 1654.52   59.28
   0  -2  -7 5129.30  131.79
   0  -2  -7 5184.26  128.79
   0  -2  -7 5253.58  117.58
   0   2   7 5055.83  116.23
   0  -2  -8 7746.16  176.87
   0  -2  -8 7429.22  164.57
   0  -2  -8 7731.10  152.91
   0   2   8 7910.67  161.33
   0  -2  -9 7669.02  176.35
   0  -2  -9 8059.64  156.81
   0   2   9 7908.02  161.83
   0  -2 -10 1981.33   73.99
   0  -2 -10 2184.04   64.37
   0   2  10 2219.40   65.95
   0   2  10 2053.56   64.83
   0  -2 -10 2170.92   66.93
   0  -2 -10 2045.20   66.85
   0  -2 -11  666.63   48.82
   0  -2 -11  684.25   38.54
   0   2  11  685.49   41.45
   0   2  11  667.91   38.88
   0  -2 -11  652.58   37.22
   0  -2 -11  677.13   48.22
   0  -2 -11  643.10   40.15
   0   2  11  691.49   47.27
   0  -2 -12  339.17   42.53
   0  -2 -12  395.40   32.58
   0   2  12  351.17   35.68
   0   2  12  393.69   33.46
   0  -2 -12  413.72   35.22
   0  -2 -12  387.01   41.58
   0  -2 -12  379.48   36.07
   0   2  12  385.18   34.72
   0   2  13 4326.06   88.84
   0  -2 -13 4429.40   90.14
   0  -2 -13 4381.73   97.23
   0   2  13 4566.71   95.98
   0   2  1412940.23  194.31
   0  -2 -1412844.02  186.26
   0  -2 -1412516.24  226.40
   0  -2 -1413145.41  199.61
   0   2  1413441.49  201.63
   0   2  15 3249.87   83.87
   0  -2 -15 3205.96   77.75
   0  -2 -15 3131.34   93.55
   0  -2 -15 3311.04   88.79
   0   2  15 3393.55   82.68
   0   2  16 1845.96   62.74
   0  -2 -16 1928.22   59.35
   0  -2 -16 1973.39   72.91
   0   2  16 1989.06   69.11
   0   2  17 3056.07   81.75
   0  -2 -17 2893.17   73.22
   0  -2 -17 3180.60  100.22
   0   2  17 3161.22   96.38
   0   2  18  544.73   46.30
   0  -2 -18  414.03   36.46
   0  -2 -18  511.77   42.63
   0   2  18  507.98   44.74
   0   2  19 2534.72   77.13
   0  -2 -19 2319.88   76.98
   0   2  19 2521.32   82.48
   0  -2 -19 2377.04   80.76
   0   2  19 2496.20   73.03
   0   2  20  299.04   39.98
   0   2  20  315.11   46.11
   0  -2 -20  316.75   42.99
   0   2  20  281.80   40.30
   0   3 -20 5893.62  158.93
   0  -3  20 5950.83  143.58
   0   3 -19    0.63   39.56
   0   3 -19   18.19   36.64
   0  -3  19  -30.53   28.96
   0   3 -18   11.84   34.75
   0   3 -18   -0.17   30.69
   0  -3  18   34.22   32.64
   0   3 -17  545.83   38.96
   0   3 -17  642.66   51.26
   0   3 -17  597.76   46.90
   0  -3  17  550.59   46.55
   0   3 -16  -26.69   24.82
   0   3 -16    6.02   36.72
   0   3 -16   12.16   34.13
   0  -3  16   60.60   25.76
   0  -3  15 2503.56   72.20
   0   3 -15 2768.12   87.00
   0   3 -15 2562.50   78.94
   0  -3  15 2573.00   82.35
   0  -3  15 2693.00   77.60
   0  -3  14  808.45   48.66
   0   3 -14  822.32   56.28
   0   3 -14  764.74   47.52
   0  -3  14  734.26   44.10
   0  -3  13 9766.75  181.94
   0  -3  1310011.22  187.02
   0   3 -1310436.28  202.04
   0   3 -1310366.87  191.99
   0  -3  1310042.77  187.41
   0   3 -12   27.86   34.88
   0  -3  12    3.16   23.21
   0  -3  12   22.29   24.26
   0  -3  12   -5.97   24.04
   0   3 -12   19.63   17.83
   0  -3  12   -5.95   17.88
   0   3 -11  172.05   28.92
   0  -3  11  243.83   31.58
   0  -3  11  145.59   27.80
   0  -3  11  133.30   25.89
   0   3 -11  176.27   29.35
   0  -3  11  174.04   27.99
   0   3 -10 8227.25  177.59
   0  -3  10 8211.44  163.86
   0   3 -10 7966.51  163.72
   0  -3  10 7760.85  166.09
   0   3 -10 7955.66  170.55
   0  -3  10 7555.37  160.09
   0   3  -9  887.25   64.73
   0   3  -9  877.71   41.77
   0  -3   9  871.99   46.37
   0   3  -9  840.76   46.50
   0   3  -9  875.94   44.54
   0   3  -8   84.67   33.15
   0   3  -8  114.34   25.49
   0  -3   8   59.65   27.70
   0   3  -7 3635.69  129.34
   0   3  -7 4024.30  134.25
   0  -3   7 3972.91  134.58
   0   3  -616201.32  272.69
   0   3  -616889.64  275.96
   0  -3   616864.55  281.99
   0   3  -5  633.01   43.69
   0   3  -5  704.31   37.64
   0   3  -5  711.77   40.30
   0  -3   5  745.63   45.93
   0   3  -5  685.11   54.72
   0   3  -414975.84  323.96
   0  -3   413788.40  310.69
   0   3  -413643.75  297.31
   0   3  -414344.03  309.66
   0  -3   414577.88  319.01
   0   3  -413321.12  315.95
   0   3  -360128.18  604.78
   0  -3   358560.48  605.68
   0   3  -357717.76  581.65
   0   3  -360219.70  608.12
   0  -3   359517.13  621.70
   0   3  -357638.98  624.28
   0   3  -211669.39  259.54
   0  -3   211529.78  272.07
   0  -3   211540.87  256.15
   0   3  -211889.33  261.25
   0  -3   211881.65  271.75
   0   3  -211109.95  264.95
   0   3  -145401.87  481.73
   0  -3   144765.18  491.93
   0  -3   146541.78  484.15
   0   3  -146036.07  472.98
   0  -3   143726.31  488.13
   0  -3   144765.30  495.64
   0   3   0  650.97   43.82
   0  -3   0  688.96   47.61
   0   3   0  618.23   37.70
   0  -3   0  645.52   38.97
   0   3   0  655.99   35.59
   0  -3   0  647.86   39.16
   0   3   126448.50  342.72
   0   3   126468.02  333.54
   0   3   126754.03  328.24
   0   3   125509.69  219.01
   0   3   126292.83  321.04
   0  -3  -126438.81  319.24
   0   3   221833.65  463.78
   0   3   221682.68  461.60
   0   3   222076.54  454.38
   0  -3  -223283.10  466.45
   0   3   220305.48  456.36
   0   3   222609.30  462.74
   0  -3  -221934.88  448.10
   0  -3  -336780.30  422.23
   0   3   335635.00  426.57
   0   3   336431.63  412.42
   0   3   335907.23  404.02
   0   3   336036.88  397.36
   0  -3  -336774.02  417.70
   0  -3  -4 4525.89  143.78
   0   3   4 4296.22  150.18
   0  -3  -4 4681.81  138.41
   0   3   4 4686.80  140.24
   0  -3  -4 4255.94  136.21
   0  -3  -510179.75  159.11
   0   3   5 9747.77  268.55
   0  -3  -510216.05  137.79
   0  -3  -510389.73  133.09
   0   3   510184.63  139.40
   0  -3  -5 9502.08  268.93
   0  -3  -6 4935.53  162.62
   0  -3  -6 4778.08  151.93
   0  -3  -6 4905.51  149.90
   0   3   6 4907.12  154.02
   0  -3  -7 3260.43  121.20
   0  -3  -7 3271.29  115.23
   0  -3  -7 3278.84  110.52
   0   3   7 3259.58  112.61
   0  -3  -8 3182.83  118.80
   0  -3  -8 3298.55  113.00
   0   3   8 3323.20  113.68
   0  -3  -9   25.75   23.71
   0  -3  -9   46.16   16.67
   0   3   9    8.51   13.04
   0   3   9   39.87   20.69
   0  -3  -9    2.94   21.45
   0  -3  -9   10.81   21.67
   0   3   9   30.36   21.56
   0  -3 -10 1333.01   60.80
   0  -3 -10 1348.65   50.64
   0   3  10 1427.33   55.73
   0   3  10 1355.23   53.75
   0  -3 -10 1317.03   52.12
   0  -3 -10 1334.18   52.68
   0   3  10 1322.20   55.60
   0  -3 -11   16.13   26.63
   0  -3 -11   20.60   14.53
   0   3  11   18.30   16.82
   0   3  11   31.83   25.37
   0  -3 -11   27.11   16.48
   0  -3 -11   22.71   25.14
   0   3  11    6.27   16.57
   0  -3 -12 3633.68   97.96
   0   3  12 3909.09  106.22
   0   3  12 3874.16   92.52
   0  -3 -12 3758.60   85.50
   0  -3 -12 3849.78   87.89
   0   3  12 3804.04   92.83
   0   3  13 2783.89   75.55
   0  -3 -13 2733.25   70.49
   0  -3 -13 2797.00   78.07
   0   3  13 2834.87   77.94
   0   3  14 1294.61   55.46
   0  -3 -14 1267.02   51.25
   0  -3 -14 1269.70   56.64
   0   3  14 1390.97   58.16
   0   3  15  302.76   35.32
   0  -3 -15  263.78   30.83
   0  -3 -15  248.89   35.90
   0   3  15  216.66   30.51
   0   3  16 6486.84  136.71
   0  -3 -16 6270.03  131.51
   0  -3 -16 6521.33  144.84
   0   3  16 6729.03  139.75
   0   3  17 1600.95   60.99
   0  -3 -17 1453.69   57.16
   0  -3 -17 1700.31   66.85
   0   3  17 1644.19   60.66
   0   3  18 2426.14   73.47
   0  -3 -18 2246.67   92.19
   0   3  18 2445.47   81.55
   0  -3 -18 2427.26   76.09
   0   3  18 2415.62   73.24
   0   3  19 3296.27   90.12
   0  -3 -19 3267.91   92.67
   0   3  19 3520.47   99.25
   0  -3 -19 3460.39   91.41
   0   3  19 3511.50   92.09
   0   3  20  594.42   50.54
   0   3  20  627.13   55.11
   0  -3 -20  570.82   47.98
   0   3  20  550.06   48.76
   0   3  20  587.31   47.47
   0   4 -20 2636.28  106.76
   0  -4  20 2613.78   92.62
   0  -4  19 1242.84   52.50
   0   4 -19 1430.70   73.23
   0   4 -19 1344.68   62.65
   0  -4  19 1399.02   64.51
   0  -4  18   41.95   34.38
   0   4 -18  -42.61   36.92
   0   4 -18   62.55   37.15
   0  -4  18   24.46   29.41
   0  -4  17  817.95   48.51
   0   4 -17  827.77   58.59
   0   4 -17  845.18   48.84
   0  -4  17  868.00   50.69
   0  -4  16   42.93   28.89
   0  -4  16   36.07   31.14
   0   4 -16    4.90   38.56
   0   4 -16   -3.45   28.75
   0  -4  16   39.60   32.10
   0  -4  16   34.89   30.36
   0  -4  15 1965.31   66.16
   0  -4  15 1784.60   69.91
   0   4 -15 1915.40   80.55
   0   4 -15 1881.17   63.19
   0  -4  15 1843.25   63.34
   0  -4  14 1678.78   57.60
   0  -4  14 1680.38   61.47
   0   4 -14 1681.53   67.89
   0   4 -14 1637.42   59.34
   0  -4  14 1698.33   60.96
   0  -4  1314077.49  229.62
   0  -4  1314123.06  243.00
   0   4 -1313971.12  239.59
   0  -4  1313522.39  227.97
   0  -4  12 3885.47   91.25
   0  -4  12 3943.33   89.67
   0   4 -12 3955.67   91.98
   0  -4  12 3938.09   90.37
   0   4 -11   63.33   32.11
   0  -4  11  122.87   33.12
   0   4 -11   85.00   21.79
   0  -4  11   54.34   26.88
   0   4 -11   92.06   33.09
   0  -4  11   75.51   23.37
   0   4 -1021984.29  359.71
   0  -4  1021506.32  345.99
   0   4 -1020274.50  328.21
   0  -4  1020799.38  333.65
   0   4 -1020456.57  351.64
   0  -4  1019776.25  325.66
   0  -4   9 2583.53   73.80
   0   4  -9 2429.95   77.70
   0   4  -9 2379.64   75.24
   0   4  -9 2424.80   74.01
   0  -4   9 2243.03   80.22
   0   4  -8  604.03   36.35
   0  -4   8  685.17   44.44
   0   4  -7 6969.46  155.80
   0  -4   7 6843.60  151.60
   0   4  -619004.41  307.30
   0   4  -617886.53  297.52
   0  -4   617997.01  307.40
   0   4  -5   53.16   29.44
   0   4  -5   75.81   16.14
   0   4  -5   61.60   18.76
   0  -4   5  115.84   27.99
   0   4  -4 8880.01  237.25
   0   4  -4 8516.76  227.35
   0   4  -4 8812.87  240.43
   0  -4   4 8972.47  242.21
   0   4  -4 8469.79  243.96
   0   4  -326037.50  311.32
   0  -4   323875.18  504.87
   0  -4   326620.14  316.22
   0   4  -325427.66  226.06
   0  -4   326693.16  333.65
   0   4  -323783.48  536.11
   0   4  -221294.39  437.52
   0  -4   219910.92  427.91
   0  -4   221415.19  437.14
   0   4  -219406.92  425.99
   0  -4   220338.67  429.80
   0  -4   221116.54  443.80
   0   4  -1 9421.92  248.06
   0  -4   1 9044.06  251.76
   0   4  -1 8749.38  242.29
   0  -4   1 9030.27  238.17
   0   4  -1 8852.20  230.11
   0  -4   1 8851.88  240.53
   0  -4   1 9492.62  257.91
   0   4   016030.31  343.61
   0  -4   014760.30  333.74
   0   4   014980.48  330.20
   0  -4   016423.32  344.09
   0   4   014904.47  314.22
   0  -4   015665.71  338.63
   0  -4   016278.42  361.07
   0   4   1   27.55   17.93
   0   4   1   11.51   22.51
   0   4   1    3.81   14.97
   0  -4  -1   21.61   20.25
   0   4   1   15.41   14.35
   0   4   1   17.71   20.37
   0  -4  -1   32.82   13.90
   0   4   210167.95  196.85
   0   4   210591.82  160.82
   0   4   210708.45  253.45
   0  -4  -211173.17  244.49
   0   4   210523.60  154.78
   0   4   210944.93  250.45
   0  -4  -210983.90  250.62
   0   4   3 4185.55  139.80
   0   4   3 4477.77  146.43
   0   4   3 4270.09  134.60
   0  -4  -3 4482.48  131.52
   0   4   3 4440.62  137.82
   0  -4  -3 4428.32  140.40
   0   4   4 2738.15   85.86
   0   4   4 2854.67   89.56
   0   4   4 2769.34   82.15
   0  -4  -4 2776.52   71.76
   0   4   4 2926.59   78.26
   0  -4  -4 2676.03   78.58
   0  -4  -510040.92  245.43
   0   4   5 9488.24  240.45
   0   4   510232.83  240.23
   0  -4  -5 9257.58  238.38
   0  -4  -6 1263.38   56.93
   0   4   6 1298.67   53.04
   0  -4  -7  412.84   37.43
   0  -4  -7  382.51   31.99
   0   4   7  406.71   33.51
   0  -4  -8 3078.44   87.57
   0  -4  -8 3215.57   89.93
   0   4   8 3237.06   85.31
   0  -4  -8 3089.50   79.84
   0  -4  -8 3115.77   82.25
   0   4   8 2967.50  100.17
   0  -4  -9 6006.91  148.55
   0  -4  -9 6507.41  138.62
   0   4   9 6409.72  145.50
   0   4   9 6088.64  136.80
   0  -4  -9 6284.58  132.70
   0  -4  -9 6023.44  137.72
   0   4   9 5512.78  163.68
   0  -4 -10  341.16   38.29
   0  -4 -10  321.63   30.88
   0   4  10  344.98   31.99
   0   4  10  344.25   31.10
   0  -4 -10  343.37   31.97
   0  -4 -10  366.24   36.41
   0   4  10  330.80   32.82
   0  -4 -11  743.99   41.39
   0   4  11  704.23   47.13
   0   4  11  748.88   44.68
   0  -4 -11  768.35   46.61
   0  -4 -11  774.60   43.24
   0   4  11  784.02   45.81
   0   4  12  721.71   43.28
   0  -4 -12  747.70   39.39
   0  -4 -12  669.69   42.74
   0   4  12  678.05   44.65
   0   4  13 2242.55   69.65
   0  -4 -13 2253.07   67.00
   0  -4 -13 2206.19   70.37
   0   4  13 2358.36   69.22
   0   4  14 1467.91   58.96
   0  -4 -14 1432.44   53.91
   0  -4 -14 1426.53   61.51
   0   4  14 1430.86   58.97
   0   4  15 1077.64   51.85
   0  -4 -15 1149.31   49.29
   0  -4 -15 1007.56   53.88
   0   4  15 1114.93   49.59
   0   4  1610857.97  228.15
   0  -4 -1610262.56  216.94
   0  -4 -1611711.79  246.64
   0   4  1611726.19  242.14
   0   4  17  664.10   44.33
   0  -4 -17  726.50   45.63
   0   4  17  677.75   49.30
   0  -4 -17  699.95   43.34
   0   4  17  721.92   45.77
   0   4  18  328.47   40.44
   0  -4 -18  327.57   35.58
   0   4  18  368.04   44.66
   0  -4 -18  326.40   46.15
   0   4  18  326.63   42.10
   0   4  19  805.01   50.96
   0  -4 -19  785.83   48.24
   0   4  19  825.18   59.97
   0  -4 -19  747.34   58.73
   0   4  19  773.51   46.51
   0   4  19  810.35   50.84
   0  -5  19  757.89   46.19
   0   5 -19  773.97   61.07
   0  -5  19  816.20   55.00
   0  -5  18 1212.38   59.73
   0   5 -18 1163.90   60.97
   0   5 -18 1174.23   58.68
   0  -5  18 1195.70   57.62
   0  -5  17 1026.04   46.34
   0   5 -17  968.93   57.96
   0   5 -17 1024.62   54.97
   0  -5  17 1073.62   57.42
   0  -5  16   39.34   31.86
   0   5 -16   82.66   37.55
   0   5 -16   55.59   32.46
   0  -5  16   23.26   30.25
   0  -5  15  291.29   36.75
   0  -5  15  351.34   37.90
   0   5 -15  389.59   47.55
   0   5 -15  308.76   41.55
   0  -5  15  351.07   37.91
   0  -5  14 2631.87   69.84
   0  -5  14 2513.93   74.31
   0   5 -14 2759.20   89.08
   0   5 -14 2555.10   79.79
   0  -5  14 2667.99   73.85
   0  -5  13 4543.35   96.26
   0  -5  13 4629.98  103.89
   0   5 -13 4587.06  104.03
   0  -5  13 4648.36   96.40
   0  -5  12 5867.09  105.30
   0  -5  12 5937.84  134.41
   0   5 -12 5908.90  141.45
   0  -5  12 6156.21  135.27
   0  -5  11  971.69   52.01
   0   5 -11 1019.91   53.72
   0  -5  11  971.40   52.47
   0   5 -11  986.81   47.90
   0  -5  11  908.85   45.85
   0  -5  10 9222.30  159.71
   0   5 -10 8871.98  160.06
   0  -5  10 8662.57  145.05
   0  -5  10 8620.16  144.28
   0   5 -10 8783.15  158.90
   0  -5  10 8730.53  152.37
   0  -5   915408.85  269.52
   0   5  -914298.75  258.06
   0  -5   914313.08  250.38
   0   5  -914578.97  262.19
   0  -5   914527.16  249.31
   0   5  -914441.23  262.50
   0  -5   913875.62  257.26
   0   5  -8   78.22   31.49
   0  -5   8    9.64   23.55
   0   5  -8  -10.90   14.64
   0   5  -8   11.26   23.56
   0  -5   8   13.79   13.09
   0   5  -7 1400.90   57.61
   0   5  -7 1495.06   58.50
   0  -5   7 1462.95   59.68
   0   5  -615772.55  193.89
   0   5  -615967.15  217.71
   0  -5   615074.35  345.76
   0   5  -515520.43  344.95
   0   5  -515075.17  338.16
   0  -5   515408.47  348.00
   0   5  -4  385.35   36.39
   0   5  -4  339.70   28.77
   0   5  -4  415.84   32.91
   0  -5   4  347.19   31.96
   0  -5   4  387.13   36.63
   0   5  -337511.69  529.06
   0  -5   338443.39  540.99
   0   5  -334911.38  493.90
   0  -5   336325.84  538.16
   0  -5   338230.52  555.53
   0   5  -2  654.57   38.18
   0  -5   2  632.00   36.85
   0   5  -2  633.91   34.23
   0  -5   2  633.75   40.43
   0  -5   2  642.85   43.13
   0   5  -1  155.43   27.12
   0  -5   1  152.22   26.02
   0  -5   1  148.67   22.71
   0   5  -1  137.69   19.12
   0  -5   1  160.47   22.83
   0  -5   1  159.04   26.77
   0   5   0 1161.13   52.44
   0  -5   0 1077.00   62.81
   0  -5   0 1215.70   48.24
   0   5   0 1085.32   53.23
   0  -5   0 1180.94   50.11
   0  -5   0 1165.71   57.17
   0   5   127260.21  386.80
   0   5   128550.21  343.89
   0  -5  -129607.52  335.74
   0   5   128449.99  343.99
   0  -5  -129134.64  355.83
   0   5   238213.62  435.45
   0  -5  -239616.68  420.39
   0   5   238376.19  430.87
   0  -5  -238572.28  423.68
   0   5   324880.67  408.34
   0   5   323755.72  377.69
   0  -5  -325485.38  379.39
   0   5   325748.88  397.47
   0  -5  -325932.77  418.07
   0   5   4 2717.73   95.03
   0   5   4 2957.59  113.23
   0   5   4 2838.68   85.21
   0  -5  -4 3125.43  105.98
   0   5   4 3152.22  114.84
   0  -5  -4 2773.60   92.07
   0   5   5 6611.61  160.88
   0  -5  -5 6795.83  140.25
   0   5   5 6451.49  144.18
   0   5   6 8322.05  187.28
   0   5   6 8397.84  209.83
   0   5   7 3378.73   99.68
   0   5   7 3322.55   92.72
   0  -5  -7 3318.82   83.68
   0  -5  -7 3018.83   84.32
   0   5   7 2918.90  129.90
   0  -5  -8 1099.57   57.67
   0  -5  -8 1041.16   46.03
   0   5   8 1117.96   51.01
   0   5   8 1155.33   50.21
   0  -5  -8 1118.59   48.27
   0  -5  -8 1104.48   51.40
   0   5   8 1139.57   56.46
   0  -5  -9 1617.34   67.56
   0   5   9 1630.28   69.01
   0   5   9 1761.70   61.32
   0  -5  -9 1685.60   56.79
   0  -5  -9 1628.23   60.89
   0   5   9 1673.92   66.39
   0  -5 -10  294.93   31.36
   0   5  10  279.09   34.00
   0   5  10  275.10   33.57
   0  -5 -10  276.32   31.77
   0  -5 -10  283.95   32.05
   0   5  10  323.88   33.23
   0   5  11 1580.84   58.41
   0  -5 -11 1540.66   54.26
   0  -5 -11 1546.40   58.24
   0   5  11 1590.45   62.28
   0   5  12 6143.56  131.54
   0  -5 -12 6314.43  131.64
   0  -5 -12 6219.70  135.27
   0   5  12 6522.50  147.03
   0   5  13 8387.47  151.32
   0  -5 -13 8605.70  147.88
   0  -5 -13 8100.65  152.63
   0   5  13 8381.36  152.30
   0   5  14  524.55   40.69
   0  -5 -14  527.96   37.25
   0   5  14  561.36   44.31
   0  -5 -14  493.54   38.06
   0   5  14  511.22   40.93
   0   5  15  309.64   34.89
   0  -5 -15  224.95   36.04
   0   5  15  230.39   36.20
   0  -5 -15  230.10   41.43
   0   5  15  311.78   38.37
   0   5  16 3870.69   93.59
   0  -5 -16 3831.47   98.00
   0   5  16 3896.38   97.90
   0  -5 -16 4020.88   96.14
   0   5  16 3971.36   94.42
   0   5  17 2777.93   82.93
   0  -5 -17 2752.62   74.48
   0   5  17 2740.14   89.95
   0  -5 -17 2776.49   85.74
   0  -5 -17 2901.32   85.47
   0   5  17 2899.65   81.03
   0   5  18   -4.96   32.76
   0  -5 -18   -0.40   33.64
   0  -5 -18  -23.18   33.30
   0   5  18   -4.85   29.45
   0   5  18  -14.75   35.62
   0   5  19  553.35   50.86
   0  -5 -19  530.50   45.00
   0  -5 -19  536.91   50.68
   0   5  19  535.63   44.10
   0   5  19  535.22   46.56
   0  -6  19 5652.09  131.62
   0   6 -19 5529.56  152.09
   0  -6  19 5691.70  145.47
   0  -6  18 1314.93   55.56
   0   6 -18 1328.32   63.64
   0  -6  18 1333.99   61.07
   0  -6  17   64.76   32.97
   0   6 -17   27.85   28.98
   0   6 -17   40.63   36.03
   0  -6  17   27.97   34.80
   0  -6  16  -11.61   31.50
   0   6 -16   13.30   34.79
   0   6 -16    5.09   35.25
   0  -6  16   -7.13   29.39
   0  -6  15  167.12   34.90
   0   6 -15  206.09   34.19
   0   6 -15  204.15   37.96
   0  -6  15  242.24   33.12
   0  -6  14 1343.46   56.36
   0  -6  14 1265.61   54.38
   0   6 -14 1337.45   66.55
   0   6 -14 1337.79   57.19
   0  -6  14 1255.28   55.78
   0  -6  13 1118.36   51.35
   0  -6  13 1138.75   54.97
   0   6 -13 1067.02   55.21
   0  -6  13 1154.80   51.98
   0   6 -1224071.65  303.18
   0  -6  1223058.14  298.13
   0   6 -1223266.53  299.32
   0  -6  1223056.25  292.80
   0   6 -11 4661.26   99.37
   0  -6  11 4600.69  102.82
   0  -6  11 4585.54   97.44
   0   6 -11 4669.67  105.11
   0  -6  11 4698.43   95.50
   0   6 -10 8063.71  152.97
   0  -6  10 8232.39  144.51
   0   6 -10 8157.41  145.34
   0  -6  10 8211.43  135.01
   0  -6  10 8397.16  128.66
   0   6 -10 8241.31  140.16
   0  -6  10 8154.35  133.20
   0   6  -9 4883.56  141.87
   0  -6   9 5062.32  122.06
   0   6  -9 4950.03  126.19
   0  -6   9 4948.82  113.58
   0   6  -9 5001.75  111.59
   0  -6   9 4975.40  107.91
   0   6  -9 5077.65  114.92
   0  -6   9 4888.19  103.27
   0   6  -8 9434.24  207.04
   0  -6   810350.26  200.52
   0   6  -810060.42  207.37
   0  -6   8 9746.94  187.21
   0   6  -8 9610.12  193.68
   0   6  -8 9978.46  204.63
   0  -6   8 9616.31  182.42
   0   6  -7 3639.65   92.88
   0  -6   7 3813.72   94.72
   0   6  -7 4111.23   97.80
   0  -6   7 3663.57   88.57
   0   6  -7 3769.68   95.99
   0  -6   7 3672.69   89.46
   0   6  -6 1610.46   63.70
   0  -6   6 1606.97   65.14
   0  -6   6 1603.45   66.94
   0   6  -526223.34  394.21
   0   6  -525608.71  392.04
   0  -6   525003.66  392.17
   0   6  -421755.82  343.74
   0   6  -421498.03  340.41
   0  -6   422456.26  358.42
   0   6  -3 5863.93  133.54
   0  -6   3 5967.34  137.87
   0  -6   3 6105.67  145.03
   0   6  -2 3112.73  109.92
   0  -6   2 3058.30  108.03
   0  -6   2 3166.17  116.04
   0   6  -113315.46  299.90
   0  -6   113429.09  300.95
   0  -6   111949.28  282.63
   0  -6   113130.27  325.32
   0   6   0  529.87   37.77
   0  -6   0  557.07   36.25
   0  -6   0  512.76   33.29
   0  -6   0  551.44   40.77
   0   6   1  818.11   44.75
   0  -6  -1  875.53   40.96
   0  -6  -1  870.66   51.05
   0   6   242559.62  602.37
   0  -6  -243873.06  603.59
   0   6   241224.70  608.06
   0   6   3  490.65   38.34
   0  -6  -3  553.20   33.29
   0   6   3  556.07   38.97
   0   6   4 5264.75  134.80
   0  -6  -4 5453.77  122.31
   0   6   4 5104.33  133.82
   0   6   5 7518.02  177.37
   0  -6  -5 7813.20  157.08
   0   6   5 7423.05  167.00
   0   6   6 1817.56   71.91
   0  -6  -6 1889.15   58.88
   0   6   6 1703.19   66.30
   0  -6  -6 1655.03   54.01
   0  -6  -6 1772.17   64.96
   0   6   6 1621.08   61.68
   0   6   7 2872.64  103.88
   0  -6  -7 2817.96   78.54
   0   6   7 2987.82   88.53
   0   6   7 2989.52   82.58
   0  -6  -7 3158.56   78.34
   0   6   7 3047.49   98.86
   0   6   8  585.73   39.42
   0  -6  -8  659.68   38.97
   0   6   8  531.05   40.07
   0   6   8  623.17   37.51
   0  -6  -9   28.48   22.87
   0   6   9   -2.94   20.77
   0  -6  -9   14.65   21.80
   0  -6  -9   29.28   20.99
   0   6   9   15.60   18.28
   0   6  10  433.21   32.69
   0  -6 -10  451.15   33.76
   0  -6 -10  473.38   35.02
   0   6  10  423.40   37.56
   0   6  11  129.89   30.14
   0  -6 -11  185.15   32.06
   0  -6 -11  122.11   30.60
   0   6  11  157.41   31.12
   0   6  12 2600.38   79.39
   0  -6 -12 2768.85   79.15
   0   6  12 2729.85   81.86
   0  -6 -12 2833.91   82.06
   0   6  12 2742.50   78.40
   0   6  13 1179.86   50.19
   0  -6 -13 1197.35   52.24
   0   6  13 1166.54   56.06
   0  -6 -13 1209.70   54.76
   0   6  13 1184.69   56.28
   0   6  14  -15.27   34.38
   0  -6 -14   22.31   28.43
   0   6  14   29.04   32.16
   0  -6 -14   22.40   24.78
   0   6  14    9.11   29.98
   0   6  15  567.23   42.49
   0  -6 -15  586.72   41.72
   0  -6 -15  558.18   43.26
   0  -6 -15  578.26   42.71
   0   6  15  561.22   43.42
   0   6  16 2349.68   77.08
   0  -6 -16 2324.50   71.67
   0  -6 -16 2305.66   70.23
   0  -6 -16 2462.13   76.84
   0   6  16 2468.63   73.68
   0   6  17 1513.31   65.01
   0  -6 -17 1609.72   61.10
   0  -6 -17 1567.81   59.48
   0   6  17 1546.29   60.54
   0   6  17 1587.82   60.87
   0   6  18   -3.92   39.13
   0  -6 -18   25.52   30.56
   0  -6 -18    9.44   36.61
   0   6  18   19.41   29.47
   0   6  18  -10.85   28.96
   0  -7  18   -3.18   28.23
   0   7 -18   19.29   40.07
   0  -7  18   13.53   33.99
   0  -7  17   86.82   32.31
   0   7 -17   21.35   42.29
   0   7 -17   50.54   37.72
   0  -7  17   75.29   34.72
   0  -7  17   48.23   34.38
   0  -7  16   98.86   24.72
   0   7 -16   91.47   43.00
   0   7 -16  104.92   33.87
   0  -7  16  100.80   35.58
   0  -7  15  467.92   35.06
   0   7 -15  428.52   42.56
   0  -7  15  446.97   40.97
   0  -7  14 2795.72   78.59
   0   7 -14 2736.21   82.79
   0  -7  14 2790.49   73.54
   0  -7  13   19.85   30.94
   0  -7  13    7.28   27.82
   0   7 -13    5.99   31.19
   0  -7  13   11.32   31.41
   0   7 -12  258.28   35.69
   0  -7  12  233.36   36.18
   0  -7  12  195.57   32.37
   0   7 -12  182.85   28.37
   0  -7  12  181.45   34.30
   0   7 -11 4014.42   90.85
   0  -7  11 3961.94   94.92
   0  -7  11 3928.99   89.76
   0   7 -11 3952.03   93.97
   0  -7  11 4110.59   90.58
   0   7 -10 4174.52   93.77
   0  -7  10 3768.95  110.86
   0  -7  10 4217.63   92.04
   0   7 -10 4272.75   99.56
   0  -7  10 4281.40   91.05
   0   7  -9  123.64   35.75
   0   7  -9   43.63   25.93
   0  -7   9   49.24   24.97
   0  -7   9   51.80   27.76
   0   7  -9   60.19   27.76
   0   7  -8  121.57   34.11
   0   7  -8  115.21   30.55
   0  -7   8  109.15   26.56
   0   7  -8   87.95   26.83
   0  -7   8  113.48   28.26
   0   7  -721451.14  347.91
   0   7  -721313.30  359.20
   0  -7   722701.34  354.25
   0   7  -722607.91  359.61
   0  -7   722672.14  347.31
   0   7  -6   29.81   29.57
   0  -7   6   35.15   24.79
   0   7  -6   44.66   24.83
   0  -7   6   38.93   21.42
   0   7  -6   26.94   20.83
   0  -7   6   40.55   21.53
   0   7  -5 4403.99  100.35
   0  -7   5 4116.75  102.69
   0   7  -5 4197.93   94.70
   0  -7   5 4183.33   94.03
   0   7  -5 4176.89  106.35
   0  -7   5 3756.74   98.77
   0   7  -4 6953.84  128.59
   0   7  -4 6925.39  139.49
   0  -7   4 7040.51  138.76
   0   7  -3 3599.97  124.50
   0  -7   3 3649.48  125.34
   0  -7   3 3733.86  132.76
   0   7  -2   16.31   22.83
   0  -7   2    3.56   15.53
   0  -7   2   -3.37   20.37
   0   7  -1 3665.41  125.18
   0  -7   1 3602.84  120.40
   0   7   0 2172.98   68.85
   0  -7   0 2166.59   63.23
   0   7   1 3265.50  115.78
   0  -7  -1 3241.70  111.98
   0   7   2 1194.42   52.70
   0  -7  -2 1361.70   50.46
   0   7   3 8306.80  161.87
   0  -7  -3 8514.42  147.87
   0  -7  -3 8149.47  153.86
   0   7   3 8335.20  156.35
   0   7   3 8333.45  148.22
   0   7   4   39.37   19.57
   0  -7  -4   73.28   23.09
   0  -7  -4   46.38   19.66
   0  -7  -4   61.73   16.51
   0   7   4   42.64   15.62
   0   7   4   50.67   23.79
   0   7   5   -2.45   23.83
   0  -7  -5    8.32   19.38
   0   7   5  -20.99   22.00
   0  -7  -5  -10.48   20.98
   0   7   5   12.58   18.59
   0   7   5   18.05   19.30
   0   7   5    5.23   14.99
   0  -7  -6 1098.67   47.12
   0   7   6 1098.15   49.29
   0   7   6 1029.25   52.65
   0  -7  -6 1131.76   51.84
   0   7   6 1049.79   54.43
   0   7   6 1142.43   49.27
   0  -7  -7 1101.24   47.25
   0   7   7 1166.76   52.63
   0  -7  -7 1041.76   43.98
   0   7   7 1143.10   55.24
   0  -7  -7 1187.86   49.47
   0   7   7 1031.02   54.45
   0   7   7 1148.39   49.49
   0  -7  -8  304.77   32.95
   0   7   8  371.96   35.45
   0  -7  -8  380.66   30.84
   0   7   8  363.54   38.48
   0  -7  -8  378.53   32.84
   0   7   8  302.90   26.97
   0   7   8  341.79   32.93
   0   7   9    9.95   24.72
   0  -7  -9   19.04   25.64
   0   7   9    7.81   21.71
   0  -7  -9   11.01   16.87
   0   7   9  -20.21   22.59
   0   7  10 5185.39  108.69
   0  -7 -10 5241.66  103.53
   0   7  10 5405.80  108.75
   0  -7 -10 5020.75  102.19
   0  -7 -10 5134.88  104.88
   0   7  10 5321.62  104.15
   0   7  11 1885.30   65.49
   0  -7 -11 1954.42   63.82
   0   7  11 1918.89   71.27
   0  -7 -11 1836.07   66.33
   0  -7 -11 1911.72   65.14
   0   7  11 1947.17   65.32
   0   7  12  247.48   32.86
   0  -7 -12  284.74   32.72
   0   7  12  291.46   37.81
   0  -7 -12  253.42   31.87
   0  -7 -12  272.57   37.57
   0   7  12  286.71   31.56
   0   7  13 1611.04   60.84
   0  -7 -13 1565.42   58.42
   0   7  13 1596.62   66.75
   0  -7 -13 1621.78   59.32
   0  -7 -13 1519.33   61.49
   0   7  13 1640.85   59.47
   0   7  14  388.84   42.24
   0  -7 -14  354.34   36.87
   0   7  14  393.96   37.98
   0  -7 -14  420.96   43.28
   0   7  14  380.23   38.94
   0   7  14  375.85   42.72
   0   7  15  263.94   34.69
   0  -7 -15  284.50   36.38
   0   7  15  271.85   39.20
   0  -7 -15  290.16   37.28
   0   7  15  343.90   35.80
   0   7  15  319.45   35.94
   0   7  16  436.57   45.55
   0  -7 -16  440.59   38.57
   0  -7 -16  433.83   38.47
   0   7  16  439.84   38.13
   0   7  16  445.66   40.05
   0  -7 -17  280.58   35.97
   0  -7 -17  291.52   38.15
   0   7  17  266.30   36.82
   0   7  17  263.55   36.90
   0  -7 -18   22.58   29.23
   0  -7 -18  -21.34   40.89
   0   7  18    6.13   28.71
   0   7  18    9.28   33.67
   0  -8  18    9.96   33.27
   0   8 -18   59.95   42.13
   0  -8  18    3.67   30.65
   0  -8  17  734.93   47.98
   0  -8  17  685.15   51.32
   0  -8  17  744.94   49.85
   0  -8  16  103.84   28.45
   0   8 -16  102.04   41.32
   0  -8  16   69.03   35.54
   0  -8  15 4075.42   94.45
   0   8 -15 3854.50  101.56
   0  -8  15 3997.39   91.84
   0  -8  14 1301.93   55.60
   0   8 -14 1240.07   59.82
   0   8 -14 1300.08   58.75
   0  -8  14 1393.35   55.72
   0  -8  13 2715.93   79.45
   0  -8  13 2607.98   75.79
   0  -8  13 2690.35   81.80
   0   8 -13 2592.81   83.17
   0  -8  13 2828.74   78.40
   0   8 -12  526.65   42.06
   0  -8  12  512.24   43.60
   0  -8  12  491.79   40.00
   0   8 -12  514.43   46.27
   0  -8  12  528.92   43.00
   0   8 -11  598.52   42.29
   0  -8  11  642.50   43.48
   0  -8  11  586.84   38.25
   0   8 -11  589.89   45.60
   0  -8  11  651.36   46.40
   0   8 -10  106.98   30.83
   0  -8  10  124.79   38.17
   0  -8  10   87.31   31.48
   0   8 -10   85.44   31.83
   0  -8  10   65.68   27.53
   0   8  -9  596.70   40.98
   0  -8   9  591.32   41.64
   0  -8   9  581.14   40.01
   0   8  -9  614.86   43.36
   0  -8   9  626.53   36.64
   0   8  -8   85.82   26.30
   0  -8   8   59.87   27.30
   0   8  -8   85.40   29.13
   0  -8   8   84.16   21.41
   0   8  -7 4543.61  113.71
   0   8  -7 4793.61  103.66
   0  -8   7 4649.68   98.57
   0   8  -7 4816.38  103.92
   0  -8   7 4673.44   95.06
   0   8  -6 5815.36  167.01
   0   8  -6 6401.74  131.84
   0  -8   6 6160.89  121.91
   0   8  -6 6293.12  126.65
   0  -8   6 6244.41  115.76
   0   8  -5 4520.03  104.27
   0   8  -5 4505.10   99.25
   0  -8   5 4503.88   97.80
   0   8  -5 4384.23   97.20
   0   8  -414879.03  260.43
   0   8  -414863.41  257.29
   0  -8   414806.61  251.15
   0   8  -414700.67  266.56
   0   8  -414929.91  257.60
   0   8  -3 2318.78   70.46
   0   8  -3 2301.99   73.06
   0  -8   3 2419.02   71.48
   0   8  -3 2359.19   77.46
   0   8  -3 2252.20   68.88
   0  -8   3 2422.27   68.65
   0   8  -3 2258.02   67.68
   0   8  -2   39.10   23.74
   0  -8   2   49.86   21.99
   0  -8   2   43.26   23.40
   0   8  -2   56.22   27.02
   0   8  -2   31.01   21.91
   0  -8   2   55.82   20.28
   0   8  -2   57.25   20.51
   0   8  -1 3243.28   82.36
   0  -8   1 3259.96   81.74
   0  -8   1 3325.91   90.46
   0   8  -1 3327.27   90.56
   0   8  -1 3158.30   80.74
   0  -8   1 3267.93   83.18
   0   8  -1 3253.14   94.03
   0   8   025049.31  324.86
   0  -8   025074.03  319.27
   0  -8   024878.96  312.97
   0   8   024686.48  321.02
   0   8   024843.49  315.30
   0  -8   024134.71  331.53
   0   8   025059.73  331.25
   0   8   1 1906.08   71.34
   0  -8  -1 1902.28   64.43
   0  -8  -1 1893.53   62.88
   0   8   1 2080.59   72.80
   0   8   1 1834.59   62.56
   0  -8  -1 1839.80   61.15
   0   8   1 1830.88   71.17
   0   8   2  542.32   37.87
   0  -8  -2  530.89   36.46
   0  -8  -2  567.39   35.83
   0   8   2  513.39   36.22
   0   8   2  534.08   37.44
   0   8   2  547.93   36.80
   0   8   2  537.68   39.47
   0   8   311492.29  220.48
   0  -8  -312056.74  214.53
   0   8   311633.57  218.23
   0  -8  -311735.51  207.12
   0   8   312442.45  233.96
   0  -8  -311990.36  214.62
   0   8   312141.24  218.68
   0   8   312137.75  223.45
   0   8   311325.63  260.61
   0  -8  -4 5803.19  130.05
   0   8   4 5755.10  134.23
   0  -8  -4 5720.31  125.84
   0  -8  -4 5945.18  141.33
   0   8   4 5827.94  129.58
   0   8   4 5653.08  126.79
   0   8   4 5950.39  137.77
   0  -8  -5 2798.05   79.67
   0   8   5 2791.85   78.09
   0  -8  -5 2763.38   78.58
   0  -8  -5 2878.00   74.62
   0   8   5 2773.30   75.06
   0   8   5 2751.71   80.20
   0   8   5 2916.67   86.87
   0  -8  -6 3771.32   93.57
   0   8   6 3861.70   94.86
   0   8   6 3838.78   92.37
   0  -8  -6 4088.79   89.01
   0   8   6 3742.35   97.73
   0   8   6 3955.28   90.59
   0  -8  -7 3267.38   84.41
   0   8   7 3236.05   82.18
   0   8   7 3306.74   86.68
   0  -8  -7 3486.08   83.61
   0   8   7 3493.63   83.86
   0  -8  -8 3000.07   76.95
   0   8   8 3109.27   84.67
   0  -8  -8 3226.94   85.97
   0   8   8 2860.51   79.24
   0   8   8 3301.66   81.01
   0   8   9  371.26   36.04
   0  -8  -9  390.10   33.88
   0   8   9  390.90   41.27
   0  -8  -9  382.07   36.85
   0   8   9  435.70   33.26
   0   8  10 8017.58  147.02
   0  -8 -10 8442.20  150.70
   0   8  10 8946.53  166.64
   0  -8 -10 8050.06  147.66
   0   8  10 8503.59  149.49
   0   8  10 8676.44  153.72
   0   8  11  131.63   31.02
   0  -8 -11   94.45   29.90
   0   8  11  143.76   34.35
   0  -8 -11   80.13   28.52
   0   8  11   54.26   27.59
   0   8  11  101.44   36.75
   0   8  12 1180.93   54.73
   0  -8 -12 1305.00   54.63
   0   8  12 1386.50   60.07
   0  -8 -12 1230.17   51.07
   0   8  12 1281.53   56.19
   0   8  12 1263.95   54.76
   0   8  13  540.75   43.72
   0  -8 -13  646.61   43.20
   0   8  13  632.31   45.58
   0  -8 -13  588.09   38.22
   0   8  13  588.91   41.05
   0   8  13  602.86   42.94
   0   8  14 4755.85  112.52
   0  -8 -14 4883.54  113.60
   0   8  14 4624.68  103.77
   0  -8 -14 4910.43  111.83
   0   8  14 4661.52  106.45
   0   8  14 5005.22  102.00
   0  -8 -15  318.72   39.16
   0   8  15  319.75   44.20
   0  -8 -15  301.60   35.69
   0   8  15  309.35   39.65
   0   8  15  294.80   36.33
   0  -8 -16  819.19   46.67
   0  -8 -16  853.86   50.13
   0   8  16  874.05   48.48
   0   8  16  921.58   51.45
   0  -8 -17   68.76   30.91
   0  -8 -17   88.95   36.45
   0   8  17   56.53   34.36
   0   8  17   34.92   31.89
   0  -9  17   48.53   31.96
   0  -9  17   48.43   31.14
   0  -9  16  -25.34   37.67
   0   9 -16  -19.08   28.85
   0  -9  16   16.44   35.94
   0  -9  15  471.42   37.47
   0   9 -15  476.28   47.53
   0   9 -15  430.64   44.36
   0  -9  15  489.48   43.98
   0  -9  14 1581.76   63.03
   0   9 -14 1641.15   65.46
   0   9 -14 1574.40   74.30
   0  -9  14 1646.94   59.50
   0  -9  13  -21.11   30.85
   0  -9  13   58.82   33.61
   0   9 -13   29.87   34.44
   0  -9  13   34.60   29.75
   0   9 -12 1042.89   53.31
   0  -9  12  971.98   54.98
   0  -9  12  988.92   51.56
   0   9 -12 1020.06   59.69
   0  -9  12  992.77   52.68
   0   9 -11 3121.57   79.23
   0  -9  11 3092.13   83.92
   0  -9  11 3173.70   84.66
   0   9 -11 2991.08   95.72
   0  -9  11 3213.21   83.63
   0   9 -10  143.66   32.96
   0  -9  10  179.34   32.19
   0  -9  10  187.83   33.63
   0   9 -10  177.49   35.54
   0  -9  10  146.20   32.80
   0   9  -9  727.94   45.12
   0  -9   9  676.60   42.49
   0  -9   9  710.97   40.81
   0   9  -9  741.47   47.56
   0  -9   9  725.22   44.31
   0   9  -8  403.84   38.30
   0  -9   8  381.45   36.97
   0   9  -8  362.25   36.74
   0  -9   8  386.45   37.15
   0   9  -7 2739.02   78.98
   0  -9   7 2765.43   76.04
   0   9  -7 2744.43   78.94
   0  -9   7 2672.82   71.63
   0   9  -6 1934.46   80.22
   0   9  -6 2010.99   67.45
   0  -9   6 2030.09   65.48
   0   9  -6 2056.63   69.11
   0   9  -5 3071.36   94.68
   0   9  -5 3086.80   80.44
   0  -9   5 3011.30   75.75
   0   9  -5 3187.94   86.33
   0   9  -4 9405.96  161.57
   0   9  -4 9367.62  147.44
   0  -9   4 9237.09  132.54
   0   9  -4 9296.06  159.12
   0   9  -4 9463.98  140.11
   0  -9   4 9465.44  130.94
   0   9  -4 8994.12  131.08
   0   9  -3 3507.28  100.40
   0   9  -3 3556.88   87.34
   0  -9   3 3574.82   81.81
   0   9  -3 3505.53   97.60
   0   9  -3 3521.22   90.42
   0  -9   3 3650.86   83.00
   0   9  -3 3550.98   83.75
   0   9  -2 1424.61   61.98
   0  -9   2 1456.96   58.37
   0   9  -2 1396.18   64.64
   0   9  -2 1436.91   57.63
   0  -9   2 1353.65   53.69
   0   9  -2 1372.10   56.16
   0   9  -1 1065.11   52.03
   0   9  -1 1172.27   51.49
   0  -9   1 1215.95   51.35
   0   9  -1 1142.97   55.31
   0   9  -1 1113.20   48.32
   0  -9   1 1153.71   47.06
   0   9  -1 1154.75   49.61
   0   9   0   90.27   24.14
   0  -9   0   83.40   25.68
   0   9   0   91.00   25.14
   0  -9   0   72.50   22.47
   0   9   0   88.14   23.14
   0   9   0   72.17   20.58
   0  -9   0   78.04   24.16
   0   9   0   75.23   19.97
   0  -9  -1  263.96   33.01
   0  -9  -1  228.97   24.23
   0   9   1  246.20   33.10
   0   9   1  229.06   29.12
   0  -9  -1  226.14   23.42
   0   9   1  263.20   32.85
   0  -9  -2  342.64   33.86
   0  -9  -2  335.52   31.05
   0   9   2  337.19   34.21
   0   9   2  319.13   31.43
   0  -9  -2  293.47   28.55
   0   9   2  348.60   28.71
   0  -9  -3 8659.83  158.06
   0  -9  -3 9025.36  132.28
   0   9   3 8940.16  146.10
   0   9   3 8852.88  136.50
   0   9   3 9138.45  128.44
   0   9   3 9269.55  136.05
   0  -9  -4 2541.15   90.35
   0  -9  -4 2732.11   79.06
   0   9   4 2712.71   86.81
   0  -9  -4 2649.46   71.89
   0   9   4 2668.57   72.39
   0   9   4 2695.31   72.73
   0   9   4 2664.71   75.92
   0  -9  -5  -15.07   23.06
   0  -9  -5   12.99   19.40
   0  -9  -5   25.63   23.47
   0   9   5   21.03   17.34
   0   9   5   13.53   20.91
   0   9   5   -7.30   22.37
   0  -9  -6  385.18   29.15
   0   9   6  415.76   35.78
   0  -9  -6  387.17   30.19
   0   9   6  395.15   34.23
   0   9   6  401.62   34.27
   0   9   6  452.08   36.35
   0   9   7  227.69   31.83
   0   9   7  206.25   36.18
   0  -9  -7  278.64   28.87
   0   9   7  221.91   28.53
   0   9   7  251.54   31.52
   0   9   8 3260.38   88.40
   0   9   8 3695.64   94.46
   0  -9  -8 3485.71   95.52
   0   9   8 3600.67   87.47
   0   9   9 7623.23  145.57
   0  -9  -9 7375.52  143.21
   0   9   9 8258.61  158.98
   0  -9  -9 7682.66  144.03
   0   9   9 8057.73  147.06
   0   9  10   19.78   28.43
   0  -9 -10  -14.91   27.98
   0   9  10   19.65   32.66
   0  -9 -10   -1.63   25.62
   0   9  10   58.13   28.55
   0  -9 -11  217.97   31.98
   0   9  11  271.25   39.15
   0  -9 -11  220.28   31.41
   0   9  11  195.86   34.27
   0   9  11  199.32   33.63
   0  -9 -12  548.27   41.09
   0   9  12  632.03   47.23
   0  -9 -12  583.82   41.17
   0   9  12  725.51   44.80
   0   9  12  700.77   44.03
   0  -9 -13 2950.91   86.07
   0   9  13 2785.03   83.26
   0  -9 -13 2873.44   84.47
   0   9  13 2870.15   87.33
   0   9  13 2923.92   79.59
   0  -9 -14  935.94   48.37
   0   9  14 1015.50   57.43
   0  -9 -14  995.42   54.51
   0   9  14  982.69   49.90
   0   9  14  998.58   51.26
   0  -9 -15 2285.97   78.77
   0   9  15 2132.03   81.04
   0  -9 -15 2243.97   75.66
   0   9  15 2201.52   70.49
   0   9  15 2330.04   74.37
   0  -9 -16  138.92   35.51
   0  -9 -16  154.40   38.47
   0   9  16  142.68   32.94
   0   9  16  148.00   38.06
   0 -10  16  273.67   43.52
   0  10 -16  268.66   53.03
   0 -10  16  259.86   39.90
   0 -10  15   55.52   33.48
   0  10 -15   56.98   37.11
   0 -10  15   44.92   32.64
   0 -10  14  588.90   41.04
   0  10 -14  593.94   50.81
   0  10 -14  521.70   47.88
   0 -10  14  537.25   40.48
   0 -10  13  101.80   34.03
   0 -10  13   58.43   33.66
   0  10 -13   80.61   36.87
   0 -10  13   82.38   32.92
   0 -10  12   18.13   29.02
   0 -10  12   17.98   33.32
   0  10 -12   25.77   36.54
   0 -10  12  -46.92   32.46
   0  10 -11  417.48   38.00
   0 -10  11  381.48   45.49
   0 -10  11  364.21   33.34
   0  10 -11  362.74   41.00
   0 -10  11  407.79   39.65
   0  10 -10   14.79   32.38
   0 -10  10    3.08   33.06
   0 -10  10    9.10   30.41
   0  10 -10   14.65   30.16
   0 -10  10   68.95   32.52
   0  10  -9 1184.86   53.96
   0 -10   9 1280.66   57.34
   0 -10   9 1437.81   58.53
   0  10  -9 1307.22   59.30
   0 -10   9 1370.66   56.85
   0  10  -8  281.21   35.78
   0 -10   8  320.87   35.64
   0 -10   8  282.68   38.81
   0  10  -8  239.15   36.81
   0 -10   8  302.06   36.21
   0  10  -710293.38  176.71
   0 -10   710230.69  170.63
   0  10  -710661.24  175.26
   0  10  -6 3259.15   84.53
   0 -10   6 3282.00   82.45
   0  10  -6 3248.66   88.03
   0  10  -5 7542.58  158.13
   0 -10   5 7830.63  152.22
   0  10  -5 7888.89  160.91
   0 -10   5 7156.75  144.44
   0  10  -4   63.96   27.12
   0 -10   4   82.50   27.63
   0  10  -4   48.64   40.66
   0  10  -4   60.72   24.92
   0 -10   4   60.20   25.34
   0  10  -4   78.29   29.27
   0  10  -312493.17  221.79
   0 -10   312297.86  211.98
   0  10  -312777.64  240.61
   0  10  -312964.63  220.96
   0 -10   312814.23  214.64
   0  10  -312874.82  218.11
   0  10  -2 1682.93   61.03
   0 -10   2 1766.28   61.54
   0  10  -2 1831.64   74.86
   0  10  -2 1795.46   62.48
   0 -10   2 1631.56   56.21
   0  10  -2 1784.73   59.10
   0  10  -1  170.59   28.85
   0 -10   1  158.96   29.84
   0  10  -1  150.10   35.50
   0  10  -1  173.38   26.99
   0 -10   1  166.30   21.82
   0  10  -1  154.54   28.50
   0 -10   0 1402.91   52.44
   0  10   0 1334.24   80.32
   0  10   0 1368.88   52.75
   0 -10   0 1442.63   51.94
   0  10   0 1370.92   53.96
   0 -10  -1 7332.02  156.45
   0  10   1 7325.42  168.96
   0  10   1 7278.42  160.89
   0 -10  -1 7036.59  161.76
   0  10   1 7414.16  161.33
   0 -10  -2 2082.76   65.40
   0  10   2 2079.70   70.82
   0  10   2 2159.24   67.56
   0 -10  -2 2061.57   72.10
   0  10   2 2108.86   63.68
   0 -10  -3 1621.61   56.09
   0  10   3 1633.46   63.64
   0  10   3 1514.72   57.57
   0 -10  -3 1528.41   68.51
   0  10   3 1576.89   58.98
   0 -10  -4 1172.69   52.18
   0  10   4 1193.93   53.49
   0  10   4 1236.70   60.09
   0 -10  -4 1060.17   53.55
   0  10   4 1229.38   52.99
   0 -10  -5   -1.11   19.52
   0  10   5    4.61   24.38
   0 -10  -5  -15.10   19.89
   0  10   5   -1.25   23.87
   0 -10  -6 6600.43  124.86
   0  10   6 6696.55  130.48
   0  10   6 6861.22  136.72
   0  10   7   19.21   31.85
   0 -10  -7   11.46   27.11
   0  10   7   25.22   19.48
   0  10   7   -0.45   27.71
   0  10   8  142.26   36.64
   0 -10  -8  109.77   32.21
   0  10   8  114.69   33.59
   0  10   9    7.38   23.86
   0 -10  -9   11.14   24.99
   0  10   9    7.91   27.67
   0 -10 -10  657.44   41.44
   0  10  10  703.94   49.93
   0 -10 -10  594.11   37.76
   0  10  10  695.53   41.52
   0 -10 -11 2515.57   73.55
   0  10  11 2760.56   86.33
   0 -10 -11 2598.94   77.29
   0  10  11 2464.38   76.80
   0 -10 -12 2268.99   68.76
   0  10  12 2330.92   79.27
   0 -10 -12 2175.51   73.13
   0  10  12 2200.68   69.58
   0  10  12 2268.26   72.50
   0 -10 -13  821.35   50.37
   0  10  13  778.63   48.80
   0 -10 -13  761.01   45.36
   0  10  13  814.74   46.69
   0  10  13  851.01   47.81
   0 -10 -14  353.39   38.76
   0  10  14  345.08   45.28
   0  10  14  381.48   36.86
   0  10  14  341.11   40.93
   0 -10 -15  116.81   31.70
   0  10  15   94.87   48.41
   0  10  15   94.63   29.25
   0  10  15  136.40   34.10
   0 -11  15   18.29   37.39
   0  11 -15   60.38   43.98
   0 -11  15   27.16   35.02
   0 -11  14 3047.37   90.07
   0  11 -14 2988.49   91.30
   0 -11  14 2957.52   81.52
   0 -11  13 1057.75   52.77
   0  11 -13 1108.01   56.01
   0 -11  13 1052.62   54.74
   0  11 -13  994.96   60.94
   0 -11  13 1108.74   54.24
   0 -11  12  145.82   32.72
   0 -11  12  148.43   45.14
   0  11 -12  139.07   40.53
   0 -11  12  159.47   34.56
   0  11 -11  907.88   51.27
   0 -11  11  948.48   49.66
   0  11 -11  857.53   54.85
   0 -11  11  933.27   51.58
   0  11 -10  840.47   46.63
   0 -11  10  738.41   49.68
   0 -11  10  817.43   50.68
   0  11 -10  822.35   52.42
   0 -11  10  837.47   47.71
   0  11  -9    8.13   30.85
   0 -11   9   -6.68   29.03
   0 -11   9   27.73   31.40
   0  11  -9   -7.18   30.32
   0 -11   9   -4.21   29.61
   0  11  -8 4123.77   94.69
   0 -11   8 4126.42   92.40
   0 -11   8 4454.61   94.27
   0  11  -8 4034.34   97.61
   0 -11   8 4047.49   91.59
   0  11  -7 4983.03  102.81
   0 -11   7 4867.74  100.30
   0  11  -7 5097.86  113.98
   0  11  -6 7967.55  147.56
   0 -11   6 7847.23  129.64
   0  11  -6 7925.11  135.88
   0  11  -5    9.35   27.06
   0 -11   5   -5.80   26.65
   0  11  -5   35.82   31.71
   0 -11   5   22.48   26.98
   0  11  -5   34.34   28.23
   0  11  -4 2431.85   76.85
   0 -11   4 2558.40   73.74
   0  11  -4 2587.35   89.86
   0  11  -4 2473.92   70.50
   0 -11   4 2539.34   68.41
   0  11  -4 2476.51   73.93
   0  11  -3  606.01   42.14
   0 -11   3  668.72   38.37
   0  11  -3  648.41   55.34
   0  11  -3  648.84   39.37
   0 -11   3  659.39   40.62
   0  11  -3  662.74   42.73
   0 -11   2   94.42   28.90
   0  11  -2   92.98   36.40
   0  11  -2   80.01   28.96
   0 -11   2   97.94   27.28
   0  11  -2   75.49   26.99
   0 -11   1 2243.10   73.74
   0  11  -1 2369.75   78.99
   0  11  -1 2117.71   67.39
   0 -11   1 2222.12   62.53
   0  11  -1 2155.68   64.44
   0 -11   0 2549.22   70.55
   0  11   0 2670.53   83.54
   0  11   0 2594.79   75.07
   0 -11   0 2533.10   66.22
   0  11   0 2652.81   70.23
   0 -11  -1 6521.55  125.54
   0  11   1 6283.42  128.19
   0  11   1 6512.44  127.09
   0 -11  -1 6196.86  107.71
   0  11   1 6603.20  130.57
   0 -11  -215271.17  210.37
   0  11   215499.08  246.83
   0  11   215224.55  213.53
   0 -11  -214975.54  206.56
   0  11   215301.46  215.80
   0 -11  -3  560.74   38.77
   0  11   3  669.55   47.85
   0  11   3  504.57   38.82
   0 -11  -3  580.60   35.32
   0  11   3  517.24   37.63
   0 -11  -4 1700.96   62.37
   0  11   4 1598.34   68.74
   0  11   4 1633.72   69.80
   0 -11  -4 1487.49   80.07
   0  11   4 1710.46   58.44
   0 -11  -5   74.39   26.45
   0  11   5  117.58   34.12
   0  11   5   61.16   32.08
   0 -11  -5   99.18   26.50
   0  11   5   93.46   31.23
   0 -11  -6 1635.73   55.24
   0  11   6 1579.91   60.25
   0 -11  -6 1406.26   91.84
   0  11   6 1603.77   61.17
   0 -11  -7   88.95   28.54
   0  11   7   49.18   27.93
   0 -11  -7   39.96   28.05
   0  11   7   85.39   29.81
   0  11   8  453.78   47.06
   0  11   8  382.51   39.01
   0  11   8  383.73   32.87
   0  11   9 6820.57  170.24
   0  11   9 6868.55  159.99
   0  11  10  432.86   46.25
   0  11  10  393.72   34.94
   0 -11 -11 2191.59   81.27
   0  11  11 2175.53   73.80
   0  11  11 2155.61   72.67
   0 -11 -12 1414.44   58.23
   0  11  12 1453.60   67.50
   0  11  12 1533.63   59.17
   0 -11 -13   71.52   34.02
   0  11  13   55.45   34.76
   0  11  13   64.92   22.78
   0  11  13   60.93   31.48
   0 -11 -14   -8.94   27.08
   0  11  14  -15.95   44.47
   0  11  14   -2.22   25.77
   0  11  14   -0.42   27.29
   0  12 -14  951.67   62.66
   0 -12  14  892.09   52.31
   0  12 -13  408.39   50.36
   0 -12  13  354.89   47.38
   0 -12  13  377.76   44.59
   0 -12  12   20.22   37.23
   0  12 -12   41.74   39.53
   0 -12  12   26.42   33.66
   0 -12  12   53.81   34.04
   0 -12  11   60.51   35.82
   0 -12  11   84.17   32.84
   0  12 -11   56.21   42.07
   0 -12  11   54.45   32.10
   0  12 -10   56.70   35.77
   0 -12  10   17.04   34.27
   0  12 -10   22.34   34.31
   0 -12  10   58.02   32.28
   0  12  -9  436.80   43.94
   0 -12   9  500.51   49.09
   0 -12   9  450.89   42.71
   0  12  -9  502.73   45.35
   0 -12   9  526.08   44.79
   0  12  -8  200.87   43.86
   0 -12   8  213.79   33.82
   0 -12   8  219.27   39.03
   0  12  -8  205.86   37.85
   0  12  -7 1719.51   64.89
   0 -12   7 1696.48   60.92
   0 -12   7 1873.82   65.38
   0  12  -7 1763.42   64.39
   0  12  -6  326.11   38.72
   0 -12   6  280.99   36.16
   0  12  -6  338.36   38.94
   0 -12   6  314.37   37.31
   0  12  -6  300.16   30.45
   0 -12   5   -1.18   26.16
   0  12  -5   -9.77   29.43
   0 -12   5  -13.19   30.18
   0  12  -5  -17.32   29.43
   0 -12   4  199.90   30.67
   0  12  -4  161.88   47.38
   0  12  -4  159.43   33.40
   0 -12   4  171.82   30.73
   0  12  -4  128.28   30.96
   0 -12   3  178.68   25.20
   0  12  -3  173.13   45.06
   0  12  -3  190.74   34.46
   0 -12   3  156.58   30.82
   0  12  -3  206.21   27.03
   0 -12   2   54.87   30.73
   0  12  -2   61.08   38.58
   0  12  -2   17.92   30.76
   0 -12   2   16.60   28.55
   0  12  -2   83.40   25.01
   0 -12   1   87.58   24.57
   0  12  -1  103.54   42.50
   0  12  -1   68.39   31.97
   0 -12   1   69.28   28.07
   0  12  -1   37.08   25.82
   0 -12   0 1725.78   56.92
   0  12   0 1693.91   71.20
   0  12   0 1753.96   62.40
   0 -12   0 1672.31   59.27
   0  12   0 1747.94   62.79
   0 -12  -1  523.23   38.69
   0  12   1  489.84   51.16
   0  12   1  457.20   41.70
   0 -12  -1  431.36   37.59
   0  12   1  503.75   40.61
   0 -12  -2   39.05   26.55
   0  12   2  103.87   38.31
   0  12   2   28.41   31.08
   0 -12  -2   20.37   27.87
   0  12   2   44.06   27.12
   0 -12  -3 1334.13   54.49
   0  12   3 1144.19   59.77
   0  12   3 1311.01   55.82
   0 -12  -3 1256.47   52.09
   0  12   3 1344.37   56.40
   0 -12  -4 2650.19   70.68
   0  12   4 2680.09   84.69
   0  12   4 2638.33   76.26
   0 -12  -4 2423.51   70.90
   0  12   4 2735.88   74.55
   0 -12  -5 1218.25   50.18
   0  12   5 1200.08   64.09
   0  12   5 1206.48   56.57
   0 -12  -5 1081.53   54.42
   0  12   5 1208.32   55.76
   0 -12  -6  805.45   43.85
   0  12   6  746.53   42.34
   0 -12  -6  674.49   42.85
   0  12   6  751.62   42.40
   0 -12  -7  221.96   27.36
   0  12   7  186.48   35.80
   0 -12  -7  178.05   40.64
   0  12   7  176.62   35.25
   0 -12  -8  411.76   35.13
   0  12   8  344.35   42.56
   0  12   8  419.93   39.96
   0  12   8  459.87   40.97
   0  12   9 2754.22   96.05
   0  12   9 2528.60   86.28
   0  12   9 2594.30   76.04
   0  12  10  172.30   42.57
   0  12  10  111.69   30.34
   0  12  11  303.29   46.86
   0  12  11  309.47   35.37
   0 -12 -12 2263.32   75.74
   0  12  12 2372.27   88.66
   0  12  12 2397.12   77.80
   0 -12 -13   96.96   31.79
   0  12  13  147.32   44.21
   0  12  13  131.65   36.94
   0  13 -12  782.39   60.98
   0 -13  12  672.40   54.37
   0 -13  12  793.86   49.25
   0  13 -11   55.06   39.12
   0 -13  11   35.50   32.24
   0 -13  11   13.20   30.81
   0 -13  10    0.23   33.15
   0  13 -10    7.66   39.65
   0 -13  10  -12.32   34.48
   0 -13   9 4414.63  100.77
   0  13  -9 4270.07  114.80
   0 -13   9 4316.35   89.20
   0 -13   8   97.79   43.61
   0 -13   8  124.31   38.48
   0  13  -8  114.53   37.60
   0 -13   7 1761.25   67.88
   0  13  -7 1675.63   67.98
   0 -13   6   -6.77   40.25
   0  13  -6    9.82   34.33
   0 -13   6   24.82   32.18
   0  13  -6    3.68   31.15
   0 -13   5  537.75   41.32
   0 -13   5  542.98   44.72
   0  13  -5  549.31   44.73
   0 -13   5  512.27   40.53
   0  13  -5  542.10   42.21
   0 -13   4  -27.63   26.74
   0 -13   4   39.66   25.54
   0  13  -4  -15.15   32.80
   0 -13   4   23.55   28.86
   0  13  -4   12.05   21.40
   0 -13   3  546.84   39.59
   0  13  -3  537.26   55.33
   0  13  -3  609.32   43.80
   0 -13   3  449.96   38.87
   0  13  -3  495.49   35.89
   0 -13   2 1619.70   61.20
   0  13  -2 1460.03   72.14
   0  13  -2 1543.52   57.93
   0 -13   2 1490.99   55.56
   0  13  -2 1619.85   67.80
   0 -13   1 7277.41  144.08
   0  13  -1 7534.39  168.62
   0  13  -1 7335.97  147.80
   0 -13   1 7378.39  149.49
   0  13  -1 7701.91  152.17
   0 -13   0  110.86   29.27
   0  13   0  104.48   41.77
   0  13   0   98.21   34.75
   0 -13   0  128.15   24.83
   0  13   0  140.22   33.53
   0 -13  -1 2883.89   74.25
   0  13   1 3017.03   94.46
   0  13   1 3200.49   80.13
   0 -13  -1 2744.60   69.98
   0  13   1 3221.50   83.13
   0 -13  -2  390.60   38.27
   0  13   2  347.12   46.01
   0  13   2  399.29   34.23
   0 -13  -2  348.74   33.58
   0  13   2  351.39   37.84
   0 -13  -3  481.86   39.81
   0  13   3  516.90   50.90
   0  13   3  551.14   43.88
   0 -13  -3  535.65   38.52
   0  13   3  545.66   39.86
   0 -13  -4   19.83   21.07
   0  13   4   49.81   36.26
   0  13   4   43.46   27.15
   0 -13  -4   16.33   27.37
   0  13   4   -3.95   26.56
   0 -13  -5  257.40   35.52
   0  13   5  287.24   42.92
   0  13   5  227.15   29.70
   0 -13  -5  240.87   37.24
   0  13   5  247.66   36.20
   0 -13  -6 2216.29   74.60
   0  13   6 2209.64   82.04
   0  13   6 2306.06   73.17
   0 -13  -6 2013.64  110.43
   0  13   6 2196.57   69.66
   0 -13  -7  107.26   31.74
   0  13   7  110.52   33.81
   0  13   7  142.58   37.59
   0 -13  -8  538.65   39.79
   0  13   8  527.38   41.01
   0  13   8  585.28   40.36
   0 -13  -9 2934.23   85.96
   0  13   9 3081.56  100.71
   0  13   9 2868.35   87.17
   0  13   9 2928.35   83.21
   0  13  10  191.84   42.06
   0  13  10  159.03   26.96
   0  13  10  152.68   33.16
   0  13  11  412.80   46.35
   0  13  11  439.16   43.39
   0 -14  10 1047.95   52.53
   0 -14  10 1100.76   56.21
   0 -14   9 4899.71  108.35
   0 -14   8 2431.52   75.95
   0  14  -8 2483.64   88.66
   0  14  -7   24.96   37.78
   0 -14   7   11.55   23.00
   0 -14   6  959.53   56.06
   0 -14   6 1011.62   54.51
   0  14  -6 1024.04   55.86
   0 -14   6 1060.57   53.22
   0 -14   5  639.17   47.39
   0 -14   5  684.82   49.34
   0  14  -5  667.15   47.08
   0 -14   5  635.31   43.06
   0  14  -5  721.46   47.37
   0 -14   4 2159.32   73.45
   0 -14   4 2135.23   67.89
   0  14  -4 2157.13   73.14
   0 -14   4 2153.88   68.86
   0  14  -4 2274.93   82.28
   0 -14   3   13.60   26.01
   0 -14   3   28.20   33.02
   0  14  -3  -25.29   30.86
   0 -14   3   11.21   29.96
   0  14  -3   12.20   28.55
   0 -14   2  586.60   41.76
   0 -14   2  613.13   46.25
   0  14  -2  621.78   61.94
   0  14  -2  577.21   45.43
   0 -14   2  530.48   39.74
   0  14  -2  591.04   44.70
   0 -14   1 5021.77  102.41
   0 -14   1 5049.50  107.38
   0  14  -1 4959.86  124.24
   0  14  -1 4860.75  113.99
   0 -14   1 4979.10   99.90
   0  14  -1 5141.21  104.13
   0 -14   0 1772.51   63.25
   0 -14   0 1734.34   68.03
   0  14   0 1783.17   81.99
   0  14   0 1894.72   68.29
   0 -14   0 1921.04   61.24
   0  14   0 1845.96   62.83
   0 -14  -1   61.62   56.77
   0 -14  -1  105.69   38.64
   0  14   1   80.64   47.16
   0 -14  -1   75.60   27.94
   0 -14  -2 8564.69  139.71
   0  14   2 8377.28  150.97
   0  14   2 8612.28  142.88
   0 -14  -2 8294.59  160.95
   0  14   2 8638.08  141.90
   0 -14  -3  745.32   43.84
   0  14   3  730.79   55.91
   0  14   3  739.52   47.80
   0 -14  -3  761.22   44.65
   0  14   3  737.71   51.53
   0 -14  -4   64.89   28.27
   0  14   4   53.23   39.51
   0  14   4   41.98   27.60
   0 -14  -4   68.68   30.82
   0  14   4   39.43   31.40
   0 -14  -5  443.40   41.14
   0  14   5  498.99   54.12
   0  14   5  505.38   38.67
   0 -14  -5  445.32   56.12
   0  14   5  458.53   35.78
   0 -14  -6  464.80   38.81
   0  14   6  409.37   49.80
   0  14   6  476.32   42.52
   0  14   6  458.80   39.76
   0 -14  -7  668.73   44.66
   0  14   7  625.68   56.18
   0  14   7  680.67   41.91
   0  14   7  675.79   45.64
   0 -14  -8  -11.77   26.79
   0  14   8    8.85   30.39
   0  14   8    9.01   28.37
   0 -14  -9 1565.45   80.72
   0  14   9 1559.17   78.11
   0  14   9 1633.74   68.49
   0  14   9 1594.13   71.75
   0 -15   7  182.25   33.42
   0 -15   6  392.10   42.50
   0  15  -6  431.19   56.75
   0 -15   6  430.31   39.13
   0 -15   5  -22.92   33.07
   0  15  -5    3.99   40.11
   0 -15   5   18.01   34.01
   0 -15   4 6178.19  122.12
   0 -15   4 6089.68  139.04
   0  15  -4 6270.41  130.72
   0 -15   4 6174.34  117.84
   0 -15   3  804.77   53.05
   0 -15   3  838.47   50.23
   0  15  -3  908.02   54.77
   0 -15   3  888.54   47.81
   0  15  -3  916.52   56.47
   0 -15   2   65.18   32.97
   0 -15   2  120.99   36.82
   0  15  -2   54.37   33.82
   0 -15   2   80.19   31.81
   0  15  -2  100.10   58.59
   0 -15   1 6738.56  125.04
   0 -15   1 6435.58  136.42
   0  15  -1 7153.74  157.01
   0  15  -1 7158.38  144.89
   0 -15   1 6756.97  121.69
   0  15  -1 7137.96  155.82
   0 -15   0 1495.39   64.28
   0 -15   0 1450.36   73.59
   0  15   0 1612.26   84.06
   0  15   0 1530.57   64.89
   0 -15   0 1471.34   59.04
   0  15   0 1600.92   63.09
   0 -15  -1  186.86   36.09
   0  15   1  208.91   52.99
   0  15   1  206.05   33.40
   0 -15  -1  164.11   35.25
   0  15   1  166.43   31.99
   0 -15  -2    8.00   31.84
   0  15   2   35.70   47.55
   0  15   2  -14.55   32.54
   0 -15  -2  -11.50   31.96
   0  15   2  -22.74   30.26
   0 -15  -3   -7.54   31.47
   0  15   3   -0.85   43.21
   0  15   3  -13.50   34.90
   0 -15  -3   12.16   35.36
   0  15   3   10.57   30.78
   0 -15  -4  273.32   37.05
   0  15   4  273.41   47.23
   0  15   4  280.69   43.78
   0  15   4  294.10   34.28
   0 -15  -5    5.49   34.66
   0  15   5    8.77   39.62
   0  15   5  -19.75   27.95
   0  15   5    4.52   33.28
   0 -15  -6  289.62   40.03
   0  15   6  302.32   54.87
   0  15   6  296.34   40.33
   0  15   6  276.06   39.57
   0 -16   1 2890.75  100.60
   0 -16   1 3129.78  103.12
   0  16  -1 3033.10  144.25
   0 -16   0  691.11   54.65
   0  16   0  650.34   70.91
  -1  15   4 1731.68   88.83
   1 -15  -3  -13.72   33.83
  -1  15   3   31.11   50.15
  -1  15   3    0.18   32.46
   1 -15  -2 2885.03   84.49
  -1  15   2 2945.75  119.54
  -1  15   2 2953.66  253.57
  -1  15   2 2987.42  138.90
   1 -15  -1 2555.60  195.25
  -1  15   1 2646.34   97.39
  -1  15   1 2587.17  100.16
   1 -15   0  -12.97   32.16
  -1  15   0    4.89   39.41
   1 -15   1  188.55   37.31
   1 -15   1  141.71   40.22
  -1  15  -1  156.45   38.20
   1 -15   2   71.11   32.73
   1 -15   2   74.55   42.08
   1 -15   2   68.72   36.34
  -1  15  -2   57.84   31.22
   1 -15   3   67.06   35.35
   1 -15   3   46.71   37.67
   1 -15   3   69.41   37.13
   1 -15   4  528.96   47.12
   1 -15   4  499.48   46.23
   1 -15   4  498.53   42.89
   1 -15   5 2599.40   95.80
   1 -15   5 2594.48   87.69
   1 -15   5 2589.90   77.98
   1 -15   6 2745.26   85.32
  -1  14   7  315.56   53.72
  -1  14   7  390.64   44.16
  -1  14   7  344.13   42.86
   1 -14  -6  220.57   34.60
  -1  14   6  242.42   42.78
  -1  14   6  250.18   39.17
  -1  14   6  214.28   39.36
   1 -14  -5  208.24   35.99
  -1  14   5  190.11   48.08
  -1  14   5  183.55   37.27
  -1  14   5  192.96   38.23
   1 -14  -4 4238.70  112.30
  -1  14   4 4058.83  113.31
  -1  14   4 4174.67  100.39
  -1  14   4 4234.60  116.42
   1 -14  -3  323.89   54.01
  -1  14   3  317.90   45.95
  -1  14   3  315.65   71.30
  -1  14   3  320.92   42.94
   1 -14  -2   -5.33   49.84
  -1  14   2   -1.24   39.79
  -1  14   2   -0.61   40.66
  -1  14   2    2.82   27.34
   1 -14  -1  562.08   43.97
  -1  14   1  511.29   59.15
  -1  14   1  529.83   45.28
   1 -14  -1  519.95   47.04
  -1  14   1  577.73  119.77
   1 -14   0  932.91   48.49
   1 -14   0  895.87   51.64
  -1  14   0  900.03   66.86
  -1  14   0  861.17   51.41
   1 -14   0  869.26   47.24
  -1  14   0  876.02   56.01
   1 -14   1 1759.27   61.36
   1 -14   1 1526.39   64.28
  -1  14  -1 1682.43   66.20
   1 -14   1 1577.95   67.72
  -1  14  -1 1618.95   69.95
   1 -14   2   -2.99   28.79
   1 -14   2   -6.02   34.30
  -1  14  -2  -15.75   37.45
   1 -14   2   13.11   32.29
  -1  14  -2    0.52   39.56
   1 -14   3  261.98   39.65
   1 -14   3  322.33   39.80
  -1  14  -3  297.66   44.11
   1 -14   3  283.07   35.93
  -1  14  -3  285.45   44.89
   1 -14   4 1959.68   70.07
   1 -14   4 1955.54   67.01
  -1  14  -4 2068.23   77.26
   1 -14   4 2034.47   67.41
  -1  14  -4 1987.57   83.86
   1 -14   5  924.43   50.72
   1 -14   5  964.35   52.23
   1 -14   5 1029.35   49.82
   1 -14   6   61.25   40.09
   1 -14   6   69.68   32.24
   1 -14   6   33.32   29.89
   1 -14   7  908.41   55.82
   1 -14   7  970.71   52.65
   1 -14   7  979.23   51.53
   1 -14   8   31.09   41.24
   1 -14   8   36.66   31.12
   1 -14   9  179.13   36.46
   1 -13 -10   30.27   35.63
  -1  13  10   30.44   42.64
  -1  13  10   41.51   30.71
  -1  13  10   21.21   36.23
   1 -13  -9  443.78   39.24
  -1  13   9  446.82   42.15
  -1  13   9  450.02   42.20
  -1  13   8  621.82   55.33
  -1  13   8  591.20   43.54
  -1  13   8  584.57   54.91
  -1  13   7 2326.71   86.70
  -1  13   7 2212.06   73.52
  -1  13   7 2244.75   71.27
  -1  13   6  744.15   53.14
  -1  13   6  718.13   50.78
  -1  13   6  778.28   47.02
   1 -13  -5  231.65   33.07
  -1  13   5  209.52   38.41
  -1  13   5  210.51   38.99
  -1  13   5  216.22   38.67
   1 -13  -4  218.20   34.05
  -1  13   4  199.04   35.04
  -1  13   4  246.80   36.34
  -1  13   4  247.61   32.10
   1 -13  -3   29.97   30.16
  -1  13   3   38.15   41.00
  -1  13   3   27.83   32.05
  -1  13   3   48.29   24.26
   1 -13  -2 1364.70   56.53
  -1  13   2 1463.74   69.24
  -1  13   2 1428.46   59.07
   1 -13  -2 1356.59   76.09
  -1  13   2 1429.49   58.23
   1 -13  -1 1517.59   56.74
   1 -13  -1 1412.57   62.18
  -1  13   1 1350.82   70.72
  -1  13   1 1406.24   60.05
   1 -13  -1 1435.39   58.25
  -1  13   1 1486.26   60.12
   1 -13   0  770.34   44.82
   1 -13   0  758.98   50.86
  -1  13   0  735.92   57.27
  -1  13   0  757.65   47.82
   1 -13   0  749.70   46.81
  -1  13   0  749.35   46.67
   1 -13   1   33.79   30.33
   1 -13   1   84.59   32.81
  -1  13  -1   38.02   42.64
  -1  13  -1   44.94   31.72
   1 -13   1   36.81   25.71
  -1  13  -1   73.05   32.79
   1 -13   2 1619.62   58.56
   1 -13   2 1498.57   61.83
  -1  13  -2 1495.35   75.90
  -1  13  -2 1578.93   63.88
   1 -13   2 1603.67   57.37
  -1  13  -2 1568.72   58.62
   1 -13   3   47.17   33.29
   1 -13   3   22.89   30.65
  -1  13  -3   62.12   32.76
   1 -13   3   23.91   33.58
  -1  13  -3   11.61   31.48
   1 -13   4 1828.03   63.05
   1 -13   4 1703.11   63.36
  -1  13  -4 1747.62   69.33
   1 -13   4 1788.54   61.15
  -1  13  -4 1730.46   59.30
   1 -13   5  174.11   33.85
   1 -13   5  233.35   39.21
  -1  13  -5  173.02   37.97
   1 -13   5  212.13   28.24
  -1  13  -5  180.14   33.18
   1 -13   6 3604.57   87.05
   1 -13   6 3614.15   85.61
  -1  13  -6 3586.70  117.97
   1 -13   6 3637.24   85.34
   1 -13   7 2771.03   78.93
   1 -13   7 2739.65   78.85
   1 -13   7 2828.97   78.22
   1 -13   8   13.28   32.60
   1 -13   8  -23.24   30.07
   1 -13   9  486.03   48.93
   1 -13   9  503.04   42.71
   1 -13   9  513.72   42.40
   1 -13  10  876.16   58.23
   1 -13  10  850.12   48.67
   1 -13  10  769.81   50.59
   1 -13  11   10.53   33.92
   1 -12 -11  127.21   32.85
  -1  12  11  139.98   39.15
  -1  12  11  139.61   32.48
  -1  12  11  129.05   38.91
   1 -12 -10  156.68   30.94
  -1  12  10  153.51   38.78
  -1  12  10  162.32   36.05
  -1  12  10  124.50   36.05
   1 -12  -9   56.57   30.85
  -1  12   9   38.38   29.96
  -1  12   9   44.55   29.62
   1 -12  -8  405.78   38.58
  -1  12   8  373.37   37.93
  -1  12   8  384.60   36.35
  -1  12   7   48.09   27.61
  -1  12   7   44.78   31.22
  -1  12   7   14.84   31.21
  -1  12   6 2070.81   83.34
  -1  12   6 1968.04   70.46
  -1  12   6 1988.82   70.87
  -1  12   5 1409.65   60.14
  -1  12   5 1453.32   59.13
  -1  12   5 1453.29   61.50
   1 -12  -4  776.10   44.63
  -1  12   4  756.86   53.25
   1 -12  -3 1730.14   61.72
  -1  12   3 1759.63   66.78
  -1  12   3 1732.87   63.61
   1 -12  -3 1697.81   82.83
  -1  12   3 1800.09   63.61
   1 -12  -2  506.28   35.56
  -1  12   2  496.96   46.50
  -1  12   2  520.27   41.13
   1 -12  -2  489.95   41.27
  -1  12   2  492.57   40.34
   1 -12  -1   66.37   26.58
   1 -12  -1   48.04   30.56
  -1  12   1  114.46   27.08
  -1  12   1   43.98   26.84
   1 -12  -1  104.04   29.49
  -1  12   1   94.06   25.56
   1 -12   0 1016.28   48.21
   1 -12   0  983.85   50.62
  -1  12   0  963.41   60.52
  -1  12   0 1070.85   52.71
   1 -12   0  999.69   48.91
  -1  12   0 1088.08   52.36
   1 -12   1  755.21   47.46
   1 -12   1  763.50   42.09
  -1  12  -1  852.07   57.60
  -1  12  -1  803.25   47.08
   1 -12   1  772.84   43.42
  -1  12  -1  778.60   47.79
   1 -12   2 1969.34   61.91
   1 -12   2 1936.15   67.37
  -1  12  -2 1919.87   79.41
  -1  12  -2 2047.39   68.97
   1 -12   2 1926.49   60.85
  -1  12  -2 2084.93   66.27
   1 -12   3   20.71   30.11
   1 -12   3   24.39   34.91
  -1  12  -3   66.89   35.67
   1 -12   3   53.21   27.78
  -1  12  -3   59.06   28.45
   1 -12   4 2783.93   77.03
   1 -12   4 2714.68   79.94
  -1  12  -4 2729.61   80.77
   1 -12   4 2723.48   72.14
  -1  12  -4 2804.17   85.98
   1 -12   5  -10.69   26.53
   1 -12   5  -24.72   34.91
  -1  12  -5   57.47   31.41
   1 -12   5   29.35   28.96
  -1  12  -5  -11.76   29.14
   1 -12   6   94.71   33.07
   1 -12   6   96.30   38.15
  -1  12  -6  106.09   38.85
   1 -12   6   80.07   30.11
  -1  12  -6  116.53   31.29
   1 -12   7 1134.58   55.21
   1 -12   7 1058.77   48.53
  -1  12  -7 1121.34   57.54
   1 -12   7 1173.98   54.99
   1 -12   8  812.90   49.33
   1 -12   8  792.35   49.99
   1 -12   9   53.23   37.23
   1 -12   9   85.29   26.69
   1 -12   9   29.09   33.65
   1 -12  10  303.57   44.83
   1 -12  10  374.05   42.50
   1 -12  11 3547.92   96.38
   1 -12  11 3609.97   91.38
   1 -12  12 3058.95   86.46
   1 -12  12 3183.72   81.62
  -1  12 -13  660.76   50.26
   1 -12  13  676.10   46.01
   1 -12  13  739.84   47.97
   1 -11 -13 1366.02   84.07
  -1  11  13 1312.09   69.74
  -1  11  13 1444.80   61.47
  -1  11  13 1454.36   70.45
   1 -11 -12   45.52   33.28
  -1  11  12   -2.04   41.08
  -1  11  12    7.06   25.99
  -1  11  12    3.79   31.73
   1 -11 -11   67.21   31.12
  -1  11  11   53.32   32.63
  -1  11  11   60.45   25.94
  -1  11  11   77.92   32.49
   1 -11 -10  834.06   50.75
  -1  11  10  959.50   56.39
  -1  11  10  818.78   48.86
  -1  11  10  792.67   52.72
   1 -11  -9   97.13   29.22
  -1  11   9   76.62   40.03
  -1  11   9   58.27   30.87
  -1  11   9   77.47   28.34
   1 -11  -8 1732.23   59.10
  -1  11   8 1988.12   66.94
  -1  11   8 1897.87   66.71
   1 -11  -7 4381.88   99.67
  -1  11   7 3803.62  101.16
  -1  11   7 4273.13   99.29
  -1  11   7 4208.27  108.66
  -1  11   6  559.33   42.52
  -1  11   6  564.76   36.88
  -1  11   6  623.31   43.65
  -1  11   5   11.13   35.32
  -1  11   5    6.81   28.60
  -1  11   5   29.02   27.82
  -1  11   4  248.18   34.59
  -1  11   4  272.53   29.91
   1 -11  -4  232.19   34.31
  -1  11   4  299.96   36.97
   1 -11  -3   58.58   25.25
  -1  11   3   -2.30   33.88
  -1  11   3   35.60   28.82
   1 -11  -3   76.64   30.19
  -1  11   3   67.17   20.35
   1 -11  -2 2152.63   67.96
  -1  11   2 2123.81   73.54
  -1  11   2 2180.51   69.45
   1 -11  -2 2053.00   84.09
  -1  11   2 2225.61   66.82
   1 -11  -1 2508.36   69.62
  -1  11   1 2603.25   78.29
  -1  11   1 2614.92   75.04
   1 -11  -1 2562.75   76.27
  -1  11   1 2574.74   75.04
   1 -11   0 8020.26  145.57
  -1  11   0 7753.99  157.68
  -1  11   0 7642.03  143.80
   1 -11   0 7539.55  132.79
  -1  11   0 7954.45  143.81
   1 -11   1   77.31   26.01
  -1  11  -1   43.35   33.44
  -1  11  -1   52.52   27.69
   1 -11   1   63.02   25.73
  -1  11  -1   52.82   21.84
   1 -11   2 1007.35   48.49
  -1  11  -2  970.96   57.08
  -1  11  -2  987.95   46.92
   1 -11   2  992.38   44.15
  -1  11  -2  944.53   45.62
   1 -11   3 2288.89   71.07
  -1  11  -3 2255.78   83.37
  -1  11  -3 2291.46   72.15
   1 -11   3 2299.92   63.94
  -1  11  -3 2288.65   65.82
   1 -11   4 8836.26  137.32
  -1  11  -4 9157.20  147.50
   1 -11   4 8984.12  128.46
  -1  11  -4 9140.52  150.12
   1 -11   5  564.14   43.77
   1 -11   5  534.32   46.94
  -1  11  -5  543.17   43.11
   1 -11   5  524.83   41.03
  -1  11  -5  550.00   42.03
   1 -11   6 4043.68   89.94
   1 -11   6 4124.12   88.94
  -1  11  -6 4097.87   94.46
   1 -11   6 4150.40   86.91
  -1  11  -6 4212.08   91.66
   1 -11   7 1260.47   57.46
  -1  11  -7 1190.12   57.40
   1 -11   7 1263.75   56.49
  -1  11  -7 1116.14   54.99
   1 -11   8 1423.28   59.04
   1 -11   8 1319.50   64.80
  -1  11  -8 1418.46   66.60
   1 -11   8 1517.68   59.49
   1 -11   9  710.73   49.29
   1 -11   9  713.76   48.24
   1 -11  10 1602.19   64.43
   1 -11  10 1569.08   65.54
   1 -11  11 4825.09  105.02
   1 -11  11 4995.31  107.74
   1 -11  12 3284.02   92.66
   1 -11  12 3238.42   85.73
   1 -11  12 3387.02   81.49
   1 -11  13  144.20   33.55
   1 -11  13  156.20   33.37
  -1  11 -14 1533.01   72.41
   1 -11  14 1524.17   65.40
   1 -11  14 1548.64   62.00
  -1  11 -15 2980.35  101.08
   1 -11  15 3039.04   84.85
   1 -10 -14 1434.26   85.08
  -1  10  14 1424.49   71.93
  -1  10  14 1477.53   64.07
   1 -10 -13 1433.00   65.15
  -1  10  13 1407.06   66.12
  -1  10  13 1463.18   62.96
   1 -10 -12  -12.87   28.05
  -1  10  12   -1.88   30.75
   1 -10 -12    1.14   29.79
  -1  10  12    5.44   30.66
  -1  10  12  -14.21   30.70
   1 -10 -11  144.05   32.63
  -1  10  11  213.16   40.25
   1 -10 -11  185.37   32.51
  -1  10  11  135.88   33.80
  -1  10  11  198.45   35.51
   1 -10 -10  227.62   33.03
  -1  10  10  327.71   35.83
   1 -10 -10  288.72   36.21
  -1  10  10  278.47   37.27
  -1  10  10  291.07   32.62
   1 -10  -9 5491.15  131.28
  -1  10   9 5611.09  131.33
   1 -10  -9 5392.09  127.65
  -1  10   9 5290.35  129.46
  -1  10   9 5380.00  123.86
   1 -10  -8   23.22   19.39
   1 -10  -8   11.65   20.24
  -1  10   8   -5.69   30.75
  -1  10   8   -1.99   27.82
   1 -10  -7 1695.73   58.58
   1 -10  -7 1781.49   59.08
  -1  10   7 1717.04   59.61
  -1  10   7 1677.61   60.17
   1 -10  -6  239.22   31.07
  -1  10   6  317.84   38.62
  -1  10   6  270.94   32.84
  -1  10   6  303.41   36.80
  -1  10   5 2096.73   72.13
  -1  10   5 2082.17   70.92
  -1  10   5 2153.73   67.58
  -1  10   4 7620.62  153.40
  -1  10   4 7676.54  138.94
   1 -10  -4 7141.36  160.76
  -1  10   4 7498.57  136.80
  -1  10   3 1967.58   68.90
  -1  10   3 2025.03   68.11
   1 -10  -3 1769.53   59.33
  -1  10   3 2007.68   68.51
   1 -10  -2  742.15   38.95
  -1  10   2  827.67   50.65
  -1  10   2  779.62   41.14
   1 -10  -2  737.56   39.53
  -1  10   2  752.27   44.83
   1 -10  -1 3691.11   88.88
   1 -10  -1 3375.78   86.51
  -1  10   1 3570.61   95.27
  -1  10   1 3639.32   84.98
   1 -10  -1 3657.46   84.12
  -1  10   1 3726.71   85.48
   1 -10   0  874.49   45.39
  -1  10   0  839.35   46.84
  -1  10   0  867.20   46.13
   1 -10   0  895.41   44.64
  -1  10   0  878.33   46.07
   1 -10   1 5606.84  109.88
  -1  10  -1 5573.30  123.05
  -1  10  -1 5591.69  107.03
   1 -10   1 5804.90  107.55
  -1  10  -1 5681.71  101.96
   1 -10   2 1311.53   52.55
  -1  10  -2 1343.24   62.79
  -1  10  -2 1380.88   58.28
   1 -10   2 1358.51   52.21
  -1  10  -2 1360.49   55.69
   1 -10   3 1852.80   61.63
  -1  10  -3 1938.64   77.17
  -1  10  -3 1874.09   62.96
   1 -10   3 1866.24   61.49
  -1  10  -3 1941.00   63.30
   1 -10   422014.63  277.56
  -1  10  -422149.63  295.11
   1 -10   422576.32  275.62
  -1  10  -423109.50  292.19
   1 -10   5 1646.53   59.43
  -1  10  -5 1729.28   63.03
   1 -10   5 1752.93   60.00
  -1  10  -5 1641.05   60.51
   1 -10   6   51.49   32.98
   1 -10   6   36.42   23.29
  -1  10  -6   63.45   29.47
   1 -10   6   73.97   29.53
  -1  10  -6   44.63   30.13
   1 -10   7 2195.18   66.40
  -1  10  -7 2092.02   70.67
   1 -10   7 2148.31   66.86
  -1  10  -7 2118.99   68.29
   1 -10   8 3014.24   84.75
   1 -10   8 3272.16   81.69
  -1  10  -8 3011.17   81.66
   1 -10   8 3092.55   78.15
   1 -10   9  554.16   38.07
   1 -10   9  579.00   46.99
  -1  10  -9  546.42   46.86
  -1  10 -10   17.41   34.04
   1 -10  10   28.25   31.48
   1 -10  10   -9.01   23.30
  -1  10 -10   -9.30   36.79
   1 -10  11 1739.15   66.41
   1 -10  11 1675.23   75.61
   1 -10  11 1825.06   63.55
   1 -10  11 1746.45   63.84
   1 -10  12 7167.20  128.04
   1 -10  12 7318.92  131.68
   1 -10  12 7448.47  121.39
   1 -10  12 7484.59  117.73
   1 -10  13  751.90   47.83
   1 -10  13  825.18   51.09
   1 -10  13  755.78   46.33
   1 -10  13  861.38   44.68
   1 -10  14 1325.40   62.49
   1 -10  14 1280.39   59.91
   1 -10  14 1419.13   60.62
  -1  10 -15  749.71   59.75
   1 -10  15  693.35   47.49
  -1  10 -16  772.77   53.45
   1 -10  16  817.16   50.19
   1  -9 -15  165.56   34.21
  -1   9  15  174.51   45.47
   1  -9 -15  153.68   32.16
  -1   9  15  164.76   37.91
   1  -9 -14  784.78   47.95
  -1   9  14  728.65   48.56
   1  -9 -14  775.40   49.20
  -1   9  14  783.71   49.97
   1  -9 -13   -9.07   22.73
  -1   9  13   28.13   34.58
   1  -9 -13  -16.65   33.59
  -1   9  13   -0.91   29.81
   1  -9 -12   15.75   31.21
  -1   9  12   15.20   34.39
   1  -9 -12   45.00   29.16
  -1   9  12   52.19   30.73
  -1   9  12   54.51   27.59
   1  -9 -11  588.30   41.96
  -1   9  11  503.62   44.20
   1  -9 -11  503.98   41.16
  -1   9  11  575.41   41.55
  -1   9  11  554.27   39.52
   1  -9 -10   24.80   29.43
  -1   9  10  -14.13   24.58
   1  -9 -10   17.00   27.46
  -1   9  10   21.90   29.21
  -1   9  10   11.34   24.89
   1  -9  -9  215.55   33.79
  -1   9   9  245.65   31.98
   1  -9  -9  218.26   38.10
  -1   9   9  221.38   35.38
  -1   9   9  235.40   33.29
   1  -9  -8   84.06   27.15
  -1   9   8   72.66   33.45
   1  -9  -8   65.08   27.09
  -1   9   8   81.45   32.50
  -1   9   8   61.18   21.47
   1  -9  -7 5526.51  101.59
   1  -9  -7 5547.76  105.11
  -1   9   7 5458.67  107.22
  -1   9   7 5626.70  109.36
   1  -9  -6 6732.06  125.18
   1  -9  -6 6766.13  127.41
  -1   9   6 6622.13  130.10
  -1   9   6 6878.17  128.63
   1  -9  -5  824.30   40.60
  -1   9   5  878.55   49.22
   1  -9  -5  906.81   47.50
  -1   9   5  886.06   42.34
  -1   9   5  883.64   45.35
  -1   9   4  144.40   31.69
   1  -9  -4  125.97   23.43
  -1   9   4  109.99   28.60
   1  -9  -4  111.06   25.75
  -1   9   4  151.45   25.68
   1  -9  -3   81.25   31.46
  -1   9   3  118.07   28.48
  -1   9   3  106.81   26.21
   1  -9  -3   86.62   19.01
  -1   9   3   80.91   21.14
   1  -9  -2  204.65   26.83
   1  -9  -2  196.05   29.57
  -1   9   2  224.53   34.59
  -1   9   2  218.81   29.60
   1  -9  -2  241.54   28.92
  -1   9   2  227.21   29.16
   1  -9  -1 1177.74   50.78
   1  -9  -1 1284.87   51.21
   1  -9  -1 1230.72   52.77
  -1   9   1 1339.25   57.52
  -1   9   1 1229.12   52.10
   1  -9  -1 1201.85   52.95
  -1   9   1 1285.21   52.89
  -1   9   0  133.67   28.19
   1  -9   0  111.60   28.28
   1  -9   0  112.86   26.29
   1  -9   0  107.16   26.22
  -1   9   0  131.60   31.91
  -1   9   0  127.21   27.53
   1  -9   0  130.30   25.76
  -1   9   0  124.93   27.52
  -1   9  -1 8352.94  141.80
   1  -9   1 8169.78  140.76
   1  -9   1 8925.94  140.01
   1  -9   1 8305.21  132.02
  -1   9  -1 8999.05  147.97
  -1   9  -1 8685.86  134.74
   1  -9   1 8821.67  130.65
  -1   9  -1 8815.73  137.22
  -1   9  -2 4415.58  107.89
   1  -9   2 4827.49   96.33
  -1   9  -2 4705.64  112.74
  -1   9  -2 4682.34   97.74
   1  -9   2 4586.74   90.66
  -1   9  -2 4569.20   91.76
  -1   9  -3 1243.00   61.08
   1  -9   3 1338.50   50.32
  -1   9  -3 1271.58   63.19
  -1   9  -3 1300.28   56.29
   1  -9   3 1319.88   52.21
  -1   9  -4 1128.14   57.30
   1  -9   4 1061.33   45.65
  -1   9  -4 1161.08   53.43
   1  -9   4 1104.11   49.25
  -1   9  -4 1150.29   48.07
   1  -9   519256.15  337.44
  -1   9  -518960.11  335.13
   1  -9   519076.09  332.21
  -1   9  -519347.43  331.51
   1  -9   6   15.91   23.89
  -1   9  -6    9.30   19.54
   1  -9   6   17.45   24.88
  -1   9  -6   17.45   19.17
   1  -9   7   -3.42   25.98
   1  -9   7   24.39   31.87
  -1   9  -7   -7.99   23.73
   1  -9   7   37.11   28.51
  -1   9  -7   30.29   20.40
  -1   9  -8   98.31   29.79
   1  -9   8   92.65   22.40
   1  -9   8  131.17   32.96
  -1   9  -8   93.56   33.76
  -1   9  -8  107.01   24.24
  -1   9  -9 2037.79   73.26
   1  -9   9 2223.42   69.92
   1  -9   9 2082.11   66.97
  -1   9  -9 2095.86   72.03
  -1   9 -10   59.73   31.95
   1  -9  10   32.65   30.40
   1  -9  10   72.01   30.90
  -1   9 -10   55.23   29.72
   1  -9  10   53.40   31.49
   1  -9  11   16.51   27.65
   1  -9  11   48.37   36.32
   1  -9  11   19.09   31.76
   1  -9  11   71.60   30.94
   1  -9  12   95.18   29.54
   1  -9  12   40.37   36.50
   1  -9  12   24.04   34.06
   1  -9  12   46.64   26.28
   1  -9  13  912.84   49.43
   1  -9  13  972.69   52.11
   1  -9  13  916.28   49.69
   1  -9  13 1005.02   50.53
   1  -9  14   48.33   31.72
   1  -9  14   75.55   32.33
   1  -9  14   49.92   32.97
   1  -9  14   72.14   30.57
   1  -9  15  250.86   42.44
   1  -9  15  228.70   40.19
   1  -9  15  258.91   35.11
   1  -9  16   60.32   34.93
   1  -9  16   52.50   33.33
  -1   9 -17 2243.67   98.74
   1  -9  17 2461.41   89.81
   1  -9  17 2300.03  102.70
   1  -8 -16 8485.04  165.40
   1  -8 -16 9056.09  165.12
  -1   8  16 9033.92  156.53
  -1   8  16 9355.37  157.40
   1  -8 -15  120.17   31.20
  -1   8  15   91.85   36.72
   1  -8 -15  115.55   30.00
  -1   8  15   85.01   37.59
   1  -8 -14   93.63   29.55
  -1   8  14  109.03   35.98
   1  -8 -14  124.25   29.76
  -1   8  14  114.18   32.73
   1  -8 -13   11.65   25.85
  -1   8  13   41.29   32.45
   1  -8 -13    5.39   29.83
  -1   8  13   28.85   33.80
   1  -8 -12   50.61   31.68
  -1   8  12   39.32   33.84
   1  -8 -12   40.74   21.01
  -1   8  12   48.90   30.78
   1  -8 -11 1184.34   52.04
  -1   8  11 1156.80   54.78
   1  -8 -11 1126.11   55.43
  -1   8  11 1131.02   53.12
  -1   8  11 1152.48   52.73
   1  -8 -10 3100.79   78.41
  -1   8  10 3436.73   89.77
   1  -8 -10 3119.43   81.81
  -1   8  10 3148.58   81.62
  -1   8  10 3090.26   77.85
   1  -8  -9  237.56   30.26
  -1   8   9  308.34   41.42
   1  -8  -9  295.78   36.68
  -1   8   9  258.83   28.07
  -1   8   9  234.93   35.81
   1  -8  -8 1317.87   53.65
  -1   8   8 1283.93   63.02
   1  -8  -8 1267.79   53.67
  -1   8   8 1290.22   53.48
  -1   8   8 1329.46   56.74
   1  -8  -7 4357.57   94.46
   1  -8  -7 4320.10   90.46
  -1   8   7 4354.47  100.03
  -1   8   7 4224.10   97.26
   1  -8  -6 2165.78   63.84
   1  -8  -6 2279.49   68.49
  -1   8   6 2269.33   67.52
  -1   8   6 2173.73   72.02
   1  -8  -5   45.67   26.20
   1  -8  -5   47.02   25.27
  -1   8   5   23.97   25.68
   1  -8  -5   36.46   15.74
  -1   8   5   49.94   24.57
  -1   8   5   51.24   21.94
   1  -8  -4  222.76   25.92
   1  -8  -4  218.78   30.03
  -1   8   4  243.84   32.93
   1  -8  -4  268.95   27.32
  -1   8   4  246.73   29.43
  -1   8   4  251.60   26.12
  -1   8   3 1078.67   56.34
   1  -8  -3 1106.58   54.38
   1  -8  -3 1062.32   48.24
  -1   8   3 1120.46   54.36
   1  -8  -3 1126.81   48.83
  -1   8   3 1183.04   51.93
   1  -8  -3 1042.29   56.31
  -1   8   3 1099.62   51.51
  -1   8   2  208.87   31.87
   1  -8  -2  225.61   27.13
   1  -8  -2  242.23   30.40
  -1   8   2  249.39   27.15
  -1   8   2  238.07   26.51
   1  -8  -2  222.03   28.32
  -1   8   2  239.82   29.81
  -1   8   1   45.06   24.71
   1  -8  -1   27.78   21.11
   1  -8  -1   27.68   20.59
   1  -8  -1   13.22   20.50
  -1   8   1   51.55   27.60
  -1   8   1   49.10   22.00
   1  -8  -1   28.97   25.57
  -1   8   0  411.04   38.07
   1  -8   0  423.68   32.83
   1  -8   0  390.38   32.35
   1  -8   0  400.10   33.77
  -1   8   0  432.82   39.24
  -1   8   0  397.70   33.70
   1  -8   0  413.46   32.61
  -1   8   0  402.49   32.31
  -1   8  -1 2509.83   79.35
   1  -8   1 2401.79   71.76
   1  -8   1 2451.40   68.76
   1  -8   1 2368.67   69.43
  -1   8  -1 2510.44   80.70
  -1   8  -1 2498.43   72.73
   1  -8   1 2325.17   94.72
  -1   8  -1 2522.04   71.31
  -1   8  -2 8429.20  180.11
   1  -8   2 8231.83  167.49
   1  -8   2 8586.39  167.50
   1  -8   2 8573.42  171.45
  -1   8  -2 8612.33  181.15
  -1   8  -2 8427.72  169.93
   1  -8   2 8420.67  174.82
  -1   8  -2 8722.98  176.64
  -1   8  -3 4717.84  105.58
   1  -8   3 4672.75  109.61
   1  -8   3 4728.39  104.15
  -1   8  -3 4734.85  104.73
   1  -8   3 4820.20  103.53
  -1   8  -3 4813.76  105.12
  -1   8  -4   75.77   28.63
   1  -8   4   76.80   23.92
  -1   8  -4   65.06   25.53
   1  -8   4   60.23   27.30
  -1   8  -4   92.12   24.00
  -1   8  -5 7660.28  147.05
   1  -8   5 7615.35  120.94
  -1   8  -5 7548.60  127.96
   1  -8   5 7521.93  114.26
  -1   8  -5 7593.79  126.45
  -1   8  -6 5019.21  134.22
   1  -8   6 5222.70  101.70
  -1   8  -6 5160.68  105.51
   1  -8   6 5321.72  105.17
  -1   8  -6 5276.61  100.65
  -1   8  -7 2078.07   78.49
  -1   8  -7 2103.50   68.84
   1  -8   7 2093.84   69.42
   1  -8   7 2269.42   66.35
  -1   8  -7 2185.06   70.67
   1  -8   7 2061.04   63.38
  -1   8  -7 2223.22   72.92
   1  -8   8 1699.09   60.81
   1  -8   8 1814.14   63.67
  -1   8  -8 1711.82   62.92
  -1   8  -9 2298.15   72.57
   1  -8   9 2613.17   74.77
   1  -8   9 2601.28   73.59
  -1   8  -9 2465.46   78.85
  -1   8 -10 5818.96  117.19
   1  -8  10 6008.46  111.95
   1  -8  10 5931.88  113.23
  -1   8 -10 5820.75  119.77
   1  -8  10 6178.40  108.77
  -1   8 -11 4084.86   98.18
   1  -8  11 4027.33   92.68
   1  -8  11 4095.83   88.15
  -1   8 -11 3805.04  105.46
   1  -8  11 4069.79   88.52
   1  -8  1214018.18  169.58
   1  -8  1214165.15  175.30
   1  -8  1214219.77  170.13
   1  -8  1214217.53  177.70
   1  -8  13   51.61   32.52
   1  -8  13   53.08   31.25
   1  -8  13   41.23   31.61
   1  -8  13   42.54   34.45
   1  -8  14  215.07   32.42
   1  -8  14  240.69   37.32
   1  -8  14  248.19   38.07
   1  -8  14  222.54   35.07
   1  -8  15   -3.91   25.57
   1  -8  15   20.07   33.16
   1  -8  15   -2.69   30.26
   1  -8  16  104.73   34.32
   1  -8  16  111.98   37.94
  -1   8 -16  151.78   38.90
   1  -8  16  109.17   31.11
   1  -8  17  743.40   47.88
  -1   8 -17  746.66   56.91
   1  -8  17  725.24   45.03
   1  -8  17  725.86   53.13
   1  -8  18 1751.17   75.93
  -1   8 -18 1887.47   90.01
   1  -8  18 1841.19   71.87
   1  -8  18 1675.31   79.47
   1  -7 -17 2069.45   95.50
   1  -7 -17 2157.87   74.81
  -1   7  17 2157.47   78.29
  -1   7  17 2196.85   78.69
   1  -7 -16  614.60   43.02
  -1   7  16  569.44   54.21
   1  -7 -16  624.39   45.13
  -1   7  16  522.72   42.23
  -1   7  16  576.57   44.63
   1  -7 -15  334.53   37.72
  -1   7  15  373.76   44.05
   1  -7 -15  354.11   33.01
  -1   7  15  389.96   36.79
  -1   7  15  311.24   37.01
   1  -7 -14  339.78   35.41
  -1   7  14  345.17   42.33
   1  -7 -14  282.82   33.55
  -1   7  14  344.06   38.30
   1  -7 -13   77.03   21.37
  -1   7  13  127.89   32.71
   1  -7 -13  105.05   30.95
  -1   7  13   75.13   29.57
   1  -7 -12   46.97   26.92
  -1   7  12   33.42   32.33
   1  -7 -12  105.14   32.20
  -1   7  12   61.85   26.93
   1  -7 -11 3084.89   77.27
  -1   7  11 3278.30   86.91
   1  -7 -11 3084.79   83.59
   1  -7 -11 3205.85   86.48
  -1   7  11 3048.78   79.57
   1  -7 -10  101.23   22.91
   1  -7 -10   94.52   27.63
   1  -7 -10  116.54   28.32
  -1   7  10   92.05   21.74
   1  -7  -9 5800.57  103.08
   1  -7  -9 5764.31  105.44
   1  -7  -9 5730.22  110.19
  -1   7   9 5708.82  112.26
   1  -7  -8   83.53   24.36
   1  -7  -8   88.09   28.34
   1  -7  -8  113.74   27.94
  -1   7   8   87.21   26.00
   1  -7  -7  132.93   24.89
   1  -7  -7  139.38   24.44
   1  -7  -7  143.82   23.09
  -1   7   7  132.48   25.92
   1  -7  -6    5.66   21.54
   1  -7  -6   -8.45   20.38
   1  -7  -6   22.89   15.85
  -1   7   6    5.37   23.06
  -1   7   6    8.78   16.26
  -1   7   5 3279.06   99.47
   1  -7  -5 3512.83   82.09
   1  -7  -5 3555.11   84.98
   1  -7  -5 3452.43   83.69
  -1   7   5 3467.07   82.58
  -1   7   5 3515.92   86.33
  -1   7   4 4596.51  112.37
   1  -7  -4 4831.22   96.59
   1  -7  -4 4744.02   94.13
   1  -7  -4 4467.61  123.75
   1  -7  -4 4502.49   95.34
  -1   7   4 4757.32  102.97
  -1   7   4 4294.82   93.38
  -1   7   3 1199.27   60.68
   1  -7  -3 1222.13   51.04
   1  -7  -3 1154.99   49.42
  -1   7   3 1186.40   58.48
   1  -7  -3 1245.74   51.05
  -1   7   3 1193.50   51.17
  -1   7   3 1224.58   52.09
  -1   7   2  482.17   39.76
   1  -7  -2  461.19   34.19
  -1   7   2  535.95   39.51
   1  -7  -2  482.48   34.99
  -1   7   2  504.13   34.35
  -1   7   2  501.53   41.88
  -1   7   1   23.00   16.29
   1  -7  -1    9.59   14.03
  -1   7   1   52.79   22.73
  -1   7   1   21.01   19.43
  -1   7   1   19.45   20.49
  -1   7   0 2662.76   76.77
   1  -7   0 2730.68   73.55
   1  -7   0 2627.31   74.77
  -1   7   0 2563.93   80.86
  -1   7  -1 8283.46  155.44
   1  -7   1 7965.72  143.26
   1  -7   1 7894.80  142.31
  -1   7  -2 2890.39   81.18
   1  -7   2 2806.05   77.61
   1  -7   2 2751.97   76.92
   1  -7   2 2506.73   74.34
   1  -7   2 2855.23   86.88
  -1   7  -2 2659.71   85.77
  -1   7  -339394.10  453.81
   1  -7   340400.82  289.59
   1  -7   338990.93  436.43
   1  -7   339276.56  464.28
   1  -7   339308.77  436.17
  -1   7  -339882.52  281.06
  -1   7  -4 1345.18   55.23
   1  -7   4 1302.93   53.74
   1  -7   4 1260.39   48.87
  -1   7  -4 1236.47   50.49
   1  -7   4 1285.24   53.85
  -1   7  -4 1257.14   50.72
  -1   7  -5 1081.39   52.49
  -1   7  -5 1060.25   53.11
   1  -7   5 1042.48   47.70
  -1   7  -5 1006.68   48.83
   1  -7   5 1041.34   46.81
  -1   7  -5 1055.68   46.20
  -1   7  -6  381.99   36.12
  -1   7  -6  372.08   34.74
   1  -7   6  369.17   32.35
  -1   7  -6  387.20   36.11
   1  -7   6  366.91   31.24
  -1   7  -6  382.91   33.38
  -1   7  -7 2350.00   78.59
  -1   7  -7 2357.44   72.25
   1  -7   7 2395.00   68.88
  -1   7  -7 2390.76   80.16
  -1   7  -7 2418.48   72.81
  -1   7  -8 2366.02   89.92
  -1   7  -8 2308.56   74.51
   1  -7   8 2370.64   70.55
   1  -7   8 2528.93   69.88
  -1   7  -8 2362.85   75.72
  -1   7  -8 2437.63   71.61
  -1   7  -9 1798.99   59.64
   1  -7   9 1759.36   62.65
   1  -7   9 1881.70   64.91
  -1   7  -9 1815.36   63.27
   1  -7   9 1906.10   67.27
  -1   7 -10 4249.29   94.54
   1  -7  10 4328.41  103.23
   1  -7  10 4369.24   96.93
  -1   7 -10 4277.51  104.11
   1  -7  10 4397.05  100.15
  -1   7 -11 4254.63   91.37
   1  -7  11 4196.95   98.65
   1  -7  11 4232.83   89.77
  -1   7 -11 4148.73  108.31
   1  -7  11 4381.21   96.50
   1  -7  12 1508.38   58.17
   1  -7  12 1479.20   79.92
   1  -7  12 1575.31   60.42
  -1   7 -12 1556.19   64.92
   1  -7  12 1612.76   61.39
   1  -7  13  930.81   48.58
   1  -7  13 1001.26   53.33
   1  -7  13  968.64   49.15
   1  -7  13  996.73   50.34
   1  -7  14  423.33   38.72
   1  -7  14  474.19   45.66
   1  -7  14  469.66   44.05
   1  -7  14  529.91   42.04
   1  -7  15  280.15   34.95
   1  -7  15  290.22   40.04
   1  -7  15  283.31   38.42
   1  -7  16  789.56   44.40
   1  -7  16  743.24   46.56
  -1   7 -16  781.81   54.86
   1  -7  16  776.73   48.27
   1  -7  17 4841.63  103.03
  -1   7 -17 4818.42  122.02
   1  -7  17 4681.88  103.66
   1  -7  17 4597.56  107.78
   1  -7  18  567.40   46.43
  -1   7 -18  618.02   50.12
   1  -7  18  523.34   49.25
   1  -7  18  537.70   43.26
   1  -6 -18  669.71   55.86
  -1   6  18  654.34   50.23
  -1   6  18  590.69   49.21
   1  -6 -17   -2.65   31.44
   1  -6 -17    9.00   31.75
  -1   6  17  -32.05   26.69
  -1   6  17   -2.37   30.31
   1  -6 -16  245.81   37.27
  -1   6  16  289.60   45.01
   1  -6 -16  221.22   28.96
  -1   6  16  220.95   35.80
  -1   6  16  275.86   33.67
   1  -6 -15  758.74   44.71
  -1   6  15  765.91   50.97
   1  -6 -15  799.83   47.29
   1  -6 -15  732.64   50.20
  -1   6  15  741.09   47.09
   1  -6 -14  515.17   37.98
  -1   6  14  477.89   42.65
   1  -6 -14  523.10   39.47
  -1   6  14  563.22   45.13
   1  -6 -13 1847.90   66.06
   1  -6 -13 1861.36   67.48
  -1   6  13 1883.16   63.79
   1  -6 -12    4.24   24.10
   1  -6 -12   12.12   29.50
  -1   6  12   -4.70   27.02
   1  -6 -11 1205.80   51.99
  -1   6  11 1198.43   54.33
   1  -6 -10    3.87   24.37
   1  -6 -10    8.29   25.70
  -1   6  10   14.02   18.25
   1  -6  -9 3492.77   83.44
   1  -6  -9 3222.70   82.78
   1  -6  -9 3287.15   89.42
  -1   6   9 3271.51   89.20
   1  -6  -8  861.41   45.37
   1  -6  -8  931.07   44.19
   1  -6  -8  957.86   46.96
   1  -6  -8  993.77   48.93
  -1   6   8  949.63   47.84
  -1   6   7  658.95   50.57
   1  -6  -7  565.39   40.70
   1  -6  -7  654.37   37.37
   1  -6  -7  687.10   40.04
   1  -6  -7  681.10   40.15
  -1   6   7  625.14   44.81
  -1   6   6  232.74   36.92
   1  -6  -6  262.31   28.69
   1  -6  -6  263.02   33.73
   1  -6  -6  257.31   28.58
   1  -6  -6  228.22   28.02
  -1   6   6  219.04   27.62
  -1   6   5 5836.44  132.34
   1  -6  -5 6089.64  114.07
   1  -6  -5 5579.48  108.41
   1  -6  -5 5867.17  116.94
   1  -6  -5 5792.22  123.16
  -1   6   5 5564.63  114.10
  -1   6   410691.76  190.54
   1  -6  -410928.47  175.35
   1  -6  -410384.90  173.21
   1  -6  -410577.77  200.26
   1  -6  -410336.83  177.96
  -1   6   3  869.58   48.84
   1  -6  -3  916.75   44.97
  -1   6   239177.46  568.25
   1  -6  -240928.64  572.71
  -1   6   1   24.56   23.64
   1  -6  -1   38.69   15.89
  -1   6   012342.73  286.70
   1  -6   012484.72  282.43
  -1   6  -1 3327.65  117.05
   1  -6   1 3260.46  112.44
  -1   6  -232716.98  473.51
   1  -6   233373.20  479.17
  -1   6  -3 1461.22   57.61
   1  -6   3 1399.44   56.09
  -1   6  -4 1280.18   55.23
   1  -6   4 1231.16   50.67
  -1   6  -5 5269.22  106.69
  -1   6  -5 5510.40  115.02
   1  -6   5 5297.59  106.40
  -1   6  -5 4946.83  111.56
  -1   6  -6 4784.02  105.33
  -1   6  -6 4784.32  108.55
   1  -6   6 4621.35  100.86
   1  -6   6 4531.18   98.04
  -1   6  -6 4795.60  108.14
  -1   6  -7 4439.75   99.84
  -1   6  -7 4481.10   97.79
   1  -6   7 4464.01  102.66
  -1   6  -7 4502.09  103.10
  -1   6  -7 4597.40   96.94
  -1   6  -8 2447.14   80.92
  -1   6  -8 2436.32   71.53
   1  -6   8 2546.07   74.74
   1  -6   8 2512.94   71.81
  -1   6  -8 2569.14   74.77
   1  -6   8 2383.53   77.11
  -1   6  -9 5103.68  114.63
   1  -6   9 5550.36  104.06
   1  -6   9 5806.28  107.15
  -1   6  -9 5581.77  116.64
   1  -6   9 5592.43  101.93
  -1   6 -10 5320.54  102.10
   1  -6  10 5326.50  103.80
   1  -6  10 5494.87  103.93
  -1   6 -10 5366.04  115.31
   1  -6  10 5446.17  106.77
  -1   6 -11 3432.93   90.84
   1  -6  11 3433.37   85.83
   1  -6  11 3393.18   79.57
  -1   6 -11 3369.96   93.56
   1  -6  11 3459.78   86.73
   1  -6  12   -4.68   26.56
   1  -6  12  -39.76   28.09
   1  -6  12   25.92   30.25
  -1   6 -12   -1.95   29.40
   1  -6  12   35.10   28.27
   1  -6  13 1853.73   59.94
   1  -6  13 1862.40   65.32
   1  -6  13 1850.31   64.64
  -1   6 -13 1742.31   67.83
   1  -6  13 1927.27   66.45
   1  -6  14 1485.43   58.62
   1  -6  14 1560.46   59.55
   1  -6  14 1613.61   60.18
   1  -6  15 3270.03   80.20
   1  -6  15 3126.32   81.67
   1  -6  15 3105.50   75.86
   1  -6  16   29.11   29.38
   1  -6  16  -20.30   31.30
  -1   6 -16   -5.78   39.74
   1  -6  16   -3.18   31.27
   1  -6  17 1289.75   57.55
   1  -6  17 1269.58   63.34
  -1   6 -17 1227.31   63.32
   1  -6  17 1269.63   53.39
   1  -6  17 1135.78   52.21
   1  -6  18   38.03   32.01
  -1   6 -18   34.37   36.71
   1  -6  18    1.65   36.06
   1  -6  19 1471.02   63.96
  -1   6 -19 1539.26   75.82
   1  -5 -18 1910.30   69.02
  -1   5  18 1835.69   66.94
  -1   5  18 2010.60   76.74
   1  -5 -17   17.23   33.89
   1  -5 -17    5.57   26.73
   1  -5 -17   73.20   30.87
  -1   5  17   17.57   28.59
   1  -5 -16 1747.07   61.67
   1  -5 -16 1962.31   70.14
   1  -5 -16 1916.82   67.29
  -1   5  16 1926.01   64.68
  -1   5  15  553.67   47.52
   1  -5 -15  589.77   41.17
  -1   5  15  543.99   47.30
   1  -5 -15  591.61   44.15
  -1   5  15  566.91   42.16
  -1   5  14  551.44   47.12
   1  -5 -14  537.36   39.80
   1  -5 -14  439.41   35.64
  -1   5  14  522.45   37.21
  -1   5  13 8535.12  145.04
   1  -5 -13 8911.33  143.32
  -1   5  13 9095.15  142.53
  -1   5  12 1338.09   59.01
   1  -5 -12 1342.99   52.81
  -1   5  12 1456.30   57.96
  -1   5  11 4737.18   99.98
   1  -5 -11 4869.10   93.57
   1  -5 -11 4424.37  117.61
  -1   5  11 4853.00   99.49
  -1   5  10   57.77   24.91
   1  -5 -10   67.57   23.18
   1  -5 -10   48.22   30.98
  -1   5  10   45.29   25.70
  -1   5   9  746.67   56.92
   1  -5  -9  776.68   53.12
   1  -5  -9  859.56   43.06
   1  -5  -9  735.67   50.02
   1  -5  -9  804.01   44.09
  -1   5   9  813.77   44.40
  -1   5   8  602.55   50.11
   1  -5  -8  551.81   35.45
   1  -5  -8  596.90   37.22
   1  -5  -8  555.99   43.77
   1  -5  -8  569.01   41.12
  -1   5   8  580.96   39.02
  -1   5   7 3353.14  101.74
   1  -5  -7 3426.85   81.45
   1  -5  -7 3288.06   84.15
   1  -5  -7 3507.93   90.53
  -1   5   7 3376.36   90.22
  -1   5   6  429.38   37.75
   1  -5  -6  458.40   32.11
  -1   5   6  420.83   34.75
   1  -5  -6  530.91   35.29
   1  -5  -6  427.77   31.34
  -1   5   5  261.65   30.78
  -1   5   5  269.29   28.66
  -1   5   4 1714.49   68.63
  -1   5   4 1639.48   70.17
  -1   5   3  179.17   32.26
   1  -5  -3  185.37   27.26
  -1   5   3  180.67   26.28
  -1   5   1   32.10   19.07
   1  -5  -1   37.40   21.56
  -1   5   0 8716.85  216.64
   1  -5   0 8165.09  195.06
  -1   5  -1 3990.07  133.87
   1  -5   1 4058.46  131.83
  -1   5  -239067.71  554.13
   1  -5   238669.76  540.35
   1  -5   238852.45  567.74
  -1   5  -311271.17  260.18
   1  -5   311352.35  261.20
   1  -5   310250.81  249.81
   1  -5   310634.80  255.56
  -1   5  -4 5280.74  124.21
   1  -5   4 5337.72  125.00
   1  -5   4 5274.39  127.75
  -1   5  -5  208.65   26.35
  -1   5  -5  241.35   29.19
   1  -5   5  210.06   28.78
  -1   5  -6 9759.69  231.23
  -1   5  -6 9448.81  245.69
   1  -5   610190.61  248.34
  -1   5  -733848.89  410.68
   1  -5   732904.70  393.04
  -1   5  -731631.54  376.04
  -1   5  -8 9736.64  181.08
   1  -5   8 9660.63  167.55
  -1   5  -8 9061.93  163.73
   1  -5   8 9466.02  165.72
   1  -5   8 9536.98  165.47
   1  -5   8 8944.71  155.62
   1  -5   9 4872.68  100.02
  -1   5  -9 4709.96  100.77
   1  -5   9 4911.06  102.35
   1  -5   9 5008.90  102.85
  -1   5  -9 4868.83  109.99
   1  -5   9 4650.29   94.32
  -1   5 -1017438.81  208.76
   1  -5  1018151.74  211.85
  -1   5 -1018487.06  206.82
   1  -5  1017647.08  208.15
   1  -5  1017994.53  185.04
  -1   5 -1017767.07  210.42
   1  -5  1017934.28  182.71
  -1   5 -11  781.32   54.84
   1  -5  11  777.89   54.70
   1  -5  11  895.49   47.20
   1  -5  11  844.64   45.44
  -1   5 -11  812.49   48.25
   1  -5  11  884.84   48.19
   1  -5  12 3126.87   79.54
   1  -5  12 3116.24   83.72
   1  -5  12 3095.38   82.65
  -1   5 -12 3065.26   88.28
   1  -5  12 3255.95   81.10
   1  -5  13 1595.43   55.68
   1  -5  13 1627.62   68.60
  -1   5 -13 1624.37   64.57
   1  -5  13 1551.97   57.52
   1  -5  14  345.17   36.16
   1  -5  14  371.37   39.97
  -1   5 -14  303.96   40.09
   1  -5  14  288.97   35.13
   1  -5  15  -25.93   28.62
   1  -5  15    4.65   28.18
  -1   5 -15   13.13   36.11
  -1   5 -15  -19.19   36.62
   1  -5  15   -0.11   20.05
   1  -5  16 1837.73   61.62
   1  -5  16 1792.87   66.04
  -1   5 -16 1811.92   75.46
   1  -5  16 1728.09   64.76
   1  -5  17 4450.11   97.77
   1  -5  17 4403.35   98.52
  -1   5 -17 4370.01  111.51
   1  -5  17 4309.28   98.31
   1  -5  18  502.52   40.96
  -1   5 -18  464.50   42.26
  -1   5 -18  522.50   52.60
   1  -5  18  430.59   41.23
   1  -5  19  104.85   31.37
  -1   5 -19   98.14   48.17
   1  -4 -19 1565.79   73.64
  -1   4  19 1599.89   65.88
  -1   4  19 1648.15   75.38
   1  -4 -18 1251.59   56.88
   1  -4 -18 1287.15   59.71
  -1   4  18 1257.34   60.01
  -1   4  17  274.74   40.53
   1  -4 -17  298.74   36.25
   1  -4 -17  281.29   33.28
  -1   4  17  298.33   34.50
  -1   4  16  174.12   39.67
   1  -4 -16  156.57   31.60
   1  -4 -16  213.57   37.10
  -1   4  16  172.16   33.12
  -1   4  15  965.38   49.32
   1  -4 -15  950.11   46.48
   1  -4 -15 1009.91   54.28
  -1   4  15  999.12   51.99
  -1   4  14  450.04   36.48
   1  -4 -14  409.38   35.44
   1  -4 -14  370.90   46.24
   1  -4 -14  462.82   35.77
  -1   4  14  459.87   41.72
  -1   4  13 3032.68   81.32
   1  -4 -13 3045.86   78.44
   1  -4 -13 2790.24  102.74
   1  -4 -13 2989.51   82.81
  -1   4  13 3085.75   83.12
  -1   4  12   25.98   25.22
   1  -4 -12   46.01   23.38
   1  -4 -12   28.15   33.73
  -1   4  12   43.03   21.24
  -1   4  11 3101.11   80.48
   1  -4 -11 3094.76   74.86
   1  -4 -11 2926.20   93.93
  -1   4  11 3190.51   83.99
   1  -4 -10  226.25   36.55
   1  -4 -10  247.25   30.14
  -1   4  10  268.07   32.66
   1  -4 -10  220.21   27.50
   1  -4 -10  221.29   35.54
  -1   4  10  222.82   32.26
   1  -4  -9  566.15   46.42
   1  -4  -9  618.92   39.12
  -1   4   9  643.69   41.97
  -1   4   9  632.02   41.94
   1  -4  -9  673.16   39.32
   1  -4  -9  656.00   46.94
   1  -4  -9  592.73   37.06
  -1   4   9  646.90   46.28
   1  -4  -8 5588.72  140.89
   1  -4  -8 5550.51  125.10
  -1   4   8 5659.70  134.56
   1  -4  -8 5646.69  124.38
   1  -4  -8 5483.84  158.92
   1  -4  -8 5412.05  124.16
  -1   4   8 5390.57  157.21
   1  -4  -720439.75  283.64
   1  -4  -721007.83  280.90
  -1   4   719815.45  285.86
   1  -4  -719468.04  296.35
   1  -4  -6 1804.37   65.93
   1  -4  -6 1861.37   60.02
  -1   4   6 1832.63   68.86
   1  -4  -5 1616.85   62.39
   1  -4  -5 1671.51   56.91
  -1   4   5 1636.12   62.64
  -1   4   4 1450.75   66.57
  -1   4   4 1323.04   57.00
  -1   4   4 1351.28   61.46
   1  -4  -4 1236.88   58.71
  -1   4   3 3347.03  125.52
  -1   4   3 3032.65  115.61
  -1   4   3 3276.18  114.82
   1  -4  -3 3178.92  119.63
  -1   4   2  517.07   40.08
  -1   4   2  484.31   34.26
   1  -4  -2  542.34   34.28
  -1   4   2  495.74   37.40
   1  -4  -2  494.29   37.19
  -1   4   1  323.84   37.61
  -1   4   1  311.64   29.44
   1  -4  -1  343.34   27.32
  -1   4   028786.18  347.27
   1  -4   031001.45  352.52
  -1   4  -1  534.35   39.67
   1  -4   1  577.61   37.66
  -1   4  -1  495.14   30.62
  -1   4  -216981.00  360.98
   1  -4   217012.81  356.95
  -1   4  -215365.58  331.71
   1  -4   216424.19  358.38
   1  -4   216798.42  358.17
  -1   4  -3 9161.98  242.29
   1  -4   3 9146.94  239.41
  -1   4  -3 8423.64  229.69
   1  -4   3 8615.95  233.17
  -1   4  -3 8737.43  257.34
  -1   4  -415563.73  332.62
  -1   4  -414247.54  327.68
  -1   4  -415767.01  339.54
   1  -4   415346.52  332.16
  -1   4  -413669.67  322.25
  -1   4  -511377.64  266.69
   1  -4   511263.75  263.03
  -1   4  -5 9986.82  276.48
  -1   4  -6 7555.87  157.83
   1  -4   6 7637.99  159.20
  -1   4  -714482.09  324.21
   1  -4   714858.68  330.81
  -1   4  -8 3304.39   90.90
  -1   4  -8 3432.91   88.85
   1  -4   8 3508.76   85.41
   1  -4   8 3179.79   92.77
  -1   4  -9  338.06   37.54
  -1   4  -9  294.84   30.38
   1  -4   9  339.59   32.19
  -1   4  -9  284.87   30.71
   1  -4   9  296.50   26.48
   1  -4   9  291.93   27.38
   1  -4   9  276.62   31.01
  -1   4 -1010250.53  207.93
   1  -4  1010536.36  202.49
  -1   4 -1010071.16  193.38
   1  -4  1010189.86  195.05
   1  -4  1010065.88  191.59
  -1   4 -1010047.11  200.42
   1  -4  1010114.68  202.64
  -1   4 -11  330.88   42.50
   1  -4  11  372.99   36.57
   1  -4  11  413.23   35.01
   1  -4  11  496.90   40.53
   1  -4  11  397.70   37.44
  -1   4 -11  390.38   38.62
   1  -4  11  381.52   29.74
   1  -4  12   85.53   29.71
   1  -4  12  117.13   28.32
   1  -4  12   92.37   28.64
  -1   4 -12  115.94   29.21
   1  -4  12  138.27   27.20
   1  -4  13 1951.91   63.73
   1  -4  13 1859.43   62.25
  -1   4 -13 1858.46   67.95
   1  -4  13 1958.50   63.03
   1  -4  14 2357.05   68.76
   1  -4  14 2286.67   72.27
  -1   4 -14 2301.95   78.47
   1  -4  14 2352.09   70.07
   1  -4  15   28.89   26.65
   1  -4  15    1.56   25.95
  -1   4 -15   14.29   28.06
  -1   4 -15   21.78   29.27
   1  -4  15   14.89   24.51
   1  -4  16  361.07   33.74
   1  -4  16  372.52   40.86
  -1   4 -16  374.49   45.85
  -1   4 -16  396.17   39.07
   1  -4  16  366.28   36.14
   1  -4  17  455.70   39.87
   1  -4  17  472.07   42.28
  -1   4 -17  406.07   49.85
   1  -4  17  377.01   37.68
   1  -4  18  159.56   31.40
  -1   4 -18  150.39   34.67
  -1   4 -18  179.42   40.76
   1  -4  18  146.66   36.27
   1  -4  19  855.62   52.41
  -1   4 -19  816.40   59.20
   1  -4  20  212.15   42.23
  -1   4 -20  224.51   52.52
   1  -4  20  207.47   35.85
   1  -3 -19 1032.37   54.72
   1  -3 -19 1013.30   52.89
  -1   3  19 1014.29   55.60
  -1   3  18  142.44   40.07
  -1   3  18  148.76   46.00
   1  -3 -18  152.57   36.02
  -1   3  18  130.04   35.59
  -1   3  17  217.70   33.64
   1  -3 -17  196.29   36.82
   1  -3 -17  264.96   37.83
  -1   3  17  234.86   35.25
  -1   3  16 2053.79   68.87
   1  -3 -16 1947.58   65.11
   1  -3 -16 1914.59   78.62
   1  -3 -16 1978.87   64.93
  -1   3  16 2023.82   69.79
  -1   3  15 2462.27   74.76
   1  -3 -15 2361.19   74.97
   1  -3 -15 2279.37   81.96
   1  -3 -15 2474.12   74.75
  -1   3  15 2554.28   77.33
  -1   3  14   46.30   26.67
   1  -3 -14   41.41   27.92
   1  -3 -14   24.58   36.43
   1  -3 -14   40.72   30.50
  -1   3  14    7.36   27.92
  -1   3  13   65.21   20.81
   1  -3 -13   80.42   24.87
   1  -3 -13   55.80   40.91
   1  -3 -13   55.96   35.55
  -1   3  13   60.19   30.07
  -1   3  12   15.34   24.49
   1  -3 -12   -5.10   21.25
   1  -3 -12   13.15   32.53
   1  -3 -12   -7.35   27.52
  -1   3  12   45.35   25.74
   1  -3 -11    7.21   34.77
   1  -3 -11   42.95   22.60
  -1   3  11   19.81   23.82
  -1   3  11   33.54   17.82
   1  -3 -11   25.86   18.64
   1  -3 -11   50.23   27.44
  -1   3  11   33.00   23.72
   1  -3 -10 2145.80   82.98
   1  -3 -10 2142.38   65.73
  -1   3  10 2291.94   84.68
  -1   3  10 2165.95   70.27
   1  -3 -10 2153.55   63.01
   1  -3 -10 2144.70   80.71
   1  -3 -10 2290.80   77.84
  -1   3  10 2307.68   71.83
   1  -3  -9 2670.02   88.30
   1  -3  -9 2856.06   76.79
  -1   3   9 2708.89   91.36
  -1   3   9 2773.27   77.22
   1  -3  -9 2660.75   75.51
   1  -3  -9 2819.76   91.81
   1  -3  -9 2940.30   82.02
  -1   3   9 2563.97   83.49
   1  -3  -8   19.19   20.90
   1  -3  -8   27.54   19.17
  -1   3   8    7.21   23.19
   1  -3  -8   17.82   21.35
   1  -3  -8   29.43   14.59
   1  -3  -7 3157.01  117.12
   1  -3  -7 2985.98  105.29
  -1   3   7 3135.28  116.60
   1  -3  -6 2754.49   83.12
   1  -3  -6 2737.67   70.39
  -1   3   6 2882.88   78.33
   1  -3  -5  105.82   28.64
   1  -3  -5  119.89   20.12
  -1   3   5  108.39   22.21
   1  -3  -5   93.27   21.32
   1  -3  -430384.17  365.76
  -1   3   430245.24  361.92
  -1   3   429192.75  350.28
   1  -3  -3   94.89   27.88
  -1   3   3   75.53   18.87
  -1   3   3   86.36   19.35
   1  -3  -3   88.49   18.62
  -1   3   3   77.37   19.62
   1  -3  -3  191.06   28.25
  -1   3   2 1083.62   56.11
  -1   3   2 1107.06   59.19
  -1   3   2 1022.80   52.81
  -1   3   2 1067.79   53.75
   1  -3  -2 1068.60   53.86
  -1   3   117599.39  391.88
  -1   3   119403.32  416.18
  -1   3   118007.43  393.08
  -1   3   118780.49  530.41
  -1   3   041906.95  542.81
  -1   3   043088.46  478.33
  -1   3   042538.16  469.62
  -1   3  -1124188.8 1150.16
   1  -3   1121414.5 1178.13
   1  -3   1123860.4 1129.51
  -1   3  -1128383.9 1172.47
  -1   3  -2   72.67   28.12
   1  -3   2   85.23   19.27
   1  -3   2   81.93   22.80
  -1   3  -2   80.97   18.03
   1  -3   2   97.84   21.12
  -1   3  -2   76.36   24.79
   1  -3   310077.49  261.13
  -1   3  -3 9714.83  254.23
   1  -3   3 9020.56  239.84
  -1   3  -3 9236.65  258.53
  -1   3  -4  612.74   36.61
  -1   3  -4  601.30   37.12
   1  -3   4  657.18   40.40
  -1   3  -4  571.36   39.69
  -1   3  -572705.34  710.71
  -1   3  -568638.57  732.44
  -1   3  -6 2682.57   76.84
  -1   3  -6 2716.76   75.24
   1  -3   6 2729.49   76.64
  -1   3  -724892.81  380.29
  -1   3  -724391.55  372.03
   1  -3   724128.13  367.36
  -1   3  -8 7559.77  166.20
  -1   3  -8 7253.64  156.43
   1  -3   8 7735.93  158.11
  -1   3  -9 5782.84  117.02
  -1   3  -9 5965.29  122.91
   1  -3   9 6137.42  114.44
  -1   3  -9 5709.93  117.32
   1  -3   9 5328.27  109.47
   1  -3   9 5856.58  118.56
  -1   3 -10  582.39   44.05
  -1   3 -10  546.95   40.36
   1  -3  10  532.06   34.12
   1  -3  10  533.53   37.07
   1  -3  10  540.97   38.64
  -1   3 -10  546.18   39.96
   1  -3  10  485.42   37.32
  -1   3 -11 1145.54   58.71
   1  -3  11 1174.88   53.81
   1  -3  11 1079.11   48.35
   1  -3  11 1141.62   54.05
  -1   3 -11 1083.37   54.51
   1  -3  11 1177.45   51.47
  -1   3 -12 1560.65   70.48
   1  -3  12 1492.33   59.41
   1  -3  12 1526.43   55.82
   1  -3  12 1605.91   62.26
  -1   3 -12 1705.09   67.51
   1  -3  12 1557.78   57.37
   1  -3  13   36.16   23.73
   1  -3  13   61.44   28.76
  -1   3 -13   20.28   27.64
   1  -3  13    2.30   26.33
   1  -3  14 1222.07   49.28
   1  -3  14 1223.97   57.52
  -1   3 -14 1192.88   54.16
   1  -3  14 1184.89   52.33
   1  -3  15 1036.79   48.99
   1  -3  15  944.51   49.67
  -1   3 -15 1048.58   56.46
  -1   3 -15 1006.26   52.48
   1  -3  15  987.27   49.65
   1  -3  16  755.47   40.87
   1  -3  16  666.56   42.63
  -1   3 -16  757.55   54.99
  -1   3 -16  689.38   50.17
   1  -3  16  691.51   43.39
   1  -3  17 5667.60  140.33
   1  -3  17 5507.68  143.27
  -1   3 -17 5529.58  148.78
  -1   3 -17 5383.39  142.20
   1  -3  17 5394.65  136.76
   1  -3  18 1959.80   66.07
  -1   3 -18 1924.88   64.82
  -1   3 -18 1943.93   74.18
   1  -3  18 1992.84   67.48
   1  -3  19  535.91   42.37
  -1   3 -19  470.37   43.94
  -1   3 -19  484.91   53.63
   1  -3  20   10.10   30.73
  -1   3 -20   60.18   49.22
  -1   2  19   55.97   37.06
  -1   2  19   32.01   42.61
   1  -2 -19   32.46   33.70
  -1   2  19   36.08   36.24
  -1   2  18  359.23   40.95
   1  -2 -18  323.42   36.25
  -1   2  18  360.33   39.43
  -1   2  17 1491.11   60.30
   1  -2 -17 1373.48   72.31
   1  -2 -17 1479.63   60.99
  -1   2  17 1489.14   63.77
  -1   2  16  113.35   31.91
   1  -2 -16  141.45   32.00
   1  -2 -16  162.73   40.77
   1  -2 -16  185.11   33.90
  -1   2  16  200.61   34.53
  -1   2  15 4348.52   92.69
   1  -2 -15 4303.67   98.33
   1  -2 -15 4518.32  109.79
   1  -2 -15 4421.23   99.98
  -1   2  15 4611.67  100.08
  -1   2  14 1190.20   55.08
   1  -2 -14 1178.77   50.61
   1  -2 -14 1190.04   62.99
   1  -2 -14 1250.33   55.51
  -1   2  14 1259.09   55.87
  -1   2  13   50.72   24.77
   1  -2 -13   56.52   22.89
   1  -2 -13   55.71   27.44
   1  -2 -13   50.32   30.94
  -1   2  13   34.25   21.58
   1  -2 -1210404.97  244.85
  -1   2  1210982.34  218.37
   1  -2 -1210976.57  209.92
   1  -2 -1211218.94  242.97
   1  -2 -1211546.24  236.33
   1  -2 -1211364.18  227.36
  -1   2  1211314.33  224.10
   1  -2 -11  853.30   58.95
   1  -2 -11  846.41   41.35
  -1   2  11  847.05   43.45
  -1   2  11  835.91   41.72
   1  -2 -11  868.89   40.75
   1  -2 -11  870.43   54.06
   1  -2 -11  864.68   45.31
   1  -2 -11  882.43   46.70
  -1   2  11  870.91   46.95
   1  -2 -10   20.17   25.31
   1  -2 -10   17.03   15.56
  -1   2  10   14.66   19.51
  -1   2  10   18.00   17.30
   1  -2 -10   21.50   19.37
   1  -2 -10    4.36   33.25
   1  -2 -10   11.43   16.91
  -1   2  10   46.62   27.05
   1  -2  -9 1919.57   80.01
   1  -2  -9 1990.39   65.38
  -1   2   9 1959.40   65.33
  -1   2   9 1902.99   62.99
   1  -2  -9 1840.86   62.06
   1  -2  -9 1994.48   73.30
   1  -2  -9 1916.90   74.23
  -1   2   9 1863.25   75.70
   1  -2  -8  622.32   45.33
   1  -2  -8  673.12   37.77
  -1   2   8  677.99   41.69
   1  -2  -7 8381.39  146.62
   1  -2  -7 7960.03  157.49
  -1   2   7 8747.35  215.02
   1  -2  -6 9954.12  246.30
  -1   2   6 9998.53  236.08
   1  -2  -5 1878.46   70.57
   1  -2  -5 1976.50   61.37
  -1   2   5 1994.53   63.25
   1  -2  -5 1676.96   69.74
   1  -2  -420355.70  432.40
  -1   2   419195.67  441.69
   1  -2  -420438.87  416.44
  -1   2   418403.82  389.49
  -1   2   419967.53  417.54
   1  -2  -417895.46  396.25
   1  -2  -3   26.32   28.04
  -1   2   3   26.64   16.52
  -1   2   3   41.81   15.69
   1  -2  -3   27.28   19.05
  -1   2   3   27.21   14.90
  -1   2   3   22.73   19.10
   1  -2  -3   18.08   22.19
   1  -2  -2 1940.83   71.35
  -1   2   2 2059.83   74.90
  -1   2   2 1898.01   60.59
   1  -2  -2 2036.51   63.19
  -1   2   2 1665.28   67.61
  -1   2   2 1778.24   61.04
   1  -2  -2 1901.90   69.04
  -1   2   117188.93  374.77
  -1   2   116425.89  364.43
  -1   2   118590.04  394.55
   1  -2  -117932.75  388.29
  -1   2   037458.71  446.02
  -1   2   036437.15  432.03
  -1   2   035936.78  389.91
   1  -2   111749.26  259.65
  -1   2  -112064.09  272.79
   1  -2   112556.57  280.22
  -1   2  -112373.95  293.03
   1  -2   236846.00  400.12
  -1   2  -235812.72  404.67
   1  -2   236666.50  404.33
   1  -2   3   19.59   18.34
  -1   2  -3   26.64   16.38
  -1   2  -3   11.22   22.60
   1  -2   3   29.63   20.76
  -1   2  -3   24.98   20.12
  -1   2  -4 1050.05   50.52
   1  -2   4 1010.64   49.68
  -1   2  -4  975.77   47.73
  -1   2  -4 1072.10   50.49
   1  -2   4 1051.98   50.27
  -1   2  -4  920.38   49.63
  -1   2  -5 6833.78  189.26
   1  -2   5 5654.89  198.72
  -1   2  -5 6219.73  191.38
  -1   2  -5 6676.18  185.38
   1  -2   5 6677.00  187.36
  -1   2  -6  166.24   30.65
  -1   2  -6  120.17   20.48
  -1   2  -6  162.53   27.94
   1  -2   6  168.68   27.64
  -1   2  -713076.48  302.32
  -1   2  -712950.00  293.73
   1  -2   713243.21  302.52
  -1   2  -840428.88  582.81
  -1   2  -840148.79  567.30
   1  -2   841911.11  588.47
  -1   2  -9    3.11   21.55
  -1   2  -9   20.46   23.58
   1  -2   9    8.40   21.52
  -1   2 -10 5156.82  118.05
  -1   2 -10 5005.58  110.79
   1  -2  10 5159.74  107.24
   1  -2  10 4860.68   98.99
   1  -2  10 4990.96  119.41
   1  -2  10 4620.08   94.78
  -1   2 -11   17.31   29.23
  -1   2 -11   19.56   23.29
   1  -2  11   44.68   23.37
   1  -2  11   34.07   21.59
   1  -2  11   15.73   22.56
  -1   2 -11   37.24   28.96
   1  -2  11   27.77   23.80
  -1   2 -12 2256.45   77.41
   1  -2  12 2318.45   79.67
   1  -2  12 2248.06   65.72
   1  -2  12 2231.69   66.70
  -1   2 -12 2256.83   72.41
   1  -2  12 2281.92   67.71
   1  -2  13   72.13   25.75
   1  -2  13   31.28   25.92
  -1   2 -13   53.09   28.39
   1  -2  13   49.52   24.16
   1  -2  14 6427.39  109.64
   1  -2  14 6368.04  115.09
  -1   2 -14 6371.65  134.11
  -1   2 -14 6386.81  118.81
   1  -2  14 6305.59  106.82
   1  -2  15 1806.61   61.81
   1  -2  15 1804.59   63.56
  -1   2 -15 1743.98   71.33
  -1   2 -15 1748.14   67.27
   1  -2  15 1833.00   61.72
   1  -2  16  643.31   42.43
   1  -2  16  709.56   39.75
  -1   2 -16  654.64   53.31
  -1   2 -16  682.90   46.00
   1  -2  16  635.69   44.26
   1  -2  17 1078.24   52.76
  -1   2 -17  999.74   48.26
  -1   2 -17  961.77   62.06
  -1   2 -17 1059.40   56.81
   1  -2  17 1052.72   51.19
   1  -2  18 6486.96  117.51
  -1   2 -18 6262.80  109.72
  -1   2 -18 6399.87  138.00
   1  -2  18 6403.37  122.33
   1  -2  19  401.48   39.08
  -1   2 -19  390.78   40.49
  -1   2 -19  392.00   53.53
   1  -2  20   -7.23   21.36
  -1   1  20  811.00   57.51
  -1   1  20  829.93   56.62
   1  -1 -20  761.90   53.93
  -1   1  20  754.97   56.34
  -1   1  19   89.00   35.59
   1  -1 -19   93.56   36.72
  -1   1  19  115.09   36.87
  -1   1  18    2.51   36.05
   1  -1 -18   31.48   42.51
   1  -1 -18   34.62   31.96
  -1   1  18   50.96   32.48
  -1   1  17  731.78   46.41
   1  -1 -17  723.09   59.68
   1  -1 -17  696.08   46.77
  -1   1  17  662.46   41.43
  -1   1  16   96.76   32.05
   1  -1 -16   87.60   29.07
   1  -1 -16   53.48   47.84
   1  -1 -16  105.89   32.66
  -1   1  16   67.33   24.51
  -1   1  15  226.92   37.24
   1  -1 -15  278.54   33.66
   1  -1 -15  220.91   44.33
   1  -1 -15  275.69   36.81
  -1   1  15  277.52   34.27
  -1   1  14 2006.01   65.73
   1  -1 -14 1914.34   61.51
   1  -1 -14 2024.02   76.53
   1  -1 -14 1908.53   67.10
  -1   1  14 2044.51   71.28
  -1   1  13 2117.63   66.00
   1  -1 -13 2102.51   64.55
   1  -1 -13 2182.20   77.99
   1  -1 -13 2129.80   72.58
   1  -1 -13 2223.11   68.75
  -1   1  13 2204.31   68.92
   1  -1 -12  165.27   39.49
  -1   1  12  126.59   32.29
  -1   1  12  164.33   31.51
   1  -1 -12  134.80   24.50
   1  -1 -12  125.84   34.49
   1  -1 -12  130.23   32.83
   1  -1 -12  141.38   24.21
  -1   1  12  131.44   25.35
   1  -1 -11 2082.25   85.57
   1  -1 -11 2065.62   64.15
  -1   1  11 2095.27   73.01
  -1   1  11 2095.00   63.76
   1  -1 -11 2164.91   65.86
   1  -1 -11 2240.82   77.99
   1  -1 -11 2145.34   74.22
   1  -1 -11 2036.10   66.07
  -1   1  11 2117.70   72.39
   1  -1 -10 7651.06  174.58
   1  -1 -10 7254.39  146.85
  -1   1  10 7528.91  154.80
  -1   1  10 6909.01  144.92
   1  -1 -10 7114.21  148.19
   1  -1 -10 7260.44  170.71
   1  -1 -10 7151.60  169.65
   1  -1 -10 7099.64  156.20
  -1   1  10 6883.07  162.34
   1  -1  -9 2312.82   79.53
   1  -1  -9 2242.31   64.65
  -1   1   9 2362.09   68.19
   1  -1  -9 2070.07   74.68
   1  -1  -8 1276.25   60.98
   1  -1  -8 1262.51   48.97
  -1   1   8 1312.66   53.90
   1  -1  -7 5035.98  113.34
   1  -1  -7 5287.32  118.08
  -1   1   7 5683.64  128.94
   1  -1  -6 2214.01   77.99
   1  -1  -6 2076.97   61.92
  -1   1   6 2186.12   69.03
   1  -1  -5  308.61   38.89
   1  -1  -5  305.97   28.60
  -1   1   5  321.72   28.11
  -1   1   5  303.75   32.41
   1  -1  -5  250.07   27.50
   1  -1  -4  221.24   30.32
  -1   1   4  201.02   28.73
   1  -1  -4  211.05   27.11
  -1   1   4  193.10   23.63
  -1   1   4  195.95   30.57
   1  -1  -4  194.84   25.43
   1  -1  -326752.40  336.38
  -1   1   326472.97  319.98
  -1   1   325202.76  233.69
   1  -1  -325250.54  250.37
  -1   1   243633.33  502.51
   1  -1  -245627.70  468.71
  -1   1   243898.13  483.30
  -1   1   244575.57  501.44
   1  -1  -242868.32  478.29
   1  -1  -135788.26  389.16
  -1   1   134423.13  392.96
   1  -1  -133982.77  406.83
  -1   1   0  715.37   61.45
  -1   1   0  685.33   51.52
   1  -1   1   21.21   21.97
  -1   1  -1   32.55   16.97
   1  -1   1   31.83   15.27
  -1   1  -1   27.07   13.27
  -1   1  -2  211.47   25.79
   1  -1   2  211.12   28.07
   1  -1   2  243.35   29.75
  -1   1  -2  228.06   26.94
   1  -1   2  238.09   29.26
  -1   1  -2  211.50   26.36
   1  -1   341887.28  463.99
  -1   1  -343294.10  463.31
  -1   1  -343427.18  464.29
   1  -1   342725.31  453.64
  -1   1  -412352.76  273.76
   1  -1   411555.37  270.21
  -1   1  -411815.72  265.31
  -1   1  -412352.99  272.40
   1  -1   410862.76  262.73
  -1   1  -410942.79  261.59
   1  -1   588274.10  851.87
   1  -1   589724.44  866.76
   1  -1   593425.63  885.02
  -1   1  -6  297.62   31.28
   1  -1   6  272.03   26.46
  -1   1  -6  327.24   32.92
   1  -1   6  308.52   29.60
   1  -1   6  346.74   34.80
  -1   1  -7   73.54   31.61
  -1   1  -7   72.86   27.87
   1  -1   7  249.79   32.21
  -1   1  -8 3991.87  138.17
  -1   1  -8 3633.21  122.85
   1  -1   8 4058.04  134.07
  -1   1  -9 7966.60  174.92
  -1   1  -9 7632.78  159.45
   1  -1   9 7605.43  159.17
  -1   1 -10 4374.32  106.93
  -1   1 -10 4383.56   93.45
   1  -1  10 4299.74   95.60
   1  -1  10 3987.86   88.09
   1  -1  10 4203.48  104.23
   1  -1  10 4021.55  103.66
  -1   1 -11   90.93   29.01
  -1   1 -11  113.29   26.65
   1  -1  11  105.45   26.25
   1  -1  11   77.66   17.69
   1  -1  11   93.73   19.79
  -1   1 -11  108.33   24.97
   1  -1  11  115.99   25.33
  -1   1 -12  350.86   35.38
  -1   1 -12  318.42   32.96
   1  -1  12  298.13   30.83
   1  -1  12  314.24   27.89
   1  -1  12  310.71   32.53
  -1   1 -12  288.02   34.79
   1  -1  12  310.00   31.82
  -1   1 -1312034.01  268.82
   1  -1  1312308.64  235.63
   1  -1  1312357.77  235.76
  -1   1 -1312427.59  252.24
  -1   1 -1312052.82  237.55
   1  -1  1311855.40  223.39
   1  -1  14 1149.95   53.47
   1  -1  14 1162.50   51.27
  -1   1 -14 1164.85   58.85
  -1   1 -14 1142.92   53.33
   1  -1  14 1180.79   51.20
   1  -1  15 4448.04   92.95
   1  -1  15 4506.62   96.94
  -1   1 -15 4415.99  104.07
  -1   1 -15 4368.17   98.43
   1  -1  15 4504.01   94.80
   1  -1  16 3245.90   81.20
  -1   1 -16 3284.50   93.57
  -1   1 -16 3268.89   90.05
   1  -1  16 3422.08   86.03
   1  -1  17  341.76   36.55
  -1   1 -17  341.52   33.32
  -1   1 -17  382.88   46.64
  -1   1 -17  366.77   41.46
   1  -1  17  364.42   40.94
  -1   1 -18 3135.44   78.45
  -1   1 -18 3026.22   91.91
  -1   1 -18 3175.22   91.37
  -1   1 -19  361.27   38.28
  -1   0  20  531.96   46.75
   1   0 -20  564.12   48.19
  -1   0  20  520.46   51.07
  -1   0  19  386.91   39.03
   1   0 -19  363.37   52.47
   1   0 -19  421.57   40.77
  -1   0  19  421.57   42.59
  -1   0  18  205.55   34.44
   1   0 -18  213.53   43.63
   1   0 -18  246.55   35.76
  -1   0  18  250.66   40.11
  -1   0  17  205.26   34.27
   1   0 -17  164.14   45.19
   1   0 -17  215.01   36.56
  -1   0  17  179.45   33.74
  -1   0  16 1227.86   53.44
   1   0 -16 1164.47   64.63
   1   0 -16 1245.73   56.55
  -1   0  16 1196.85   54.21
  -1   0  15   22.05   29.06
   1   0 -15   -0.10   25.47
   1   0 -15    3.78   33.69
   1   0 -15  -20.71   33.58
  -1   0  15   36.25   22.60
  -1   0  14 3745.41   84.96
   1   0 -14 3531.08   82.23
   1   0 -14 3644.24   97.59
   1   0 -14 3630.04   95.96
  -1   0  14 3694.24   93.77
  -1   0  13 5392.48  104.88
   1   0 -13 5098.39   99.13
   1   0 -13 5239.65  115.21
   1   0 -13 5472.07  108.70
  -1   0  13 5448.64  111.95
   1   0 -12 1037.62   57.66
  -1   0  12 1038.20   51.99
  -1   0  12 1045.44   48.85
   1   0 -12 1048.59   46.94
   1   0 -12 1059.12   54.57
   1   0 -12 1076.80   53.63
  -1   0  12 1050.67   53.14
   1   0 -11 4733.10  123.83
  -1   0  11 4609.65  105.31
  -1   0  11 4377.39   95.55
   1   0 -11 4422.71   95.85
   1   0 -11 4615.84  114.32
   1   0 -11 4435.29  107.09
   1   0 -11 4424.57   95.28
  -1   0  11 4562.23  105.32
   1   0 -10 9101.48  193.40
   1   0 -10 8591.96  164.32
  -1   0  10 9234.72  178.66
  -1   0  10 8609.53  167.95
   1   0 -10 8391.84  165.10
   1   0 -10 8968.06  187.62
   1   0 -10 8517.41  184.64
   1   0 -10 8358.05  165.91
  -1   0  10 8213.90  201.81
   1   0  -9 4411.03  109.51
   1   0  -9 4178.65   89.67
  -1   0   9 4630.29   98.98
   1   0  -9 4002.12   99.00
   1   0  -865656.48  894.63
  -1   0   867788.79  370.48
   1   0  -7  262.39   38.85
   1   0  -7  248.45   25.96
  -1   0   7  259.04   33.83
   1   0  -6  676.68   37.14
  -1   0   6  594.00   38.74
  -1   0   6  647.08   42.85
   1   0  -5  628.89   42.18
  -1   0   5  561.33   39.48
   1   0  -5  693.50   37.61
  -1   0   5  648.52   38.01
  -1   0   5  657.37   45.86
   1   0  -5  590.97   41.84
  -1   0   422116.84  494.50
   1   0  -423718.54  475.01
  -1   0   422737.17  463.20
  -1   0   423368.75  480.78
   1   0  -422431.75  476.89
  -1   0   363866.97  623.60
   1   0  -360340.54  631.51
  -1   0   232482.79  399.46
   1   0  -231648.00  348.59
  -1   0   232429.90  381.00
   1   0  -230273.24  371.05
  -1   0  -2  492.52   33.91
   1   0   2  474.26   35.20
   1   0   2  522.89   33.00
  -1   0  -2  444.81   46.82
  -1   0  -313537.49  294.69
   1   0   312618.57  284.54
  -1   0  -312993.99  284.55
   1   0   311883.66  268.94
   1   0   313498.52  292.34
  -1   0  -313268.05  304.65
   1   0   416975.67  361.50
   1   0   416974.07  366.25
   1   0   417011.11  375.18
  -1   0  -417688.15  382.59
  -1   0  -519021.50  401.85
   1   0   517040.46  387.46
  -1   0  -518988.18  395.71
   1   0   516688.12  366.07
   1   0   517833.58  374.66
  -1   0  -516475.36  358.49
  -1   0  -6  348.64   36.46
   1   0   6  311.05   28.83
  -1   0  -6  336.45   33.59
   1   0   6  302.01   30.10
   1   0   6  359.68   35.41
  -1   0  -7 4271.15  137.42
  -1   0  -7 4256.17  130.47
   1   0   7 4408.40  134.60
  -1   0  -823084.82  376.94
  -1   0  -823001.23  349.30
   1   0   822866.90  348.33
  -1   0  -9 9125.95  234.68
  -1   0  -9 9063.81  220.97
   1   0   9 8722.71  212.69
  -1   0 -10 9507.58  173.45
  -1   0 -10 9504.71  156.04
   1   0  10 9191.67  160.56
   1   0  10 8588.50  152.33
   1   0  10 8726.99  160.80
  -1   0 -11  187.32   26.60
  -1   0 -11  182.18   25.13
   1   0  11  200.32   29.06
   1   0  11  146.87   23.43
   1   0  11  185.04   27.81
  -1   0 -11  154.77   26.42
  -1   0 -11  151.94   27.42
   1   0  11  148.10   25.10
  -1   0 -12   28.58   35.37
  -1   0 -12   29.21   17.69
   1   0  12   -1.00   22.54
   1   0  12   33.50   20.28
   1   0  12   19.35   26.52
  -1   0 -12   43.01   28.58
  -1   0 -12   17.20   25.81
   1   0  12   -2.23   21.22
  -1   0 -13    6.74   34.54
  -1   0 -13   46.53   24.05
   1   0  13   25.74   22.72
  -1   0 -13   22.01   35.26
  -1   0 -13   14.65   19.04
   1   0  13   43.65   24.61
   1   0  14 3562.56   86.66
  -1   0 -14 3608.84   97.25
  -1   0 -14 3498.71   92.01
   1   0  14 3461.12   85.73
  -1   0 -15 6126.72  133.62
  -1   0 -15 6068.82  115.90
   1   0  15 6113.39  112.05
  -1   0 -16 1690.58   57.54
  -1   0 -16 1771.59   72.97
  -1   0 -16 1801.10   66.49
   1   0  16 1704.07   62.14
  -1   0 -17  370.20   35.01
  -1   0 -17  357.15   50.70
  -1   0 -17  390.61   39.29
   1   0  17  339.23   41.29
  -1   0 -18 2527.75   72.77
  -1   0 -18 2554.28   79.11
  -1   0 -19   39.08   27.14
  -1   0 -20  -18.91   30.45
   1   0  20   13.84   31.66
   1   0  21  173.32   39.01
  -1  -1  20  109.42   34.77
   1   1 -20   98.73   38.98
  -1  -1  20  100.57   40.42
  -1  -1  19  648.89   46.32
   1   1 -19  636.73   57.36
   1   1 -19  679.54   50.49
  -1  -1  19  669.98   51.54
  -1  -1  18    2.68   29.29
   1   1 -18   -5.10   36.61
   1   1 -18    2.34   35.43
  -1  -1  18   -0.06   30.75
  -1  -1  17  387.32   38.57
   1   1 -17  416.95   48.45
   1   1 -17  413.27   40.67
  -1  -1  17  473.64   41.98
  -1  -1  16 2460.26   71.92
   1   1 -16 2573.90   89.60
   1   1 -16 2494.94   73.99
  -1  -1  16 2667.61   76.92
  -1  -1  15   22.65   31.74
   1   1 -15    2.56   36.56
   1   1 -15   44.72   34.14
  -1  -1  15   53.91   27.90
  -1  -1  14 1622.11   59.80
   1   1 -14 1556.72   67.71
   1   1 -14 1581.39   61.30
  -1  -1  14 1617.88   60.18
  -1  -1  13  953.40   48.94
   1   1 -13  817.01   42.78
   1   1 -13  916.22   60.01
   1   1 -13  853.80   43.69
  -1  -1  13  949.25   51.49
   1   1 -1215114.36  313.04
  -1  -1  1215696.30  295.33
   1   1 -1215177.39  272.42
   1   1 -1215615.56  296.64
   1   1 -1215960.39  290.62
  -1  -1  1215650.97  288.65
   1   1 -11  139.71   30.18
  -1  -1  11  245.97   31.25
  -1  -1  11  169.42   27.91
  -1  -1  11  166.37   26.64
   1   1 -11  134.61   33.78
   1   1 -11  141.29   27.99
   1   1 -1016048.23  288.79
   1   1 -1015077.10  255.05
  -1  -1  1016306.73  271.96
  -1  -1  1014688.13  253.01
   1   1 -1015582.32  277.98
   1   1 -1015472.26  263.40
   1   1  -9 8881.22  184.29
   1   1  -9 8397.06  149.32
  -1  -1   9 8907.50  157.50
   1   1  -9 7770.25  155.51
   1   1  -9 8245.55  147.28
   1   1  -9 8080.92  164.40
   1   1  -8 7915.26  173.77
   1   1  -8 7267.44  148.60
  -1  -1   8 7833.58  165.83
   1   1  -7  472.40   43.32
   1   1  -7  395.81   29.66
   1   1  -7  421.36   30.73
  -1  -1   7  416.85   34.63
  -1  -1   7  426.94   41.55
   1   1  -613074.62  297.66
   1   1  -613044.77  289.45
   1   1  -613137.15  282.81
  -1  -1   613621.60  306.39
  -1  -1   614344.94  315.22
   1   1  -566673.58  659.87
  -1  -1   567202.72  701.41
  -1  -1   567490.75  675.39
   1   1  -563850.65  684.87
   1   1  -480876.38  808.23
  -1  -1   479784.11  778.18
   1   1  -478470.50  787.07
  -1  -1   3112341.1 1033.21
   1   1  -241607.57  461.86
  -1  -1   240096.49  452.03
  -1  -1   243681.02  455.06
   1   1  -242976.89  462.37
   1   1  -241690.65  433.57
  -1  -1   242565.27  448.65
   1   1  -240325.25  466.09
  -1  -1  -2 3777.83   90.05
   1   1   2 3749.61   93.47
   1   1   2 3439.64   85.59
  -1  -1  -375770.48  750.68
   1   1   376121.95  744.69
  -1  -1  -425544.22  242.38
   1   1   423101.63  477.19
  -1  -1  -423862.85  484.08
  -1  -1  -5 5778.40  172.07
   1   1   5 5050.35  154.70
  -1  -1  -5 5768.08  164.80
   1   1   5 5077.85  151.91
  -1  -1  -6   17.04   23.68
   1   1   6   23.57   16.51
  -1  -1  -6   32.91   26.28
  -1  -1  -7  300.42   34.76
   1   1   7  264.86   25.01
  -1  -1  -7  316.23   32.93
  -1  -1  -815747.49  198.69
  -1  -1  -815258.57  333.21
  -1  -1  -9  295.66   37.62
  -1  -1  -9  315.85   31.98
  -1  -1 -10   76.92   26.60
  -1  -1 -10   91.26   19.19
   1   1  10   91.05   23.28
   1   1  10   82.92   21.90
  -1  -1 -11 1249.56   58.44
  -1  -1 -11 1355.05   55.01
   1   1  11 1168.09   48.58
   1   1  11 1297.80   55.34
  -1  -1 -11 1276.76   60.31
  -1  -1 -11 1362.18   57.20
   1   1  11 1308.00   52.55
   1   1  11 1112.55   55.19
  -1  -1 -12  499.14   43.32
  -1  -1 -12  432.42   31.22
   1   1  12  457.80   33.37
   1   1  12  392.33   30.90
  -1  -1 -12  494.13   41.56
  -1  -1 -12  424.14   35.09
   1   1  12  448.36   34.45
  -1  -1 -13  425.45   33.72
   1   1  13  387.66   35.18
  -1  -1 -13  419.60   44.30
  -1  -1 -13  446.85   38.96
   1   1  13  418.11   35.98
  -1  -1 -14  427.04   34.86
  -1  -1 -14  376.83   47.03
  -1  -1 -14  395.58   38.20
   1   1  14  400.02   36.77
  -1  -1 -15  725.10   43.22
  -1  -1 -15  635.89   49.23
  -1  -1 -15  673.69   46.70
   1   1  15  724.76   45.03
   1   1  16  494.78   40.33
  -1  -1 -16  589.48   38.33
  -1  -1 -16  583.19   43.72
   1   1  16  570.42   43.20
   1   1  17 3536.49   83.72
  -1  -1 -17 3489.14   81.28
  -1  -1 -17 3595.00   87.57
   1   1  18 1573.21   63.73
  -1  -1 -18 1526.66   56.33
  -1  -1 -18 1470.23   62.69
   1   1  19    6.09   28.00
  -1  -1 -19    2.40   29.46
  -1  -1 -19    6.84   39.30
   1   1  19   13.29   29.59
   1   1  20    1.86   28.41
  -1  -1 -20    6.75   32.14
   1   1  20  -14.44   24.89
   1   1  20   25.51   29.21
  -1  -2  20   24.80   30.97
   1   2 -20   30.02   47.16
   1   2 -20   14.49   36.51
  -1  -2  20   11.88   37.61
  -1  -2  19 3697.47   88.94
   1   2 -19 3670.59  109.45
   1   2 -19 3612.58   91.12
  -1  -2  19 3678.01   96.40
  -1  -2  18  325.39   41.62
   1   2 -18  283.17   41.04
   1   2 -18  311.51   38.53
  -1  -2  18  297.79   39.62
  -1  -2  17   57.41   32.19
   1   2 -17   78.29   37.01
   1   2 -17   67.69   33.20
  -1  -2  17   92.64   30.30
  -1  -2  16    6.43   29.37
   1   2 -16   -1.23   42.15
   1   2 -16   45.90   28.83
  -1  -2  16    3.03   29.69
  -1  -2  15  558.01   44.11
   1   2 -15  592.90   51.20
   1   2 -15  555.64   41.88
  -1  -2  15  602.68   39.83
  -1  -2  14 3824.49   87.50
   1   2 -14 3823.42  100.12
   1   2 -14 3877.68   89.81
  -1  -2  14 3938.10   92.41
  -1  -2  13  459.94   33.31
   1   2 -13  429.66   44.42
   1   2 -13  412.93   34.28
  -1  -2  13  494.50   39.51
   1   2 -12 8647.65  219.89
  -1  -2  12 8744.61  179.13
   1   2 -12 8827.41  193.18
   1   2 -12 8810.44  183.12
   1   2 -11  536.43   41.20
  -1  -2  11  545.44   36.04
   1   2 -11  523.72   38.74
   1   2 -11  483.63   39.59
   1   2 -10  784.05   50.03
  -1  -2  10  732.00   40.83
   1   2 -10  766.66   47.58
   1   2 -10  741.64   44.15
   1   2  -9  131.15   32.09
   1   2  -9  122.04   22.21
   1   2  -9  121.03   27.18
   1   2  -9  111.78   27.32
   1   2  -9  127.40   27.56
   1   2  -8 6428.44  152.80
   1   2  -8 6641.07  144.44
   1   2  -7 1123.89   50.10
   1   2  -7 1245.39   49.53
  -1  -2   7 1143.49   53.45
   1   2  -618155.22  382.60
   1   2  -619491.81  402.04
  -1  -2   618434.20  392.56
   1   2  -538041.17  436.57
   1   2  -537469.77  413.79
   1   2  -538485.40  412.25
  -1  -2   535990.60  415.63
   1   2  -4  550.47   40.42
  -1  -2   4  561.09   37.57
   1   2  -4  541.57   33.98
   1   2  -4  587.26   33.99
  -1  -2   4  447.63   31.90
  -1  -2   4  566.13   45.85
   1   2  -3  694.65   52.81
  -1  -2   3  683.59   40.58
   1   2  -3  654.77   37.73
   1   2  -3  675.15   36.60
  -1  -2   3  627.67   37.49
  -1  -2   3  632.59   49.25
   1   2  -216496.58  357.16
  -1  -2   215533.27  336.46
   1   2  -216397.77  350.30
  -1  -2   217176.66  371.13
   1   2  -1 3358.29   89.52
  -1  -2   1 3551.04   88.71
  -1  -2   1 3668.65   83.04
   1   2  -1 3507.37   87.93
  -1  -2   1 3621.92   93.85
  -1  -2   1 3418.96   95.27
   1   2   0 2957.91   84.09
  -1  -2   0 2912.23   80.67
   1   2   0 3030.97   81.28
  -1  -2   0 3007.09   73.51
   1   2   0 2885.23   77.16
  -1  -2   0 2944.87   86.51
   1   2   127608.47  331.96
   1   2   219709.74  437.72
  -1  -2  -219411.34  403.40
  -1  -2  -219198.68  395.47
   1   2   217626.13  380.81
   1   2   219473.44  405.75
  -1  -2  -220156.09  420.23
  -1  -2  -322041.47  474.87
   1   2   322198.46  459.63
  -1  -2  -321615.58  444.92
   1   2   320711.65  430.14
   1   2   322449.88  457.60
  -1  -2  -322191.14  459.98
  -1  -2  -411103.06  258.29
   1   2   411016.56  254.87
  -1  -2  -410916.02  249.62
   1   2   411162.38  250.17
  -1  -2  -410778.02  247.27
  -1  -2  -5 1284.44   57.78
   1   2   5 1338.03   58.58
  -1  -2  -5 1256.33   54.36
   1   2   5 1348.71   55.35
  -1  -2  -5 1219.35   60.56
  -1  -2  -6 3173.96   89.09
   1   2   6 3277.10   91.53
  -1  -2  -6 3208.69   84.79
  -1  -2  -6 3408.20   80.96
   1   2   6 3234.09   82.44
  -1  -2  -7  608.96   42.97
   1   2   7  609.44   39.47
  -1  -2  -7  637.89   41.41
  -1  -2  -7  676.80   40.26
   1   2   7  639.08   39.58
  -1  -2  -8  793.16   47.80
  -1  -2  -8  821.04   44.88
  -1  -2  -8  858.37   44.21
   1   2   8  881.45   46.52
  -1  -2  -9  215.79   30.84
  -1  -2  -9  233.81   28.21
  -1  -2  -9  236.72   29.51
   1   2   9  255.84   30.39
  -1  -2 -1011375.29  198.89
  -1  -2 -1011243.81  175.39
   1   2  1010785.72  190.32
   1   2  1010775.37  176.49
  -1  -2 -11 1025.40   57.64
  -1  -2 -11 1072.76   46.71
   1   2  11 1145.37   52.04
   1   2  11 1003.25   47.50
   1   2  11 1047.64   48.87
  -1  -2 -11 1034.51   48.43
   1   2  11 1020.99   46.42
  -1  -2 -12  394.49   31.33
   1   2  12  378.32   31.86
   1   2  12  372.85   30.17
  -1  -2 -12  367.58   33.04
  -1  -2 -12  402.29   36.23
   1   2  12  396.13   38.99
  -1  -2 -13  212.58   31.05
   1   2  13  234.58   29.77
  -1  -2 -13  282.51   31.45
  -1  -2 -13  237.62   29.47
   1   2  13  224.78   34.37
   1   2  14  258.96   32.70
  -1  -2 -14  293.90   33.51
  -1  -2 -14  298.16   35.29
   1   2  14  298.31   31.50
   1   2  15   -2.45   28.30
  -1  -2 -15   34.72   27.67
  -1  -2 -15   16.26   26.18
   1   2  15   29.73   31.58
   1   2  16 1116.10   49.43
  -1  -2 -16 1035.84   45.24
  -1  -2 -16 1071.02   56.85
   1   2  16 1032.57   51.37
   1   2  17 2001.08   67.27
  -1  -2 -17 1890.97   60.72
  -1  -2 -17 1870.01   70.07
   1   2  18  899.50   44.99
  -1  -2 -18  853.53   46.21
  -1  -2 -18  855.77   51.05
   1   2  18  790.12   48.98
   1   2  19  832.74   49.81
  -1  -2 -19  737.99   47.22
   1   2  19  748.45   50.29
  -1  -2 -19  777.78   51.93
   1   2  19  749.60   51.27
   1   2  20   34.39   30.26
  -1  -2 -20   64.61   34.55
   1   2  20   14.84   32.06
   1   2  20   33.72   31.95
  -1  -3  20  143.19   34.15
   1   3 -20  181.73   55.13
   1   3 -20  174.35   41.23
  -1  -3  20  184.27   42.68
  -1  -3  19  541.99   42.27
   1   3 -19  546.20   52.18
   1   3 -19  559.03   45.32
  -1  -3  19  543.63   44.65
  -1  -3  18  646.35   45.47
   1   3 -18  647.39   54.32
   1   3 -18  656.05   46.11
  -1  -3  18  673.28   46.43
  -1  -3  17 2641.12   73.12
   1   3 -17 2654.97   87.27
   1   3 -17 2542.07   77.44
  -1  -3  17 2634.75   75.57
  -1  -3  16  101.48   32.04
   1   3 -16   74.56   36.85
   1   3 -16   90.23   35.46
  -1  -3  16   70.50   30.89
  -1  -3  15   -0.16   28.91
   1   3 -15   15.87   36.87
   1   3 -15  -38.16   32.05
  -1  -3  15   32.28   34.52
  -1  -3  1428897.72  340.99
   1   3 -1428541.61  357.97
   1   3 -1428559.67  339.18
  -1  -3  1429821.39  263.80
  -1  -3  13 1025.51   45.65
   1   3 -13 1146.59   61.35
   1   3 -13 1090.45   53.12
  -1  -3  12 4714.36   97.56
   1   3 -12 4742.19  108.28
   1   3 -12 4791.52  105.11
   1   3 -11  963.49   56.52
  -1  -3  11  869.46   49.13
  -1  -3  11  971.73   46.86
   1   3 -11  931.96   55.25
   1   3 -11  881.39   52.34
   1   3 -10 5614.46  135.61
  -1  -3  10 5575.51  130.73
   1   3 -10 5529.32  136.85
   1   3 -10 5672.26  139.26
   1   3 -10 5702.61  131.52
   1   3 -10 5246.31  106.19
  -1  -3   9  856.66   47.38
   1   3  -9  825.53   41.26
   1   3  -9  885.25   48.61
   1   3  -9  898.01   54.04
   1   3  -8 3330.12  121.56
  -1  -3   8 3363.60  120.70
   1   3  -7   84.32   33.66
   1   3  -7   42.73   16.47
  -1  -3   7   40.29   31.20
   1   3  -6  794.77   51.19
   1   3  -6  785.67   44.00
   1   3  -6  747.84   43.37
   1   3  -6  743.66   38.77
  -1  -3   6  864.68   47.36
   1   3  -516950.43  366.47
   1   3  -515444.24  335.93
   1   3  -515747.91  336.82
   1   3  -515920.31  336.57
  -1  -3   517830.90  382.48
   1   3  -4 3992.70  130.94
  -1  -3   4 3506.60  109.14
   1   3  -4 3867.58   92.06
   1   3  -4 3809.56   92.01
   1   3  -4 3784.06   82.79
  -1  -3   4 3978.47  130.19
   1   3  -4 3536.77  107.49
   1   3  -3  768.42   50.77
  -1  -3   3  736.90   43.92
   1   3  -3  806.45   49.22
   1   3  -3  689.77   60.22
  -1  -3   3  829.18   50.79
   1   3  -3  716.76   49.36
   1   3  -2 3281.77   91.27
  -1  -3   2 3234.16   85.46
   1   3  -2 3160.52   81.24
   1   3  -2 3316.14  136.97
  -1  -3   2 3332.69   90.84
  -1  -3   2 3402.53   95.24
   1   3  -114428.07  314.68
  -1  -3   113730.69  303.57
  -1  -3   113230.40  284.26
   1   3  -113689.52  297.13
  -1  -3   113572.29  294.58
   1   3  -113343.49  289.80
  -1  -3   113420.49  313.71
  -1  -3   114331.79  323.50
   1   3   0 7227.09  199.39
  -1  -3   0 6339.23  182.00
  -1  -3   0 7371.81  195.45
   1   3   0 6876.23  190.49
   1   3   0 7093.55  198.62
  -1  -3   0 6678.42  189.45
   1   3   179285.85  769.20
  -1  -3  -179290.68  799.38
  -1  -3  -180015.90  755.35
   1   3   176654.22  740.35
   1   3   270106.66  716.48
   1   3   271140.29  717.88
  -1  -3  -270007.81  683.14
   1   3   272792.09  726.40
  -1  -3  -273630.95  702.41
   1   3   269602.95  686.64
  -1  -3  -272795.90  730.19
   1   3   332216.49  385.71
   1   3   331304.17  391.43
  -1  -3  -333077.84  372.96
  -1  -3  -333584.42  364.27
   1   3   333928.96  381.68
  -1  -3  -332287.98  377.36
  -1  -3  -4  211.09   27.39
   1   3   4  272.98   28.66
  -1  -3  -4  245.96   29.85
  -1  -3  -4  232.74   27.06
   1   3   4  215.98   26.96
   1   3   4  240.39   29.26
  -1  -3  -4  217.55   25.65
  -1  -3  -531952.46  386.74
   1   3   531063.40  386.20
  -1  -3  -532862.75  377.38
   1   3   533523.44  376.36
  -1  -3  -531074.05  392.66
  -1  -3  -616964.47  370.07
   1   3   616229.66  355.11
  -1  -3  -616263.17  348.05
   1   3   616766.63  353.65
  -1  -3  -7 3620.16  132.78
   1   3   7 3685.96  136.65
  -1  -3  -7 3608.92  125.91
  -1  -3  -7 3866.15  125.64
   1   3   7 3747.39  125.68
  -1  -3  -8  722.29   45.77
  -1  -3  -8  732.18   41.90
  -1  -3  -8  738.28   40.11
   1   3   8  719.95   42.27
  -1  -3  -9 1593.77   69.08
  -1  -3  -9 1684.06   63.23
  -1  -3  -9 1620.72   55.44
   1   3   9 1645.11   59.39
  -1  -3  -9 1491.69   65.79
   1   3   9 1394.20   62.81
  -1  -3 -1015917.06  258.15
  -1  -3 -1016567.17  220.94
   1   3  1017358.00  243.49
   1   3  1016631.72  232.22
  -1  -3 -1016070.79  225.38
  -1  -3 -1016027.39  231.50
   1   3  1016234.84  238.13
  -1  -3 -11 9202.20  143.78
   1   3  11 9643.96  156.54
   1   3  11 9351.60  147.77
  -1  -3 -11 9298.02  144.44
  -1  -3 -11 9093.86  150.73
   1   3  11 9316.86  152.01
  -1  -3 -12  226.31   30.49
   1   3  12  220.97   30.41
   1   3  12  205.27   29.70
  -1  -3 -12  239.52   29.88
  -1  -3 -12  212.17   30.10
   1   3  12  253.27   32.21
   1   3  13 3116.13   76.73
  -1  -3 -13 3130.36   77.77
  -1  -3 -13 3011.41   85.86
   1   3  13 2998.91   79.42
   1   3  14 2433.05   68.33
  -1  -3 -14 2412.63   69.35
  -1  -3 -14 2240.00   71.12
   1   3  14 2411.52   71.73
   1   3  15   88.66   28.38
  -1  -3 -15  110.58   30.53
  -1  -3 -15   86.33   30.02
   1   3  15  118.74   32.22
   1   3  16  647.56   44.75
  -1  -3 -16  648.95   37.57
  -1  -3 -16  645.60   44.98
   1   3  17   38.86   28.60
  -1  -3 -17   71.69   31.34
  -1  -3 -17   45.19   30.40
   1   3  17    3.25   29.65
   1   3  18    8.85   31.58
  -1  -3 -18   26.14   26.49
   1   3  18    4.53   29.81
  -1  -3 -18   10.13   33.05
   1   3  18   -6.86   32.69
   1   3  19  972.81   51.39
  -1  -3 -19  929.75   46.31
   1   3  19  899.44   55.67
  -1  -3 -19  924.20   54.74
   1   3  19 1010.32   51.45
   1   3  20  367.25   41.99
  -1  -3 -20  339.06   38.52
   1   3  20  309.15   43.03
   1   3  20  334.25   37.85
  -1  -4  19   45.45   31.76
   1   4 -19   16.82   41.02
   1   4 -19   14.87   33.96
  -1  -4  19    3.32   35.15
  -1  -4  18  754.81   45.76
   1   4 -18  742.37   54.04
   1   4 -18  700.85   47.88
  -1  -4  18  776.69   49.86
  -1  -4  17 1833.06   64.33
   1   4 -17 1830.34   74.12
   1   4 -17 1773.67   64.87
  -1  -4  17 1824.12   67.16
  -1  -4  16 2997.73   78.52
   1   4 -16 3117.14  100.37
  -1  -4  16 3135.64   95.17
  -1  -4  15  -12.08   28.64
   1   4 -15   36.58   37.52
   1   4 -15   61.31   35.95
  -1  -4  15   12.81   21.46
  -1  -4  14 1857.46   64.23
   1   4 -14 2064.22   76.68
   1   4 -14 1884.21   66.53
  -1  -4  13  191.38   34.39
   1   4 -13  234.52   40.54
   1   4 -13  206.26   35.96
   1   4 -12 1982.03   72.83
   1   4 -12 2232.50   69.74
  -1  -4  11  709.59   45.35
   1   4 -11  711.11   46.85
   1   4 -11  766.54   48.37
   1   4 -11  719.04   44.45
  -1  -4  11  721.80   41.70
  -1  -4  10 3649.32   94.91
   1   4 -10 3228.29   86.89
   1   4 -10 3435.78   86.79
   1   4 -10 3329.03   93.35
  -1  -4  10 3174.48   85.81
   1   4  -9  360.67   39.15
  -1  -4   9  346.25   38.13
   1   4  -9  283.59   30.72
   1   4  -9  329.93   33.82
   1   4  -9  389.77   31.80
   1   4  -8 4829.99  124.43
  -1  -4   8 4859.20  109.41
   1   4  -8 4743.29  110.83
   1   4  -718120.83  302.80
  -1  -4   717657.78  291.71
   1   4  -6  560.81   46.40
   1   4  -6  516.66   34.26
  -1  -4   6  555.62   45.01
   1   4  -5 4169.70  141.62
   1   4  -5 4163.83  141.35
   1   4  -5 4210.73  139.93
  -1  -4   5 4531.07  150.03
   1   4  -4 1884.37   69.21
   1   4  -4 1949.38   72.61
  -1  -4   4 2068.12   72.57
   1   4  -3   60.05   28.52
  -1  -4   3   75.94   20.45
   1   4  -3   91.11   19.52
   1   4  -3  102.62   21.53
  -1  -4   3   65.40   20.11
  -1  -4   3  113.08   29.75
   1   4  -2 7600.37  209.90
  -1  -4   2 7267.50  208.96
   1   4  -2 6874.35  205.49
  -1  -4   2 7551.65  206.25
   1   4  -2 7223.02  199.30
  -1  -4   2 7253.86  206.53
  -1  -4   2 7380.97  212.35
   1   4  -1 1278.63   59.03
  -1  -4   1 1382.41   58.51
   1   4  -1 1306.66   55.87
  -1  -4   1 1379.19   52.15
   1   4  -1 1376.70   52.41
  -1  -4   1 1371.17   57.48
  -1  -4   1 1427.15   63.72
   1   4   0 7529.69  204.84
  -1  -4   0 7191.96  207.60
  -1  -4   0 7643.12  202.68
   1   4   0 7300.08  199.32
   1   4   0 7793.09  215.27
  -1  -4   0 7134.52  201.49
   1   4   180066.52  774.12
  -1  -4  -181962.73  842.19
  -1  -4  -184890.86  804.25
   1   4   180848.93  789.83
  -1  -4  -186248.64  806.72
   1   4   182705.90  790.47
   1   4   185404.76  827.87
  -1  -4  -182274.75  800.27
   1   4   2   36.09   16.33
   1   4   2   59.30   20.11
  -1  -4  -2   46.53   22.90
   1   4   2   47.30   15.50
  -1  -4  -2   48.67   15.50
   1   4   2   45.73   18.73
   1   4   2   47.04   21.85
  -1  -4  -2   45.31   16.24
   1   4   3 4991.53  160.31
   1   4   3 5011.68  155.85
  -1  -4  -3 4972.73  145.97
   1   4   3 4893.57  159.33
  -1  -4  -3 5161.81  145.80
   1   4   3 4851.09  147.40
   1   4   3 5229.48  154.49
  -1  -4  -3 4974.83  151.87
   1   4   416312.45  357.98
   1   4   416719.89  372.09
  -1  -4  -416882.30  354.32
  -1  -4  -417192.65  354.95
   1   4   416950.28  358.37
  -1  -4  -416517.64  355.05
  -1  -4  -5  347.85   32.46
   1   4   5  344.87   32.83
  -1  -4  -5  356.80   30.52
  -1  -4  -5  372.93   28.79
   1   4   5  357.75   32.11
  -1  -4  -6   90.74   24.04
   1   4   6   77.09   22.05
  -1  -4  -6   68.99   21.05
   1   4   6   86.09   23.04
  -1  -4  -7    5.84   16.90
  -1  -4  -7    3.08   17.85
   1   4   7   -3.83   14.41
  -1  -4  -812616.98  299.00
  -1  -4  -813480.27  305.60
  -1  -4  -813032.20  290.64
   1   4   813620.01  307.57
  -1  -4  -9  198.67   28.60
  -1  -4  -9  247.32   29.67
   1   4   9  242.14   29.62
   1   4   9  247.50   28.54
  -1  -4  -9  228.46   26.58
  -1  -4  -9  215.53   27.18
  -1  -4 -10 3670.39   88.86
   1   4  10 3702.64   92.31
   1   4  10 3648.82   89.16
  -1  -4 -10 3536.13   83.20
  -1  -4 -10 3496.56   86.30
   1   4  10 3288.84   80.09
  -1  -4 -11  128.58   27.58
   1   4  11  115.89   27.55
   1   4  11   94.85   23.54
  -1  -4 -11   87.59   26.31
  -1  -4 -11  101.51   28.05
   1   4  11  110.22   25.42
  -1  -4 -12  650.55   49.15
   1   4  12  694.64   45.66
   1   4  12  707.42   40.27
  -1  -4 -12  704.43   40.57
  -1  -4 -12  639.90   38.52
   1   4  12  637.94   36.88
   1   4  13  104.89   29.53
  -1  -4 -13   88.41   27.50
  -1  -4 -13   91.57   31.34
   1   4  13   81.39   26.98
   1   4  14 4375.18   90.91
  -1  -4 -14 4481.10   93.94
  -1  -4 -14 4388.68  105.13
   1   4  14 4086.06   92.07
   1   4  15  166.07   31.49
  -1  -4 -15  184.07   30.53
  -1  -4 -15  129.60   30.18
   1   4  15  155.31   31.58
   1   4  16  311.82   36.01
  -1  -4 -16  324.23   34.36
  -1  -4 -16  299.73   37.85
   1   4  16  321.32   37.12
   1   4  17   29.20   34.39
  -1  -4 -17   53.93   29.95
   1   4  17   91.40   34.16
  -1  -4 -17   67.19   28.38
   1   4  17   51.06   36.50
   1   4  18  722.50   50.57
  -1  -4 -18  650.60   40.36
   1   4  18  653.10   46.09
  -1  -4 -18  694.16   47.20
   1   4  18  667.49   46.46
   1   4  19  410.87   40.39
  -1  -4 -19  405.28   36.67
   1   4  19  377.25   47.54
   1   4  19  374.42   40.97
   1   4  19  425.77   41.64
   1   4  20  592.54   49.66
  -1  -4 -20  569.80   49.32
   1   4  20  619.91   52.50
  -1  -4 -20  562.11   48.98
   1   4  20  618.38   44.11
  -1  -5  19  847.93   50.62
   1   5 -19  841.31   58.50
   1   5 -19  841.07   54.96
  -1  -5  19  830.31   68.50
   1   5 -18  258.19   48.26
   1   5 -18  215.53   35.36
  -1  -5  18  209.14   36.73
   1   5 -17 1399.45   74.01
   1   5 -17 1285.47   62.92
  -1  -5  17 1384.90   60.40
   1   5 -16  609.25   50.20
   1   5 -16  543.45   39.66
  -1  -5  16  612.88   40.31
   1   5 -1512534.45  227.31
   1   5 -1511759.74  207.88
   1   5 -14 2537.14   83.66
   1   5 -14 2654.66   77.08
   1   5 -13  736.93   47.67
  -1  -5  13  764.98   45.04
   1   5 -12 1811.98   67.23
  -1  -5  12 1676.67   62.14
  -1  -5  11 5122.20  111.65
   1   5 -11 5155.43  126.00
   1   5 -11 4891.35  131.15
  -1  -5  11 4809.38  103.37
   1   5 -10 3854.86  129.76
  -1  -5  10 3966.47   99.71
   1   5 -10 4086.23   91.92
   1   5 -10 3936.40   95.71
  -1  -5  10 3787.18   89.22
   1   5  -9 6494.44  149.74
  -1  -5   9 6110.75  157.19
   1   5  -9 6403.23  148.27
   1   5  -9 6749.52  150.08
  -1  -5   9 6189.43  139.00
   1   5  -8 2576.81   85.19
  -1  -5   8 2407.15   86.18
   1   5  -8 2373.18   76.27
   1   5  -8 2529.14   75.79
  -1  -5   8 2304.68   72.11
   1   5  -7 6597.45  150.56
  -1  -5   7 6771.69  155.13
   1   5  -7 5940.24  139.88
   1   5  -6 6267.75  144.36
  -1  -5   6 6178.57  142.86
   1   5  -523725.19  371.52
   1   5  -524823.94  446.63
  -1  -5   524854.50  383.88
   1   5  -4 3570.92  126.65
   1   5  -4 4081.59  135.10
   1   5  -4 4137.05  138.09
  -1  -5   4 4172.03  142.45
   1   5  -3 4926.35  149.75
   1   5  -3 4537.87  139.68
   1   5  -3 4683.67  146.06
  -1  -5   3 4882.03  153.79
   1   5  -2 2284.55   69.72
  -1  -5   2 2044.86   83.57
  -1  -5   2 2192.90   71.30
   1   5  -2 2169.44   65.74
  -1  -5   2 2127.63   74.35
  -1  -5   2 2259.47   77.05
   1   5  -1 4486.15  136.93
  -1  -5   1 4198.56  142.57
  -1  -5   1 4580.81  137.56
   1   5  -1 4346.05  130.33
  -1  -5   1 4233.81  143.01
  -1  -5   1 4422.66  143.62
   1   5   032097.50  366.12
  -1  -5   031901.20  392.08
   1   5   032197.35  366.83
  -1  -5   032352.05  381.28
  -1  -5   034615.33  416.06
   1   5   1100630.2  955.83
  -1  -5  -198807.95  982.95
  -1  -5  -1104029.8  959.20
   1   5   1103566.0  978.14
  -1  -5  -198550.95  937.75
   1   5   220846.47  464.34
   1   5   221304.73  441.17
  -1  -5  -222708.02  459.46
  -1  -5  -221335.48  430.84
   1   5   220243.48  427.03
   1   5   221966.04  454.54
  -1  -5  -220974.78  440.01
   1   5   3 7412.75  215.08
   1   5   3 7354.64  209.88
  -1  -5  -3 7506.33  202.43
  -1  -5  -3 7486.95  197.88
   1   5   3 7552.24  209.12
  -1  -5  -3 7011.96  196.63
   1   5   431095.69  473.50
   1   5   431649.21  478.09
  -1  -5  -433013.63  471.55
  -1  -5  -433296.05  468.85
   1   5   433291.24  484.32
   1   5   5   20.54   20.16
  -1  -5  -5   35.68   20.36
   1   5   5   21.27   19.61
   1   5   6  180.05   30.23
  -1  -5  -6  197.60   25.08
  -1  -5  -6  233.37   27.75
   1   5   6  180.22   26.32
   1   5   7 2282.55   81.26
  -1  -5  -7 2333.72   69.84
  -1  -5  -7 2605.62   72.04
   1   5   7 2435.03   72.53
  -1  -5  -816291.36  234.80
   1   5   815603.91  231.69
   1   5   815768.58  232.17
  -1  -5  -816165.59  238.80
   1   5   9 2666.28   84.90
   1   5   9 2663.93   73.62
  -1  -5  -9 2554.66   75.82
   1   5   9 2573.51   77.48
  -1  -5 -10   82.20   18.24
   1   5  10   59.89   25.89
   1   5  10   75.51   24.53
  -1  -5 -10   93.39   22.40
  -1  -5 -10   91.10   19.57
   1   5  10   69.98   23.43
  -1  -5 -11 5977.22  109.49
   1   5  11 5846.15  124.45
   1   5  11 6096.21  110.19
  -1  -5 -11 6036.98  115.84
   1   5  11 5991.95  122.81
  -1  -5 -11 5662.79  119.04
   1   5  11 5770.73  113.86
   1   5  12  122.43   27.91
  -1  -5 -12   63.68   25.33
  -1  -5 -12  113.00   31.18
   1   5  12   99.56   20.01
   1   5  13 4168.18   95.07
  -1  -5 -13 4131.13   90.18
  -1  -5 -13 4046.62   98.50
   1   5  13 4018.52   97.42
   1   5  14   58.50   35.65
  -1  -5 -14   69.36   26.89
  -1  -5 -14   43.38   25.61
   1   5  14   54.60   26.88
   1   5  15   61.70   28.24
  -1  -5 -15    7.12   25.19
   1   5  15   16.81   28.03
  -1  -5 -15   12.62   30.03
   1   5  15   31.57   28.78
   1   5  16  108.94   38.15
  -1  -5 -16  185.41   30.66
   1   5  16  147.98   38.00
  -1  -5 -16  166.81   26.56
   1   5  16  119.29   34.90
   1   5  17 2821.19   79.64
  -1  -5 -17 2639.75   71.72
   1   5  17 2565.89   82.38
  -1  -5 -17 2790.93   87.11
   1   5  17 2866.08   81.44
   1   5  18  232.02   35.69
  -1  -5 -18  235.67   29.49
   1   5  18  254.38   43.55
  -1  -5 -18  224.78   37.00
   1   5  18  262.17   34.82
   1   5  18  258.69   36.15
   1   5  19   46.65   35.46
  -1  -5 -19   35.57   27.45
   1   5  19   54.83   42.32
  -1  -5 -19   37.62   37.75
   1   5  19   52.50   36.33
   1   5  19   49.54   32.34
   1   6 -19  642.88   59.67
   1   6 -19  662.18   57.61
  -1  -6  19  628.16   58.59
   1   6 -18 2043.60   77.19
   1   6 -18 1904.05   74.07
  -1  -6  18 1999.70   76.37
   1   6 -17 5085.48  123.33
   1   6 -17 4855.30  111.29
  -1  -6  17 4999.97  107.44
   1   6 -16 1507.62   69.77
   1   6 -16 1522.45   61.03
  -1  -6  16 1571.12   62.87
   1   6 -15   79.18   31.81
  -1  -6  14  551.19   40.69
   1   6 -14  593.74   43.22
  -1  -6  14  541.55   42.98
  -1  -6  13   90.20   31.95
   1   6 -13   86.96   32.15
  -1  -6  13   61.75   30.67
   1   6 -12  221.87   34.74
  -1  -6  12  177.50   32.22
   1   6 -11 4792.69  101.93
   1   6 -11 5182.58  114.50
   1   6 -11 5115.87  116.14
  -1  -6  11 4914.69  103.20
   1   6 -10 7234.75  177.23
  -1  -6  10 7991.06  187.12
   1   6 -10 7555.56  172.39
   1   6 -10 7977.38  176.56
   1   6 -10 7458.10  170.75
  -1  -6  10 7547.89  164.30
   1   6  -9 3264.88   95.55
  -1  -6   9 2978.44   93.44
   1   6  -9 3177.29   81.96
   1   6  -9 3146.59   82.52
   1   6  -9 3246.54   91.09
  -1  -6   9 3157.81   81.38
   1   6  -8 2169.12   72.83
  -1  -6   8 2066.44   70.08
   1   6  -8 2080.95   68.42
   1   6  -8 1942.15   67.88
   1   6  -8 1939.12   90.44
  -1  -6   8 1996.64   64.90
   1   6  -7  827.98   49.74
  -1  -6   7  943.13   51.66
   1   6  -7  866.98   45.15
   1   6  -7  824.37   46.07
   1   6  -7  849.26   46.60
  -1  -6   7  784.62   43.86
   1   6  -7  860.09   43.49
   1   6  -6 1397.12   58.66
  -1  -6   6 1511.78   61.43
   1   6  -6 1419.38   55.69
   1   6  -6 1368.73   57.29
   1   6  -6 1360.99   56.02
   1   6  -5  478.93   43.75
  -1  -6   5  540.88   43.30
   1   6  -4  668.99   45.88
   1   6  -4  606.77   37.37
  -1  -6   4  701.07   46.81
   1   6  -3  133.03   29.50
   1   6  -3  148.99   23.31
  -1  -6   3  153.43   30.03
   1   6  -2   21.43   23.01
  -1  -6   2   30.08   16.86
   1   6  -2   40.92   15.29
  -1  -6   2   32.28   25.97
   1   6  -1  121.81   25.61
  -1  -6   1  140.79   21.07
   1   6  -1  120.53   19.78
  -1  -6   1  119.09   22.57
  -1  -6   1  156.87   29.83
   1   6   0 2767.38   76.83
  -1  -6   0 2632.32   94.65
  -1  -6   0 2713.37   71.95
   1   6   0 2601.06   78.81
  -1  -6   0 2780.59   80.44
  -1  -6   0 2826.17   86.31
   1   6   1  262.83   28.99
   1   6   1  243.03   27.46
  -1  -6  -1  275.93   26.66
   1   6   1  263.28   28.51
  -1  -6  -1  250.00   25.03
   1   6   2 2149.92   79.52
   1   6   2 2366.51   72.37
  -1  -6  -2 2275.98   64.11
   1   6   2 2354.60   72.78
  -1  -6  -2 2243.80   74.18
   1   6   3 4282.46  142.23
  -1  -6  -3 4253.94  133.26
   1   6   3 4271.90  141.96
   1   6   465975.81  890.65
  -1  -6  -468340.24  343.73
   1   6   468221.97  391.70
   1   6   5 5679.05  144.07
  -1  -6  -5 5833.10  126.99
   1   6   5 5312.98  145.74
  -1  -6  -6  537.97   34.37
   1   6   6  591.32   39.32
  -1  -6  -7 2681.96   71.34
   1   6   7 2693.13   79.12
   1   6   7 2619.70   75.41
  -1  -6  -7 2615.59   74.38
   1   6   7 2467.08   80.29
  -1  -6  -7 2614.25   80.31
   1   6   7 2520.64   80.81
  -1  -6  -8 3892.80   82.30
   1   6   8 3731.74   93.64
   1   6   8 3878.78   88.22
  -1  -6  -8 3407.33   78.50
   1   6   8 3646.99  103.45
   1   6   8 3824.15   98.78
  -1  -6  -8 3803.38   89.07
   1   6   8 3691.00  100.41
   1   6   9 3315.61   94.44
   1   6   9 3391.25   85.13
   1   6   9 3331.52  102.33
   1   6   9 3597.63   95.45
  -1  -6  -9 3428.19   87.62
   1   6   9 3331.05   81.60
   1   6  10  266.56   30.32
   1   6  10  321.49   31.52
   1   6  10  304.64   30.39
   1   6  10  312.79   36.49
  -1  -6 -10  295.02   32.13
   1   6  10  325.99   28.23
   1   6  1112107.73  229.61
  -1  -6 -1112426.58  239.96
   1   6  1112669.42  244.77
   1   6  1112408.58  256.79
  -1  -6 -1112253.24  237.63
   1   6  1111130.73  278.59
   1   6  12 5314.40  104.95
  -1  -6 -12 5309.19  102.62
   1   6  12 5216.39  113.77
   1   6  12 5130.41  110.88
  -1  -6 -12 5090.80  112.13
   1   6  12 5158.00  105.98
   1   6  13 2084.42   69.49
  -1  -6 -13 2118.73   65.79
   1   6  13 2050.90   73.99
  -1  -6 -13 2011.60   68.76
   1   6  13 1964.49   72.65
   1   6  14 7115.08  122.53
  -1  -6 -14 7328.17  130.46
   1   6  14 7015.61  132.02
  -1  -6 -14 7223.01  123.42
   1   6  14 7029.65  121.85
   1   6  15  337.03   38.51
  -1  -6 -15  307.65   36.41
   1   6  15  300.65   40.38
  -1  -6 -15  334.08   33.35
   1   6  15  306.13   37.04
   1   6  16 1910.66   62.64
  -1  -6 -16 1915.30   65.65
   1   6  16 1924.40   71.50
  -1  -6 -16 1858.92   67.04
   1   6  16 2001.10   66.01
   1   6  17 1540.47   64.40
  -1  -6 -17 1549.91   60.50
   1   6  17 1427.44   68.61
  -1  -6 -17 1513.94   59.77
   1   6  17 1485.32   62.36
   1   6  17 1597.98   61.95
   1   6  18 5354.49  109.01
  -1  -6 -18 5370.03  123.66
   1   6  18 5204.83  119.17
  -1  -6 -18 5388.68  117.17
   1   6  18 5321.42  105.35
   1   6  18 5685.09  112.73
   1   6  19  447.71   44.08
  -1  -6 -19  457.73   44.66
  -1  -6 -19  412.67   51.65
   1   6  19  457.13   44.10
   1   6  19  456.19   42.15
  -1  -7  18   93.66   33.49
   1   7 -18  121.21   41.56
   1   7 -18  120.21   39.78
  -1  -7  18  167.33   35.64
  -1  -7  17 3820.25   90.27
   1   7 -17 3844.57  102.54
  -1  -7  17 3933.39  104.66
  -1  -7  16  942.14   52.45
   1   7 -16  908.12   52.42
  -1  -7  15 4160.72   91.52
   1   7 -15 4055.63   94.69
  -1  -7  14  471.67   42.49
   1   7 -14  515.20   50.51
   1   7 -14  476.27   44.60
  -1  -7  14  573.91   43.38
  -1  -7  13  937.54   50.07
   1   7 -13  884.69   57.28
   1   7 -13  935.70   51.50
  -1  -7  13  913.92   51.15
   1   7 -12 1565.34   63.11
   1   7 -12 1448.93   61.01
  -1  -7  12 1467.93   61.00
   1   7 -11  629.79   44.99
   1   7 -11  659.56   46.38
  -1  -7  11  662.32   41.89
   1   7 -10 2477.22   73.98
   1   7 -10 2551.74   80.66
  -1  -7  10 2489.09   87.70
   1   7 -10 2659.73   79.17
  -1  -7  10 2548.08   73.26
   1   7  -9 2100.55   91.15
  -1  -7   9 2082.10   78.86
   1   7  -9 2240.85   78.24
   1   7  -9 2189.80   77.71
   1   7  -9 2231.52   79.81
  -1  -7   9 2192.79   66.67
   1   7  -8 1759.92   66.77
  -1  -7   8 1590.21   64.33
   1   7  -8 1794.92   72.51
   1   7  -8 1630.65   60.25
   1   7  -8 1703.40   66.04
  -1  -7   8 1707.73   60.95
   1   7  -7 1771.88   68.43
  -1  -7   7 1719.17   63.77
   1   7  -7 1781.06   68.34
   1   7  -7 1725.88   67.84
   1   7  -7 1767.89   64.02
  -1  -7   7 1713.16   65.49
   1   7  -7 1730.66   63.17
   1   7  -6  987.29   52.69
  -1  -7   6  909.83   47.45
   1   7  -6  968.72   45.12
   1   7  -6  886.33   57.83
   1   7  -6  865.89   46.84
  -1  -7   6  924.17   44.95
   1   7  -6  917.34   44.21
   1   7  -5 6063.50  123.22
  -1  -7   5 6387.18  124.48
   1   7  -5 6110.65  114.37
   1   7  -5 6051.42  114.60
  -1  -7   5 6126.61  122.41
   1   7  -5 6215.09  131.60
   1   7  -4  490.62   36.27
  -1  -7   4  513.31   41.10
   1   7  -4  498.69   36.83
  -1  -7   4  430.63   30.73
   1   7  -4  492.28   39.92
   1   7  -3   39.85   26.79
  -1  -7   3   50.37   22.95
   1   7  -2 3093.83  114.52
  -1  -7   2 2887.13   84.95
  -1  -7   2 2938.83  111.36
   1   7  -1 1400.83   58.35
  -1  -7   1 1333.28   54.81
  -1  -7   1 1382.10   64.19
   1   7   0  172.09   25.53
  -1  -7   0  163.34   22.67
  -1  -7   0  169.68   29.22
   1   7   1  699.33   42.16
  -1  -7  -1  645.86   37.86
  -1  -7  -1  615.02   44.07
   1   7   219986.95  320.96
  -1  -7  -219334.97  322.20
   1   7   220464.65  342.33
   1   7   332656.85  490.92
  -1  -7  -332738.52  465.88
   1   7   332557.72  483.38
  -1  -7  -4 3755.22  122.22
   1   7   4 3591.66  140.01
   1   7   4 3141.21  110.80
   1   7   4 3380.02  117.31
  -1  -7  -5  558.30   35.18
   1   7   5  548.34   40.23
   1   7   5  478.80   37.91
  -1  -7  -5  503.83   37.88
   1   7   5  536.96   37.61
   1   7   5  542.75   38.00
   1   7   5  549.37   38.26
   1   7   5  485.60   34.95
  -1  -7  -6 6853.08  116.87
   1   7   6 6547.23  131.82
   1   7   6 6373.79  117.63
  -1  -7  -6 6618.39  122.92
   1   7   6 6649.60  132.36
  -1  -7  -6 6562.85  123.68
   1   7   6 6488.65  120.13
   1   7   6 6588.49  119.50
  -1  -7  -7   10.57   18.60
   1   7   7   -2.75   25.42
   1   7   7    0.70   19.16
  -1  -7  -7    7.88   20.46
   1   7   7    1.39   25.77
  -1  -7  -7   20.37   21.84
   1   7   7   -0.43   23.74
   1   7   7    0.45   19.39
  -1  -7  -8 2153.04   75.18
   1   7   8 2271.41   70.28
  -1  -7  -8 2324.17   70.84
   1   7   8 2208.15   73.40
  -1  -7  -8 2379.69   74.84
   1   7   8 2268.64   70.76
  -1  -7  -9 1863.49   71.62
   1   7   9 1849.90   66.83
   1   7   9 1874.32   65.43
  -1  -7  -9 1857.36   60.69
  -1  -7  -9 1814.01   63.71
   1   7   9 1751.07   58.12
   1   7  10  468.38   36.59
   1   7  10  504.07   45.09
  -1  -7 -10  497.38   35.73
  -1  -7 -10  522.16   35.05
   1   7  10  452.08   33.71
   1   7  11 6218.14  112.47
   1   7  11 6404.60  120.76
  -1  -7 -11 6202.27  112.84
  -1  -7 -11 6265.38  112.75
   1   7  11 6026.41  119.78
   1   7  12 1951.48   66.89
  -1  -7 -12 1981.19   62.31
   1   7  12 1865.96   70.19
   1   7  12 1955.08   70.52
  -1  -7 -12 1926.68   64.20
  -1  -7 -12 1978.82   66.22
   1   7  12 1921.31   64.62
   1   7  13  522.51   42.92
  -1  -7 -13  547.35   38.08
   1   7  13  481.99   42.99
   1   7  13  581.06   46.41
  -1  -7 -13  502.06   36.35
   1   7  13  522.98   40.80
   1   7  13  511.47   37.29
   1   7  14  391.48   36.59
  -1  -7 -14  383.29   36.78
   1   7  14  384.78   46.05
  -1  -7 -14  346.91   37.26
   1   7  14  400.62   34.75
   1   7  14  421.37   40.27
   1   7  15    4.12   30.31
  -1  -7 -15   30.58   30.99
   1   7  15    7.44   39.15
  -1  -7 -15  -12.48   30.30
   1   7  15   -7.95   23.22
   1   7  15   -3.06   22.10
   1   7  16 1079.73   53.79
  -1  -7 -16 1080.14   49.30
  -1  -7 -16 1104.77   54.25
   1   7  16 1110.70   56.21
   1   7  16 1132.86   52.43
   1   7  17   17.50   30.80
  -1  -7 -17   -8.82   30.72
  -1  -7 -17   -4.95   33.40
   1   7  17   31.47   29.71
   1   7  17   44.33   28.67
   1   7  18 5783.36  122.16
  -1  -7 -18 5672.03  118.62
  -1  -7 -18 5805.18  126.53
   1   7  18 5695.62  119.15
   1   7  18 5888.14  118.33
  -1  -8  18 1065.45   56.20
  -1  -8  18 1077.18   86.17
  -1  -8  17 5887.45  127.87
   1   8 -17 5748.02  132.69
  -1  -8  17 5706.38  168.89
  -1  -8  16 4070.67   93.31
   1   8 -16 3957.92  103.36
   1   8 -16 3894.20   94.86
  -1  -8  15  157.01   33.82
   1   8 -15  127.07   40.10
   1   8 -15  147.23   34.91
  -1  -8  14 2131.52   67.94
   1   8 -14 2081.95   78.31
   1   8 -14 2173.37   72.35
  -1  -8  14 2152.59   69.96
  -1  -8  13  186.96   36.69
   1   8 -13  196.71   44.44
   1   8 -13  209.81   31.93
  -1  -8  13  198.69   32.95
   1   8 -12  563.48   42.80
   1   8 -12  496.98   44.44
  -1  -8  12  527.85   40.08
   1   8 -11  -17.43   30.32
  -1  -8  11   27.30   28.64
   1   8 -11    8.21   20.61
  -1  -8  11   40.67   27.58
   1   8 -10 3396.91   90.78
   1   8 -10 3329.83   98.49
  -1  -8  10 3375.01   85.48
   1   8 -10 3385.63   88.32
  -1  -8  10 3403.17   80.62
   1   8  -9 4889.33  110.63
   1   8  -9 4532.69   98.63
   1   8  -9 4775.69  105.65
  -1  -8   9 4878.33  102.21
   1   8  -8  126.24   30.62
   1   8  -8  171.14   28.14
   1   8  -8  161.90   31.56
   1   8  -8  143.68   31.80
  -1  -8   8  145.86   26.71
   1   8  -7  151.51   33.84
   1   8  -7  204.24   31.12
   1   8  -7  141.24   30.36
  -1  -8   7  188.28   22.63
   1   8  -7  163.94   27.76
   1   8  -6  136.28   36.17
   1   8  -6  172.60   31.34
   1   8  -6  179.49   38.31
   1   8  -6  197.28   31.10
  -1  -8   6  164.06   27.60
   1   8  -6  195.53   29.93
   1   8  -5  474.34   44.43
  -1  -8   5  521.30   41.64
   1   8  -5  569.96   38.85
   1   8  -5  556.69   48.86
   1   8  -5  585.47   40.18
  -1  -8   5  563.54   35.22
   1   8  -5  553.05   37.04
   1   8  -4  847.73   48.53
  -1  -8   4  955.55   52.41
   1   8  -4  897.39   43.32
  -1  -8   4  830.79   44.45
   1   8  -4  932.70   57.88
   1   8  -4  871.67   48.77
  -1  -8   4  859.15   46.37
   1   8  -4  926.36   44.73
   1   8  -3 3604.75   91.88
  -1  -8   3 3627.42   96.45
   1   8  -3 3575.59   87.81
   1   8  -3 3830.81  100.38
   1   8  -3 3559.15   94.84
  -1  -8   3 3386.49  107.79
   1   8  -3 3552.02   85.46
   1   8  -2   56.55   24.58
  -1  -8   2   63.64   24.06
   1   8  -2   34.96   23.47
   1   8  -2   46.77   20.20
   1   8  -2   53.88   24.81
   1   8  -2   51.68   20.52
   1   8  -1 3390.72   89.97
  -1  -8   1 3275.06   82.33
  -1  -8   1 3310.43   95.56
   1   8  -1 3184.03   82.26
   1   8  -1 3415.37  104.34
   1   8  -1 3387.55   90.46
   1   8  -1 3317.69   92.91
   1   8   0 2451.43   76.10
  -1  -8   0 2471.93   73.74
  -1  -8   0 2434.64   86.35
   1   8   0 2428.58   89.67
   1   8   0 2332.80   73.12
   1   8   0 2310.24   66.88
   1   8   0 2454.78   98.54
   1   8   1 7769.88  168.97
  -1  -8  -1 7912.90  141.69
   1   8   1 7882.53  156.17
   1   8   1 7874.07  148.23
   1   8   1 7730.52  153.37
  -1  -8  -2 3379.67   85.69
   1   8   2 3400.87   84.73
  -1  -8  -2 3298.59   79.09
   1   8   2 3366.17   99.85
   1   8   2 3441.78   90.11
   1   8   2 2936.64   84.96
  -1  -8  -3 6594.48  113.38
   1   8   3 6671.03  118.95
  -1  -8  -3 6714.08  125.96
   1   8   3 6707.36  127.72
   1   8   3 6183.98  115.74
  -1  -8  -4  199.97   26.56
   1   8   4  149.37   27.26
  -1  -8  -4  155.83   23.07
   1   8   4  149.18   30.80
  -1  -8  -4  185.21   25.71
   1   8   4  150.79   24.18
   1   8   4  184.94   25.08
   1   8   4  128.08   24.74
  -1  -8  -5 1301.47   50.85
   1   8   5 1242.43   54.26
  -1  -8  -5 1358.45   51.35
   1   8   5 1346.45   57.96
  -1  -8  -5 1302.47   52.21
   1   8   5 1322.13   54.33
   1   8   5 1285.33   50.52
  -1  -8  -6   11.43   14.89
   1   8   6   13.26   19.93
  -1  -8  -6   15.37   21.94
   1   8   6   27.28   27.76
  -1  -8  -6   18.27   15.23
   1   8   6   31.98   21.89
   1   8   6   22.19   23.60
  -1  -8  -7  173.84   24.77
   1   8   7  197.04   28.51
  -1  -8  -7  195.83   29.58
   1   8   7  171.56   29.83
  -1  -8  -7  167.37   27.94
   1   8   7  223.01   32.31
   1   8   7  193.42   27.44
  -1  -8  -8   47.28   25.47
   1   8   8   39.82   23.58
  -1  -8  -8   59.46   21.12
   1   8   8   53.45   28.66
  -1  -8  -8   61.27   22.46
   1   8   8   31.79   21.95
   1   8   8   55.32   17.95
   1   8   9 1176.59   49.54
  -1  -8  -9 1217.30   54.31
   1   8   9 1273.30   58.08
  -1  -8  -9 1111.03   52.02
   1   8   9 1164.35   50.62
   1   8   9 1068.00   60.44
   1   8  10  193.29   30.75
   1   8  10  230.11   37.58
  -1  -8 -10  169.68   26.51
   1   8  10  164.23   29.28
   1   8  10  172.05   31.39
   1   8  11 6755.36  130.78
   1   8  11 6967.16  143.18
  -1  -8 -11 6462.37  135.82
   1   8  11 6875.27  136.28
   1   8  11 6373.03  156.84
   1   8  12  477.19   41.14
   1   8  12  529.48   46.35
  -1  -8 -12  437.29   38.36
   1   8  12  463.02   38.09
   1   8  12  458.71   39.19
   1   8  12  416.70   33.21
   1   8  13 1381.77   55.92
  -1  -8 -13 1385.56   51.91
   1   8  13 1342.56   62.27
  -1  -8 -13 1292.55   54.35
   1   8  13 1303.13   54.90
   1   8  13 1297.07   57.54
   1   8  14  532.34   42.05
  -1  -8 -14  499.54   41.13
   1   8  14  504.72   46.19
  -1  -8 -14  568.35   42.05
   1   8  14  588.27   40.89
   1   8  14  585.81   43.09
   1   8  15   11.11   30.82
  -1  -8 -15   20.77   29.37
  -1  -8 -15   35.78   27.74
   1   8  15   21.02   24.89
   1   8  15   37.33   31.61
   1   8  16  427.18   41.11
  -1  -8 -16  428.86   38.82
  -1  -8 -16  463.53   40.60
   1   8  16  445.50   40.29
   1   8  16  472.88   43.06
   1   8  17 3724.80  106.83
  -1  -8 -17 3649.32  104.14
  -1  -8 -17 3598.36  102.75
   1   8  17 3527.89   87.22
   1   8  17 3624.88   94.43
   1   8  18 1759.29   85.93
  -1  -8 -18 1770.01   73.14
   1   8  18 1828.44   72.25
   1   8  18 1850.85   72.99
  -1  -9  17  789.29   49.93
   1   9 -17  776.54   56.80
   1   9 -17  770.64   56.21
  -1  -9  17  766.64   62.96
  -1  -9  16 1730.84   65.08
   1   9 -16 1719.24   68.34
   1   9 -16 1733.27   72.19
  -1  -9  15  -21.41   29.41
   1   9 -15    5.97   27.97
   1   9 -15   19.17   32.09
  -1  -9  15   17.97   33.90
  -1  -9  14  553.06   44.10
   1   9 -14  523.94   51.86
   1   9 -14  555.26   45.14
  -1  -9  14  607.58   44.35
  -1  -9  13  821.36   48.26
   1   9 -13  848.86   53.01
   1   9 -13  742.06   49.28
  -1  -9  13  820.19   49.49
   1   9 -1214286.13  233.76
   1   9 -1215043.88  250.64
  -1  -9  1214894.03  242.16
   1   9 -11  332.68   39.39
  -1  -9  11  363.30   37.11
   1   9 -11  356.58   40.22
  -1  -9  11  327.87   37.28
   1   9 -10 6216.75  117.02
  -1  -9  10 5963.79  113.79
   1   9 -10 6254.97  125.05
  -1  -9  10 6292.92  125.79
   1   9  -9 1197.11   53.70
   1   9  -9 1124.69   57.73
  -1  -9   9 1219.35   51.41
   1   9  -8 2556.23   71.76
   1   9  -8 2611.16   78.28
  -1  -9   8 2554.86   72.97
   1   9  -7  507.76   39.20
   1   9  -7  435.12   37.82
  -1  -9   7  485.84   38.84
   1   9  -7  448.36   36.63
   1   9  -6   -3.84   33.71
   1   9  -6   -3.78   24.11
   1   9  -6  -11.58   35.12
   1   9  -6  -16.53   24.86
  -1  -9   6   20.43   21.88
   1   9  -6   13.02   19.07
   1   9  -5  914.04   49.85
   1   9  -5 1016.02   49.67
  -1  -9   5 1028.82   49.03
   1   9  -5 1079.70   62.26
   1   9  -5 1049.37   46.69
  -1  -9   5 1115.21   46.06
   1   9  -5 1076.56   48.29
   1   9  -4 3744.52  103.99
   1   9  -4 4257.28   94.19
  -1  -9   4 4129.76   93.68
   1   9  -4 4173.41  109.08
   1   9  -4 4138.42  107.86
  -1  -9   4 4290.97   90.09
   1   9  -4 4185.34   90.75
   1   9  -315402.44  223.43
   1   9  -315456.12  210.48
  -1  -9   315368.97  199.63
   1   9  -315958.49  235.15
   1   9  -315532.22  204.19
  -1  -9   314807.81  186.84
   1   9  -315967.37  212.49
   1   9  -212958.03  219.82
   1   9  -213199.32  184.02
  -1  -9   213149.40  182.86
   1   9  -213513.40  205.47
   1   9  -213450.47  188.91
   1   9  -213253.24  181.19
   1   9  -1    4.65   21.32
  -1  -9   1   13.66   21.24
   1   9  -1  -10.27   24.63
   1   9  -1   12.19   23.35
  -1  -9   1   10.51   21.64
   1   9  -1    6.72   18.10
   1   9   0 4014.57   91.24
  -1  -9   0 3996.81   86.65
   1   9   0 4109.87  105.03
   1   9   0 3966.17   97.75
  -1  -9   0 4001.10   85.13
   1   9   0 3889.75   83.79
  -1  -9  -125339.89  390.99
   1   9   125493.05  393.63
  -1  -9  -126093.33  233.12
   1   9   127159.46  269.67
   1   9   126467.58  225.02
   1   9   125986.59  392.46
  -1  -9  -2 6047.94  120.98
   1   9   2 6513.87  127.69
  -1  -9  -2 6261.24  119.11
   1   9   2 6635.35  133.88
   1   9   2 6230.91  114.79
   1   9   2 6245.93  133.07
  -1  -9  -3  293.22   30.61
   1   9   3  252.76   30.99
  -1  -9  -3  281.86   29.90
   1   9   3  248.91   29.83
  -1  -9  -4 5217.77  119.83
   1   9   4 5506.52  113.57
  -1  -9  -4 5411.83  106.50
   1   9   4 5301.23  111.49
  -1  -9  -5  260.58   31.60
   1   9   5  266.96   31.05
  -1  -9  -5  242.09   28.03
   1   9   5  241.99   38.91
  -1  -9  -5  254.15   29.04
   1   9   5  272.20   30.83
   1   9   5  281.19   30.10
  -1  -9  -6  978.47   51.10
   1   9   6  975.86   48.21
  -1  -9  -6 1082.78   47.29
   1   9   6 1036.74   53.10
  -1  -9  -6 1094.30   47.45
   1   9   6 1069.36   49.09
   1   9   6 1042.04   49.57
   1   9   7 7128.42  145.99
  -1  -9  -7 7428.84  151.44
   1   9   7 7019.01  155.29
  -1  -9  -7 7078.19  149.84
   1   9   7 7279.06  152.15
   1   9   7 7056.42  142.43
   1   9   8 1647.75   57.57
  -1  -9  -8 1728.49   57.13
   1   9   8 1573.52   60.60
  -1  -9  -8 1647.79   59.86
   1   9   8 1631.03   59.08
   1   9   8 1559.93   58.23
   1   9   9 8604.31  159.46
  -1  -9  -9 8834.16  144.39
   1   9   9 8857.57  165.02
  -1  -9  -9 8818.67  155.98
   1   9   9 8560.18  152.60
   1   9   9 8266.37  143.72
   1   9  10 8121.68  148.33
  -1  -9 -10 7540.13  144.18
  -1  -9 -10 7870.41  143.66
   1   9  10 8025.46  144.29
   1   9  10 7651.93  143.22
   1   9  11 5058.55  107.09
   1   9  11 5423.64  113.94
  -1  -9 -11 4881.49  100.72
   1   9  11 5220.19  107.28
   1   9  11 4905.77  121.74
   1   9  11 5004.87  106.34
   1   9  12  376.63   38.10
   1   9  12  478.31   44.70
  -1  -9 -12  459.30   40.28
   1   9  12  404.52   39.28
   1   9  12  441.20   40.13
   1   9  12  396.39   39.11
   1   9  13  462.02   43.80
   1   9  13  459.37   44.06
  -1  -9 -13  433.91   38.00
   1   9  13  460.19   41.65
   1   9  13  486.64   40.92
   1   9  14   63.50   31.43
  -1  -9 -14   50.00   23.23
   1   9  14   24.53   34.91
  -1  -9 -14   73.00   35.90
   1   9  14    8.77   25.89
   1   9  14   68.81   36.57
   1   9  15  566.68   45.31
  -1  -9 -15  583.51   41.69
  -1  -9 -15  580.68   42.75
   1   9  15  630.77   38.36
   1   9  15  574.58   44.37
   1   9  16   58.15   41.48
  -1  -9 -16   58.45   29.03
  -1  -9 -16   61.08   34.89
   1   9  16   45.10   28.43
   1   9  16   67.37   28.84
  -1  -9 -17  384.44   41.03
   1   9  17  353.26   37.55
   1   9  17  409.99   44.80
  -1 -10  16 1937.39   77.23
   1  10 -16 1902.84   93.33
   1  10 -16 1766.42   77.77
  -1 -10  15   34.71   29.34
   1  10 -15   29.61   35.98
   1  10 -15   44.79   33.36
  -1 -10  14 3252.91   84.05
   1  10 -14 3087.71   93.47
   1  10 -14 3043.94  102.64
  -1 -10  14 3110.55   86.19
  -1 -10  13 1213.41   50.75
   1  10 -13 1172.06   62.50
   1  10 -13 1297.55   63.01
  -1 -10  13 1278.13   56.69
   1  10 -12  402.31   40.51
   1  10 -12  404.28   47.47
  -1 -10  12  397.19   45.04
   1  10 -12  362.95   40.90
  -1 -10  12  389.34   42.71
   1  10 -11 8342.01  157.84
  -1 -10  11 8303.42  163.60
   1  10 -11 8094.52  167.19
  -1 -10  11 8263.28  157.40
   1  10 -10  345.84   32.47
  -1 -10  10  404.57   39.95
   1  10 -10  403.24   42.07
  -1 -10  10  359.77   39.12
   1  10  -9 4668.31   95.85
  -1 -10   9 4557.35   96.69
   1  10  -9 4555.51   98.23
  -1 -10   9 4605.06   92.32
   1  10  -8 9013.54  161.17
   1  10  -8 9018.42  159.91
  -1 -10   8 8951.55  156.86
   1  10  -7  384.06   38.49
   1  10  -7  457.44   35.70
  -1 -10   7  403.46   38.00
   1  10  -7  433.84   35.53
   1  10  -6  432.15   40.89
   1  10  -6  382.80   51.40
   1  10  -6  412.81   37.34
  -1 -10   6  436.57   35.97
   1  10  -6  376.88   34.53
   1  10  -5   29.57   25.31
  -1 -10   5   36.36   23.96
   1  10  -5   25.35   29.28
   1  10  -5   67.26   34.03
  -1 -10   5   35.14   17.74
   1  10  -5   45.24   26.12
   1  10  -4 3017.83   84.16
  -1 -10   4 2904.47   79.96
   1  10  -4 3009.09   89.71
   1  10  -4 2996.50   77.36
  -1 -10   4 3019.39   78.94
   1  10  -4 3046.67   77.84
   1  10  -3   61.23   26.85
  -1 -10   3   91.66   23.52
   1  10  -3   80.53   30.86
   1  10  -3   63.43   25.76
   1  10  -3   48.26   26.27
   1  10  -212152.57  238.14
  -1 -10   212021.69  230.68
   1  10  -212306.18  249.84
   1  10  -212261.44  238.61
   1  10  -212400.32  234.04
   1  10  -1 6237.87  142.78
  -1 -10   1 6011.57  139.37
   1  10  -1 6519.73  159.56
   1  10  -1 6369.54  150.50
  -1 -10   1 6118.17  133.35
   1  10  -1 6256.65  141.45
   1  10   0 3515.06   88.10
  -1 -10   0 3375.75   83.27
   1  10   0 3530.23   94.31
   1  10   0 3553.47   86.92
  -1 -10   0 3393.77   79.17
   1  10   0 3399.47   81.42
   1  10   1 1113.20   47.71
  -1 -10  -1 1135.72   51.55
   1  10   1 1100.64   55.43
   1  10   1 1103.01   49.90
  -1 -10  -1 1116.71   46.41
   1  10   1 1126.59   51.33
   1  10   2  584.21   41.51
  -1 -10  -2  562.12   35.11
   1  10   2  615.51   44.65
  -1 -10  -2  527.50   36.19
   1  10   3 9168.15  191.85
  -1 -10  -3 9314.10  185.82
   1  10   3 8772.86  192.83
   1  10   3 9250.19  202.35
   1  10   4 2809.75   78.71
  -1 -10  -4 2874.28   80.90
   1  10   4 2897.18   77.25
   1  10   5 3607.00   87.34
  -1 -10  -5 3748.09   85.28
   1  10   5 3404.97   89.59
   1  10   5 3558.57   87.09
   1  10   6 5655.34  111.01
  -1 -10  -6 5810.41  109.99
   1  10   6 5768.66  116.66
   1  10   6 5628.02  106.88
   1  10   6 5628.55  105.47
   1  10   7 5387.99  110.99
  -1 -10  -7 5366.49  100.36
   1  10   7 5040.29  107.92
  -1 -10  -7 5282.86  105.74
   1  10   7 5268.66  100.57
   1  10   7 5381.63  100.56
   1  10   8 1593.36   61.75
  -1 -10  -8 1640.48   58.20
   1  10   8 1471.74   64.59
  -1 -10  -8 1563.29   61.30
   1  10   8 1593.70   59.93
   1  10   8 1519.01   56.09
   1  10   9 1304.81   56.52
  -1 -10  -9 1441.90   58.07
   1  10   9 1498.42   63.48
  -1 -10  -9 1374.18   59.11
   1  10   9 1252.33   54.22
   1  10   9 1259.64   53.52
   1  10  10  540.57   40.57
  -1 -10 -10  540.13   37.94
   1  10  10  440.49   45.27
  -1 -10 -10  557.90   40.06
   1  10  10  564.51   42.22
   1  10  10  466.81   38.64
   1  10  10  476.39   40.50
   1  10  11  901.04   50.05
   1  10  11  962.14   52.74
  -1 -10 -11  920.90   47.02
   1  10  11  981.63   51.51
   1  10  11 1037.14   55.50
   1  10  11  962.88   49.71
   1  10  12  109.90   30.45
   1  10  12   84.35   40.70
  -1 -10 -12   85.06   28.95
   1  10  12   89.68   31.30
   1  10  12   98.87   33.65
   1  10  13 1453.44   62.16
   1  10  13 1429.34   63.95
  -1 -10 -13 1358.44   62.16
   1  10  13 1406.79   56.37
   1  10  13 1486.03   59.51
   1  10  14  285.60   43.62
   1  10  14  286.38   44.36
  -1 -10 -14  316.21   40.37
   1  10  14  321.34   36.16
   1  10  14  343.20   38.57
  -1 -10 -15    9.89   29.06
   1  10  15   20.68   30.99
   1  10  15   33.87   31.05
  -1 -10 -16 6080.22  131.84
   1  10  16 6065.10  115.26
   1  10  16 6175.24  125.14
  -1 -11  15  151.79   34.93
   1  11 -15  152.96   40.55
   1  11 -15  141.10   43.49
  -1 -11  14  244.28   36.02
   1  11 -14  241.04   46.70
   1  11 -14  270.10   46.81
  -1 -11  14  250.60   49.34
  -1 -11  13 1826.14   64.62
   1  11 -13 1831.35   72.25
   1  11 -13 1797.56   68.61
  -1 -11  13 1865.99   71.02
   1  11 -12  831.50   56.88
  -1 -11  12  770.24   49.71
   1  11 -12  780.55   50.48
  -1 -11  12  756.98   49.19
   1  11 -11  609.59   50.47
  -1 -11  11  627.40   44.00
   1  11 -11  672.77   48.68
  -1 -11  11  668.03   44.44
   1  11 -10 3610.75  103.31
  -1 -11  10 3450.38  102.72
   1  11 -10 3869.45  117.25
  -1 -11  10 3932.56  109.55
   1  11  -9  399.66   39.81
  -1 -11   9  459.45   41.57
   1  11  -9  446.65   39.10
  -1 -11   9  438.65   40.33
   1  11  -8 2362.05   79.89
   1  11  -8 2483.59   75.62
  -1 -11   8 2471.40   74.19
   1  11  -7 5204.25  102.17
   1  11  -7 5125.93  112.25
  -1 -11   7 5287.89  101.41
   1  11  -7 5135.17  115.59
   1  11  -6 1796.41   87.11
   1  11  -6 1949.22   66.66
  -1 -11   6 1902.62   59.36
   1  11  -6 1771.45   63.61
   1  11  -5 1503.45   58.01
  -1 -11   5 1439.07   57.56
   1  11  -5 1537.73   74.78
   1  11  -5 1578.45   59.08
  -1 -11   5 1496.11   55.56
   1  11  -5 1463.44   60.27
   1  11  -4 7345.33  137.54
  -1 -11   4 7155.88  136.16
   1  11  -4 7568.74  163.54
   1  11  -4 7558.01  146.62
   1  11  -4 7347.05  138.15
   1  11  -3    3.69   24.06
  -1 -11   3   34.03   25.72
   1  11  -3   40.98   35.12
   1  11  -3   57.32   27.16
   1  11  -3   26.15   21.07
   1  11  -2 1609.03   61.13
  -1 -11   2 1680.50   59.82
   1  11  -2 1690.01   73.19
   1  11  -2 1633.07   60.43
  -1 -11   2 1591.63   56.22
   1  11  -2 1606.42   58.21
   1  11  -1 5956.93  129.77
  -1 -11   1 6032.94  126.02
   1  11  -1 6278.20  144.35
   1  11  -1 6250.42  139.40
  -1 -11   1 5970.51  124.27
   1  11  -1 5928.70  124.63
   1  11   011025.50  202.19
  -1 -11   011261.61  195.76
   1  11   011884.45  228.65
   1  11   011344.32  201.80
  -1 -11   011008.75  190.34
   1  11   010458.84  187.48
   1  11   1 9698.42  183.79
  -1 -11  -1 9664.78  182.72
   1  11   1 9805.46  196.01
   1  11   1 9696.66  175.82
  -1 -11  -1 9491.05  166.90
   1  11   2 1648.94   60.27
  -1 -11  -2 1600.61   58.24
   1  11   2 1641.13   69.81
   1  11   2 1566.59   59.09
  -1 -11  -2 1527.71   54.25
   1  11   3  343.87   35.79
  -1 -11  -3  327.70   34.55
   1  11   3  316.94   40.21
  -1 -11  -3  299.25   32.34
   1  11   4   28.26   26.64
  -1 -11  -4   55.72   27.41
  -1 -11  -4   59.90   26.58
   1  11   5 1402.55   57.88
  -1 -11  -5 1383.33   52.09
   1  11   5 1450.29   51.12
   1  11   6 1018.10   53.05
  -1 -11  -6 1119.81   52.15
   1  11   6 1032.87   58.15
   1  11   6 1044.32   49.04
   1  11   7 4543.87  103.15
  -1 -11  -7 4649.86   93.65
   1  11   7 4588.12  106.39
   1  11   7 4456.60   97.65
   1  11   7 4547.21   94.50
   1  11   8 4234.31  100.59
  -1 -11  -8 4598.75   96.84
   1  11   8 4511.95  105.75
   1  11   8 4462.41  105.72
   1  11   8 4195.79   89.89
   1  11   9 9088.91  178.73
  -1 -11  -9 9342.29  167.94
   1  11   9 9244.02  175.13
   1  11   9 8668.31  165.27
   1  11   9 8676.61  167.92
   1  11  10  861.11   51.26
  -1 -11 -10  960.67   46.35
   1  11  10 1006.88   57.97
   1  11  10  983.73   51.12
   1  11  10 1002.89   50.02
   1  11  10  950.34   45.99
   1  11  11  553.50   47.05
  -1 -11 -11  589.80   37.17
   1  11  11  571.13   42.45
   1  11  11  593.06   45.31
   1  11  11  593.96   37.96
   1  11  12  556.19   48.33
   1  11  12  605.19   48.17
   1  11  12  656.37   42.95
   1  11  12  646.51   47.39
   1  11  13  567.84   48.88
   1  11  13  550.28   44.53
   1  11  13  564.52   45.11
   1  11  14  166.70   45.50
   1  11  14  121.96   35.54
   1  11  14  127.18   27.04
  -1 -11 -15 1433.31   71.13
   1  11  15 1575.53   62.46
   1  11  15 1595.32   65.08
  -1 -12  14   36.08   32.51
   1  12 -14   14.73   44.13
   1  12 -14   37.55   45.39
  -1 -12  14    6.99   41.02
  -1 -12  13   20.53   32.12
   1  12 -13   37.96   39.59
   1  12 -13    8.70   37.94
  -1 -12  13    3.16   37.24
  -1 -12  12 1256.00   57.43
   1  12 -12 1293.83   68.49
  -1 -12  12 1292.30   65.40
   1  12 -12 1245.61   63.45
  -1 -12  12 1281.96   56.46
   1  12 -11 2887.14   84.92
   1  12 -11 2928.88   97.00
  -1 -12  11 2899.40   99.22
   1  12 -11 2931.64   89.51
  -1 -12  11 2990.92   85.36
   1  12 -10   76.73   33.32
  -1 -12  10   60.23   33.28
   1  12 -10   96.71   35.83
  -1 -12  10   44.19   29.92
   1  12  -9   48.58   35.84
  -1 -12   9    2.76   29.04
   1  12  -9   -2.09   33.56
  -1 -12   9   11.56   32.53
   1  12  -8  -27.47   26.56
  -1 -12   8   20.71   32.76
  -1 -12   8   29.00   27.96
   1  12  -7  239.47   37.46
   1  12  -7  220.29   37.21
  -1 -12   7  244.92   34.29
   1  12  -7  235.11   35.60
   1  12  -6  123.17   31.21
   1  12  -6  144.06   53.01
   1  12  -6  178.11   34.40
  -1 -12   6  122.40   29.64
   1  12  -6  115.36   33.47
   1  12  -5 3583.25   88.54
  -1 -12   5 3443.96   96.04
   1  12  -5 3528.05  107.49
   1  12  -5 3570.27   87.72
  -1 -12   5 3367.46   81.61
   1  12  -5 3659.22   90.62
   1  12  -4  226.87   32.41
  -1 -12   4  206.94   32.48
   1  12  -4  191.16   50.73
   1  12  -4  214.15   27.41
   1  12  -4  210.69   33.78
   1  12  -3 3418.91   90.95
  -1 -12   3 3378.66   81.20
   1  12  -3 3550.83  109.62
   1  12  -3 3412.41   85.25
   1  12  -3 3510.11   83.54
   1  12  -2 1813.71   66.74
  -1 -12   2 1827.17   65.55
   1  12  -2 1856.35   71.73
   1  12  -2 1848.72   62.40
  -1 -12   2 1927.94   60.97
   1  12  -2 1726.15   57.63
   1  12  -1 4159.33  123.87
  -1 -12   1 4313.17   94.99
   1  12  -1 4503.30  112.50
   1  12  -1 4317.87   95.90
  -1 -12   1 4370.26   86.46
   1  12  -1 3964.67   89.86
   1  12   017389.35  258.77
  -1 -12   017731.03  238.58
   1  12   018597.49  276.00
   1  12   018273.67  243.70
  -1 -12   018035.28  237.90
   1  12   110571.05  224.71
  -1 -12  -111288.34  178.55
   1  12   111236.19  189.99
   1  12   111455.52  181.24
  -1 -12  -111168.18  171.76
   1  12   2 6390.61  128.78
  -1 -12  -2 6357.86  120.50
   1  12   2 6640.29  148.04
   1  12   2 6397.57  122.81
  -1 -12  -2 6435.34  121.19
   1  12   3 1748.35   64.93
  -1 -12  -3 1823.06   60.26
   1  12   3 1853.13   69.02
   1  12   3 1854.27   62.37
  -1 -12  -3 1751.95   61.63
   1  12   4  794.71   46.61
  -1 -12  -4  834.21   46.86
   1  12   4  787.04   48.36
  -1 -12  -4  782.59   44.42
   1  12   5  263.14   36.75
  -1 -12  -5  249.66   31.23
  -1 -12  -5  245.09   32.91
   1  12   6 3900.16   98.15
  -1 -12  -6 3976.63   90.34
   1  12   6 3465.95   97.31
  -1 -12  -6 3933.33   94.88
   1  12   7 4149.95  100.18
  -1 -12  -7 4273.46   98.96
   1  12   7 4158.50  102.76
  -1 -12  -7 4057.18  122.94
   1  12   8  198.12   40.93
  -1 -12  -8  215.82   34.00
   1  12   8  212.74   39.04
   1  12   8  182.43   34.44
  -1 -12  -8  171.27   33.65
   1  12   8  205.70   27.28
  -1 -12  -9 1312.50   55.37
   1  12   9 1356.62   63.40
   1  12   9 1256.99   52.70
  -1 -12  -9 1237.57   80.91
   1  12   9 1224.43   56.90
  -1 -12 -10  506.74   41.61
   1  12  10  525.98   47.18
   1  12  10  527.95   44.69
  -1 -12 -10  507.55   60.57
   1  12  10  524.85   41.50
  -1 -12 -11   11.21   20.74
   1  12  11   -1.68   38.42
   1  12  11   26.96   29.61
   1  12  11   23.35   23.44
  -1 -12 -12   -7.12   28.74
   1  12  12    6.84   35.73
   1  12  12   13.58   29.86
   1  12  12   -4.34   30.38
   1  12  13 2285.73   88.11
   1  12  13 2273.15   76.19
   1  12  13 2324.08   73.86
   1  12  14 2059.27   97.89
   1  12  14 2138.61   79.98
   1  12  14 2183.91   78.57
  -1 -13  12  540.91   51.94
   1  13 -12  535.32   60.23
  -1 -13  12  559.51   50.46
   1  13 -12  489.36   50.09
  -1 -13  12  554.65   48.99
  -1 -13  11 1086.31   54.36
   1  13 -11 1113.33   66.88
  -1 -13  11 1156.98   55.77
   1  13 -11 1105.26   57.59
  -1 -13  11 1096.07   54.22
   1  13 -10  446.58   41.60
   1  13 -10  464.67   53.36
  -1 -13  10  429.65   43.48
   1  13 -10  412.19   47.38
  -1 -13  10  417.30   41.38
   1  13  -9   20.54   31.70
   1  13  -9  -43.73   41.24
  -1 -13   9   34.21   34.72
   1  13  -9  -16.97   34.06
  -1 -13   9   13.10   30.96
   1  13  -8  509.84   45.33
  -1 -13   8  525.22   44.33
   1  13  -8  595.80   50.05
  -1 -13   8  551.48   37.84
   1  13  -7  201.43   36.70
  -1 -13   7  221.47   37.77
   1  13  -7  229.20   41.92
  -1 -13   7  270.94   39.59
   1  13  -6 2985.07   92.37
   1  13  -6 3051.72   83.22
  -1 -13   6 3031.45   76.13
   1  13  -6 3041.17   84.31
   1  13  -5 5614.41  142.69
   1  13  -5 5683.76  168.29
   1  13  -5 5419.82  133.01
   1  13  -5 4980.25  144.26
   1  13  -4 1945.36   66.12
  -1 -13   4 1955.23   67.83
   1  13  -4 1967.95   89.87
   1  13  -4 1904.26   66.57
   1  13  -4 1880.84   61.02
   1  13  -3 3842.82   91.30
  -1 -13   3 3770.71   92.94
   1  13  -3 3873.13  109.69
   1  13  -3 3836.74   89.79
  -1 -13   3 3712.74   80.04
   1  13  -3 3832.70   89.90
   1  13  -2  921.51   49.08
  -1 -13   2  931.07   49.31
   1  13  -2  915.54   64.11
   1  13  -2 1012.55   47.67
  -1 -13   2  996.20   47.94
   1  13  -2  853.72   46.78
   1  13  -1  -16.64   30.24
  -1 -13   1    1.91   29.30
   1  13  -1   27.66   38.81
   1  13  -1    8.69   34.02
  -1 -13   1    2.69   31.18
   1  13   0 3156.80   87.84
  -1 -13   0 3052.96   83.56
   1  13   0 3026.06   93.33
   1  13   0 3292.22   85.89
  -1 -13   0 3252.51   79.38
   1  13   1  283.11   35.69
  -1 -13  -1  325.89   34.97
   1  13   1  352.92   48.51
   1  13   1  289.41   37.86
  -1 -13  -1  270.28   34.34
   1  13   2  410.18   41.23
  -1 -13  -2  418.60   37.50
   1  13   2  408.64   49.26
   1  13   2  374.58   33.14
  -1 -13  -2  378.43   36.88
   1  13   3  304.81   41.90
  -1 -13  -3  283.20   33.68
   1  13   3  284.81   44.96
   1  13   3  338.15   39.58
  -1 -13  -3  309.80   36.47
  -1 -13  -4 7626.90  146.13
   1  13   4 7797.64  174.28
   1  13   4 7789.22  152.44
  -1 -13  -4 7763.48  143.97
  -1 -13  -5 1208.64   51.28
  -1 -13  -5 1204.59   50.91
  -1 -13  -6 1225.13   51.74
  -1 -13  -6 1123.45   49.82
  -1 -13  -7 1731.23   60.73
   1  13   7 1712.46   74.38
  -1 -13  -7 1556.20   58.19
   1  13   7 1666.47   61.13
  -1 -13  -8  412.86   40.94
   1  13   8  415.50   49.24
  -1 -13  -8  388.59   45.99
   1  13   8  481.37   39.20
  -1 -13  -9  220.94   32.31
   1  13   9  193.79   45.49
   1  13   9  210.10   36.63
  -1 -13  -9  239.85   39.71
   1  13   9  226.33   35.41
  -1 -13 -10  302.25   35.01
   1  13  10  385.40   47.67
   1  13  10  308.92   36.47
   1  13  10  335.25   35.10
  -1 -13 -11   15.92   28.86
   1  13  11   10.48   36.06
   1  13  11   27.32   32.51
   1  13  11   -7.23   33.07
  -1 -13 -12  104.40   30.66
   1  13  12   46.39   47.72
   1  13  12  128.94   33.08
   1  13  12   96.38   34.95
  -1 -14  11 1779.11   77.45
  -1 -14  11 1853.11   77.06
  -1 -14  10  340.05   42.96
   1  14 -10  333.30   44.00
  -1 -14  10  345.99   40.38
  -1 -14   9   25.22   40.15
   1  14  -9   15.44   35.41
  -1 -14   9   22.05   29.47
   1  14  -8  229.72   45.73
  -1 -14   8  283.86   36.61
   1  14  -8  235.42   38.25
  -1 -14   8  229.60   36.53
   1  14  -7 1196.47   60.11
  -1 -14   7 1264.21   57.97
   1  14  -7 1288.05   61.29
  -1 -14   7 1231.64   62.28
   1  14  -6 4650.13  110.26
   1  14  -6 4880.38  104.23
  -1 -14   6 4560.15  100.93
   1  14  -5  119.33   34.76
   1  14  -5   80.17   33.82
   1  14  -5  117.24   34.27
   1  14  -4  108.05   36.32
   1  14  -4  116.03   50.99
   1  14  -4  130.66   32.03
   1  14  -4  157.71   32.73
   1  14  -3  953.85   53.87
  -1 -14   3  968.99   53.85
   1  14  -3 1029.93   67.00
   1  14  -3 1008.85   56.84
  -1 -14   3  994.52   49.84
   1  14  -3  933.29   49.38
  -1 -14   2  555.15   44.37
   1  14  -2  592.71   62.73
   1  14  -2  638.54   45.99
  -1 -14   2  619.84   42.13
  -1 -14   1  390.86   41.44
   1  14  -1  411.30   53.75
   1  14  -1  418.74   34.37
  -1 -14   1  481.44   38.21
  -1 -14   0  793.57   46.21
   1  14   0  752.00   53.09
   1  14   0  772.27   47.54
  -1 -14   0  786.38   45.79
  -1 -14  -1 1414.77   56.49
   1  14   1 1396.96   64.87
   1  14   1 1469.67   65.12
  -1 -14  -1 1415.16   55.72
  -1 -14  -2  165.38   49.93
   1  14   2  174.89   46.74
   1  14   2  148.44   36.28
  -1 -14  -2  187.29   34.22
  -1 -14  -3 2973.30   82.75
   1  14   3 2998.30   96.03
   1  14   3 2960.29  132.44
  -1 -14  -3 2915.73   81.38
  -1 -14  -4 2748.60   81.46
   1  14   4 2822.24   91.49
   1  14   4 2758.78   76.88
  -1 -14  -4 2884.21   88.75
  -1 -14  -5   72.63   34.39
   1  14   5   65.32   42.17
   1  14   5   48.81   30.45
  -1 -14  -5   57.94   26.11
  -1 -14  -6 1601.13   58.44
  -1 -14  -6 1483.43   76.15
   1  14   6 1610.94   60.11
  -1 -14  -7 2158.30   69.78
  -1 -14  -7 1830.88   98.65
   1  14   7 2102.89   70.54
  -1 -14  -8  491.69   46.34
   1  14   8  466.87   48.20
  -1 -14  -8  493.94   58.04
   1  14   8  464.05   40.67
  -1 -14  -9  480.09   39.18
   1  14   9  520.00   49.73
   1  14   9  522.50   38.56
  -1 -14 -10    1.08   30.46
   1  14  10   41.78   46.00
   1  14  10   11.83   31.39
   1  14  10  -13.70   32.69
  -1 -15   8 1305.03   57.93
   1  15  -8 1268.51   66.44
  -1 -15   8 1361.64   64.46
  -1 -15   7  507.95   44.69
   1  15  -7  517.31   44.84
  -1 -15   7  542.47   41.95
   1  15  -6 1301.95   66.27
  -1 -15   5  200.53   38.52
   1  15  -5  187.90   40.65
  -1 -15   4 1126.00   54.26
   1  15  -4 1122.67   56.32
  -1 -15   4 1157.87   53.44
   1  15  -4 1001.73   51.02
  -1 -15   3 2909.38   78.91
   1  15  -3 2986.71  110.20
   1  15  -3 2984.40   82.87
  -1 -15   3 2808.61   75.95
  -1 -15   2  168.15   34.91
   1  15  -2  164.95   51.92
   1  15  -2  162.80   36.20
  -1 -15   2  169.89   34.23
  -1 -15   1  318.72   43.21
   1  15  -1  326.18   52.15
   1  15  -1  304.94   45.06
  -1 -15   1  347.39   34.82
  -1 -15   0 1492.52   66.82
   1  15   0 1508.83   72.83
   1  15   0 1526.18   64.44
  -1 -15   0 1559.37   62.96
  -1 -15  -1  680.55   47.43
   1  15   1  807.46   66.58
   1  15   1  746.87   48.59
  -1 -15  -1  809.93   46.27
  -1 -15  -2  133.76   32.39
  -1 -15  -2  168.23   41.76
   1  15   2  154.24   41.33
   1  15   2  117.57   40.11
  -1 -15  -2  127.36   31.03
  -1 -15  -3  241.42   36.13
   1  15   3  216.21   44.42
   1  15   3  207.76   38.44
  -1 -15  -3  219.13   31.45
  -1 -15  -4  172.19   34.10
   1  15   4  226.25   44.36
   1  15   4  201.52   36.55
  -1 -15  -4  213.14   35.35
  -1 -15  -5   32.96   30.95
   1  15   5   33.20   38.13
   1  15   5   27.53   30.36
  -1 -15  -5   30.18   30.53
   1  15   5   57.54   31.32
  -1 -15  -6  751.29   53.11
   1  15   6  717.19   58.27
   1  15   6  768.50   45.37
  -1 -15  -6  744.77   65.05
   1  15   6  768.98   51.57
  -1 -15  -7  509.99   43.28
   1  15   7  520.61   43.00
  -1 -15  -8  564.81   51.54
   1  15   8  622.98   59.66
   1  15   8  574.46   47.25
  -1 -16   4  400.78   42.20
   1  16  -4  409.29   46.68
  -1 -16   4  463.10   39.26
  -1 -16   3 2689.40   84.35
   1  16  -3 2808.28   95.65
  -1 -16   3 2789.84   76.25
  -1 -16   2  219.65   35.98
   1  16  -2  215.76   38.04
  -1 -16   2  215.98   37.28
  -1 -16   1   -6.76   32.75
   1  16  -1   15.20   59.84
   1  16  -1  -15.58   33.64
  -1 -16   1   40.06   28.77
  -1 -16   0  973.56   55.20
   1  16   0 1103.86   85.33
   1  16   0 1042.54   60.92
  -1 -16   0 1091.12   53.72
  -1 -16  -1 1151.63   72.31
   1  16   1 1238.61   72.04
   1  16   1 1213.98   74.73
  -1 -16  -1 1170.53   62.32
  -1 -16  -2  303.83   48.90
   1  16   2  329.54   55.16
   1  16   2  317.08   43.68
  -1 -16  -2  332.16   43.22
   1  16   3  164.73   45.82
   1  16   3  125.65   37.91
  -1 -16  -3  117.44   36.04
   1  16   3   95.52   36.82
  -1 -16  -4 1763.90  184.56
   1  16   4 1879.66  105.85
   1  16   4 1821.71   68.37
  -1 -16  -4 1710.09  105.95
   1  16   4 1851.56   67.51
  -2  14   4  317.25   54.25
  -2  14   3  473.68   58.24
  -2  14   3  439.00   48.01
  -2  14   2  227.02   55.02
  -2  14   2  240.73   44.90
   2 -14  -1   46.99   36.37
   2 -14   0  752.63   42.20
  -2  14   0  683.68   53.20
   2 -14   1  556.15   42.95
  -2  14  -1  530.64  139.07
   2 -14   2    3.97   30.76
  -2  14  -2    9.47   42.00
   2 -14   3 1875.44   63.60
   2 -14   3 1940.13   70.59
   2 -14   3 1890.17   85.55
   2 -14   4  579.84   45.96
   2 -14   4  592.20   43.72
   2 -14   4  506.36   47.44
   2 -14   5 1064.03   58.19
   2 -14   5 1038.20   55.22
   2 -14   5  998.61   55.30
   2 -14   6  669.96   45.74
   2 -14   6  626.98   44.68
   2 -14   6  626.48   45.15
   2 -14   7  219.85   37.15
   2 -14   7  276.01   44.66
   2 -14   7  207.36   38.02
   2 -13  -8  125.21   37.62
  -2  13   8  166.32   45.26
  -2  13   8  136.22   41.96
   2 -13  -7 2020.89   82.56
  -2  13   7 2027.62   81.47
  -2  13   7 2069.61   82.35
   2 -13  -6  317.90   39.10
  -2  13   6  365.85   46.56
  -2  13   6  292.24   41.82
  -2  13   6  317.85   41.55
   2 -13  -5 1009.21   49.43
  -2  13   5  915.87   61.61
  -2  13   5  943.28   52.23
  -2  13   5  888.49   54.22
   2 -13  -4  188.67   31.88
  -2  13   4  246.84   43.65
  -2  13   4  185.25   39.30
  -2  13   4  187.04   36.66
  -2  13   3  273.66   46.65
  -2  13   3  272.37   53.37
  -2  13   3  221.31   36.96
  -2  13   2  572.81   56.77
  -2  13   2  533.91   49.75
  -2  13   2  576.52   46.88
  -2  13   1 2907.38  107.01
  -2  13   1 3001.10   95.86
  -2  13   1 2882.87   87.62
   2 -13   0 4438.59   99.54
  -2  13   0 4420.88  103.98
  -2  13   0 4226.36  245.39
   2 -13   1 1238.28   54.73
   2 -13   1 1221.58   57.99
   2 -13   1 1189.66   70.54
  -2  13  -1 1248.55   75.21
   2 -13   2   12.62   31.09
   2 -13   2   17.78   34.86
   2 -13   2   -4.68   28.87
  -2  13  -2    7.00   31.51
   2 -13   3 1504.98   57.11
   2 -13   3 1438.51   62.21
   2 -13   3 1515.39   63.78
  -2  13  -3 1549.46   65.78
   2 -13   4 2581.93   73.34
   2 -13   4 2603.84   79.78
   2 -13   4 2447.51   73.25
  -2  13  -4 2597.61   91.99
   2 -13   5 1883.55   66.44
   2 -13   5 1912.91   68.49
   2 -13   5 1807.02   67.68
   2 -13   6  383.95   42.09
   2 -13   6  407.87   43.05
   2 -13   6  377.65   40.45
   2 -13   7 1403.38   65.43
   2 -13   7 1331.91   62.55
   2 -13   7 1334.38   58.98
   2 -13   8  242.78   36.16
   2 -13   8  221.10   35.81
   2 -13   8  182.99   39.92
   2 -13   9 1262.22   67.08
   2 -13   9 1202.93   60.08
   2 -13   9 1325.88   59.41
   2 -13  10  772.04   53.09
   2 -13  10  821.25   48.05
   2 -12 -10  950.17   73.11
  -2  12  10 1011.15   58.50
   2 -12  -9  630.36   51.99
  -2  12   9  612.93   54.45
  -2  12   9  581.73   45.61
   2 -12  -8   33.76   31.39
  -2  12   8   94.13   38.57
  -2  12   8   46.25   33.79
  -2  12   8   52.79   37.60
   2 -12  -7 1578.45   61.82
  -2  12   7 1643.89   64.41
  -2  12   7 1615.71   65.27
  -2  12   7 1565.44   67.27
   2 -12  -6    5.98   32.41
  -2  12   6   92.46   29.77
  -2  12   6   59.58   31.01
  -2  12   6   67.34   34.75
   2 -12  -5   71.54   30.69
  -2  12   5   70.75   36.87
  -2  12   5   82.16   32.29
  -2  12   5   60.41   31.35
   2 -12  -4   69.83   31.09
  -2  12   4   68.31   33.54
  -2  12   4   67.31   30.69
  -2  12   4   85.90   30.83
   2 -12  -3  241.49   36.11
  -2  12   3  241.79   43.63
  -2  12   3  288.03   34.75
  -2  12   3  326.55   37.11
  -2  12   2  861.10   58.84
  -2  12   2  799.48   48.02
  -2  12   2  862.54   48.78
  -2  12   1   10.22   36.30
  -2  12   1   57.56   30.49
  -2  12   1   21.13   31.26
  -2  12   0 2460.07   91.95
  -2  12   0 2370.05   74.78
   2 -12   0 2327.55   97.32
  -2  12   0 2492.35   82.45
   2 -12   1 1538.05   57.08
   2 -12   1 1424.55   59.22
  -2  12  -1 1463.24   64.37
   2 -12   1 1378.94   78.42
  -2  12  -1 1531.04   61.89
   2 -12   2  801.87   47.49
   2 -12   2  797.66   50.11
   2 -12   2  802.60   45.65
  -2  12  -2  811.32   48.57
   2 -12   3   27.66   23.27
   2 -12   3   46.13   32.61
   2 -12   3   46.16   28.89
  -2  12  -3   62.58   30.21
   2 -12   4   73.22   28.77
   2 -12   4   75.29   32.18
   2 -12   4   76.98   38.19
  -2  12  -4  107.01   36.46
   2 -12   5  126.35   32.36
   2 -12   5   62.10   36.79
   2 -12   5   93.35   29.99
  -2  12  -5  112.88   31.63
   2 -12   6  194.78   33.23
   2 -12   6  177.78   36.60
   2 -12   6  181.45   28.60
   2 -12   7   18.76   34.24
   2 -12   7   58.58   33.23
   2 -12   7   16.69   23.58
   2 -12   8 2354.31   73.70
   2 -12   8 2467.17   74.17
   2 -12   8 2402.20   76.83
   2 -12   9 1873.65   80.87
   2 -12   9 1841.33   65.55
   2 -12  10  959.78   52.20
   2 -12  10  881.52   49.90
   2 -12  10  990.46   51.21
   2 -12  11   21.68   33.43
   2 -12  11   -3.08   34.77
   2 -12  11   34.79   29.61
   2 -12  12  563.68   50.46
   2 -12  12  548.53   48.05
   2 -12  12  500.85   42.64
   2 -11 -11  116.66   31.91
  -2  11  11  147.38   41.62
  -2  11  11   98.47   32.21
   2 -11 -10 2255.79   84.31
  -2  11  10 2323.58   74.34
  -2  11  10 2216.45   86.57
   2 -11  -9  164.92   31.98
  -2  11   9  165.53   33.39
  -2  11   9  136.14   35.38
   2 -11  -8   42.69   27.39
  -2  11   8    7.17   24.96
  -2  11   8   18.40   30.58
  -2  11   8   29.56   26.24
   2 -11  -7 1502.69   57.76
  -2  11   7 1360.90   65.79
  -2  11   7 1448.18   63.21
  -2  11   7 1370.09   58.58
   2 -11  -6  408.38   40.72
  -2  11   6  392.87   41.99
  -2  11   6  429.34   39.01
  -2  11   6  407.67   40.30
   2 -11  -5   77.41   30.99
  -2  11   5   64.40   35.40
  -2  11   5   84.36   27.10
  -2  11   5   57.50   32.53
   2 -11  -4  332.21   30.95
  -2  11   4  228.20   39.88
  -2  11   4  313.42   36.00
  -2  11   4  271.92   40.41
   2 -11  -3 4872.11  108.64
  -2  11   3 5106.04  129.76
  -2  11   3 4942.89  122.88
  -2  11   3 4844.15  115.31
  -2  11   2  498.52   47.59
  -2  11   2  527.57   42.14
  -2  11   2  545.05   40.78
  -2  11   1   52.20   38.84
  -2  11   1  -18.39   28.59
  -2  11   1   38.84   28.31
   2 -11   0 1457.24   59.81
  -2  11   0 1629.18   66.61
  -2  11   0 1576.33   65.42
   2 -11   0 1513.62   58.21
  -2  11   0 1632.22   60.28
   2 -11   1 1606.11   59.16
   2 -11   1 1669.43   65.00
  -2  11  -1 1867.70   74.91
  -2  11  -1 1838.77   67.68
   2 -11   1 1761.42   60.31
  -2  11  -1 1954.16   66.41
   2 -11   2  156.84   32.84
   2 -11   2  178.24   34.66
  -2  11  -2  154.23   36.40
   2 -11   2  184.01   29.34
  -2  11  -2  147.11   29.07
   2 -11   3  171.57   25.83
   2 -11   3  144.68   32.73
   2 -11   3  139.72   32.19
  -2  11  -3  112.74   31.80
   2 -11   4   44.11   20.85
   2 -11   4   54.65   31.32
   2 -11   4   38.96   32.26
  -2  11  -4   22.85   28.91
   2 -11   5   39.73   27.85
   2 -11   5   30.90   33.63
   2 -11   5   44.44   30.86
  -2  11  -5   23.55   29.96
   2 -11   6  374.49   38.20
   2 -11   6  416.62   41.47
   2 -11   6  455.93   44.21
  -2  11  -6  381.09   35.94
   2 -11   7   27.29   28.05
   2 -11   7   21.72   34.81
   2 -11   7   25.39   34.46
   2 -11   8   57.14   23.95
   2 -11   8   33.91   35.81
   2 -11   8   17.42   24.60
   2 -11   9 2863.49   75.12
   2 -11   9 2780.38   79.14
   2 -11  10  937.00   51.16
   2 -11  10  968.35   54.68
   2 -11  10  931.86   51.41
   2 -11  11  874.44   49.03
   2 -11  11  869.70   49.22
   2 -11  11  874.77   51.16
   2 -11  12  663.08   50.98
   2 -11  12  689.57   48.91
   2 -11  12  673.44   44.35
   2 -11  13  681.95   50.43
   2 -11  13  681.87   48.69
   2 -11  14  159.33   46.88
   2 -11  14  150.96   39.68
   2 -10 -13  919.05   61.63
  -2  10  13  930.24   60.05
  -2  10  13  916.67   60.61
   2 -10 -12 2964.82  102.65
  -2  10  12 3212.40  103.20
  -2  10  12 3181.30   97.00
   2 -10 -11  186.94   32.35
  -2  10  11  167.90   30.46
  -2  10  11  184.51   32.05
  -2  10  11  141.16   40.41
   2 -10 -10 5256.04  116.61
  -2  10  10 4929.61  116.08
  -2  10  10 5096.58   99.37
  -2  10  10 4935.07  108.73
   2 -10  -9 3897.30   97.01
  -2  10   9 3751.48   93.29
  -2  10   9 3605.53   92.68
   2 -10  -8 4661.89  130.71
  -2  10   8 4492.62  124.68
  -2  10   8 4571.69  126.00
  -2  10   8 4267.14  126.94
   2 -10  -7   22.70   27.80
  -2  10   7   22.79   25.29
  -2  10   7   36.12   21.05
  -2  10   7   16.26   26.43
   2 -10  -6   83.94   21.18
  -2  10   6   54.23   33.32
  -2  10   6   93.92   30.80
  -2  10   6  114.34   32.47
   2 -10  -5  596.96   40.14
  -2  10   5  548.46   44.01
  -2  10   5  520.81   37.10
  -2  10   5  551.19   38.79
   2 -10  -4 2660.44   73.61
   2 -10  -4 2593.61   74.56
  -2  10   4 2856.56   79.48
  -2  10   4 2737.70   81.51
  -2  10   4 2735.02   79.15
   2 -10  -3 1942.89   60.87
   2 -10  -3 1758.07   62.62
  -2  10   3 1911.40   72.25
  -2  10   3 1944.37   70.61
  -2  10   3 1962.86   70.39
   2 -10  -2 6340.88  123.17
   2 -10  -2 5973.11  113.98
  -2  10   2 5866.35  144.59
  -2  10   2 6258.70  127.39
  -2  10   2 6262.96  132.28
   2 -10  -1   24.64   26.07
  -2  10   1   11.48   23.37
  -2  10   1   -2.53   26.71
  -2  10   1   20.23   28.75
   2 -10   0 2435.70   72.54
   2 -10   0 2394.43   75.25
  -2  10   0 2608.62   82.33
  -2  10   0 2542.64   77.30
   2 -10   0 2445.85   93.91
  -2  10   0 2558.32   71.65
   2 -10   1 2011.56   64.23
  -2  10  -1 2193.08   76.87
  -2  10  -1 2078.53   69.23
   2 -10   1 2109.57   70.35
  -2  10  -1 2173.21   65.04
   2 -10   2 3521.67   87.60
   2 -10   2 3823.98   95.12
  -2  10  -2 3665.23   94.41
   2 -10   2 3710.69   83.18
  -2  10  -2 3812.51   86.16
   2 -10   3 2460.48   71.02
   2 -10   3 2507.29   72.70
  -2  10  -3 2404.96   76.30
   2 -10   3 2415.97   75.13
  -2  10  -3 2346.54   74.20
   2 -10   4 3541.61   89.13
   2 -10   4 3612.28   94.91
   2 -10   4 3600.84   82.63
  -2  10  -4 3613.36   96.59
   2 -10   5  248.10   35.51
   2 -10   5  289.94   38.48
   2 -10   5  197.82   32.58
  -2  10  -5  266.05   34.45
   2 -10   6 4281.60   93.01
   2 -10   6 4257.77   93.99
   2 -10   6 4473.97   92.05
  -2  10  -6 4315.83   96.17
   2 -10   7  515.21   43.90
   2 -10   7  448.78   43.51
   2 -10   7  488.19   34.76
  -2  10  -7  465.85   40.61
   2 -10   8 1704.71   64.41
   2 -10   8 1768.50   63.40
   2 -10   9  356.60   39.50
   2 -10   9  412.65   42.77
   2 -10  10 1342.84   59.30
   2 -10  10 1404.68   54.57
   2 -10  10 1383.43   57.01
   2 -10  11  221.68   35.57
   2 -10  11  243.22   38.95
   2 -10  11  263.12   37.20
   2 -10  12  562.09   47.05
   2 -10  12  566.90   46.40
   2 -10  13  501.91   46.86
   2 -10  13  420.96   41.64
   2 -10  14   41.98   35.06
   2 -10  14   45.66   38.42
   2 -10  15 1007.13   54.59
   2 -10  15 1046.33   58.47
   2 -10  15 1047.51   52.33
   2  -9 -14 2084.64  101.24
  -2   9  14 2137.17   79.85
  -2   9  14 2231.03   85.79
   2  -9 -13  324.48   39.59
  -2   9  13  277.71   40.92
   2  -9 -13  348.06   40.50
  -2   9  13  282.80   35.95
   2  -9 -12 1856.99   68.38
  -2   9  12 1922.45   74.50
   2  -9 -12 1883.93   71.06
  -2   9  12 1873.41   71.39
  -2   9  12 1833.34   71.72
   2  -9 -11 1145.66   58.40
  -2   9  11 1179.01   58.10
   2  -9 -11 1109.70   56.74
  -2   9  11 1205.82   56.49
  -2   9  11 1150.40   56.11
   2  -9 -10  -12.07   32.44
  -2   9  10   -3.63   43.58
   2  -9 -10   -8.03   25.64
  -2   9  10   -8.54   32.98
  -2   9  10   16.33   28.24
   2  -9  -9 1295.41   50.84
   2  -9  -9 1395.30   55.17
  -2   9   9 1349.56   60.41
  -2   9   9 1306.44   58.20
   2  -9  -8  840.52   46.29
   2  -9  -8  832.05   47.57
  -2   9   8  752.47   42.22
  -2   9   8  799.99   47.49
   2  -9  -7 2180.20   70.05
  -2   9   7 1988.78   74.09
   2  -9  -7 2114.12   68.69
  -2   9   7 2154.84   67.84
  -2   9   7 2088.25   70.20
   2  -9  -6 3733.64   84.77
   2  -9  -6 3534.51   88.23
  -2   9   6 3626.44   91.30
  -2   9   6 3864.82   93.13
  -2   9   6 3744.35   87.63
   2  -9  -5 1357.86   52.56
   2  -9  -5 1340.73   56.32
  -2   9   5 1357.35   63.92
  -2   9   5 1483.33   57.95
  -2   9   5 1390.00   55.17
   2  -9  -4  495.83   33.81
   2  -9  -4  392.62   35.82
  -2   9   4  466.98   40.11
  -2   9   4  407.05   36.75
  -2   9   4  422.29   39.98
   2  -9  -3 2007.58   65.70
   2  -9  -3 1955.55   67.01
  -2   9   3 1949.28   70.41
  -2   9   3 2006.16   65.54
  -2   9   3 2021.99   66.22
   2  -9  -2  693.74   37.59
   2  -9  -2  642.05   45.33
  -2   9   2  684.64   49.65
  -2   9   2  734.34   45.91
  -2   9   2  694.89   45.26
   2  -9  -113163.59  222.18
   2  -9  -112565.87  222.57
  -2   9   113460.22  237.42
  -2   9   113358.76  230.51
  -2   9   113597.75  228.26
   2  -9   0   99.55   30.24
   2  -9   0  124.24   23.39
  -2   9   0   92.33   35.69
  -2   9   0  136.62   25.39
   2  -9   0   95.48   27.82
  -2   9   0  112.24   22.04
   2  -9   1   66.47   25.99
   2  -9   1   59.61   27.17
  -2   9  -1   43.31   26.35
  -2   9  -1   52.37   23.87
   2  -9   1   49.27   25.55
  -2   9  -1   63.26   25.26
   2  -9   2  744.53   44.82
   2  -9   2  739.82   45.51
  -2   9  -2  769.32   45.97
   2  -9   2  801.57   39.47
  -2   9  -2  765.29   45.93
   2  -9   3  202.60   29.51
   2  -9   3  197.31   27.39
  -2   9  -3  182.19   30.01
   2  -9   3  203.37   25.27
  -2   9  -3  189.15   25.37
   2  -9   4 2701.66   75.61
   2  -9   4 2787.11   86.27
   2  -9   4 2783.82   70.56
  -2   9  -4 2662.41   81.06
   2  -9   5   29.20   24.23
   2  -9   5    7.12   22.29
   2  -9   5   12.40   26.86
  -2   9  -5   19.70   27.35
   2  -9   6  139.34   29.96
   2  -9   6  104.65   26.57
   2  -9   6   95.36   31.47
  -2   9  -6   62.21   26.58
   2  -9   7 9490.87  157.77
   2  -9   7 9296.80  159.71
   2  -9   7 9793.71  159.12
  -2   9  -7 9571.24  164.78
   2  -9   8   47.41   29.47
   2  -9   8    8.00   30.20
   2  -9   911548.13  157.76
   2  -9   911480.29  157.44
   2  -9   911051.28  152.95
   2  -9  10  765.13   47.30
   2  -9  10  835.40   49.55
   2  -9  10  768.15   48.33
   2  -9  11 5580.61  131.16
   2  -9  11 5762.35  124.17
   2  -9  11 5332.16  126.96
   2  -9  12   72.73   26.46
   2  -9  12   62.86   25.59
   2  -9  13  115.28   36.30
   2  -9  13   87.64   33.81
   2  -9  14 2014.19   69.13
   2  -9  14 1959.19   67.58
   2  -9  14 1936.19   70.64
   2  -9  15 1333.28   61.54
   2  -9  15 1374.64   60.71
   2  -9  15 1326.71   58.41
   2  -9  16 1034.60   58.32
  -2   9 -16 1043.15   60.71
   2  -9  16 1078.16   52.19
  -2   8  15  440.57   46.98
   2  -8 -15  422.00   40.00
  -2   8  15  409.87   38.44
   2  -8 -14  109.96   34.65
  -2   8  14   58.86   33.98
   2  -8 -14   86.52   28.15
  -2   8  14   95.55   32.11
   2  -8 -13  333.92   34.70
  -2   8  13  294.20   37.61
   2  -8 -13  334.07   32.37
  -2   8  13  339.46   38.99
  -2   8  13  309.56   41.15
   2  -8 -12 2180.35   66.52
  -2   8  12 2167.60   77.02
   2  -8 -12 2182.77   71.82
  -2   8  12 2252.46   73.06
  -2   8  12 2185.88   73.87
   2  -8 -11  218.66   31.72
  -2   8  11  228.25   35.87
   2  -8 -11  248.14   34.95
  -2   8  11  230.11   31.96
  -2   8  11  198.89   34.48
   2  -8 -10   -3.61   23.48
  -2   8  10  -10.12   36.25
   2  -8 -10   -5.35   28.91
  -2   8  10   18.78   30.14
  -2   8  10   14.62   25.41
   2  -8  -9  362.41   35.71
  -2   8   9  433.73   42.37
   2  -8  -9  390.39   36.53
  -2   8   9  453.86   39.65
  -2   8   9  398.50   35.87
   2  -8  -8    1.62   25.85
   2  -8  -8   18.11   28.81
  -2   8   8    9.87   21.80
  -2   8   8   39.69   29.22
   2  -8  -7  168.25   31.43
   2  -8  -7  163.49   31.78
  -2   8   7  150.86   33.42
  -2   8   7  165.49   24.37
  -2   8   7  153.36   26.38
   2  -8  -6 1289.55   53.45
   2  -8  -6 1241.86   57.74
  -2   8   6 1383.59   64.01
  -2   8   6 1263.81   55.68
  -2   8   6 1222.53   55.50
   2  -8  -5   -3.37   26.37
   2  -8  -5   20.40   24.40
  -2   8   5   11.56   21.50
  -2   8   5   31.74   24.17
  -2   8   5   -5.17   25.36
   2  -8  -4  108.60   27.35
   2  -8  -4  128.31   30.49
  -2   8   4  110.58   29.99
  -2   8   4  115.77   26.15
  -2   8   4  106.57   25.93
  -2   8   3  154.69   33.66
   2  -8  -3  124.94   25.01
   2  -8  -3  116.03   25.54
  -2   8   3  125.66   23.81
  -2   8   3  121.17   26.02
  -2   8   3  140.72   27.26
  -2   8   2  879.45   52.04
   2  -8  -2  923.41   48.84
   2  -8  -2  890.40   43.57
   2  -8  -2  926.17   45.35
  -2   8   2  885.41   48.64
  -2   8   2  969.23   50.07
  -2   8   2  880.89   48.85
  -2   8   1  115.57   25.30
   2  -8  -1  102.25   21.19
   2  -8  -1  154.20   28.28
   2  -8  -1   91.06   27.24
  -2   8   1  130.21   29.01
  -2   8   1  114.50   25.05
  -2   8   1  112.97   27.92
  -2   8   0 3234.96   94.46
   2  -8   0 3126.11   82.25
   2  -8   0 3246.40   78.00
   2  -8   0 3318.29   82.54
  -2   8   0 3301.43   89.26
  -2   8   0 3244.98   80.65
   2  -8   0 3239.98   92.02
  -2   8   0 3308.90   81.12
  -2   8  -111617.36  200.47
   2  -8   111742.30  161.49
   2  -8   112191.66  162.27
  -2   8  -112243.47  175.33
  -2   8  -112208.13  162.31
   2  -8   111653.05  182.13
  -2   8  -112671.60  161.05
  -2   8  -2  132.72   27.53
   2  -8   2  152.36   28.87
   2  -8   2  160.84   24.79
  -2   8  -2  151.12   27.32
   2  -8   2  152.00   27.47
  -2   8  -2  169.11   26.89
  -2   8  -3   19.77   22.08
   2  -8   3   26.37   29.36
   2  -8   3   27.89   25.07
   2  -8   3   26.22   18.49
  -2   8  -3   12.08   27.24
  -2   8  -4   45.64   29.25
  -2   8  -4   77.65   32.18
   2  -8   4   73.40   22.50
   2  -8   4   67.57   30.23
   2  -8   4   94.88   25.70
  -2   8  -4   99.02   28.54
  -2   8  -5 4811.02  103.69
   2  -8   5 5114.00   99.43
   2  -8   5 4995.76  118.39
   2  -8   5 4854.85  113.00
  -2   8  -5 5131.31  104.89
   2  -8   6 4925.54   98.77
   2  -8   6 5072.02  108.20
   2  -8   6 4976.47   99.96
  -2   8  -6 5003.31   98.17
   2  -8   7 2015.85   72.59
   2  -8   7 2131.35   64.51
  -2   8  -7 2108.29   69.30
   2  -8   810192.36  169.58
   2  -8   810237.10  161.49
   2  -8   9  752.34   41.48
   2  -8   9  816.09   49.02
   2  -8   9  810.60   45.58
   2  -8  10 1106.18   53.45
   2  -8  10  989.84   50.34
   2  -8  10  989.92   46.73
   2  -8  11   16.00   35.92
   2  -8  11   53.23   24.58
   2  -8  12  562.22   45.46
   2  -8  12  584.99   42.05
   2  -8  13   12.32   30.98
   2  -8  13   17.25   30.43
   2  -8  13   17.76   30.22
   2  -8  14 6278.27  119.79
   2  -8  14 6060.41  114.19
   2  -8  14 6177.37  116.99
   2  -8  15  155.95   31.40
   2  -8  15  152.67   34.96
   2  -8  15  147.30   35.77
   2  -8  16  267.79   41.11
  -2   8 -16  307.09   44.06
   2  -8  16  278.53   30.41
   2  -8  17  151.98   37.85
  -2   8 -17  186.63   43.83
   2  -8  17  156.61   33.80
   2  -8  17  140.12   32.62
  -2   7  16  119.04   42.79
   2  -7 -16  178.30   35.01
  -2   7  16  152.24   33.22
   2  -7 -15  402.47   40.97
  -2   7  15  445.41   42.45
   2  -7 -15  477.84   46.36
  -2   7  15  399.95   41.68
   2  -7 -14  324.22   37.25
  -2   7  14  332.01   42.37
   2  -7 -14  335.96   32.64
  -2   7  14  340.56   38.78
  -2   7  14  284.83   38.85
   2  -7 -13  164.85   35.87
  -2   7  13  197.16   35.16
   2  -7 -13  214.74   36.94
  -2   7  13  205.93   31.72
  -2   7  13  195.78   36.57
   2  -7 -12  410.95   37.63
  -2   7  12  467.25   44.84
   2  -7 -12  396.96   32.69
  -2   7  12  401.97   36.98
  -2   7  12  352.25   35.41
   2  -7 -11  424.49   36.59
  -2   7  11  436.65   37.90
  -2   7  11  393.32   37.07
   2  -7 -10  975.48   52.30
   2  -7 -10  931.57   56.64
  -2   7  10  987.53   52.01
   2  -7  -9   94.47   27.19
   2  -7  -9   58.67   29.98
  -2   7   9   85.72   27.28
   2  -7  -8  220.26   30.08
   2  -7  -8  191.46   33.15
  -2   7   8  188.51   25.01
  -2   7   8  207.15   30.01
   2  -7  -7  135.72   26.49
   2  -7  -7  153.46   25.39
  -2   7   7  126.85   23.01
  -2   7   7   99.29   26.00
   2  -7  -6 5675.41  131.04
   2  -7  -6 5582.43  139.71
  -2   7   6 5876.62  140.34
  -2   7   6 5745.27  134.70
  -2   7   5 3455.97  119.65
   2  -7  -5 3513.12   92.97
   2  -7  -5 3639.40   85.47
   2  -7  -5 3641.97   91.33
  -2   7   5 3717.71   88.97
  -2   7   5 3732.47   91.01
  -2   7   4  189.25   33.95
   2  -7  -4  245.09   34.19
   2  -7  -4  248.50   27.50
   2  -7  -4  203.72   30.75
  -2   7   4  210.50   28.30
  -2   7   4  195.63   31.81
  -2   7   3  165.78   35.92
   2  -7  -3  226.19   32.25
   2  -7  -3  240.76   26.29
   2  -7  -3  222.73   31.14
   2  -7  -3  148.21   27.77
  -2   7   3  229.10   26.89
  -2   7   3  204.30   27.38
  -2   7   2  -12.00   18.18
   2  -7  -2   -6.63   21.42
   2  -7  -2   23.13   14.54
   2  -7  -2   -7.34   20.48
  -2   7   2   26.59   23.80
   2  -7  -2   14.17   18.94
  -2   7   2    9.31   14.12
  -2   7   2   14.83   20.16
  -2   7   1  984.88   54.76
   2  -7  -1  922.75   48.45
   2  -7  -1  981.31   48.50
   2  -7  -1  927.73   51.79
  -2   7   1  992.54   47.87
  -2   7   1  972.71   44.81
  -2   7   1  876.00   48.60
  -2   7   0  539.25   37.05
   2  -7   0  538.77   36.61
   2  -7   0  534.97   33.69
   2  -7   0  564.43   38.93
  -2   7   0  553.90   37.57
  -2   7   0  527.65   37.62
   2  -7   0  545.80   42.31
  -2   7   0  558.67   37.00
  -2   7  -1 6237.34  150.96
   2  -7   1 6075.12  137.59
   2  -7   1 5989.37  129.26
   2  -7   1 5890.09  134.95
  -2   7  -1 6010.83  140.82
  -2   7  -1 6172.04  136.31
   2  -7   1 5954.02  147.79
  -2   7  -1 6151.29  140.77
  -2   7  -2   44.53   22.20
   2  -7   2   30.80   17.86
   2  -7   2   37.34   19.70
  -2   7  -2   31.23   22.01
  -2   7  -3  175.39   23.65
   2  -7   3  156.77   24.80
   2  -7   3  159.40   24.77
   2  -7   3  173.58   26.68
  -2   7  -3  127.61   23.65
  -2   7  -4  610.20   37.38
   2  -7   4  602.61   39.41
   2  -7   4  512.47   34.16
   2  -7   4  592.01   36.62
   2  -7   4  588.25   36.06
  -2   7  -4  520.59   36.42
  -2   7  -5 1297.97   60.66
  -2   7  -5 1382.07   64.38
   2  -7   5 1294.34   62.75
   2  -7   5 1389.86   53.32
   2  -7   5 1354.55   51.09
  -2   7  -5 1353.40   51.84
  -2   7  -6 6657.10  145.34
  -2   7  -6 6484.83  122.23
   2  -7   6 6653.91  115.59
   2  -7   6 6927.36  119.95
   2  -7   6 6230.41  111.54
   2  -7   6 6961.06  111.64
  -2   7  -6 6837.12  131.63
  -2   7  -7 5546.01  150.18
   2  -7   7 5774.26  109.80
   2  -7   7 5659.85  102.62
  -2   7  -7 5807.23  111.86
   2  -7   8  917.07   47.52
   2  -7   8 1020.65   46.12
   2  -7   8  973.70   46.68
   2  -7   9 1021.01   47.14
   2  -7   9  939.59   48.45
   2  -7   9  974.84   47.32
   2  -7  10 1229.20   55.57
   2  -7  10 1260.21   54.21
   2  -7  10 1197.66   49.62
   2  -7  11    7.29   24.19
   2  -7  11  -26.49   27.38
   2  -7  11   -2.12   28.12
   2  -7  12 8796.21  138.84
   2  -7  12 8869.76  139.37
   2  -7  12 9033.71  136.45
   2  -7  13  498.39   38.82
   2  -7  13  523.01   43.25
   2  -7  13  492.36   39.93
   2  -7  13  561.52   38.36
   2  -7  14 1855.74   62.35
   2  -7  14 1982.14   72.16
   2  -7  14 1801.23   72.41
   2  -7  14 1935.02   65.29
   2  -7  15 2109.40   72.16
   2  -7  15 2032.47   71.40
   2  -7  15 2077.51   70.67
   2  -7  15 2174.04   71.64
   2  -7  16  245.23   38.68
   2  -7  16  270.22   39.11
  -2   7 -16  236.32   42.80
   2  -7  16  228.82   34.80
   2  -7  17   -0.99   34.15
   2  -7  17   16.62   33.88
  -2   7 -17   -2.49   34.52
   2  -7  17   -1.24   28.83
   2  -7  17   20.48   28.82
   2  -7  18  802.03   51.22
  -2   7 -18  796.43   54.99
   2  -7  18  781.00   48.17
   2  -7  18  759.57   59.98
   2  -6 -17  705.85   44.92
  -2   6  16   42.22   36.82
   2  -6 -16    9.73   30.01
   2  -6 -15 2780.51   82.57
  -2   6  15 3006.13   88.81
   2  -6 -15 3002.31   86.08
  -2   6  15 2732.03   83.58
  -2   6  15 2887.33   88.09
   2  -6 -14 3095.13   98.10
  -2   6  14 3283.45   88.04
   2  -6 -14 3049.26   83.56
   2  -6 -14 3326.24   90.70
  -2   6  14 3112.06   86.42
   2  -6 -13 1052.08   49.05
   2  -6 -13 1166.50   53.51
  -2   6  13 1059.00   52.74
   2  -6 -12  786.17   41.33
   2  -6 -12  781.27   49.88
   2  -6 -12  828.32   51.93
  -2   6  12  811.19   46.27
   2  -6 -11  337.72   34.77
   2  -6 -11  315.97   40.77
   2  -6 -11  314.78   36.97
  -2   6  11  295.10   33.32
   2  -6 -10 2464.19   68.88
   2  -6 -10 2362.88   80.74
   2  -6 -10 2412.39   72.30
  -2   6  10 2363.69   74.49
   2  -6  -910214.13  164.28
   2  -6  -9 9661.62  181.83
   2  -6  -9 9934.70  166.89
  -2   6   9 9734.28  165.86
   2  -6  -8   -3.21   20.68
   2  -6  -8   18.39   24.49
   2  -6  -8   16.54   20.46
  -2   6   8   -3.85   27.34
  -2   6   7   15.31   33.13
   2  -6  -7   -9.85   25.73
   2  -6  -7   -4.75   19.21
   2  -6  -7    9.97   25.87
   2  -6  -7   17.98   25.57
  -2   6   7   12.39   20.46
  -2   6   6 4387.99  122.44
   2  -6  -6 4397.27   95.48
   2  -6  -6 4522.09  107.82
   2  -6  -6 4557.92  107.37
   2  -6  -6 4685.24  104.32
  -2   6   6 4631.38  101.78
  -2   6   5  807.01   59.21
   2  -6  -5  815.91   42.34
   2  -6  -5  866.93   47.97
   2  -6  -5  848.58   46.14
   2  -6  -5  873.31   49.78
  -2   6   5  818.17   43.08
  -2   6   4 2589.18   85.71
   2  -6  -4 2731.44   73.80
   2  -6  -4 2636.16   82.07
   2  -6  -4 2597.72   75.74
  -2   6   4 2611.87   76.90
  -2   6   4 2456.81   84.02
  -2   6   3  148.80   31.79
   2  -6  -3  157.65   21.92
   2  -6  -3  134.65   23.67
   2  -6  -3  148.21   27.85
   2  -6  -3  152.62   24.35
  -2   6   3  136.44   22.78
  -2   6   3  124.35   25.12
  -2   6   2  357.63   37.05
   2  -6  -2  343.04   32.33
   2  -6  -2  340.72   27.05
   2  -6  -2  291.83   31.78
   2  -6  -2  315.76   26.62
  -2   6   1   41.44   25.22
   2  -6  -1   34.00   24.65
   2  -6  -1   26.00   20.21
   2  -6  -1   30.98   23.84
   2  -6  -1   21.95   18.41
  -2   6   0 1522.80   65.93
   2  -6   0 1626.39   57.25
   2  -6   0 1527.72   55.16
   2  -6   0 1542.41   66.21
  -2   6  -1  759.36   46.21
   2  -6   1  714.57   40.27
   2  -6   1  736.28   40.28
   2  -6   1  670.65   40.29
  -2   6  -2   73.30   24.80
   2  -6   2   80.42   21.07
   2  -6   2  103.88   20.86
   2  -6   2   81.31   20.05
  -2   6  -3  669.04   41.94
   2  -6   3  644.16   39.57
   2  -6   3  651.19   40.48
  -2   6  -4 2230.42   75.96
   2  -6   4 2271.56   69.80
   2  -6   4 2223.13   69.56
   2  -6   4 1998.12   62.78
  -2   6  -4 2165.71   66.97
  -2   6  -510698.86  205.94
  -2   6  -510758.90  204.22
   2  -6   510228.02  188.98
   2  -6   510663.85  195.71
   2  -6   510438.59  188.36
  -2   6  -510534.21  200.64
  -2   6  -6  399.70   38.06
  -2   6  -6  386.86   35.68
   2  -6   6  390.93   31.27
   2  -6   6  386.07   32.09
  -2   6  -6  409.76   30.16
  -2   6  -7 7016.21  156.60
   2  -6   7 6903.23  139.91
   2  -6   7 6898.51  123.84
   2  -6   7 7131.09  128.27
  -2   6  -7 7372.80  131.79
   2  -6   8 3404.03   94.41
   2  -6   8 3340.24   85.27
   2  -6   8 3260.29   83.22
  -2   6  -9  103.31   36.91
   2  -6   9   93.65   28.04
   2  -6   9   57.63   27.20
   2  -6   9   59.54   29.32
   2  -6  10  324.31   32.95
   2  -6  10  335.55   37.07
   2  -6  10  292.40   36.28
   2  -6  11    6.44   31.66
   2  -6  11   31.47   29.95
   2  -6  11   67.60   30.84
   2  -6  12 2950.18   78.38
   2  -6  12 2973.07   81.79
   2  -6  12 3091.65   78.25
   2  -6  12 3010.84   77.33
   2  -6  13 1749.10   61.81
   2  -6  13 1849.01   66.44
   2  -6  13 1720.83   62.65
   2  -6  13 1842.96   62.19
   2  -6  14   27.32   30.02
   2  -6  14   10.42   22.50
   2  -6  14  -27.15   28.09
   2  -6  14   -9.89   29.97
   2  -6  15 5858.65  144.42
   2  -6  15 5565.54  156.54
   2  -6  15 5748.11  145.61
   2  -6  15 5957.95  143.34
   2  -6  16  532.49   42.68
   2  -6  16  560.11   46.19
  -2   6 -16  576.20   44.37
   2  -6  16  538.18   41.90
   2  -6  17   54.12   31.66
   2  -6  17   32.68   31.17
  -2   6 -17   13.96   36.12
   2  -6  17   15.08   21.97
   2  -6  17   -1.77   34.68
   2  -6  18  814.73   48.77
   2  -6  18  824.15   53.56
  -2   6 -18  904.27   60.56
   2  -6  18  838.14   47.32
   2  -6  18  822.31   45.76
   2  -6  19  281.85   45.94
  -2   6 -19  266.27   42.77
  -2   6 -19  285.98   50.91
   2  -6  19  277.51   44.83
   2  -6  19  236.55   56.57
   2  -5 -17   30.51   22.66
  -2   5  16   49.32   37.43
   2  -5 -16   22.93   30.65
  -2   5  16   24.81   36.53
   2  -5 -15  613.67   43.72
  -2   5  15  585.94   45.47
   2  -5 -15  684.64   49.27
  -2   5  15  614.46   48.98
   2  -5 -14 4191.41  114.30
   2  -5 -14 4189.94  137.53
   2  -5 -14 4238.75  126.90
  -2   5  14 4330.86  121.29
   2  -5 -13    6.46   27.03
   2  -5 -13    1.21   35.64
   2  -5 -13   18.38   30.64
  -2   5  13    6.13   30.00
   2  -5 -12   44.29   25.80
   2  -5 -12   36.71   35.49
   2  -5 -12    8.13   21.81
  -2   5  12    8.59   29.06
   2  -5 -11 3083.69   81.98
   2  -5 -11 3102.36   92.57
   2  -5 -11 3254.02   87.13
  -2   5  11 2783.94   84.67
   2  -5 -10 6981.80  142.19
   2  -5 -10 7310.64  158.80
   2  -5 -10 7704.62  151.55
  -2   5  10 7127.94  140.42
  -2   5   9 1093.01   67.31
   2  -5  -9 1350.88   53.52
   2  -5  -9 1211.08   63.40
   2  -5  -9 1209.29   55.06
  -2   5   9 1138.48   52.86
  -2   5   8  309.02   46.37
   2  -5  -8  246.81   34.00
   2  -5  -8  255.46   29.74
   2  -5  -8  276.92   38.35
   2  -5  -8  267.50   32.05
  -2   5   8  286.11   31.87
  -2   5   7 3843.93  118.49
   2  -5  -7 4022.30   98.02
   2  -5  -7 4118.86   90.41
   2  -5  -7 4196.08  112.05
   2  -5  -7 4217.51   99.92
  -2   5   7 3997.63   93.93
  -2   5   6 4383.86  114.46
   2  -5  -6 4545.46  109.30
   2  -5  -6 4550.49   98.98
   2  -5  -6 4400.88  106.63
   2  -5  -6 4625.48  106.93
   2  -5  -6 4382.29   97.94
  -2   5   6 4445.85   95.66
  -2   5   5  436.91   43.95
   2  -5  -5  468.98   34.46
   2  -5  -5  467.34   34.21
   2  -5  -5  471.39   40.35
   2  -5  -5  426.29   32.37
   2  -5  -5  446.32   39.10
  -2   5   5  435.07   31.56
  -2   5   4  108.53   31.67
   2  -5  -4   98.16   20.21
   2  -5  -4   91.20   20.23
   2  -5  -4   87.67   25.19
   2  -5  -4  131.04   22.70
  -2   5   312108.40  292.69
  -2   5   226433.10  416.99
   2  -5  -224877.18  374.60
  -2   5   1 6574.94  156.38
   2  -5  -1 6581.66  141.39
  -2   5   0 3101.57  114.12
   2  -5   0 3129.57  108.69
  -2   5  -1 1819.66   66.01
   2  -5   1 1901.09   61.80
  -2   5  -2   23.19   24.11
   2  -5   2   15.26   15.27
  -2   5  -3  716.44   41.58
   2  -5   3  707.91   39.01
  -2   5  -410198.71  250.15
   2  -5   410666.87  250.80
  -2   5  -523543.21  382.84
  -2   5  -6 1415.56   57.18
   2  -5   6 1371.42   58.00
   2  -5   6 1360.36   58.45
  -2   5  -7 9851.69  175.57
  -2   5  -710764.85  185.04
   2  -5   710443.95  173.89
   2  -5   710631.59  168.88
   2  -5   710634.13  181.55
  -2   5  -710558.62  187.87
  -2   5  -8 3760.06   90.20
  -2   5  -8 3725.90   97.38
   2  -5   8 3525.42   85.29
   2  -5   8 3679.55   85.11
   2  -5   8 3726.94   89.67
  -2   5  -9   45.76   30.81
  -2   5  -9   48.21   27.10
  -2   5  -9   19.74   21.56
   2  -5   9   39.75   27.09
   2  -5   9   33.36   19.85
   2  -5   9   35.88   22.77
  -2   5 -10 1229.37   55.70
   2  -5  10 1269.77   54.05
   2  -5  10 1306.39   54.10
   2  -5  10 1300.41   53.81
   2  -5  11 3364.80   84.73
   2  -5  11 3395.29   93.40
   2  -5  11 3552.68   82.29
   2  -5  11 3287.38   80.55
   2  -5  12 5219.83   98.48
   2  -5  12 5191.83  109.10
   2  -5  12 5415.76  110.68
   2  -5  12 5335.95  102.32
   2  -5  13  306.45   36.86
   2  -5  13  287.49   39.38
   2  -5  13  235.11   33.94
   2  -5  13  274.39   35.79
   2  -5  14  975.05   48.32
   2  -5  14  935.89   49.92
   2  -5  14  906.71   47.13
   2  -5  14  978.54   48.74
   2  -5  15 4590.65  112.99
   2  -5  15 4903.96  115.61
   2  -5  15 4764.46  109.52
   2  -5  16    4.51   28.18
   2  -5  16    0.19   32.25
  -2   5 -16   15.79   36.86
   2  -5  16   22.28   28.52
   2  -5  17  169.28   35.40
   2  -5  17  174.30   33.17
  -2   5 -17  148.03   43.10
   2  -5  17  189.18   32.80
   2  -5  17  184.31   37.66
   2  -5  18  622.09   42.85
   2  -5  18  642.80   46.81
  -2   5 -18  613.47   51.40
   2  -5  18  627.83   41.85
   2  -5  18  629.96   45.05
   2  -5  19  790.36   49.94
  -2   5 -19  731.13   48.55
  -2   5 -19  813.69   59.08
   2  -5  19  738.53   48.43
   2  -5  19  741.11   59.48
   2  -4 -18  253.71   38.96
  -2   4  18  301.60   34.85
  -2   4  17   13.78   38.36
  -2   4  16   35.80   33.89
  -2   4  16   50.79   30.94
   2  -4 -15  602.57   54.84
  -2   4  15  611.60   47.15
   2  -4 -14 4792.12  115.81
   2  -4 -14 4592.31  182.30
   2  -4 -14 5074.41  124.14
  -2   4  14 4678.90  114.12
   2  -4 -13  342.54   35.09
   2  -4 -13  395.98   46.44
   2  -4 -13  344.43   39.70
  -2   4  13  390.12   37.20
   2  -4 -12   43.96   25.19
   2  -4 -12   -6.30   33.17
   2  -4 -12   14.08   33.90
  -2   4  12   -0.94   30.87
   2  -4 -11  532.39   36.42
   2  -4 -11  600.90   46.13
   2  -4 -11  617.56   38.47
  -2   4  11  538.17   39.57
   2  -4 -10  696.71   40.92
   2  -4 -10  680.89   50.37
   2  -4 -10  680.37   41.47
  -2   4  10  681.60   39.41
   2  -4  -9  872.46   51.41
   2  -4  -9  792.07   43.93
   2  -4  -9  891.32   46.51
   2  -4  -9  900.18   51.63
   2  -4  -9  929.41   51.71
  -2   4   9  859.93   44.50
   2  -4  -8 1196.70   63.23
   2  -4  -8 1180.49   49.60
   2  -4  -8 1291.25   53.63
   2  -4  -8 1323.46   65.74
   2  -4  -8 1256.08   54.11
   2  -4  -8 1309.48   57.60
  -2   4   8 1172.71   65.42
   2  -4  -7 9737.58  203.32
   2  -4  -7 9483.76  186.38
   2  -4  -7 9320.68  178.12
   2  -4  -7 9759.07  205.88
   2  -4  -7 9272.38  184.02
   2  -4  -7 9369.64  186.67
  -2   4   7 9059.46  178.63
   2  -4  -6 7820.68  139.41
   2  -4  -6 7888.57  150.38
   2  -4  -6 7571.76  161.38
   2  -4  -6 8029.04  156.75
  -2   4   5   35.71   20.49
   2  -4  -5   12.05   20.05
   2  -4  -5   45.26   16.17
  -2   4   4  -14.15   27.48
   2  -4  -4   13.64   22.15
  -2   4   4    6.72   15.16
  -2   4   3  126.65   26.45
   2  -4  -3  134.36   25.52
  -2   4   3  112.74   33.96
  -2   4   214814.44  342.23
  -2   4   214044.69  337.42
  -2   4   1  791.29   51.80
  -2   4   012735.79  298.19
   2  -4   012723.73  286.06
  -2   4  -1 3138.90  114.82
   2  -4   1 3307.77  113.11
  -2   4  -2 1355.42   57.80
   2  -4   2 1436.32   53.01
   2  -4   327253.98  401.36
   2  -4   326190.12  653.19
   2  -4   4   44.76   22.48
   2  -4   4   89.32   19.30
  -2   4  -525797.65  389.68
   2  -4   526028.43  392.98
  -2   4  -612359.09  285.20
  -2   4  -612589.08  290.13
   2  -4   612381.23  289.03
  -2   4  -7  551.82   40.25
  -2   4  -7  526.76   36.58
   2  -4   7  541.49   36.37
   2  -4   7  487.65   43.86
   2  -4   7  452.88   37.23
   2  -4   7  512.07   38.37
  -2   4  -8  784.20   47.67
  -2   4  -8  782.33   42.88
   2  -4   8  741.20   43.83
   2  -4   8  724.52   43.06
   2  -4   8  767.28   42.89
   2  -4   8  764.53   42.46
  -2   4  -9  289.32   36.18
  -2   4  -9  305.38   32.87
   2  -4   9  311.20   31.62
   2  -4   9  252.74   27.69
   2  -4   9  278.98   30.98
   2  -4   9  301.46   33.68
   2  -4   9  275.14   30.24
  -2   4 -10  389.06   34.35
  -2   4 -10  394.95   34.47
   2  -4  10  464.61   37.56
   2  -4  10  392.03   32.75
   2  -4  10  398.31   36.45
   2  -4  10  416.84   35.05
  -2   4 -11   83.31   38.31
   2  -4  11  140.79   25.37
   2  -4  11  137.45   34.11
   2  -4  11  115.65   29.91
   2  -4  11  130.66   31.04
   2  -4  1215939.70  256.63
   2  -4  1216988.78  279.74
   2  -4  1216392.64  267.50
   2  -4  1216818.19  265.26
   2  -4  13 3584.81   83.26
   2  -4  13 3927.38   97.48
   2  -4  13 3631.93   86.32
   2  -4  13 3789.40   84.37
   2  -4  14  153.27   32.02
   2  -4  14  217.53   35.66
   2  -4  14  169.62   34.17
   2  -4  14  144.23   35.11
   2  -4  15 1136.80   51.81
   2  -4  15 1152.36   53.17
   2  -4  15 1159.45   52.21
   2  -4  16   97.97   30.12
   2  -4  16  101.12   30.84
  -2   4 -16  114.77   42.06
   2  -4  16  121.08   24.25
   2  -4  17   72.00   31.07
   2  -4  17   62.38   32.00
  -2   4 -17   82.81   36.25
   2  -4  17  100.53   29.71
   2  -4  17   53.25   31.65
   2  -4  18   83.43   29.54
   2  -4  18   32.41   28.45
  -2   4 -18   38.90   37.32
   2  -4  18   22.12   25.52
   2  -4  18   27.16   31.94
   2  -4  19  374.17   37.43
  -2   4 -19  327.39   37.03
  -2   4 -19  301.69   50.49
   2  -4  19  326.98   41.39
   2  -4  19  366.90   41.98
   2  -4  19  338.67   39.53
   2  -4  20  596.15   49.14
  -2   4 -20  573.38   46.03
   2  -4  20  540.46   55.32
   2  -4  20  574.74   51.96
   2  -4  20  553.42   55.97
   2  -3 -18   16.07   28.13
  -2   3  17 1501.52   64.48
   2  -3 -16 5029.85  133.60
  -2   3  16 5322.53  108.82
   2  -3 -15 1462.98   68.69
  -2   3  15 1451.55   65.91
   2  -3 -14  163.00   41.28
  -2   3  14  177.48   34.52
   2  -3 -13 1284.14   52.78
   2  -3 -13 1393.96   62.79
   2  -3 -13 1418.01   58.58
  -2   3  13 1307.76   57.64
   2  -3 -1215506.85  220.77
   2  -3 -1215384.11  235.77
   2  -3 -1216217.74  237.67
  -2   3  1216036.62  233.07
   2  -3 -11  912.44   44.77
   2  -3 -11 1037.23   64.55
   2  -3 -11  984.03   47.92
   2  -3 -11  917.60   50.47
  -2   3  11  878.06   47.34
   2  -3 -10  508.50   46.66
   2  -3 -10  514.82   38.99
   2  -3 -10  534.29   34.03
   2  -3 -10  629.38   49.55
   2  -3 -10  618.51   43.60
   2  -3 -10  585.04   36.38
  -2   3  10  515.42   40.47
   2  -3  -9  420.29   39.12
   2  -3  -9  387.34   36.23
   2  -3  -9  435.98   33.78
   2  -3  -9  460.83   42.32
   2  -3  -9  514.92   35.67
   2  -3  -9  448.68   32.44
  -2   3   9  422.86   32.47
   2  -3  -8  557.12   44.53
   2  -3  -8  551.26   34.17
  -2   3   8  605.47   45.47
   2  -3  -8  555.69   36.62
   2  -3  -8  648.99   46.41
   2  -3  -8  653.32   41.96
   2  -3  -8  591.52   39.23
  -2   3   8  591.32   40.43
   2  -3  -7   -5.42   23.40
   2  -3  -7   18.83   19.28
  -2   3   7   -1.95   18.26
   2  -3  -7   27.14   26.88
   2  -3  -7   -0.60   24.78
   2  -3  -7   16.45   22.33
   2  -3  -6  590.68   42.95
   2  -3  -6  543.75   34.07
  -2   3   6  522.42   37.58
   2  -3  -5 5845.72  142.24
   2  -3  -5 6067.37  133.49
  -2   3   5 5439.18  140.83
   2  -3  -4 1210.92   58.06
   2  -3  -4 1247.61   49.50
  -2   3   4 1056.76   50.72
  -2   3   325084.45  404.40
  -2   3   323811.16  397.64
   2  -3  -325724.25  381.69
  -2   3   324135.97  426.79
   2  -3  -323956.60  408.74
  -2   3   2 4406.58  147.75
   2  -3  -2 4227.64  128.26
  -2   3   2 4199.34  141.19
  -2   3   2 4158.06  173.37
  -2   3   1 9112.64  253.77
  -2   3   0    2.70   26.73
   2  -3   1 5316.40  153.64
   2  -3   2 1500.34   57.15
   2  -3   3 6035.93  169.54
   2  -3   3 6020.23  175.43
  -2   3  -3 5468.60  202.80
  -2   3  -4 2814.77   76.34
  -2   3  -4 2905.63   81.27
   2  -3   4 2899.37   76.66
  -2   3  -4 2517.63   86.14
  -2   3  -5 9801.14  233.94
  -2   3  -5 9943.55  237.61
   2  -3   5 9994.18  237.95
  -2   3  -5 8735.53  264.75
  -2   3  -612650.63  290.77
  -2   3  -612577.88  286.15
   2  -3   612236.44  283.20
  -2   3  -721261.29  331.72
  -2   3  -721001.48  327.91
   2  -3   720147.96  321.28
  -2   3  -8  125.20   23.46
  -2   3  -8  125.66   22.13
   2  -3   8  129.71   23.80
   2  -3   8  109.76   23.74
   2  -3   8  106.75   22.30
  -2   3  -9 8096.23  156.55
  -2   3  -9 7802.99  165.71
   2  -3   9 7869.29  152.93
   2  -3   9 7719.59  149.26
   2  -3   9 7948.93  147.22
  -2   3 -10 1746.54   70.43
  -2   3 -10 1774.71   63.60
   2  -3  10 1999.66   69.07
   2  -3  10 1822.25   63.80
   2  -3  10 1867.96   67.57
   2  -3  10 1880.22   63.59
   2  -3  10 1792.58   59.27
   2  -3  10 1855.27   58.90
  -2   3 -11 2071.17   77.63
  -2   3 -11 2084.18   75.24
   2  -3  11 2176.66   77.37
   2  -3  11 2191.69   67.16
   2  -3  11 2190.26   71.19
   2  -3  11 2184.45   69.11
   2  -3  11 2137.85   76.16
   2  -3  11 2286.87   65.79
  -2   3 -12  410.84   43.74
   2  -3  12  393.44   37.81
   2  -3  12  424.96   34.37
   2  -3  12  474.32   39.56
   2  -3  12  438.44   36.19
   2  -3  12  463.64   37.27
   2  -3  13 2324.13   65.95
   2  -3  13 2448.16   76.89
   2  -3  13 2230.40   73.66
   2  -3  13 2390.24   69.50
   2  -3  14   16.57   24.25
   2  -3  14   90.83   36.10
   2  -3  14   54.60   28.29
   2  -3  15 3680.83   83.84
   2  -3  15 3799.09   90.43
   2  -3  15 3806.66   84.95
   2  -3  16    6.39   31.13
   2  -3  16  -20.84   29.37
  -2   3 -16   -7.59   36.73
   2  -3  16   19.67   28.57
   2  -3  16  -13.24   29.06
   2  -3  17  274.11   34.67
   2  -3  17  276.76   36.81
  -2   3 -17  243.68   43.35
   2  -3  17  302.92   36.12
   2  -3  17  264.46   38.03
   2  -3  18  345.84   31.97
   2  -3  18  317.06   36.88
  -2   3 -18  317.33   45.70
   2  -3  18  350.05   37.80
   2  -3  18  333.26   40.96
   2  -3  19  239.21   35.87
  -2   3 -19  204.31   32.79
  -2   3 -19  255.98   53.71
   2  -3  19  251.77   35.16
   2  -3  19  238.54   44.10
   2  -3  20  453.36   43.63
  -2   3 -20  392.60   40.77
   2  -3  20  439.08   48.36
   2  -3  20  445.04   47.88
   2  -3  20  450.72   41.89
   2  -2 -19   41.29   33.12
  -2   2  18   75.82   44.88
   2  -2 -18   32.35   30.44
  -2   2  18   59.99   37.91
   2  -2 -17  247.22   42.56
   2  -2 -17  298.04   41.72
  -2   2  17  312.51   39.56
  -2   2  16 1962.36   68.72
   2  -2 -16 1911.53   93.33
  -2   2  16 1901.50   66.64
  -2   2  15  100.83   32.98
   2  -2 -15  100.88   36.03
  -2   2  15  146.44   35.95
  -2   2  14 5981.43  114.82
   2  -2 -14 5992.17  144.27
  -2   2  14 5948.79  114.77
  -2   2  13   28.14   25.64
   2  -2 -13   40.13   30.37
  -2   2  13   33.59   29.22
  -2   2  1210105.02  169.22
   2  -2 -1210520.25  185.43
   2  -2 -1210904.65  191.90
   2  -2 -1210261.69  172.45
  -2   2  1210377.15  179.32
  -2   2  11 1707.51   61.44
   2  -2 -11 1610.49   58.15
   2  -2 -11 1649.92   72.35
   2  -2 -11 1824.53   69.61
   2  -2 -11 1745.79   66.00
  -2   2  11 1752.26   68.63
   2  -2 -10 1951.43   89.01
   2  -2 -10 1859.26   66.52
  -2   2  10 1926.89   72.47
  -2   2  10 1998.91   64.41
   2  -2 -10 1802.15   61.85
   2  -2 -10 2051.28   76.05
   2  -2 -10 2100.79   73.96
   2  -2 -10 2011.86   68.86
  -2   2  10 2006.36   69.04
   2  -2  -9  709.62   50.26
   2  -2  -9  732.82   40.76
  -2   2   9  762.93   46.80
   2  -2  -9  705.84   42.42
   2  -2  -9  674.67   50.70
   2  -2  -9  759.00   52.81
   2  -2  -9  702.51   43.57
  -2   2   9  652.04   42.56
   2  -2  -8 2850.28   95.29
   2  -2  -8 2595.30  106.46
  -2   2   8 2883.84   83.52
   2  -2  -8 2879.42   91.53
   2  -2  -8 2916.27   83.54
   2  -2  -8 2803.24   94.76
   2  -2  -7  360.99   37.13
   2  -2  -7  366.18   31.37
  -2   2   7  364.96   31.96
   2  -2  -7  301.28   28.82
   2  -2  -6 5243.68  133.95
   2  -2  -6 5286.56  123.13
  -2   2   6 5272.40  133.69
   2  -2  -5 5283.68  133.50
   2  -2  -5 5431.41  122.32
  -2   2   5 5165.02  131.34
   2  -2  -430332.92  458.02
   2  -2  -430636.14  442.02
  -2   2   431274.26  468.99
   2  -2  -312323.09  283.28
  -2   2   312276.74  294.69
   2  -2  -313378.83  289.95
  -2   2   311982.11  282.08
   2  -2  -312249.08  294.50
   2  -2  -2  386.05   33.03
  -2   2   2  348.75   30.41
  -2   2   2  318.69   32.99
  -2   2   1  454.52   38.44
   2  -2  -1  645.61   36.34
  -2   2   1  577.25   37.48
  -2   2   1  664.07   40.34
  -2   2   1  605.38   54.58
   2  -2   0 9125.76  238.91
  -2   2   0 8948.46  263.75
  -2   2   0 9472.20  315.90
  -2   2  -110394.94  159.31
  -2   2  -110836.24  265.10
   2  -2   2120485.5 1302.76
  -2   2  -2123894.8 1158.29
  -2   2  -311761.02  265.36
   2  -2   310622.77  277.76
   2  -2   311674.33  258.63
  -2   2  -3 9877.50  259.32
   2  -2   310985.89  247.82
  -2   2  -310004.14  282.62
  -2   2  -428658.86  341.13
   2  -2   427657.94  327.19
  -2   2  -5 2170.90   67.99
  -2   2  -5 2234.91   71.43
   2  -2   5 2224.66   68.51
  -2   2  -5 2001.27  102.13
  -2   2  -6 4867.98  161.07
  -2   2  -6 4835.81  152.63
   2  -2   6 4946.85  156.31
  -2   2  -715602.74  346.72
  -2   2  -715103.33  334.07
   2  -2   714831.99  330.85
  -2   2  -8 7768.88  163.39
  -2   2  -8 7365.59  161.01
   2  -2   8 7260.93  155.68
  -2   2  -9 3784.46   99.27
  -2   2  -9 3725.27   87.90
   2  -2   9 4056.78   97.24
   2  -2   9 3804.91   91.97
   2  -2   9 3506.45  104.67
  -2   2 -10 1380.91   63.30
  -2   2 -10 1301.77   55.67
   2  -2  10 1459.26   56.35
   2  -2  10 1393.73   55.07
   2  -2  10 1360.69   58.14
   2  -2  10 1318.27   54.23
   2  -2  10 1247.85   51.82
   2  -2  10 1361.68   54.91
  -2   2 -11 2008.81   86.05
  -2   2 -11 1891.42   70.42
   2  -2  11 1957.16   69.27
   2  -2  11 1857.20   64.57
   2  -2  11 1977.57   69.14
   2  -2  11 1954.00   65.25
   2  -2  11 1912.66   64.69
   2  -2  11 1933.62   62.67
  -2   2 -12 2767.45   93.06
  -2   2 -12 2555.50   87.04
   2  -2  12 2720.33   84.11
   2  -2  12 2713.35   74.72
   2  -2  12 2821.92   79.10
   2  -2  12 2686.86   78.47
   2  -2  12 2705.48   73.60
   2  -2  1312375.14  210.72
   2  -2  1312954.65  224.75
   2  -2  1312424.77  211.92
   2  -2  14  993.40   49.95
   2  -2  14 1008.79   47.81
   2  -2  14 1047.45   48.45
   2  -2  15 9023.48  159.06
   2  -2  15 8681.05  153.33
  -2   2 -15 8897.88  171.59
   2  -2  15 8967.01  148.90
   2  -2  15 9165.68  157.80
   2  -2  16  429.17   38.95
   2  -2  16  355.68   41.82
  -2   2 -16  435.40   51.29
   2  -2  16  389.22   37.02
   2  -2  16  429.36   42.04
   2  -2  17  272.61   37.44
   2  -2  17  253.45   37.89
  -2   2 -17  251.48   39.44
   2  -2  17  284.70   38.64
   2  -2  17  304.61   40.84
   2  -2  18  120.24   32.22
  -2   2 -18  111.50   27.53
  -2   2 -18  107.03   46.07
   2  -2  18   71.85   31.25
   2  -2  18   78.64   30.88
   2  -2  19  815.40   53.08
  -2   2 -19  776.86   45.44
   2  -2  19  742.41   44.83
   2  -2  19  762.97   44.21
   2  -2  20 2749.86   93.19
  -2   2 -20 2593.28   83.66
   2  -2  20 2701.88   96.19
   2  -2  20 2612.82   90.51
   2  -2  20 2635.74   82.70
  -2   1  19  554.18   60.75
   2  -1 -19  519.54   41.76
  -2   1  18  119.77   42.94
   2  -1 -18  129.82   42.85
   2  -1 -18  118.79   36.08
  -2   1  18  136.27   39.79
  -2   1  17  451.04   43.90
   2  -1 -17  442.77   52.92
   2  -1 -17  444.08   43.53
  -2   1  17  461.57   45.76
  -2   1  16 1530.40   63.17
   2  -1 -16 1553.69   69.40
  -2   1  16 1463.28   60.90
  -2   1  15 4198.07   98.19
   2  -1 -15 4235.20  116.58
  -2   1  15 4197.48   95.11
  -2   1  14  129.75   33.25
   2  -1 -14   94.29   43.59
   2  -1 -14  102.81   33.09
  -2   1  14  141.37   34.23
  -2   1  13  826.58   45.75
   2  -1 -13  791.81   53.56
   2  -1 -13  810.15   51.14
  -2   1  13  742.80   42.83
  -2   1  12  311.44   34.34
   2  -1 -12  326.55   40.51
   2  -1 -12  363.34   38.20
  -2   1  12  381.88   37.93
   2  -1 -11  905.18   61.45
  -2   1  11  923.08   50.03
  -2   1  11  915.61   45.34
   2  -1 -11  991.63   70.54
   2  -1 -11 1011.59   52.79
   2  -1 -11  912.38   48.07
  -2   1  11  998.82   51.51
   2  -1 -10  374.30   37.69
   2  -1 -10  400.68   33.05
  -2   1  10  377.08   34.02
  -2   1  10  354.87   28.91
   2  -1 -10  387.05   43.68
   2  -1 -10  358.50   36.65
   2  -1 -10  380.80   34.50
  -2   1  10  429.66   35.58
   2  -1  -9  669.16   46.03
   2  -1  -9  643.60   37.51
  -2   1   9  747.07   42.74
  -2   1   9  662.45   40.76
   2  -1  -9  671.10   44.46
   2  -1  -9  705.10   47.29
   2  -1  -9  704.12   40.52
  -2   1   9  681.72   39.49
   2  -1  -810333.79  191.07
   2  -1  -8 9542.43  158.54
  -2   1   8 9833.30  176.44
   2  -1  -8 9951.56  191.89
   2  -1  -810013.58  185.68
   2  -1  -8 9418.03  163.82
   2  -1  -7 3802.63  135.41
   2  -1  -7 3684.57  123.15
  -2   1   7 3881.30  141.60
   2  -1  -6 9979.02  247.53
   2  -1  -6 9756.97  230.91
  -2   1   6 9421.95  234.70
   2  -1  -5 1493.60   64.18
   2  -1  -5 1450.84   52.99
  -2   1   5 1313.57   56.08
   2  -1  -4   24.22   19.54
  -2   1   4    6.43   23.16
   2  -1  -4   14.87   17.85
   2  -1  -3 4941.95  143.97
  -2   1   3 4412.60  135.75
  -2   1   3 4910.08  155.59
   2  -1  -3 4625.55  159.08
   2  -1  -2 2873.27   73.96
  -2   1   2 2534.58   80.67
  -2   1   2 2790.85   87.67
   2  -1  -142546.93  481.19
  -2   1   140971.28  465.38
  -2   1   142416.08  469.46
  -2   1   032220.70  419.54
  -2   1   033240.98  405.47
   2  -1   034001.17  375.79
  -2   1   031693.88  401.76
  -2   1   031592.02  402.78
  -2   1   034187.70  411.98
  -2   1  -1 8870.82  253.50
  -2   1  -1 9113.24  251.20
   2  -1   1 8621.05  227.56
  -2   1  -1 7941.92  219.45
   2  -1   1 9219.16  248.77
  -2   1  -1 8437.86  237.85
  -2   1  -213942.00  313.41
   2  -1   212350.80  320.17
   2  -1   213344.86  294.00
  -2   1  -213167.90  296.35
  -2   1  -339172.47  434.41
   2  -1   337846.41  463.35
  -2   1  -338658.53  426.75
   2  -1   339732.40  430.79
  -2   1  -337653.10  437.37
  -2   1  -410226.94  143.18
   2  -1   410044.18  276.24
  -2   1  -4 9436.56  281.48
  -2   1  -410591.00  154.13
   2  -1   410759.67  243.68
  -2   1  -4 9295.19  250.74
   2  -1   553698.97  608.41
  -2   1  -6 2687.43   76.62
  -2   1  -6 2557.08   73.73
   2  -1   6 2524.03   71.95
  -2   1  -7 7899.46  164.26
  -2   1  -7 8118.18  163.69
   2  -1   7 7321.90  161.28
  -2   1  -8   13.04   27.27
  -2   1  -8   15.39   27.61
   2  -1   8   21.02   20.97
  -2   1  -910745.59  264.98
  -2   1  -910592.91  249.49
   2  -1   910775.52  256.17
  -2   1 -10 2065.28   73.72
  -2   1 -10 2099.63   75.43
   2  -1  10 2199.77   70.82
   2  -1  10 2004.39   65.00
   2  -1  10 2100.28   68.53
   2  -1  10 2112.16   76.51
   2  -1  10 2029.14   69.69
  -2   1 -11  461.22   36.86
  -2   1 -11  457.37   35.30
   2  -1  11  490.42   38.88
   2  -1  11  466.63   33.97
   2  -1  11  474.92   34.33
   2  -1  11  433.39   35.05
   2  -1  11  432.02   34.59
  -2   1 -12  371.72   41.34
  -2   1 -12  370.13   33.74
   2  -1  12  360.72   34.99
   2  -1  12  367.65   34.68
   2  -1  12  355.85   34.65
   2  -1  12  377.73   33.21
  -2   1 -13 1520.37   71.69
  -2   1 -13 1474.66   62.00
   2  -1  13 1552.84   54.32
   2  -1  13 1595.92   59.41
   2  -1  13 1555.99   57.50
   2  -1  14 1197.56   49.20
   2  -1  14 1219.34   50.24
  -2   1 -14 1201.53   60.46
   2  -1  14 1266.81   49.51
   2  -1  14 1186.87   54.36
   2  -1  15 1327.95   53.78
   2  -1  15 1300.55   60.98
  -2   1 -15 1301.61   66.27
   2  -1  15 1364.23   55.92
   2  -1  15 1268.83   56.57
   2  -1  16 1156.70   52.57
   2  -1  16 1258.24   50.75
  -2   1 -16 1251.03   65.35
   2  -1  16 1160.51   53.30
   2  -1  16 1254.36   54.98
   2  -1  17  336.17   35.53
   2  -1  17  322.56   38.05
  -2   1 -17  341.58   47.24
   2  -1  17  340.06   34.26
   2  -1  17  326.34   37.73
   2  -1  18    2.54   32.30
  -2   1 -18  -10.12   27.53
   2  -1  18   46.14   29.95
   2  -1  18    6.44   32.74
   2  -1  19  352.40   36.83
  -2   1 -19  333.46   35.70
   2  -1  19  337.77   38.56
   2  -1  19  343.20   40.28
   2  -1  20 2952.39   86.09
  -2   1 -20 2868.09   84.13
   2  -1  20 3055.12  102.57
   2  -1  20 3009.81   85.38
   2  -1  21 2477.22   84.20
  -2   1 -21 2442.34   86.08
   2  -1  21 2380.59   90.77
   2  -1  21 2478.57  100.91
  -2   0  19  271.26   42.92
   2   0 -19  265.16   52.67
   2   0 -19  235.72   38.95
  -2   0  18  769.76   55.73
   2   0 -18  764.95   57.42
   2   0 -18  793.84   48.63
  -2   0  18  746.06   52.62
  -2   0  17   35.83   36.41
   2   0 -17   46.00   35.53
   2   0 -17  -10.07   34.63
  -2   0  17   19.77   32.61
  -2   0  16 1890.52   67.94
   2   0 -16 1842.88   76.12
   2   0 -16 1943.22   67.76
  -2   0  16 1888.70   70.00
  -2   0  15 5599.63  108.72
   2   0 -15 5643.90  135.05
   2   0 -15 5502.52  115.98
  -2   0  15 5647.19  127.47
  -2   0  1414615.53  177.21
   2   0 -1414899.64  205.91
   2   0 -1414765.85  198.07
  -2   0  1414742.82  185.69
  -2   0  13 5687.36  108.01
   2   0 -13 5855.12  120.63
   2   0 -13 5638.01  121.80
  -2   0  13 5621.32  115.24
  -2   0  12 2906.41   77.66
   2   0 -12 3149.37   92.50
   2   0 -12 3092.98   86.61
  -2   0  12 3060.34   82.91
   2   0 -11 1116.40   73.07
  -2   0  11 1201.26   65.77
  -2   0  11 1137.29   51.39
   2   0 -11 1223.29   62.04
   2   0 -11 1214.83   57.07
  -2   0  11 1200.95   53.68
   2   0 -10  204.65   35.74
  -2   0  10  149.59   28.70
  -2   0  10  159.95   26.48
   2   0 -10  209.28   36.59
   2   0 -10  184.74   31.63
   2   0 -10  153.10   23.21
  -2   0  10  172.15   30.36
   2   0  -9 2626.96   84.99
   2   0  -9 2317.45   67.83
  -2   0   9 2655.59   77.39
  -2   0   9 2344.58   71.71
   2   0  -9 2466.82   81.84
   2   0  -9 2488.25   75.07
   2   0  -9 2444.50   80.73
   2   0  -9 2438.90   72.58
  -2   0   9 2347.64   87.00
   2   0  -8   60.54   22.87
   2   0  -8   97.06   16.87
  -2   0   8   31.39   26.39
   2   0  -8   19.33   19.22
   2   0  -8   26.99   21.56
   2   0  -735301.77  527.61
   2   0  -734066.54  484.87
  -2   0   733071.02  483.61
   2   0  -6 1277.44   49.84
  -2   0   6 1295.28   58.93
   2   0  -5 5045.71   95.70
  -2   0   5 4669.44  152.03
  -2   0   5 5281.79  130.41
   2   0  -4   14.84   17.36
  -2   0   4    7.20   13.51
  -2   0   4    4.85   22.64
   2   0  -4    5.82   18.24
   2   0  -313147.87  297.92
  -2   0   314126.32  304.79
   2   0  -314865.14  315.38
  -2   0   313616.25  303.83
  -2   0   314564.07  326.56
   2   0  -313356.50  309.83
   2   0  -2   97.87   30.73
  -2   0   2   73.51   24.60
  -2   0   2   96.20   22.62
   2   0  -2   94.85   21.12
  -2   0   2   98.62   17.32
  -2   0   2   86.90   25.91
   2   0  -110815.00  252.99
  -2   0   110224.97  211.93
   2   0  -110599.09  138.89
  -2   0   1 9942.26  263.07
  -2   0   110232.93  161.32
  -2   0   110627.56  252.13
   2   0   0 4509.25  143.15
  -2   0   0 3974.52  134.98
   2   0   0 4361.83  132.39
  -2   0   0 4247.19  135.94
  -2   0   0 4251.51  138.88
  -2   0   0 4430.51  145.34
  -2   0  -1  140.66   24.82
  -2   0  -1  129.94   32.49
   2   0   1  133.49   26.76
  -2   0  -1  130.54   23.26
   2   0   1  137.22   26.41
  -2   0  -1  165.55   23.00
   2   0   2143275.7 1302.20
  -2   0  -2143698.0 1330.95
  -2   0  -320987.24  436.80
   2   0   320073.56  441.69
   2   0   320704.36  426.48
  -2   0  -319465.33  419.90
   2   0   450701.59  557.12
  -2   0  -450243.63  561.17
  -2   0  -5 5950.65  169.71
   2   0   5 5507.33  165.41
  -2   0  -5 6061.34  172.17
   2   0   5 6019.61  171.15
  -2   0  -5 5128.89  169.18
  -2   0  -6 4133.19  133.36
   2   0   6 3720.80  102.62
  -2   0  -6 4255.91  131.98
   2   0   6 4067.78  126.53
  -2   0  -7  769.71   47.36
  -2   0  -7  733.81   42.00
   2   0   7  693.61   43.06
  -2   0  -8 1503.66   66.97
  -2   0  -8 1615.82   61.71
   2   0   8 1544.18   59.18
  -2   0  -9  213.74   33.46
  -2   0  -9  184.25   30.78
   2   0   9  209.72   24.96
  -2   0 -1012524.86  207.65
  -2   0 -1011919.62  188.74
   2   0  1012455.31  202.16
   2   0  1011515.76  183.62
   2   0  1011307.12  182.35
  -2   0 -11 5874.52  146.76
  -2   0 -11 5873.88  138.60
   2   0  11 5867.30  132.82
   2   0  11 5768.85  131.47
   2   0  11 5854.12  134.55
   2   0  11 5697.46  123.97
  -2   0 -12 2035.34   77.96
  -2   0 -12 2044.79   72.98
   2   0  12 2034.28   71.30
   2   0  12 2034.36   64.56
   2   0  12 2099.58   65.35
   2   0  12 1981.56   62.97
   2   0  12 1955.21   62.78
  -2   0 -13 1552.02   71.36
   2   0  13 1693.40   58.26
   2   0  13 1686.53   65.86
  -2   0 -13 1635.89   69.58
   2   0  13 1710.66   59.89
   2   0  13 1756.91   63.06
   2   0  14 1263.34   55.76
   2   0  14 1336.24   54.84
  -2   0 -14 1269.66   62.66
   2   0  14 1258.23   52.92
   2   0  14 1284.92   57.18
   2   0  15 3658.58   91.15
   2   0  15 3921.60   90.61
   2   0  15 4003.59   89.87
   2   0  15 3874.79   88.62
   2   0  16   18.53   28.82
   2   0  16   -1.31   26.96
   2   0  16   -4.65   26.85
   2   0  16    5.35   31.96
   2   0  17    2.39   31.37
  -2   0 -17    1.47   28.62
   2   0  17    3.46   28.05
   2   0  17   10.77   26.93
   2   0  18 1709.62   61.94
  -2   0 -18 1639.00   60.08
   2   0  18 1611.30   60.85
   2   0  18 1593.49   65.31
   2   0  19  139.96   37.42
  -2   0 -19  167.36   32.06
   2   0  19  189.10   36.45
   2   0  19  173.11   36.55
   2   0  20  226.15   39.90
  -2   0 -20  206.91   31.54
   2   0  20  234.62   38.38
   2   0  20  211.99   40.05
   2   0  21 2209.58   82.85
  -2   0 -21 2173.21   75.55
   2   0  21 2122.65   82.92
   2   0  21 2153.36   88.89
  -2  -1  19  576.66   50.26
   2   1 -19  576.28   63.04
   2   1 -19  571.41   45.15
  -2  -1  18 3215.38   89.81
   2   1 -18 3040.94   98.85
   2   1 -18 3088.47   87.76
  -2  -1  18 3108.31   88.84
  -2  -1  17  519.21   41.71
   2   1 -17  489.65   48.21
   2   1 -17  535.99   44.51
  -2  -1  17  494.01   42.62
  -2  -1  16  309.29   33.55
   2   1 -16  321.40   37.63
   2   1 -16  293.88   36.05
  -2  -1  16  330.79   38.11
  -2  -1  15 2570.44   72.55
   2   1 -15 2679.94   87.49
   2   1 -15 2614.87   73.01
  -2  -1  15 2617.58   76.02
  -2  -1  14 4208.00   94.97
   2   1 -14 4167.25  104.05
   2   1 -14 4045.39  102.25
   2   1 -14 4274.39   95.54
  -2  -1  14 4094.22   92.12
  -2  -1  13   96.81   28.02
   2   1 -13  113.11   35.69
   2   1 -13   98.40   36.77
  -2  -1  13   71.29   35.20
  -2  -1  12 1403.44   55.01
   2   1 -12 1494.55   68.09
   2   1 -12 1503.06   65.58
  -2  -1  12 1402.23   54.91
   2   1 -11  102.34   38.05
  -2  -1  11  130.85   25.89
  -2  -1  11  101.37   27.50
   2   1 -11  100.03   35.04
   2   1 -11  137.60   27.00
  -2  -1  11   98.44   29.20
   2   1 -10  272.12   45.08
  -2  -1  10  249.11   35.39
  -2  -1  10  234.59   30.70
   2   1 -10  211.93   35.99
   2   1 -10  266.75   32.66
   2   1 -10  272.06   34.64
  -2  -1  10  240.10   31.42
   2   1  -9  690.33   52.10
  -2  -1   9  826.56   51.16
  -2  -1   9  734.60   41.67
   2   1  -9  786.89   49.32
   2   1  -9  717.07   42.81
   2   1  -9  714.36   48.90
   2   1  -9  749.58   42.35
  -2  -1   9  686.21   49.12
   2   1  -8   51.45   21.93
   2   1  -8   67.87   19.55
  -2  -1   8   31.28   30.83
   2   1  -8   66.96   25.52
   2   1  -8   79.36   18.86
   2   1  -722722.06  350.04
  -2  -1   723468.30  369.41
   2   1  -613959.92  311.33
  -2  -1   612764.45  305.55
  -2  -1   614289.91  324.22
   2   1  -5 1822.70   77.98
   2   1  -5 1887.39   60.81
  -2  -1   5 1766.23   69.70
  -2  -1   5 1870.88   71.56
   2   1  -4   52.51   22.12
   2   1  -4   72.24   17.39
  -2  -1   4   31.46   14.63
  -2  -1   4   38.66   27.79
   2   1  -3 8441.28  235.23
  -2  -1   3 7769.92  227.00
  -2  -1   3 8565.33  230.80
   2   1  -3 8347.13  221.64
  -2  -1   3 7826.87  217.38
  -2  -1   3 8253.16  227.85
   2   1  -3 7585.62  225.74
   2   1  -2 9026.48  247.44
  -2  -1   2 8096.56  237.31
  -2  -1   2 8749.58  232.62
   2   1  -2 8766.86  230.77
  -2  -1   2 8044.58  217.72
  -2  -1   2 8003.17  242.33
  -2  -1   2 8629.52  237.80
   2   1  -122044.61  466.86
  -2  -1   120625.95  458.51
  -2  -1   121472.01  449.35
   2   1  -121836.84  446.68
  -2  -1   120636.25  425.04
  -2  -1   120691.13  439.90
  -2  -1   122876.37  485.49
  -2  -1   0158672.1 1520.20
  -2  -1   0157921.3 1424.15
   2   1   0160022.3 1444.27
  -2  -1  -1 6618.51  197.51
  -2  -1  -1 6279.29  190.77
  -2  -1  -1 6564.40  206.21
  -2  -1  -1 6870.65  192.33
   2   1   1 6704.93  198.97
  -2  -1  -1 6554.76  210.47
  -2  -1  -216864.01  379.00
  -2  -1  -216902.50  367.37
  -2  -1  -216042.25  343.15
  -2  -1  -217220.71  364.83
   2   1   217085.33  362.07
  -2  -1  -216655.99  384.08
  -2  -1  -3  630.94   39.18
   2   1   3  569.12   42.71
  -2  -1  -3  624.04   44.89
   2   1   3  564.26   37.68
   2   1   3  614.44   38.11
  -2  -1  -3  585.17   41.41
  -2  -1  -447597.23  509.14
   2   1   446832.73  541.75
  -2  -1  -449596.02  546.42
  -2  -1  -5 2557.74   75.71
   2   1   5 2235.23   77.75
   2   1   5 2433.46   71.61
  -2  -1  -5 2143.38   90.37
  -2  -1  -6  257.82   30.76
   2   1   6  258.30   27.30
  -2  -1  -6  285.81   37.31
   2   1   6  276.82   31.25
  -2  -1  -7 5285.04  135.92
   2   1   7 4745.75  167.75
  -2  -1  -7 5252.15  123.33
   2   1   7 5141.82  122.65
  -2  -1  -8  780.57   45.49
  -2  -1  -8  757.53   46.58
   2   1   8  724.75   43.50
  -2  -1  -9 7011.24  162.00
  -2  -1  -9 6973.08  145.90
   2   1   9 6755.06  147.91
  -2  -1 -10 5616.34  130.63
  -2  -1 -10 5793.91  108.85
   2   1  10 5510.23  112.26
   2   1  10 5281.71  105.43
   2   1  10 4997.30  145.07
  -2  -1 -11 3132.00   96.40
  -2  -1 -11 3173.62   84.69
   2   1  11 3147.19   87.78
   2   1  11 3050.19   87.79
   2   1  11 2750.07   79.26
   2   1  11 3101.94   86.09
   2   1  11 3017.58   79.81
  -2  -1 -12   54.53   24.25
   2   1  12   89.94   25.81
   2   1  12   55.42   26.61
   2   1  12  113.30   25.64
   2   1  12   88.98   25.38
   2   1  12   63.69   23.68
  -2  -1 -13 2288.03   65.82
   2   1  13 2246.03   66.91
   2   1  13 2375.29   72.10
   2   1  13 2223.85   69.11
   2   1  13 2182.43   65.41
   2   1  14  129.93   28.34
   2   1  14   79.45   30.00
   2   1  14   92.01   22.41
   2   1  14   97.98   36.75
   2   1  15  326.09   35.22
   2   1  15  371.37   38.32
   2   1  15  396.58   36.97
   2   1  15  398.02   40.08
   2   1  16  287.13   36.38
  -2  -1 -16  283.33   33.37
   2   1  16  276.32   36.20
   2   1  16  240.28   29.92
   2   1  17  762.09   45.66
  -2  -1 -17  848.02   46.75
   2   1  17  880.78   48.27
   2   1  17  909.36   54.59
   2   1  18  554.24   45.44
  -2  -1 -18  539.76   40.07
   2   1  18  494.49   40.20
   2   1  18  598.07   48.61
   2   1  19 2007.45   68.80
  -2  -1 -19 1846.46   60.58
   2   1  19 1855.72   68.01
   2   1  19 1917.69   70.36
   2   1  20   90.59   32.06
  -2  -1 -20   91.90   30.37
   2   1  20  130.32   35.51
   2   1  21 4867.87  118.99
  -2  -1 -21 5064.40  126.38
   2   1  21 4948.56  117.93
  -2  -2  19 3436.43   98.32
   2   2 -19 3325.10  125.21
   2   2 -19 3371.24   94.73
  -2  -2  19 3216.05  113.36
  -2  -2  18 1265.09   56.89
   2   2 -18 1234.45   64.25
   2   2 -18 1223.41   55.66
  -2  -2  18 1213.09   59.55
  -2  -2  17  143.33   32.39
   2   2 -17  138.02   39.68
   2   2 -17  102.40   31.37
  -2  -2  17   80.88   33.09
  -2  -2  16 1807.78   65.62
   2   2 -16 1919.61   74.18
   2   2 -16 1938.87   67.50
  -2  -2  16 1807.28   68.04
  -2  -2  15  786.79   47.05
   2   2 -15  749.76   52.24
   2   2 -15  781.02   47.81
  -2  -2  15  717.18   46.81
  -2  -2  14  645.27   42.16
   2   2 -14  614.98   54.89
   2   2 -14  563.39   44.33
  -2  -2  14  732.41   47.23
  -2  -2  13  633.59   39.65
   2   2 -13  687.20   51.51
   2   2 -13  604.01   48.13
   2   2 -13  604.98   44.46
  -2  -2  13  629.90   44.84
  -2  -2  12 5824.84  106.89
   2   2 -12 5853.54  121.20
   2   2 -12 5917.39  139.81
  -2  -2  12 5898.39  133.53
   2   2 -11 7572.15  160.60
  -2  -2  11 7784.37  137.13
  -2  -2  11 7473.10  128.48
   2   2 -11 7756.74  138.20
   2   2 -11 8035.77  129.23
   2   2 -11 7779.12  145.28
  -2  -2  11 7620.02  127.93
   2   2 -10  117.16   29.30
  -2  -2  10  118.30   27.81
  -2  -2  10   99.10   18.96
   2   2 -10  103.98   34.58
   2   2 -10  110.22   30.63
   2   2 -10   91.32   34.84
  -2  -2   922275.30  355.41
   2   2  -923600.68  369.29
   2   2  -921976.04  357.46
   2   2  -923279.63  395.29
  -2  -2   8 3343.31   96.48
   2   2  -8 3266.97   99.69
   2   2  -8 3221.47   91.28
   2   2  -712275.72  293.94
   2   2  -712386.57  286.16
  -2  -2   713191.70  305.92
   2   2  -6 1010.54   52.87
   2   2  -6  956.90   44.28
  -2  -2   6  997.75   47.68
  -2  -2   6 1033.27   55.84
   2   2  -5 8832.80  242.31
   2   2  -5 8472.90  232.63
   2   2  -5 8832.11  235.86
  -2  -2   5 7955.33  239.49
  -2  -2   5 8606.32  250.78
   2   2  -4 1679.59   65.52
   2   2  -4 1712.89   66.12
   2   2  -4 1741.32   58.00
  -2  -2   4 1504.63   55.58
  -2  -2   4 1761.12   68.23
   2   2  -313191.11  298.79
  -2  -2   313592.01  297.06
   2   2  -312604.87  287.27
   2   2  -312985.37  283.74
  -2  -2   312255.30  272.03
  -2  -2   313207.33  298.74
   2   2  -312541.20  298.43
   2   2  -2 9812.44  264.77
  -2  -2   2 8358.75  259.83
  -2  -2   2 9711.68  255.83
   2   2  -2 9093.57  253.03
   2   2  -2 9530.02  250.06
  -2  -2   2 9484.42  263.56
  -2  -2   2 9219.40  253.38
  -2  -2   2 8907.95  244.46
  -2  -2   149234.31  544.03
  -2  -2   152352.79  550.05
  -2  -2   152138.29  549.18
  -2  -2   149968.91  546.50
   2   2   084579.53  831.19
  -2  -2   085156.14  865.83
  -2  -2   081383.28  847.80
  -2  -2   082655.65  793.27
   2   2   086060.16  838.85
  -2  -2   083270.37  824.52
   2   2   1167001.6  713.93
  -2  -2  -1163264.6 1505.40
  -2  -2  -1164968.0  565.31
   2   2   1163103.9 1500.66
  -2  -2  -237177.22  492.29
  -2  -2  -238698.99  453.71
   2   2   237950.63  424.79
  -2  -2  -3 8318.15  233.93
  -2  -2  -3 9520.78  264.24
  -2  -2  -3 8769.09  233.75
   2   2   3 8337.42  248.07
   2   2   3 9176.65  243.17
  -2  -2  -426352.73  357.82
   2   2   426698.92  345.99
  -2  -2  -425786.92  313.30
   2   2   423647.74  489.39
   2   2   424110.87  489.41
  -2  -2  -5 1092.20   63.03
   2   2   5 1133.32   53.14
  -2  -2  -6 3243.65   98.15
   2   2   6 3082.83   85.90
  -2  -2  -7  137.22   25.64
   2   2   7  119.68   20.29
  -2  -2  -7  105.62   21.90
  -2  -2  -8 3074.41  115.27
  -2  -2  -8 3164.56  109.94
  -2  -2  -9 9304.85  238.65
  -2  -2  -9 9708.15  231.76
  -2  -2 -10 7241.80  156.43
  -2  -2 -10 7146.82  143.86
  -2  -2 -10 7564.16  139.63
   2   2  10 7116.68  121.88
   2   2  10 6966.11  129.81
   2   2  10 6672.48  158.11
  -2  -2 -11  573.45   37.45
   2   2  11  538.75   36.95
   2   2  11  508.75   38.71
  -2  -2 -12 2056.67   68.99
   2   2  12 1979.72   63.88
   2   2  12 1728.08   58.03
  -2  -2 -12 1921.63   65.50
   2   2  12 2022.12   62.95
   2   2  12 1961.39   64.15
   2   2  13  845.30   44.14
   2   2  13  820.78   41.19
  -2  -2 -13  735.86   43.02
   2   2  13  822.16   43.33
   2   2  13  871.94   43.93
   2   2  14  607.70   40.49
  -2  -2 -14  575.53   34.88
  -2  -2 -14  524.64   41.92
   2   2  14  538.03   39.42
   2   2  14  594.67   41.76
   2   2  15 4095.05   95.39
  -2  -2 -15 4322.01   91.09
  -2  -2 -15 4057.44   99.69
   2   2  15 4057.71  103.81
   2   2  15 4100.48   90.36
   2   2  16  686.46   43.98
  -2  -2 -16  784.39   40.32
  -2  -2 -16  728.35   47.86
   2   2  16  768.54   48.62
   2   2  16  806.00   43.77
  -2  -2 -17  257.87   31.42
   2   2  17  249.84   39.56
   2   2  17  262.47   34.31
  -2  -2 -18 6921.34  117.62
   2   2  18 7292.77  135.97
   2   2  18 6659.12  124.92
   2   2  18 6891.54  121.58
  -2  -2 -19   17.88   25.20
   2   2  19    4.21   24.72
   2   2  19   28.54   32.50
   2   2  19   28.41   30.03
  -2  -2 -20   24.17   35.08
   2   2  20   64.75   39.20
   2   2  20   82.67   33.27
   2   2  21 2480.53   83.24
  -2  -3  19 2089.33   75.35
   2   3 -19 2119.61  102.62
   2   3 -19 2023.42   78.67
  -2  -3  19 1959.42  102.07
  -2  -3  18 1095.97   56.80
   2   3 -18 1136.57   67.32
   2   3 -18 1068.83   49.09
  -2  -3  18 1127.30   56.99
  -2  -3  17 2430.22   74.83
   2   3 -17 2368.69   81.26
   2   3 -17 2352.72   76.21
  -2  -3  17 2343.41   75.48
  -2  -3  16 1226.90   53.15
   2   3 -16 1227.78   65.96
   2   3 -16 1172.29   56.97
  -2  -3  16 1203.51   55.37
  -2  -3  15 2633.18   76.67
   2   3 -15 2573.51   88.76
   2   3 -15 2752.69   78.06
  -2  -3  15 2724.93   78.25
  -2  -3  14 6133.57  109.20
   2   3 -14 5772.38  129.17
   2   3 -14 5914.16  115.62
  -2  -3  14 5984.31  115.29
  -2  -3  13 2591.35   73.37
   2   3 -13 2562.89   86.77
   2   3 -13 2634.30   76.58
  -2  -3  13 2716.35   79.81
  -2  -3  1210487.84  187.50
   2   3 -12 9553.59  189.05
   2   3 -1210249.83  207.01
   2   3 -1210325.68  194.31
  -2  -3  11 6715.27  163.69
  -2  -3  11 6696.95  149.55
   2   3 -11 7066.02  158.10
   2   3 -11 6733.38  169.84
   2   3 -10 4951.73  111.93
   2   3 -10 4743.50  105.52
   2   3 -10 5053.49  140.14
   2   3  -9  151.78   26.42
   2   3  -9  144.07   26.95
   2   3  -9  154.80   25.69
   2   3  -9  134.67   28.30
   2   3  -9  152.81   33.52
   2   3  -8 3641.67   97.59
   2   3  -8 3558.65  101.68
   2   3  -8 3755.81  103.48
   2   3  -8 3509.09   92.02
   2   3  -7 5019.76  111.46
   2   3  -6  419.11   41.43
   2   3  -6  406.47   31.83
   2   3  -5 3374.55  121.36
   2   3  -5 3122.20  122.56
   2   3  -5 2649.07  281.34
   2   3  -5 3187.48  285.52
   2   3  -4 2217.63   76.19
   2   3  -4 2189.87   73.26
   2   3  -312909.92  293.03
  -2  -3   312417.80  289.76
   2   3  -312416.03  282.75
   2   3  -2 3638.79   95.92
  -2  -3   2 3334.30  103.14
  -2  -3   2 3731.67   86.20
   2   3  -2 3369.99   86.67
  -2  -3   157524.62  642.21
   2   3  -162515.20  669.06
   2   3   030413.05  371.39
  -2  -3   029156.96  373.21
  -2  -3   030793.17  352.57
  -2  -3   028600.82  342.97
   2   3   030610.30  364.12
  -2  -3   029538.45  353.64
   2   3   1 2759.33   86.49
  -2  -3  -1 2565.91   79.60
  -2  -3  -1 2439.16   72.22
   2   3   1 2593.11   74.29
  -2  -3  -1 2411.13   74.39
  -2  -3  -214744.59  316.11
   2   3   213948.84  308.39
  -2  -3  -213892.72  310.91
  -2  -3  -3 3800.66   91.54
  -2  -3  -3 3854.81   87.32
   2   3   3 3436.45   88.64
  -2  -3  -3 3778.42  102.99
  -2  -3  -417457.48  369.58
  -2  -3  -417620.16  371.12
   2   3   415476.58  338.12
   2   3   415172.73  326.57
  -2  -3  -415180.75  346.00
  -2  -3  -516235.87  370.53
   2   3   516120.93  351.88
  -2  -3  -516332.86  349.63
  -2  -3  -517385.33  363.81
   2   3   516187.80  344.88
  -2  -3  -6 9412.70  244.28
   2   3   6 9372.16  234.80
  -2  -3  -6 9015.24  221.35
  -2  -3  -6 9524.67  224.72
   2   3   6 9693.25  231.24
  -2  -3  -713922.78  323.92
  -2  -3  -714921.79  335.02
   2   3   715555.54  345.16
  -2  -3  -8 3787.10  138.75
  -2  -3  -8 4065.36  139.27
   2   3   8 3851.71  129.78
  -2  -3  -9 2854.28  101.24
  -2  -3  -9 2916.57   82.48
  -2  -3  -9 2851.93   81.16
   2   3   9 2874.32   78.19
   2   3   9 2708.62   77.63
   2   3   9 2760.15   76.75
  -2  -3 -10 1433.91   63.46
  -2  -3 -10 1322.55   51.96
   2   3  10 1362.79   55.39
   2   3  10 1322.82   53.21
   2   3  10 1345.85   55.98
   2   3  10 1368.51   55.59
   2   3  10 1373.58   54.27
  -2  -3 -11 4251.94  104.11
   2   3  11 4233.26   98.00
   2   3  11 3821.86   92.94
  -2  -3 -11 3827.38   91.22
   2   3  11 4077.26   88.77
   2   3  11 4043.91   92.71
  -2  -3 -12 5818.90  112.92
   2   3  12 5818.49  119.17
  -2  -3 -12 5202.27   97.22
  -2  -3 -12 5413.62  109.46
   2   3  12 5756.04  106.41
   2   3  12 5686.07  113.81
  -2  -3 -13  894.97   41.62
  -2  -3 -13  854.69   46.43
   2   3  13  964.65   47.51
   2   3  13  896.22   47.46
  -2  -3 -14  512.83   38.19
  -2  -3 -14  480.99   39.89
   2   3  14  493.46   37.62
   2   3  14  472.95   38.35
  -2  -3 -15 4163.74   89.09
  -2  -3 -15 3904.97   98.13
   2   3  15 4015.73   86.66
   2   3  15 3960.65   92.30
  -2  -3 -16   21.37   19.14
  -2  -3 -16   65.26   32.21
   2   3  16   39.80   27.95
   2   3  16   52.48   31.44
  -2  -3 -17  141.25   31.62
   2   3  17  139.69   40.42
  -2  -3 -17  160.76   39.11
   2   3  17  162.82   33.89
   2   3  17  125.66   34.77
  -2  -3 -1810286.72  146.37
   2   3  1810589.74  157.71
   2   3  18 9705.22  166.27
   2   3  1810078.34  149.30
  -2  -3 -19 2186.14   99.11
   2   3  19 2287.44   76.48
   2   3  19 2321.89   75.82
   2   3  20  686.71   47.23
  -2  -3 -20  686.94   42.55
   2   3  20  649.44   50.97
   2   3  20  697.90   44.81
  -2  -4  19   36.38   31.92
   2   4 -19   46.55   39.44
   2   4 -19   21.82   33.77
  -2  -4  19   39.33   46.37
  -2  -4  18 1573.90   63.21
   2   4 -18 1516.77   70.82
   2   4 -18 1510.21   62.49
  -2  -4  18 1566.22   67.45
  -2  -4  17 4144.05   98.76
   2   4 -17 3876.87  106.73
   2   4 -17 3994.29   96.21
  -2  -4  17 3973.66  102.17
  -2  -4  16 3944.58   93.63
   2   4 -16 4033.11  108.10
   2   4 -16 3782.88   96.40
  -2  -4  16 4029.30   94.25
  -2  -4  15 3014.29   78.54
   2   4 -15 3070.43   94.21
   2   4 -15 2892.06   79.93
  -2  -4  15 3074.26   82.80
  -2  -4  14 2793.31   76.29
   2   4 -14 2360.16   80.94
   2   4 -14 2713.40   75.95
  -2  -4  14 2756.40   79.87
  -2  -4  13  433.21   42.21
   2   4 -13  531.20   43.66
  -2  -4  12 3101.49   76.07
   2   4 -12 3085.01   82.45
   2   4 -11 5429.76  105.96
   2   4 -11 4957.76  108.58
   2   4 -11 5314.01  126.53
   2   4 -11 5562.48  135.98
   2   4 -1019005.46  233.22
  -2  -4  1019226.62  248.05
   2   4 -1020460.58  214.43
   2   4 -1019968.32  236.31
   2   4  -9 5666.76  139.30
  -2  -4   9 5133.25  111.34
   2   4  -9 5456.88  129.56
   2   4  -9 5802.87  137.39
   2   4  -9 5118.19  112.33
   2   4  -9 5664.51  151.98
   2   4  -8 8590.97  166.57
  -2  -4   8 8649.33  162.39
   2   4  -8 8518.62  161.57
   2   4  -8 8523.67  171.62
   2   4  -8 8293.44  156.80
   2   4  -8 8121.08  173.55
   2   4  -7   89.55   32.97
  -2  -4   7   74.29   31.31
   2   4  -6  431.26   41.43
  -2  -4   6  448.08   42.34
   2   4  -5  348.43   41.03
  -2  -4   5  379.03   34.06
   2   4  -419848.14  327.13
  -2  -4   419135.86  352.41
   2   4  -3 5448.30  165.03
  -2  -4   3 5172.02  169.57
   2   4  -3 5455.79  172.50
  -2  -4   3 5749.68  174.12
   2   4  -218979.52  405.00
   2   4  -220178.13  433.70
  -2  -4   220994.33  447.64
   2   4  -1 1414.39   60.83
  -2  -4   1 1279.29   67.64
  -2  -4   1 1503.70   54.59
   2   4  -1 1299.30   63.15
  -2  -4   1 1434.06   87.34
  -2  -4   1 1331.92   57.39
  -2  -4   1 1517.87   67.97
   2   4   039878.24  451.87
  -2  -4   038806.41  438.73
  -2  -4   039606.16  423.49
  -2  -4   039872.46  419.98
   2   4   037572.06  430.60
   2   4   1 4507.39  148.48
  -2  -4  -1 4260.20  144.18
  -2  -4  -1 4081.42  121.62
   2   4   1 4176.83  131.59
   2   4   1 4368.81  136.00
  -2  -4  -1 3958.55  131.17
  -2  -4  -2 2253.12   68.32
  -2  -4  -2 2320.77   65.35
   2   4   2 2089.93   85.94
   2   4   2 2276.75   72.50
  -2  -4  -2 2360.63   75.79
  -2  -4  -3 3859.29   92.85
  -2  -4  -3 3904.51   84.36
   2   4   3 3431.74   92.20
   2   4   3 3896.33   91.75
  -2  -4  -3 3313.33  121.53
  -2  -4  -4 3888.52   89.62
  -2  -4  -4 3716.64   82.98
   2   4   4 3908.78   91.22
  -2  -4  -5 5223.68  154.04
  -2  -4  -5 5127.16  147.41
   2   4   5 5462.44  160.50
  -2  -4  -6 5550.55  130.61
  -2  -4  -6 5769.94  126.04
   2   4   6 5808.44  133.40
  -2  -4  -7    8.69   20.25
  -2  -4  -7   22.33   21.57
  -2  -4  -7   22.42   22.69
   2   4   7   16.85   22.93
  -2  -4  -8 7046.80  154.11
   2   4   8 7021.23  154.89
  -2  -4  -9  231.65   28.28
   2   4   9  204.83   28.72
  -2  -4  -9  213.15   25.59
   2   4   9  221.19   25.06
   2   4   9  194.45   26.63
  -2  -4 -10  -14.30   27.33
   2   4  10   21.38   15.98
  -2  -4 -10   24.33   15.00
  -2  -4 -10    2.28   20.82
   2   4  10    0.53   23.84
   2   4  10   15.23   20.34
  -2  -4 -11 8287.18  138.74
   2   4  11 8279.58  152.38
   2   4  11 8288.00  139.16
   2   4  11 8373.27  148.41
  -2  -4 -1210124.73  211.66
   2   4  12 9664.38  204.79
  -2  -4 -12 9384.21  198.79
   2   4  12 9947.75  197.88
   2   4  1210271.79  207.41
  -2  -4 -13 4620.89  104.08
  -2  -4 -13 4650.72  101.29
   2   4  13 4785.29   98.96
   2   4  13 4913.58  102.49
   2   4  14  806.53   46.09
  -2  -4 -14  878.72   46.58
  -2  -4 -14  901.24   49.77
   2   4  14  903.73   48.61
   2   4  14  885.79   48.65
   2   4  15  453.72   39.50
  -2  -4 -15  460.39   38.38
  -2  -4 -15  429.61   39.25
   2   4  15  461.45   39.84
   2   4  15  452.85   39.02
   2   4  16   51.34   26.56
  -2  -4 -16   11.01   29.13
   2   4  16   16.72   35.55
  -2  -4 -16   38.69   31.20
   2   4  16   31.45   24.70
   2   4  16   22.87   28.99
   2   4  17  172.20   33.76
  -2  -4 -17  170.12   34.47
   2   4  17  189.12   34.26
  -2  -4 -17  164.98   35.64
   2   4  17  156.89   35.09
   2   4  17  188.25   39.04
   2   4  18 9081.13  140.34
  -2  -4 -18 8995.26  138.90
   2   4  18 9355.64  153.96
   2   4  18 8723.55  157.43
   2   4  18 9175.86  138.69
   2   4  19 4372.19  108.80
  -2  -4 -19 4214.88   86.50
   2   4  19 4469.03  112.18
   2   4  19 4216.11   97.54
   2   4  20  117.77   33.26
  -2  -4 -20  114.60   32.16
   2   4  20  136.54   38.62
   2   4  20  135.40   30.63
  -2  -5  19 1411.32   65.77
   2   5 -19 1332.52   86.34
   2   5 -19 1380.54   65.15
  -2  -5  18 3372.39   88.92
   2   5 -18 3256.74  116.30
   2   5 -18 3175.72   93.70
  -2  -5  18 3190.93  116.76
  -2  -5  17   33.76   30.75
   2   5 -17   21.09   28.75
   2   5 -17   50.83   34.99
  -2  -5  17   29.58   30.87
  -2  -5  16  282.01   36.22
   2   5 -16  311.13   45.67
   2   5 -16  328.25   37.12
  -2  -5  16  361.86   39.62
  -2  -5  15  100.16   34.60
   2   5 -15   76.81   33.07
  -2  -5  15  100.98   32.71
  -2  -5  14  111.74   32.98
   2   5 -14  128.45   34.82
  -2  -5  1322245.76  280.21
   2   5 -1321948.26  282.58
   2   5 -1216834.68  235.50
   2   5 -1216517.50  251.78
   2   5 -1217143.49  241.59
   2   5 -1216792.46  246.13
   2   5 -11   68.90   22.97
   2   5 -11   47.47   24.14
   2   5 -11   44.90   31.10
   2   5 -11   82.68   37.89
   2   5 -11   75.80   29.65
   2   5 -10 3485.93  107.01
  -2  -5  10 3205.26   93.21
   2   5 -10 3628.86   87.74
   2   5 -10 3793.19  100.02
   2   5 -10 3542.69   84.67
   2   5 -10 3611.02  104.87
   2   5 -10 3545.73   97.99
   2   5  -9 8315.96  253.87
   2   5  -9 8635.45  146.06
   2   5  -9 8873.86  154.05
   2   5  -9 8870.60  181.94
   2   5  -9 8119.82  166.31
   2   5  -8 1080.01   60.46
  -2  -5   8 1107.16   52.06
   2   5  -8 1070.35   49.54
   2   5  -8 1162.56   48.03
   2   5  -8 1123.54   63.58
   2   5  -7  327.80   33.13
  -2  -5   7  308.25   37.23
   2   5  -7  292.84   30.86
   2   5  -7  317.30   31.92
   2   5  -6  557.34   43.78
  -2  -5   6  597.24   45.06
   2   5  -5 3484.29  124.99
  -2  -5   5 3371.31  124.76
   2   5  -4 6436.57  152.78
  -2  -5   4 6282.83  147.53
   2   5  -3 5085.40  113.41
  -2  -5   3 4827.47  178.56
   2   5  -2 2308.63   76.45
  -2  -5   2 2391.45   85.14
  -2  -5   2 2500.67   82.98
   2   5  -1  354.88   34.34
  -2  -5   1  317.63   29.52
  -2  -5   1  332.83   27.88
  -2  -5   1  337.48   27.48
   2   5  -1  310.93   27.64
  -2  -5   1  350.53   39.94
   2   5   0  128.06   29.12
  -2  -5   0  131.87   22.72
  -2  -5   0  129.22   19.79
   2   5   0  145.89   20.96
  -2  -5   0  132.87   31.82
   2   5   113333.12  305.67
  -2  -5  -113230.01  311.69
  -2  -5  -113860.96  300.30
   2   5   112950.96  287.90
   2   5   113801.33  307.95
   2   5   215976.30  383.92
  -2  -5  -214961.12  319.14
  -2  -5  -215371.24  322.37
   2   5   215444.57  334.26
  -2  -5  -3 7707.31  207.25
  -2  -5  -3 7713.24  204.90
   2   5   3 8090.66  221.32
  -2  -5  -4 3617.57  120.83
  -2  -5  -4 3770.40  121.53
   2   5   4 3835.71  130.46
  -2  -5  -5  291.08   31.62
  -2  -5  -5  265.51   28.58
   2   5   5  299.76   32.56
  -2  -5  -6 1409.06   55.27
  -2  -5  -6 1403.12   50.25
   2   5   6 1430.26   57.75
  -2  -5  -7   -4.06   19.48
  -2  -5  -7    2.50   19.51
   2   5   7    7.13   15.56
  -2  -5  -8   79.77   22.24
  -2  -5  -8   74.10   17.39
   2   5   8   70.13   23.28
   2   5   8   79.26   21.72
  -2  -5  -8   87.91   16.78
   2   5   8   88.82   18.11
   2   5   8   69.02   21.71
  -2  -5  -9 7350.18  154.35
  -2  -5  -9 7442.46  150.83
   2   5   9 7143.92  155.31
   2   5   9 6885.68  153.33
  -2  -5  -9 6815.87  140.72
   2   5   9 7070.93  162.87
  -2  -5  -9 6666.60  150.55
   2   5   9 6594.01  159.15
   2   5   9 6796.96  151.42
   2   5  10  200.96   31.46
   2   5  10  179.20   28.10
  -2  -5 -10  174.74   28.69
  -2  -5 -10  169.33   27.32
   2   5  10  203.21   27.26
   2   5  10  206.06   32.18
  -2  -5 -11 1751.04   63.24
   2   5  11 1776.96   69.33
   2   5  11 1701.58   64.73
  -2  -5 -11 1710.86   61.72
  -2  -5 -11 1645.44   65.72
   2   5  11 1908.29   70.30
   2   5  11 1868.80   65.69
   2   5  12 1574.91   61.00
   2   5  12 1705.69   62.74
  -2  -5 -12 1491.70   57.27
   2   5  12 1606.20   58.72
   2   5  12 1619.18   58.28
   2   5  13 2240.73   65.98
   2   5  13 2441.13   74.22
  -2  -5 -13 2206.11   68.04
   2   5  13 2218.55   68.40
   2   5  13 2382.80   70.39
   2   5  14  175.70   33.42
  -2  -5 -14  157.59   31.08
   2   5  14  224.71   35.19
  -2  -5 -14  214.26   32.89
   2   5  14  210.38   29.62
   2   5  14  190.54   33.76
   2   5  15  411.16   34.56
  -2  -5 -15  386.28   31.51
   2   5  15  356.00   41.46
  -2  -5 -15  315.29   38.00
   2   5  15  370.80   37.47
   2   5  15  377.77   38.27
   2   5  16 4758.23  112.26
  -2  -5 -16 4820.89  111.59
   2   5  16 4627.84  118.29
  -2  -5 -16 4708.85  119.99
   2   5  16 4463.66  115.66
   2   5  16 4556.29  114.20
   2   5  17 2373.27   70.57
  -2  -5 -17 2462.71   71.24
   2   5  17 2415.80   73.96
   2   5  17 2423.45   75.36
   2   5  17 2501.91   81.21
   2   5  17 2451.28   72.27
   2   5  18 2769.70   79.01
  -2  -5 -18 2657.93   76.96
   2   5  18 2667.77   86.19
  -2  -5 -18 2681.80   85.97
   2   5  18 2790.62   79.71
   2   5  19 1240.59   58.61
  -2  -5 -19 1245.27   54.34
   2   5  19 1202.34   60.90
   2   5  19 1225.54   55.11
   2   5  20  583.01   49.00
  -2  -5 -20  543.86   41.08
   2   5  20  558.73   48.62
   2   5  20  516.66   42.84
  -2  -6  18  256.10   37.05
   2   6 -18  294.20   45.08
   2   6 -18  225.35   39.31
  -2  -6  18  241.35   40.15
  -2  -6  17 1400.16   56.67
   2   6 -17 1331.75   59.33
  -2  -6  17 1288.64   69.15
  -2  -6  16 2113.69   65.76
   2   6 -16 1934.73   66.91
  -2  -6  16 2076.85   72.37
  -2  -6  15 1310.47   56.17
   2   6 -15 1260.66   60.23
  -2  -6  15 1233.04   57.29
  -2  -6  14  316.58   37.20
   2   6 -14  388.96   47.58
   2   6 -14  352.07   42.49
  -2  -6  13 6463.45  116.43
   2   6 -13 6283.00  125.67
   2   6 -13 6259.65  120.02
   2   6 -12 4020.05   92.17
   2   6 -12 4098.25  106.35
   2   6 -12 4249.02   99.72
   2   6 -12 4151.24   97.38
   2   6 -11 1198.92   54.31
   2   6 -11 1370.23   59.73
   2   6 -11 1358.07   57.92
   2   6 -11 1280.68   59.36
   2   6 -10 7449.88  165.75
   2   6 -10 7924.93  182.84
   2   6 -10 7618.00  166.63
   2   6 -10 7507.81  188.67
   2   6 -10 7337.79  165.26
   2   6  -911924.18  188.98
  -2  -6   911831.85  227.88
   2   6  -912289.85  156.99
   2   6  -912463.20  164.46
   2   6  -912331.86  206.60
   2   6  -912319.70  168.68
   2   6  -8   -2.24   29.37
  -2  -6   8    9.46   28.43
   2   6  -8   51.43   24.87
   2   6  -8   10.31   25.66
   2   6  -8   17.76   33.15
   2   6  -8   47.29   18.65
  -2  -6   8   27.64   21.82
   2   6  -7 2165.50   77.11
  -2  -6   7 2172.23   76.76
   2   6  -7 2191.31   66.79
   2   6  -7 2130.17   65.39
   2   6  -7 2284.53   84.47
  -2  -6   7 1972.62   62.31
   2   6  -6  355.40   39.04
  -2  -6   6  379.54   39.22
   2   6  -6  341.53   29.00
   2   6  -6  344.84   39.85
   2   6  -6  336.59   30.82
   2   6  -5 2057.60   73.19
  -2  -6   5 2074.15   77.53
   2   6  -4  394.83   35.56
  -2  -6   4  352.57   38.66
   2   6  -3 5660.46  141.58
  -2  -6   3 5628.80  137.63
   2   6  -2 8178.03  181.28
  -2  -6   2 8814.34  223.20
   2   6  -1  817.61   49.02
  -2  -6   1  754.16   48.98
  -2  -6   1  878.29   42.63
   2   6  -1  785.87   41.84
  -2  -6   1  884.04   54.06
   2   6   0  660.44   45.76
  -2  -6   0  693.00   52.82
  -2  -6   0  720.45   37.94
   2   6   0  679.67   40.73
  -2  -6   0  724.79   50.39
   2   6   1 4663.88  157.02
  -2  -6  -1 5142.40  170.42
  -2  -6  -1 5169.27  129.63
  -2  -6  -1 5312.06  119.69
   2   6   1 5233.32  127.43
   2   6   2 5477.75  156.40
   2   6   2 5342.94  138.79
  -2  -6  -2 5342.72  119.79
  -2  -6  -2 5533.38  125.42
   2   6   2 5726.44  134.43
  -2  -6  -3   86.69   23.01
  -2  -6  -3   70.83   19.25
   2   6   3   87.09   20.29
  -2  -6  -4   32.60   21.76
  -2  -6  -4   19.61   18.54
   2   6   4   -6.49   22.09
  -2  -6  -5 6195.60  134.53
  -2  -6  -5 6427.22  134.48
   2   6   5 6195.27  140.67
  -2  -6  -6 1938.61   65.17
  -2  -6  -6 1967.92   65.09
   2   6   6 1965.44   67.04
  -2  -6  -7 1315.92   53.44
  -2  -6  -7 1410.92   52.22
   2   6   7 1380.81   57.11
   2   6   7 1362.18   52.71
  -2  -6  -7 1428.91   55.22
   2   6   7 1358.93   61.83
   2   6   7 1345.69   58.75
  -2  -6  -8 5960.67  144.48
  -2  -6  -8 6127.88  132.46
   2   6   8 5848.97  138.11
   2   6   8 5902.43  143.88
  -2  -6  -8 6038.77  131.45
   2   6   8 5772.10  157.06
  -2  -6  -8 5951.82  133.08
   2   6   8 5915.46  131.62
   2   6   8 5722.30  132.98
  -2  -6  -914003.85  205.75
   2   6   913776.24  195.86
   2   6   913695.59  205.85
  -2  -6  -912928.59  182.53
   2   6   913772.87  199.08
   2   6   913078.79  198.53
  -2  -6  -912894.85  197.87
   2   6   913329.07  185.17
   2   6   913725.24  191.82
  -2  -6 -10 8316.06  138.42
   2   6  10 7721.96  134.48
   2   6  10 7707.93  137.26
  -2  -6 -10 7783.01  121.59
   2   6  10 7697.63  140.87
  -2  -6 -10 7299.41  126.53
   2   6  10 7645.46  127.38
   2   6  10 7919.08  134.19
   2   6  11  152.51   36.42
   2   6  11  189.07   30.89
  -2  -6 -11  144.64   27.14
   2   6  11  147.76   33.78
  -2  -6 -11  185.23   31.37
   2   6  11  184.67   31.11
   2   6  11  174.70   30.40
   2   6  12 4583.97   99.80
   2   6  12 4513.41  101.02
  -2  -6 -12 4251.42   96.85
   2   6  12 4425.54   92.44
   2   6  12 4649.32  100.70
   2   6  13 8124.72  151.40
   2   6  13 8184.19  156.15
  -2  -6 -13 7728.99  149.08
   2   6  13 7983.73  143.13
   2   6  13 8070.14  148.54
   2   6  14   20.19   27.91
   2   6  14   -9.91   23.65
  -2  -6 -14   -7.61   26.52
   2   6  14    4.82   19.81
   2   6  14    1.28   25.38
   2   6  15 1647.26   60.91
  -2  -6 -15 1565.16   54.39
   2   6  15 1567.69   66.03
   2   6  15 1590.13   61.01
   2   6  15 1593.43   64.30
   2   6  15 1712.81   62.31
   2   6  16 2123.15   69.60
  -2  -6 -16 2169.56   71.11
   2   6  16 2164.43   72.34
  -2  -6 -16 2030.08   74.37
   2   6  16 1945.03   68.88
   2   6  16 2178.02   70.27
   2   6  16 2104.92   69.40
   2   6  17 1681.04   62.51
  -2  -6 -17 1596.86   63.75
   2   6  17 1515.95   66.57
   2   6  17 1571.01   60.37
   2   6  17 1568.07   96.74
   2   6  17 1613.36   57.84
   2   6  18  912.22   50.64
  -2  -6 -18  917.16   48.14
   2   6  18  914.15   54.13
   2   6  18  921.97   53.11
   2   6  18  929.12   48.52
   2   6  19 2154.39   76.04
  -2  -6 -19 2088.69   95.06
   2   6  19 2103.59   83.02
   2   6  19 1993.59   68.83
  -2  -7  18  597.34   44.27
   2   7 -18  529.20   47.08
  -2  -7  18  525.76   51.43
  -2  -7  17  250.15   35.96
   2   7 -17  280.80   35.39
  -2  -7  17  268.01   39.26
  -2  -7  16  154.33   27.58
   2   7 -16  131.08   41.00
   2   7 -16  129.46   33.99
  -2  -7  16  129.30   37.39
  -2  -7  15  867.13   49.96
   2   7 -15  951.30   60.90
   2   7 -15  974.55   52.03
   2   7 -14  396.35   48.81
   2   7 -14  375.02   41.55
   2   7 -13  284.32   39.74
   2   7 -13  181.48   36.12
   2   7 -12  313.40   38.18
   2   7 -12  303.66   42.29
   2   7 -12  356.01   39.85
   2   7 -11  341.36   32.34
   2   7 -11  340.49   43.77
   2   7 -11  386.64   42.52
   2   7 -11  378.67   34.79
   2   7 -10  -10.66   31.87
   2   7 -10   11.25   21.05
   2   7 -10   64.16   36.68
   2   7 -10   14.71   29.42
  -2  -7  10   24.40   25.79
  -2  -7   9  152.33   32.15
   2   7  -9  108.02   31.03
   2   7  -9  106.57   40.82
   2   7  -9  128.84   31.74
  -2  -7   9  115.71   27.73
   2   7  -8 8943.12  170.16
  -2  -7   8 9082.37  188.70
   2   7  -8 9070.41  143.80
   2   7  -8 9204.60  165.55
   2   7  -8 9313.36  166.23
  -2  -7   8 8411.98  132.64
   2   7  -7  558.40   44.79
  -2  -7   7  497.08   38.14
   2   7  -7  468.59   35.96
   2   7  -7  512.49   49.96
   2   7  -7  448.79   39.31
  -2  -7   7  424.27   32.25
   2   7  -6    8.60   18.44
  -2  -7   6   -7.85   30.32
   2   7  -6    4.75   20.00
   2   7  -6    3.32   36.35
  -2  -7   6    8.00   13.27
   2   7  -6    8.41   15.39
   2   7  -5 2719.11   80.86
  -2  -7   5 2634.66   91.66
   2   7  -5 2643.43   73.71
   2   7  -5 2825.59  101.28
  -2  -7   5 2565.45   76.38
   2   7  -5 2698.77   86.46
   2   7  -4  673.75   45.98
  -2  -7   4  693.30   45.27
   2   7  -4  618.32   39.25
   2   7  -4  611.98   45.00
   2   7  -3  279.04   35.27
  -2  -7   3  252.55   35.06
   2   7  -2  871.42   47.32
  -2  -7   2  869.36   51.66
   2   7  -1  124.87   25.97
  -2  -7   1  109.32   19.45
  -2  -7   1  105.01   29.04
   2   7   0  360.86   34.70
  -2  -7   0  410.78   31.02
  -2  -7   0  409.07   39.01
   2   7   1 2726.50   82.23
  -2  -7  -1 2905.44   79.19
  -2  -7  -1 2977.30  115.87
  -2  -7  -2  562.65   33.52
   2   7   2  547.06   38.61
  -2  -7  -3   55.54   22.49
  -2  -7  -3   43.85   17.37
   2   7   3   53.97   23.92
  -2  -7  -4 2165.99   68.56
  -2  -7  -4 2317.91   66.90
   2   7   4 2171.03   70.37
  -2  -7  -5  178.54   25.80
  -2  -7  -5  148.70   19.57
   2   7   5  174.62   28.24
   2   7   5  191.69   28.27
   2   7   5  136.14   23.21
   2   7   5  153.17   25.47
   2   7   5  192.63   25.20
   2   7   5  161.19   25.07
  -2  -7  -611705.48  189.52
  -2  -7  -612054.81  182.47
   2   7   612203.31  203.54
   2   7   611679.36  185.82
  -2  -7  -611842.62  182.40
   2   7   611863.10  197.45
   2   7   611661.35  193.66
   2   7   612030.53  202.22
   2   7   612053.04  193.96
  -2  -7  -7 2192.65   67.22
  -2  -7  -7 2416.11   71.46
   2   7   7 2331.91   73.82
   2   7   7 2271.65   66.92
  -2  -7  -7 2230.97   67.72
   2   7   7 2343.95   79.44
   2   7   7 2258.51   80.72
   2   7   7 2343.71   71.01
   2   7   7 2360.71   69.16
   2   7   7 2269.34   70.97
  -2  -7  -8 6585.99  126.84
  -2  -7  -8 6282.91  127.15
   2   7   8 6420.56  131.62
   2   7   8 6622.00  124.42
  -2  -7  -8 6578.19  115.45
   2   7   8 6455.40  133.60
   2   7   8 6533.06  121.62
   2   7   8 6439.12  122.91
   2   7   8 6742.22  122.33
  -2  -7  -9 1775.09   60.04
   2   7   9 1702.71   67.24
   2   7   9 1908.85   64.08
  -2  -7  -9 1677.78   60.54
   2   7   9 1699.00   63.94
   2   7   9 1737.30   67.84
   2   7   9 1687.51   62.19
   2   7   9 1717.44   62.32
   2   7   9 1660.49   63.17
   2   7  10  -10.33   27.22
   2   7  10   -8.81   26.23
  -2  -7 -10   -9.05   20.35
   2   7  10    2.94   26.88
   2   7  10   16.68   29.83
  -2  -7 -10   20.35   22.78
   2   7  10   28.81   25.20
   2   7  10   -0.88   21.83
   2   7  10  -16.79   25.23
   2   7  11 4620.70   98.58
  -2  -7 -11 4682.06   96.04
   2   7  11 4290.03  104.85
   2   7  11 4751.70  108.79
  -2  -7 -11 4287.16   99.06
   2   7  11 4271.85   96.63
   2   7  11 4634.96   97.94
   2   7  11 4470.49   97.58
   2   7  1213697.85  201.46
  -2  -7 -1213697.17  202.42
   2   7  1213533.52  212.31
   2   7  1213836.70  203.33
   2   7  1213642.21  224.70
   2   7  1213945.69  211.58
   2   7  13   37.89   27.89
   2   7  13   55.92   41.68
  -2  -7 -13   62.81   27.85
   2   7  13   99.62   31.08
   2   7  13   96.99   27.48
   2   7  13   92.61   23.91
   2   7  14 2678.69   76.89
   2   7  14 2516.31   78.90
  -2  -7 -14 2452.48   77.58
   2   7  14 2512.86   73.89
   2   7  14 2629.47   75.53
   2   7  14 2509.82   72.96
   2   7  15 3062.75   77.75
   2   7  15 2997.63   85.61
  -2  -7 -15 3203.32  101.63
   2   7  15 3095.59  101.87
   2   7  15 2994.22   80.71
   2   7  15 3060.54   81.99
   2   7  16 1618.29   58.62
  -2  -7 -16 1660.67   65.75
   2   7  16 1587.97   66.36
   2   7  16 1634.19   60.66
   2   7  16 1547.14   74.91
   2   7  16 1647.58   64.32
   2   7  17  364.50   42.65
  -2  -7 -17  359.45   39.18
   2   7  17  362.74   44.52
   2   7  17  348.74   40.17
   2   7  17  357.30   36.60
   2   7  18  460.19   43.51
  -2  -7 -18  492.16   38.69
   2   7  18  472.22   48.52
   2   7  18  437.29   45.11
   2   7  18  445.48   39.71
   2   7  19 1649.74   78.17
  -2  -7 -19 1632.84   66.52
   2   8 -17  593.38   57.30
   2   8 -17  612.55   47.46
  -2  -8  17  603.81   51.58
   2   8 -16  492.39   47.57
   2   8 -16  457.71   42.62
  -2  -8  16  481.93   44.46
   2   8 -15   23.79   39.67
   2   8 -15  113.58   26.82
   2   8 -14   -1.12   41.03
   2   8 -14   16.16   40.79
   2   8 -13  604.20   54.56
   2   8 -13  656.03   42.96
   2   8 -12 1401.96   65.60
   2   8 -12 1473.39   62.79
   2   8 -11 5127.11  113.25
   2   8 -11 5214.92  115.64
   2   8 -11 4850.26  111.01
  -2  -8  11 4594.87   99.85
   2   8 -10 4011.40   93.71
   2   8 -10 4127.19  103.97
  -2  -8  10 3928.55   99.18
   2   8  -9 5423.98  103.83
   2   8  -9 5584.14  135.71
   2   8  -9 5661.08  107.92
  -2  -8   9 5550.00  107.10
  -2  -8   8    0.49   34.55
   2   8  -8  -34.29   25.72
   2   8  -8   26.27   29.32
   2   8  -8   24.30   37.45
   2   8  -8   32.64   28.27
  -2  -8   8    0.92   23.17
   2   8  -7  173.32   35.40
  -2  -8   7  180.54   37.60
   2   8  -7  168.72   31.33
   2   8  -7  190.52   31.74
   2   8  -7  159.37   41.26
   2   8  -7  177.55   31.05
  -2  -8   7  200.32   25.12
   2   8  -7  217.57   29.51
   2   8  -6  134.95   32.09
  -2  -8   6  114.49   27.03
   2   8  -6  118.68   21.48
   2   8  -6  124.03   28.49
   2   8  -6  116.36   32.29
   2   8  -6   98.58   25.38
  -2  -8   6  126.35   24.07
   2   8  -6  125.45   30.90
   2   8  -5  -21.07   28.83
  -2  -8   5    1.54   24.89
   2   8  -5   12.83   20.90
   2   8  -5   14.54   23.91
   2   8  -5   25.71   23.45
  -2  -8   5   -8.91   20.97
   2   8  -5   40.23   21.68
   2   8  -4  187.72   31.68
  -2  -8   4  217.28   30.39
   2   8  -4  189.87   28.00
   2   8  -4  173.59   24.57
   2   8  -4  193.80   34.30
  -2  -8   4  172.56   20.55
   2   8  -4  191.84   24.58
   2   8  -3 4679.49  115.04
  -2  -8   3 4688.62  112.84
   2   8  -3 4683.56  120.46
   2   8  -3 4894.54  129.59
  -2  -8   3 4597.38  120.97
   2   8  -3 4693.62  110.52
   2   8  -2 4024.30  111.37
  -2  -8   2 4204.59  115.32
   2   8  -2 4251.14  103.16
   2   8  -2 4134.26  107.90
   2   8  -2 4070.65  101.70
  -2  -8   2 3929.16  103.31
   2   8  -2 4087.23  101.82
   2   8  -1 1210.93   62.06
  -2  -8   1 1319.78   61.73
   2   8  -1 1256.80   65.93
   2   8  -1 1260.11   62.39
   2   8  -1 1255.75   52.13
   2   8  -1 1291.92   50.25
   2   8  -1 1209.45   59.72
  -2  -8   0 7276.38  157.61
   2   8   0 6693.27  123.44
   2   8   0 6746.70  159.09
   2   8   0 6623.05  121.91
   2   8   0 7030.14  118.17
   2   8   0 6882.80  137.72
  -2  -8  -1   16.97   15.34
  -2  -8  -1   -4.74   17.44
   2   8   1   15.16   21.72
   2   8   1    6.19   18.86
   2   8   1   12.53   18.69
   2   8   1   12.16   12.97
  -2  -8  -2  392.04   29.10
  -2  -8  -2  440.85   41.42
   2   8   2  423.26   34.89
   2   8   2  430.99   39.37
   2   8   2  367.83   33.18
   2   8   2  385.19   43.99
  -2  -8  -3 8862.93  150.08
   2   8   3 8935.66  168.27
   2   8   3 9018.05  164.25
   2   8   3 9241.47  168.33
   2   8   3 9162.00  154.59
   2   8   3 8778.95  196.39
  -2  -8  -4 1868.79   58.56
   2   8   4 1904.76   66.52
   2   8   4 1892.74   67.20
  -2  -8  -4 1777.66   59.65
   2   8   4 1845.55   66.36
   2   8   4 1807.35   60.88
   2   8   4 1900.45   61.65
   2   8   4 1935.59   65.74
  -2  -8  -5 4266.90   96.19
   2   8   5 4272.44  102.08
   2   8   5 4348.52  100.81
  -2  -8  -5 4476.21   92.68
   2   8   5 4632.87  104.98
   2   8   5 4449.44   94.54
   2   8   5 4364.77   92.22
   2   8   5 4278.37  107.41
  -2  -8  -610075.21  154.71
   2   8   610046.71  179.02
   2   8   610434.87  172.14
  -2  -8  -610615.70  156.81
   2   8   610618.21  169.99
   2   8   610349.18  155.00
   2   8   610426.45  162.79
   2   8   610456.03  160.45
  -2  -8  -7 3862.42  128.57
   2   8   7 3863.62   98.60
   2   8   7 4094.69   90.32
  -2  -8  -7 4111.02   84.81
   2   8   7 4029.22   98.50
   2   8   7 4039.62   92.31
   2   8   7 4080.64   87.83
   2   8   7 4191.26   92.65
  -2  -8  -8 2193.68   79.52
   2   8   8 2350.79   69.41
  -2  -8  -8 2466.23   74.23
   2   8   8 2259.50   76.83
   2   8   8 2258.64   76.66
   2   8   8 2420.65   71.07
   2   8   8 2318.32   74.44
   2   8   8 2254.18   70.05
   2   8   9 6240.89  142.89
  -2  -8  -9 6058.50  140.69
   2   8   9 5961.11  148.91
   2   8   9 6404.05  155.03
   2   8   9 5972.83  139.08
   2   8   9 6167.63  138.82
   2   8   9 6071.35  140.08
   2   8  10 1003.40   46.64
  -2  -8 -10 1027.98   47.22
   2   8  10  988.05   53.49
   2   8  10 1119.29   59.42
   2   8  10  982.24   53.75
   2   8  10 1017.40   47.85
   2   8  10 1044.48   50.95
   2   8  11  209.79   32.57
  -2  -8 -11  180.78   32.36
   2   8  11  195.66   33.89
   2   8  11  165.77   35.54
  -2  -8 -11  202.00   30.22
   2   8  11  164.49   29.47
   2   8  11  191.51   31.42
   2   8  11  180.62   25.49
   2   8  12 2369.93   73.32
  -2  -8 -12 2445.42   68.86
   2   8  12 2294.52   76.80
   2   8  12 2417.46   79.92
  -2  -8 -12 2216.77   72.43
   2   8  12 2418.40   73.70
   2   8  12 2346.71   68.85
   2   8  12 2414.16   69.79
   2   8  13 1113.87   48.62
  -2  -8 -13 1097.29   50.92
   2   8  13 1116.00   56.12
  -2  -8 -13 1018.99   53.57
   2   8  13 1181.73   53.08
   2   8  13 1150.54   51.52
   2   8  13 1068.30   52.40
   2   8  14 3604.33   87.43
   2   8  14 3534.71   95.33
   2   8  14 3527.99   89.39
   2   8  14 3648.37  103.21
   2   8  14 3734.76   90.93
   2   8  15   35.79   30.37
   2   8  15   65.99   38.82
   2   8  15   70.81   31.56
   2   8  15   52.64   38.11
   2   8  15   67.57   22.48
   2   8  16 2030.10   68.75
   2   8  16 1939.62   76.96
   2   8  16 1904.41   65.99
   2   8  16 1972.42   66.24
   2   8  17 1129.04   55.71
  -2  -8 -17 1074.80   56.35
   2   8  17 1124.07   55.87
   2   8  17 1047.61   53.51
   2   8  18   87.47   36.19
  -2  -8 -18   85.20   35.66
   2   9 -17 1242.29   67.39
  -2  -9  17 1154.45   94.99
  -2  -9  16  783.36   47.28
   2   9 -16  822.53   60.21
   2   9 -16  761.02   57.61
  -2  -9  16  801.56   56.26
  -2  -9  15 2749.51   96.08
   2   9 -15 2648.57   96.66
   2   9 -15 2608.92   85.41
  -2  -9  14   -9.51   24.31
   2   9 -14   29.09   27.57
   2   9 -14   25.33   25.13
   2   9 -13 3743.83  100.31
   2   9 -13 3695.49   98.65
   2   9 -12  870.51   51.18
   2   9 -12  891.11   55.70
   2   9 -12  885.67   47.25
  -2  -9  12  850.89   48.89
   2   9 -11    1.00   33.85
   2   9 -11   -0.44   41.23
   2   9 -11   -7.66   35.83
  -2  -9  11   16.76   28.32
   2   9 -10 3263.35   84.00
   2   9 -10 3244.78   94.89
   2   9 -10 3210.68   95.56
  -2  -9  10 3318.03   86.74
   2   9 -10 3177.20   84.45
  -2  -9  10 3117.95   86.68
   2   9  -9  305.27   37.78
   2   9  -9  312.35   37.51
   2   9  -9  338.65   48.92
   2   9  -9  309.58   37.14
  -2  -9   9  325.52   38.08
   2   9  -8 1181.53   54.04
   2   9  -8 1025.04   54.04
   2   9  -8 1065.14   66.27
   2   9  -8 1075.83   50.78
  -2  -9   8 1083.04   46.65
   2   9  -7  634.34   38.09
   2   9  -7  682.61   45.20
   2   9  -7  622.90   55.46
   2   9  -7  667.94   44.93
  -2  -9   7  641.45   36.00
   2   9  -7  674.23   45.32
   2   9  -6  189.24   31.18
   2   9  -6  151.86   32.10
   2   9  -6  180.76   40.66
   2   9  -6  155.30   30.36
  -2  -9   6  169.36   24.57
   2   9  -6  199.59   24.61
   2   9  -5  208.13   29.98
   2   9  -5  240.65   33.02
   2   9  -5  280.68   40.83
   2   9  -5  207.28   26.04
  -2  -9   5  233.07   27.65
   2   9  -5  237.25   29.60
   2   9  -4   55.07   20.92
   2   9  -4   80.80   30.92
  -2  -9   4   56.27   20.41
   2   9  -4   73.51   24.18
  -2  -9   3 1534.74   68.38
   2   9  -3 1674.90   60.54
   2   9  -3 1791.15   74.78
  -2  -9   3 1721.49   57.75
   2   9  -3 1681.54   58.39
  -2  -9   2  143.48   30.68
   2   9  -2  132.16   21.31
   2   9  -2  150.51   32.09
  -2  -9   2  154.13   20.17
   2   9  -2  128.54   24.51
  -2  -9   1 1748.66   77.18
   2   9  -1 1837.16   62.90
   2   9  -1 1831.65   77.10
   2   9  -1 1813.55   63.30
  -2  -9   1 1872.99   58.42
   2   9  -1 1788.95   62.26
  -2  -9   0  615.26   44.99
   2   9   0  609.89   37.23
   2   9   0  620.73   42.41
   2   9   0  661.88   40.33
   2   9   0  654.45   35.72
   2   9   0  695.72   41.05
   2   9   1 1708.08   58.93
  -2  -9  -1 1721.15   60.67
   2   9   1 1659.73   60.04
   2   9   1 1654.72   55.60
   2   9   1 1751.61   57.49
   2   9   224898.82  382.43
  -2  -9  -224718.25  382.51
   2   9   224500.08  371.27
   2   9   224136.09  371.11
  -2  -9  -3  633.83   37.92
   2   9   3  629.65   40.00
  -2  -9  -3  623.44   38.97
   2   9   3  604.50   44.19
   2   9   3  626.99   36.76
   2   9   3  646.93   38.27
   2   9   3  649.71   43.02
  -2  -9  -4 1544.52   71.91
   2   9   4 1607.95   66.97
  -2  -9  -4 1597.69   54.43
   2   9   4 1666.39   65.65
   2   9   4 1596.45   60.07
   2   9   4 1530.20   52.66
   2   9   4 1559.68   62.10
  -2  -9  -5   58.54   23.69
   2   9   5   50.20   19.43
  -2  -9  -5   59.79   25.65
   2   9   5   67.26   22.92
   2   9   5   40.64   23.24
   2   9   5   49.49   24.52
   2   9   5   38.96   25.21
  -2  -9  -613437.37  179.39
   2   9   614105.32  171.63
  -2  -9  -614343.71  170.17
   2   9   613896.55  185.17
   2   9   614006.24  163.86
   2   9   614268.81  173.01
   2   9   613744.12  164.42
  -2  -9  -715685.27  299.81
   2   9   716668.85  302.50
  -2  -9  -715859.90  335.58
   2   9   715683.13  322.91
   2   9   716359.25  292.81
   2   9   716544.45  292.54
   2   9   716670.09  295.81
   2   9   8  617.33   40.82
  -2  -9  -8  603.73   37.02
   2   9   8  548.86   43.88
   2   9   8  593.95   36.71
   2   9   8  614.06   41.32
   2   9   8  595.43   39.68
   2   9   9  324.20   34.03
  -2  -9  -9  325.64   31.80
   2   9   9  329.35   40.43
   2   9   9  295.33   31.65
   2   9   9  325.03   33.05
   2   9   9  315.24   34.21
   2   9  10  603.30   40.29
  -2  -9 -10  630.79   36.71
   2   9  10  708.07   51.67
   2   9  10  593.33   37.38
   2   9  10  616.90   44.42
   2   9  10  633.90   38.49
   2   9  11  216.22   34.17
  -2  -9 -11  196.87   26.09
   2   9  11  189.28   42.94
   2   9  11  225.03   31.13
   2   9  11  209.98   35.16
   2   9  11  249.04   33.65
   2   9  12  897.82   51.22
  -2  -9 -12  890.23   45.65
   2   9  12  930.13   55.24
   2   9  12  987.38   46.86
   2   9  12  921.70   48.78
   2   9  12  972.21   49.27
   2   9  13  611.75   38.53
  -2  -9 -13  619.20   46.52
   2   9  13  673.62   51.74
   2   9  13  671.90   44.02
   2   9  13  540.09   45.38
   2   9  13  609.46   39.06
   2   9  14 6580.07  112.78
  -2  -9 -14 6325.49  109.49
   2   9  14 6490.62  118.49
   2   9  14 6249.25  137.47
   2   9  14 6714.49  113.39
   2   9  15   69.77   31.50
   2   9  15   57.61   29.42
   2   9  15   75.91   32.66
   2   9  15  134.74   35.11
   2   9  16  114.83   30.42
   2   9  16  131.93   31.61
   2   9  16   92.67   30.23
   2   9  17  318.77   38.99
   2   9  17  334.54   42.93
  -2 -10  16    7.41   31.21
   2  10 -16    3.47   39.41
   2  10 -16   38.51   35.56
  -2 -10  16   16.58   39.83
  -2 -10  15 4790.92  103.94
   2  10 -15 4676.93  130.73
   2  10 -15 4694.02  114.61
  -2 -10  14 1143.09   54.39
   2  10 -14 1177.14   62.82
   2  10 -14 1135.39   59.89
  -2 -10  13  112.73   36.47
   2  10 -13  194.31   45.58
   2  10 -13  157.79   40.08
   2  10 -12 2861.34   90.51
   2  10 -12 2913.52   95.93
   2  10 -12 2769.06   90.09
  -2 -10  12 2785.27   79.91
   2  10 -11 2446.22   74.95
   2  10 -11 2651.85   83.66
   2  10 -11 2547.34   79.27
  -2 -10  11 2445.28   73.94
   2  10 -10 3105.33   84.86
   2  10 -10 3032.31   97.78
   2  10 -10 2964.26   85.63
  -2 -10  10 3188.03   85.75
   2  10 -10 3171.67   93.17
  -2 -10  10 2990.14   79.64
   2  10  -9 1385.05   58.77
   2  10  -9 1345.37   58.95
   2  10  -9 1391.15   60.25
  -2 -10   9 1406.82   56.49
   2  10  -8   -4.07   30.84
   2  10  -8   44.12   33.16
   2  10  -8  -12.21   42.61
   2  10  -8   49.74   23.51
  -2 -10   8   34.41   28.33
   2  10  -7 3230.69   86.22
   2  10  -7 3258.93  105.10
   2  10  -7 3201.15   88.50
  -2 -10   7 3237.07   76.73
   2  10  -7 3162.85   80.94
   2  10  -6 3189.22   82.43
   2  10  -6 3490.97  105.09
   2  10  -6 3149.98   83.91
  -2 -10   6 3248.39   84.53
   2  10  -6 3282.74   80.83
   2  10  -5  815.34   49.96
   2  10  -5  725.95   52.04
   2  10  -5  828.28   46.59
  -2 -10   5  811.08   46.02
   2  10  -5  752.41   40.77
   2  10  -4 5577.75  131.34
   2  10  -4 5608.78  152.85
  -2 -10   4 5619.88  130.10
   2  10  -4 5445.08  121.47
   2  10  -3 2384.39   78.13
   2  10  -3 2501.60   89.17
  -2 -10   3 2280.08   82.59
   2  10  -3 2385.24   71.98
   2  10  -2   75.97   22.20
   2  10  -2  107.15   34.82
  -2 -10   2   99.14   25.14
   2  10  -2   89.63   24.25
   2  10  -112848.14  156.15
   2  10  -113259.69  189.16
  -2 -10   112617.11  148.87
   2  10  -112756.28  161.11
   2  10   0  374.58   35.44
  -2 -10   0  396.23   33.35
   2  10   0  459.93   43.00
   2  10   0  416.07   32.51
   2  10   0  381.44   32.73
   2  10   1 1933.17   66.79
  -2 -10  -1 1963.25   64.00
   2  10   1 2011.07   77.99
   2  10   1 1934.04   66.07
   2  10   1 1984.98   64.29
   2  10   2   -5.45   27.17
  -2 -10  -2   -2.59   16.43
   2  10   2   16.18   23.43
   2  10   2   10.17   22.22
   2  10   3 1506.91   57.55
  -2 -10  -3 1472.60   53.78
   2  10   3 1385.20   64.83
   2  10   3 1474.61   56.46
   2  10   3 1514.26   53.67
   2  10   3 1523.12   56.52
   2  10   4 2974.56   77.54
  -2 -10  -4 2875.03   73.61
   2  10   4 3111.11   92.41
   2  10   4 2877.15   74.97
   2  10   4 3020.07   73.82
   2  10   4 3019.82   76.67
   2  10   514920.20  271.13
  -2 -10  -514642.27  263.87
   2  10   514931.93  285.51
   2  10   514238.22  261.27
   2  10   514921.07  270.53
   2  10   514765.75  271.70
   2  10   6 2364.12   73.93
  -2 -10  -6 2333.23   69.47
   2  10   6 2389.83   76.74
   2  10   6 2466.87   70.39
   2  10   6 2421.11   65.80
   2  10   6 2416.54   71.65
   2  10   712855.85  193.07
  -2 -10  -713085.21  187.26
   2  10   712667.86  210.59
   2  10   712917.80  195.14
   2  10   712886.70  191.56
   2  10   713271.35  205.90
   2  10   8   -9.35   26.14
  -2 -10  -8   20.85   27.24
   2  10   8   -7.87   34.27
   2  10   8    0.33   24.92
   2  10   8   15.88   26.42
   2  10   8   22.93   25.41
   2  10   9 2331.60   73.36
  -2 -10  -9 2431.39   73.40
   2  10   9 2340.66   81.19
   2  10   9 2324.09   70.98
   2  10   9 2207.28   66.60
   2  10   9 2366.08   71.04
   2  10  10   33.73   26.97
  -2 -10 -10   37.59   29.05
   2  10  10   67.02   37.25
   2  10  10   28.45   30.83
   2  10  10   14.65   26.32
   2  10  10   13.49   27.35
   2  10  11   19.33   32.99
  -2 -10 -11   19.89   28.50
   2  10  11   32.00   35.17
   2  10  11   16.13   29.43
   2  10  11   47.12   28.26
   2  10  11   55.14   27.39
   2  10  12   56.16   28.68
  -2 -10 -12   35.13   27.53
   2  10  12   59.44   39.81
   2  10  12   80.54   27.63
   2  10  12   51.38   28.59
   2  10  12   45.30   28.14
   2  10  13   14.86   33.09
  -2 -10 -13    4.21   26.47
   2  10  13   24.90   34.88
   2  10  13   -1.28   31.90
   2  10  13   41.79   31.54
   2  10  13   -3.53   30.88
   2  10  14 3799.20   95.34
  -2 -10 -14 3930.97   98.35
   2  10  14 3958.54   94.37
   2  10  14 3850.88  128.95
   2  10  14 3731.80   92.55
   2  10  15  581.78   45.56
  -2 -10 -15  641.21   45.02
   2  10  15  597.81   44.07
   2  10  15  624.56   45.43
   2  10  16  275.94   41.66
   2  10  16  304.07   40.58
   2  10  17  207.74   47.98
  -2 -11  15  431.54   43.05
   2  11 -15  459.61   50.81
   2  11 -15  434.13   46.16
  -2 -11  14  122.19   33.18
   2  11 -14  117.84   47.40
   2  11 -14   76.32   34.16
  -2 -11  13 5631.67  110.75
   2  11 -13 5742.08  131.00
   2  11 -13 5752.15  115.33
   2  11 -12  118.08   32.94
   2  11 -12   97.74   44.75
   2  11 -12   66.86   26.92
  -2 -11  12   90.96   35.83
   2  11 -11   32.71   24.67
   2  11 -11   61.49   39.04
  -2 -11  11   53.00   37.69
   2  11 -11   59.89   37.19
  -2 -11  11   67.94   29.33
   2  11 -10 1510.09   60.69
   2  11 -10 1570.35   77.75
  -2 -11  10 1500.96   62.61
   2  11 -10 1481.69   67.40
  -2 -11  10 1458.63   60.76
   2  11  -9  550.03   38.25
   2  11  -9  563.48   49.40
   2  11  -9  582.31   46.65
  -2 -11   9  581.35   42.06
   2  11  -8  393.92   40.28
   2  11  -8  425.91   55.07
   2  11  -8  348.27   40.23
  -2 -11   8  424.49   33.64
   2  11  -7 2920.73   79.37
   2  11  -7 2919.96   97.63
   2  11  -7 2954.71   84.33
  -2 -11   7 2847.15   77.70
   2  11  -7 2818.65  101.57
   2  11  -6  257.47   38.19
   2  11  -6  166.47   41.84
   2  11  -6  263.60   35.64
  -2 -11   6  231.32   32.10
   2  11  -6  204.79   32.37
   2  11  -5  980.86   49.57
   2  11  -5  939.83   61.44
   2  11  -5 1015.26   51.73
  -2 -11   5  969.59   51.18
   2  11  -5  994.51   48.57
   2  11  -4  298.48   31.37
   2  11  -4  236.32   51.49
   2  11  -4  292.41   30.96
  -2 -11   4  260.44   30.57
   2  11  -4  250.71   33.96
   2  11  -311603.87  188.02
   2  11  -311848.65  217.98
  -2 -11   311902.07  183.91
   2  11  -311455.19  181.21
   2  11  -2  381.69   34.94
   2  11  -2  461.58   46.83
  -2 -11   2  380.41   29.70
   2  11  -2  421.61   35.68
   2  11  -112139.73  208.91
   2  11  -112021.50  236.27
  -2 -11   111968.70  201.78
   2  11  -111835.00  202.09
   2  11   0  125.94   29.59
  -2 -11   0  147.30   28.38
   2  11   0  129.39   36.09
   2  11   0  104.19   31.63
   2  11   1 1148.43   51.89
  -2 -11  -1 1182.27   52.98
   2  11   1 1121.09   59.51
   2  11   1 1095.33   49.89
   2  11   1 1076.15   45.89
   2  11   2 1812.69   65.17
  -2 -11  -2 1861.20   62.47
   2  11   2 1781.65   64.18
  -2 -11  -2 1739.03   57.69
   2  11   2 1829.25   60.75
   2  11   3  562.06   40.63
  -2 -11  -3  523.38   37.88
   2  11   3  559.26   35.97
   2  11   3  603.34   41.07
   2  11   3  544.69   41.48
   2  11   4 8258.48  152.85
  -2 -11  -4 8302.30  145.30
   2  11   4 8468.44  159.46
   2  11   4 8293.79  144.40
   2  11   4 8781.28  150.08
   2  11   4 8564.46  146.60
   2  11   5 1500.57   58.94
  -2 -11  -5 1506.53   55.77
   2  11   5 1587.65   67.98
   2  11   5 1474.80   57.79
   2  11   5 1499.20   52.18
   2  11   5 1608.50   58.55
   2  11   6 5532.29  105.07
  -2 -11  -6 5469.66   97.80
   2  11   6 5378.56  112.62
   2  11   6 5659.49  112.44
   2  11   6 5834.33  110.70
   2  11   6 5755.95  108.74
   2  11   7  482.65   38.21
  -2 -11  -7  545.87   37.91
   2  11   7  444.76   43.51
   2  11   7  501.79   39.99
   2  11   7  501.66   39.24
   2  11   7  470.07   41.85
   2  11   8  616.89   42.66
  -2 -11  -8  562.03   40.87
   2  11   8  467.62   45.33
   2  11   8  525.44   41.86
   2  11   8  533.55   37.83
   2  11   8  592.87   38.67
   2  11   9 1160.77   50.80
  -2 -11  -9 1188.93   52.10
   2  11   9 1160.78   56.73
   2  11   9 1144.90   51.27
   2  11   9 1073.82   51.46
   2  11   9 1175.21   54.42
   2  11  10  847.40   49.01
  -2 -11 -10  762.38   43.21
   2  11  10  833.45   55.65
   2  11  10  795.74   47.53
   2  11  10  792.56   45.83
   2  11  10  832.17   44.04
   2  11  11 6892.83  162.02
  -2 -11 -11 7075.95  163.32
   2  11  11 7285.50  176.75
   2  11  11 7263.62  176.00
   2  11  11 7337.11  176.12
   2  11  11 7199.73  164.14
   2  11  12 3628.31   96.08
  -2 -11 -12 3902.19   92.52
   2  11  12 3694.76  104.07
   2  11  12 3824.14   90.80
   2  11  12 3838.22  102.27
   2  11  12 3696.37   89.20
   2  11  13  113.21   33.49
  -2 -11 -13   87.94   28.61
   2  11  13  108.43   44.15
   2  11  13  105.73   31.09
   2  11  13  105.11   29.74
   2  11  13   91.02   31.82
   2  11  14  973.92   52.40
  -2 -11 -14  984.78   50.18
   2  11  14  911.88   48.52
   2  11  14  865.25   48.36
   2  11  15   43.52   38.34
  -2 -11 -15   46.81   22.46
   2  11  15   57.07   34.00
  -2 -12  14  326.46   41.20
   2  12 -14  303.19   51.49
   2  12 -14  334.30   43.81
  -2 -12  13 1615.27   67.20
   2  12 -13 1655.39   91.88
   2  12 -13 1602.85   74.38
  -2 -12  12  207.96   36.00
   2  12 -12  238.79   45.76
   2  12 -12  159.36   39.15
  -2 -12  12  171.24   39.92
   2  12 -11 1119.04   59.20
   2  12 -11 1127.95   62.96
  -2 -12  11 1133.72   58.01
   2  12 -11 1056.77   55.16
  -2 -12  11 1113.66   55.57
   2  12 -10 1489.77   63.85
   2  12 -10 1547.49   82.23
  -2 -12  10 1477.57   61.66
   2  12 -10 1459.84   62.12
  -2 -12  10 1524.82   60.90
   2  12  -9   58.04   36.07
   2  12  -9   33.80   41.26
  -2 -12   9   20.07   33.84
   2  12  -9   20.45   34.59
  -2 -12   9   44.68   33.47
   2  12  -8 1045.83   52.44
   2  12  -8 1010.87   61.68
   2  12  -8  970.04   54.94
  -2 -12   8 1017.64   49.91
   2  12  -7 7685.08  152.03
   2  12  -7 7696.98  186.76
   2  12  -7 7816.93  164.96
  -2 -12   7 7821.64  148.31
   2  12  -6  775.77   48.37
   2  12  -6  735.77   62.58
   2  12  -6  741.28   48.74
  -2 -12   6  788.43   44.91
   2  12  -6  657.25   44.94
   2  12  -5  759.33   42.55
   2  12  -5  768.46   58.32
   2  12  -5  735.87   47.75
  -2 -12   5  771.40   44.50
   2  12  -5  752.63   45.25
   2  12  -4 1177.27   53.74
   2  12  -4 1270.02   70.34
   2  12  -4 1311.61   58.74
  -2 -12   4 1178.51   49.97
   2  12  -4 1213.68   56.91
   2  12  -3 6210.25  110.63
   2  12  -3 6279.90  142.25
   2  12  -3 6336.62  126.49
  -2 -12   3 6358.81  120.64
   2  12  -3 6264.92  123.75
   2  12  -2 1026.11   52.33
   2  12  -2 1156.56   66.94
  -2 -12   2  999.10   45.77
   2  12  -2  936.34   50.44
   2  12  -1   68.65   27.92
   2  12  -1  134.72   42.20
   2  12  -1   57.57   29.20
   2  12   0  425.62   37.46
  -2 -12   0  476.59   39.97
   2  12   0  439.97   40.96
   2  12   0  419.21   37.20
   2  12   1   33.24   26.87
  -2 -12  -1   46.54   26.62
   2  12   1   61.87   35.08
  -2 -12  -1   92.26   26.85
   2  12   1   64.17   31.12
   2  12   2  136.35   23.61
  -2 -12  -2  124.87   31.89
   2  12   2   82.19   35.97
   2  12   2  112.62   31.49
  -2 -12  -2  121.07   28.46
   2  12   2  116.86   30.42
   2  12   3   -5.70   26.98
  -2 -12  -3   22.46   24.76
   2  12   3   46.96   32.97
  -2 -12  -3   43.94   27.92
   2  12   3   59.34   29.38
   2  12   4 5034.31  102.94
  -2 -12  -4 5262.47   99.93
   2  12   4 5220.90  106.76
  -2 -12  -4 5137.25  101.41
   2  12   4 5018.13  102.52
   2  12   5   35.78   22.50
  -2 -12  -5    0.79   25.21
   2  12   5   24.78   36.15
   2  12   5   45.70   29.04
   2  12   5   26.76   28.00
   2  12   6 1662.11   64.45
  -2 -12  -6 1520.57   58.26
   2  12   6 1492.92   66.56
   2  12   6 1655.18   61.80
   2  12   6 1638.44   55.25
   2  12   6 1583.36   58.55
   2  12   7 1144.67   50.23
  -2 -12  -7 1134.94   52.74
   2  12   7 1095.85   61.76
   2  12   7 1131.16   54.86
   2  12   7 1161.00   47.73
   2  12   7 1180.66   54.56
   2  12   8  663.19   45.02
  -2 -12  -8  650.44   45.13
   2  12   8  660.27   52.35
   2  12   8  679.01   45.54
   2  12   8  649.91   43.51
   2  12   8  617.59   44.61
   2  12   9   -2.64   36.28
  -2 -12  -9  -22.11   32.35
   2  12   9   -2.82   41.03
   2  12   9    5.58   30.68
   2  12   9    1.33   26.17
   2  12   9    1.71   29.85
   2  12  10  250.05   35.82
  -2 -12 -10  245.99   33.23
   2  12  10  260.69   45.93
   2  12  10  230.49   36.59
   2  12  10  229.06   31.12
   2  12  10  260.69   36.55
   2  12  11 6875.69  128.04
  -2 -12 -11 6863.47  115.84
   2  12  11 7170.09  143.03
   2  12  11 7082.77  127.64
   2  12  11 6872.61  153.04
   2  12  11 6687.20  117.57
   2  12  12 1021.78   55.99
  -2 -12 -12 1092.80   51.11
   2  12  12 1135.17   60.39
   2  12  12 1102.83   58.52
  -2 -12 -12  952.63   98.20
   2  12  12 1049.42   53.16
   2  12  13   14.57   36.96
  -2 -12 -13   -7.83   27.80
   2  12  13   31.49   43.37
   2  12  13   -8.59   31.17
   2  12  13    9.94   27.07
  -2 -12 -14  141.18   36.55
   2  12  14  132.01   34.70
  -2 -13  12   24.50   34.09
   2  13 -12  -34.34   35.52
  -2 -13  12   33.54   40.21
   2  13 -11 1206.92   64.24
  -2 -13  11 1162.29   61.37
   2  13 -11 1183.65   56.98
  -2 -13  11 1224.01   59.03
   2  13 -10 1356.16   60.99
  -2 -13  10 1304.05   59.31
   2  13 -10 1292.69   66.90
  -2 -13  10 1310.82   58.68
   2  13  -9 1154.44   54.93
  -2 -13   9 1305.97   64.03
   2  13  -9 1295.77   55.39
  -2 -13   9 1294.96   59.81
   2  13  -8 3473.58   98.52
  -2 -13   8 3530.66   84.23
   2  13  -8 3493.83   91.37
  -2 -13   8 3503.45   83.18
   2  13  -7 2233.09   71.80
   2  13  -7 2307.09   98.56
   2  13  -7 2324.96   71.83
  -2 -13   7 2311.71   69.33
   2  13  -6 1725.82   65.25
   2  13  -6 1784.00   81.91
   2  13  -6 1793.71   65.54
  -2 -13   6 1821.31   62.65
   2  13  -6 1806.13   63.14
   2  13  -5  349.82   38.59
   2  13  -5  390.85   53.08
   2  13  -5  334.41   42.74
  -2 -13   5  409.70   33.07
   2  13  -5  369.03   38.51
   2  13  -4 2998.66   84.82
   2  13  -4 3090.05  104.87
   2  13  -4 3251.82   86.67
  -2 -13   4 3063.47   78.79
   2  13  -4 2934.06   74.00
   2  13  -3  885.40   49.89
   2  13  -3 1064.38   63.89
   2  13  -3  895.58   46.19
  -2 -13   3  878.77   42.25
   2  13  -3  909.71   52.32
   2  13  -2  464.15   41.57
   2  13  -2  481.20   48.54
   2  13  -2  464.94   35.55
   2  13  -2  447.13   41.71
   2  13  -1   35.33   32.35
   2  13  -1   45.79   40.38
   2  13  -1   71.37   30.59
   2  13   0  585.24   40.78
  -2 -13   0  560.51   41.34
   2  13   0  556.33   57.24
   2  13   0  570.29   41.66
   2  13   1 1428.81   58.35
  -2 -13  -1 1386.86   54.55
   2  13   1 1423.35   68.64
  -2 -13  -1 1369.74   54.35
   2  13   1 1339.42   53.19
   2  13   2 8455.06  137.08
  -2 -13  -2 8225.92  133.29
   2  13   2 8875.43  155.65
  -2 -13  -2 8558.80  129.32
   2  13   2 8431.85  130.14
   2  13   3 1668.90   63.01
  -2 -13  -3 1619.88   58.99
   2  13   3 1503.26   66.98
   2  13   3 1427.90   60.65
  -2 -13  -3 1643.65   55.16
   2  13   3 1663.02   61.28
   2  13   4 1769.30   63.67
  -2 -13  -4 1710.77   62.52
   2  13   4 1742.67   67.94
  -2 -13  -4 1749.32   57.65
   2  13   4 1695.21   58.47
   2  13   5   14.10   26.81
  -2 -13  -5   25.64   23.48
   2  13   5   30.44   37.38
   2  13   5   20.00   32.96
  -2 -13  -5   21.67   25.80
   2  13   5   59.29   31.63
   2  13   6    5.28   29.19
  -2 -13  -6   23.25   29.10
   2  13   6   49.22   35.70
   2  13   6    8.80   32.11
  -2 -13  -6   26.47   31.45
   2  13   6   47.39   31.35
   2  13   7   23.48   29.26
  -2 -13  -7   -1.76   28.72
   2  13   7   19.26   38.58
   2  13   7    4.86   30.28
  -2 -13  -7   -0.82   20.92
   2  13   7   -0.63   21.65
   2  13   8  748.78   46.84
  -2 -13  -8  796.05   46.44
   2  13   8  778.33   55.81
   2  13   8  771.35   48.18
  -2 -13  -8  721.14   46.22
   2  13   8  660.59   43.00
   2  13   9 2305.72   76.06
  -2 -13  -9 2240.95   78.66
   2  13   9 2480.82   84.48
   2  13   9 2322.29   73.18
  -2 -13  -9 2371.98   71.14
   2  13   9 2312.95   70.18
   2  13  10  322.33   42.19
  -2 -13 -10  265.26   36.76
   2  13  10  361.68   46.26
   2  13  10  327.18   40.36
  -2 -13 -10  287.01   39.09
   2  13  10  344.45   40.53
   2  13  11 1311.33   62.55
  -2 -13 -11 1250.78   54.22
   2  13  11 1301.02   67.34
   2  13  11 1321.12   62.44
  -2 -13 -11 1255.61   81.63
   2  13  11 1306.13   59.53
  -2 -13 -12 1528.58   66.84
   2  13  12 1541.58   75.21
   2  13  12 1620.46   71.12
   2  13  12 1456.54   70.25
  -2 -13 -13   78.32   32.72
   2  13  13   77.64   61.18
   2  13  13  115.71   36.60
  -2 -14  11  147.24   34.47
   2  14 -11   91.33   40.18
  -2 -14  11  125.33   44.73
   2  14 -10  704.57   45.56
  -2 -14  10  679.89   48.86
   2  14 -10  718.86   53.33
  -2 -14  10  709.70   48.30
   2  14  -9 1148.35   55.58
  -2 -14   9 1161.65   62.73
   2  14  -9 1112.52   59.55
  -2 -14   9 1206.33   57.27
   2  14  -8   35.20   33.07
  -2 -14   8   62.70   34.42
   2  14  -8   65.36   37.26
  -2 -14   8   35.30   31.30
   2  14  -7  522.53   45.06
  -2 -14   7  512.09   42.59
   2  14  -7  450.72   45.90
  -2 -14   7  555.37   42.04
   2  14  -6 1155.21   58.44
   2  14  -6 1053.14   76.14
   2  14  -6 1132.87   57.83
  -2 -14   6 1115.19   54.53
   2  14  -5 2554.41   77.76
   2  14  -5 2523.35   99.20
   2  14  -5 2373.63   74.05
  -2 -14   5 2324.90   68.06
   2  14  -5 2272.46   80.12
   2  14  -4 1331.43   59.37
   2  14  -4 1344.35   72.02
   2  14  -4 1338.62   58.84
  -2 -14   4 1346.91   54.45
   2  14  -4 1304.01   55.38
   2  14  -3  779.57   47.28
   2  14  -3  811.10   62.26
   2  14  -3  874.78   49.10
  -2 -14   3  781.27   45.19
   2  14  -3  790.49   47.42
   2  14  -2  172.24   31.94
   2  14  -2  187.37   42.22
   2  14  -2  192.40   36.71
   2  14  -2  203.31   34.97
   2  14  -1  503.17   44.88
   2  14  -1  566.37   56.41
   2  14  -1  520.95   45.11
   2  14  -1  616.52   41.35
   2  14   0  199.23   39.25
   2  14   0  220.97   45.83
  -2 -14   0  191.28   27.29
   2  14   0  170.89   34.02
   2  14   1 7383.40  173.73
  -2 -14  -1 7098.41  171.23
   2  14   1 7518.56  190.51
  -2 -14  -1 7363.70  162.28
   2  14   1 7613.56  167.69
   2  14   2  864.92  139.34
  -2 -14  -2  865.47   48.29
   2  14   2  995.65   62.07
  -2 -14  -2  915.85   46.59
   2  14   2  864.40   43.20
   2  14   3  163.10   77.30
  -2 -14  -3  125.08   28.88
   2  14   3  135.30   45.03
  -2 -14  -3  142.87   29.43
   2  14   3  141.31   32.17
   2  14   4 4769.63  104.22
  -2 -14  -4 4637.35  103.05
   2  14   4 4499.93  103.82
  -2 -14  -4 4933.89   97.54
   2  14   4 4685.39   95.66
   2  14   5 5405.86  109.16
  -2 -14  -5 5519.30  114.50
   2  14   5 5400.79  112.84
  -2 -14  -5 5691.21  103.85
   2  14   5 5372.34  109.39
   2  14   6  545.99   44.34
  -2 -14  -6  555.54   42.31
   2  14   6  534.59   45.97
   2  14   6  544.53   45.50
  -2 -14  -6  524.06   40.32
   2  14   6  542.33   36.76
   2  14   7   78.95   38.15
  -2 -14  -7   93.07   31.67
   2  14   7   58.27   46.55
   2  14   7   99.69   34.88
  -2 -14  -7   58.14   31.86
   2  14   7   75.15   34.41
   2  14   8 1427.43   61.82
  -2 -14  -8 1556.48   63.06
   2  14   8 1519.18   70.30
   2  14   8 1498.12   61.94
  -2 -14  -8 1439.76   85.39
   2  14   8 1554.09   61.12
  -2 -14  -9 2250.19   76.54
   2  14   9 2611.17   95.76
   2  14   9 2398.18   80.02
  -2 -14  -9 2415.69  120.61
   2  14   9 2433.31   78.00
  -2 -14 -10  479.51   41.72
   2  14  10  461.31   50.26
   2  14  10  438.35   42.46
  -2 -14 -10  435.26   54.86
   2  14  10  450.76   38.76
  -2 -14 -11   -2.73   32.37
   2  14  11  -30.19   44.14
   2  14  11    7.24   27.51
   2  14  11   11.91   30.52
   2  15  -8 3600.94  107.65
  -2 -15   8 3528.16  100.88
   2  15  -8 3447.10  104.51
  -2 -15   8 3743.77   98.09
   2  15  -7   40.65   44.65
  -2 -15   7   36.44   31.38
   2  15  -7   32.79   35.79
  -2 -15   7   80.02   31.42
   2  15  -6   23.63   41.63
  -2 -15   6   34.98   32.80
   2  15  -6   48.66   32.40
  -2 -15   6   27.10   32.95
   2  15  -5   29.01   38.61
  -2 -15   5   55.39   26.24
   2  15  -5   51.64   31.52
  -2 -15   5   78.98   31.10
   2  15  -4   94.54   36.18
   2  15  -4   84.56   56.83
   2  15  -4   77.82   36.22
  -2 -15   4   51.61   32.75
   2  15  -4   56.59   33.96
   2  15  -3  895.10   53.01
   2  15  -3  907.95   66.31
   2  15  -3  924.12   52.31
   2  15  -3  942.93   54.06
   2  15  -2   68.93   36.37
   2  15  -2  -14.34   44.53
   2  15  -2   65.27   32.25
   2  15  -2   56.45   31.77
   2  15  -1 1120.20   61.00
   2  15  -1 1071.70   67.27
   2  15  -1 1028.65   53.64
  -2 -15   1  963.58   49.83
   2  15  -1 1051.98   47.70
   2  15   0 2345.43   77.68
   2  15   0 2524.99   93.38
   2  15   0 2346.45   72.21
  -2 -15   0 2408.30   68.87
   2  15   0 2435.19   80.80
   2  15   1 7919.86  142.89
   2  15   1 8577.70  160.48
  -2 -15  -1 8276.77  127.01
   2  15   1 8227.66  133.94
   2  15   2 4589.35  207.64
   2  15   2 4923.81  125.16
  -2 -15  -2 4713.25   98.41
   2  15   2 4650.83  251.52
  -2 -15  -3   -5.62   33.28
   2  15   3   39.60   39.95
  -2 -15  -3   20.04   26.92
   2  15   3    7.45   32.83
   2  15   4  200.27   39.89
  -2 -15  -4  231.44   39.97
   2  15   4  237.35   46.10
  -2 -15  -4  275.03   34.63
   2  15   4  237.62   34.35
  -2 -15  -5   42.34   31.60
   2  15   5   -9.32   33.23
  -2 -15  -5   -5.77   23.86
   2  15   5   -7.38   29.59
  -2 -15  -6  859.18   49.28
   2  15   6  758.80   56.94
   2  15   6  825.69   48.22
  -2 -15  -6  749.73   46.66
   2  15   6  821.56   42.99
  -2 -15  -7  150.13   38.25
   2  15   7  166.56   39.81
   2  15   7  142.29   35.43
  -2 -15  -7  140.52   32.17
   2  15   7  160.02   27.20
  -2 -15  -8   59.88   30.63
   2  15   8   79.44   44.85
   2  15   8   60.60   32.49
  -2 -15  -8   62.09   40.16
   2  15   8   53.97   36.87
  -2 -15  -9 3053.10  102.32
   2  15   9 3168.42  109.16
   2  15   9 3146.28   93.95
  -2 -15  -9 2892.24  178.46
   2  15   9 3026.19   94.35
   2  16  -5 1496.50   65.66
  -2 -16   5 1466.88   63.57
  -2 -16   4  101.14   33.43
   2  16  -4   58.87   40.01
  -2 -16   4  105.16   34.08
  -2 -16   3    6.94   30.92
   2  16  -3   19.84   52.23
   2  16  -3  -29.10   36.06
  -2 -16   2   92.22   33.32
   2  16  -2  109.09   57.57
   2  16  -2   98.14   35.55
   2  16  -2   93.30   33.51
  -2 -16   1   40.31   31.33
   2  16  -1    3.03   52.30
   2  16  -1   36.76   35.44
  -2 -16   1   52.45   28.79
   2  16  -1   36.54   31.34
   2  16   0 1325.92   79.78
   2  16   0 1231.76   57.83
  -2 -16   0 1278.02   52.32
   2  16   0 1253.85   61.87
   2  16   1  513.87   53.73
   2  16   1  450.98   43.75
  -2 -16  -1  429.68   39.02
   2  16   1  428.95   37.90
   2  16   2 2465.11   93.00
  -2 -16  -2 2545.49   71.00
   2  16   2 2552.39  190.21
  -2 -16  -3 5046.21  150.31
   2  16   3 5074.63  128.45
  -2 -16  -3 4989.92  111.78
   2  16   3 5054.74  116.42
   2  16   4 1928.49   83.12
  -2 -16  -4 1783.94   70.33
   2  16   4 1802.76   64.89
  -2 -16  -5  290.82   36.62
   2  16   5  300.43   36.83
  -2 -16  -6  292.87   43.64
   2  16   6  357.91   41.02
   3 -13  -5 2594.42  124.23
  -3  13   5 2576.14  106.56
   3 -13  -4 1964.90   82.50
  -3  13   4 1977.92   97.17
   3 -13  -3  785.97   46.45
   3 -13  -2  439.29   44.99
   3 -13  -1  972.59   47.37
   3 -13   0  454.27   77.37
   3 -13   4   61.61   30.76
   3 -13   4   98.21   38.12
   3 -13   5    3.74   28.91
   3 -13   5   22.58   33.64
   3 -13   6 2274.92   80.32
   3 -13   6 2300.81   76.58
   3 -13   6 2171.43   95.95
   3 -13   7 3275.81   89.45
   3 -13   7 3242.70   96.93
   3 -13   7 3245.32  102.90
   3 -13   8 1342.40   67.10
   3 -13   8 1340.91   68.13
   3 -13   8 1369.14   62.02
  -3  12   8  202.79   44.64
   3 -12  -7   34.13   33.80
  -3  12   7   47.71   38.38
   3 -12  -6   10.79   29.14
  -3  12   6    8.20   45.20
   3 -12  -5   90.30   32.19
  -3  12   5   54.97   46.53
   3 -12  -4  336.30   40.08
  -3  12   4  331.44   46.86
   3 -12  -3 1361.40   58.19
  -3  12   3 1329.12   68.23
   3 -12  -2  460.04   39.27
  -3  12   2  455.57   52.18
   3 -12  -1   75.89   56.41
   3 -12   0  485.02   40.36
   3 -12   1   18.88   33.25
   3 -12   2   -9.91   39.21
  -3  12  -2   15.24   37.22
   3 -12   3  -28.20   32.12
  -3  12  -3   -0.10   34.04
   3 -12   4   47.05   35.21
   3 -12   4   59.47   33.70
   3 -12   5   -2.43   32.63
   3 -12   5   -3.36   32.89
   3 -12   5   11.13   34.74
   3 -12   6  900.80   50.88
   3 -12   6  915.94   52.27
   3 -12   6  873.71   50.08
   3 -12   7    6.91   33.85
   3 -12   7   47.20   33.19
   3 -12   7   23.99   29.14
   3 -12   8   24.81   24.95
   3 -12   8   68.29   25.96
   3 -12   8   33.33   30.57
   3 -12   9  744.66   47.80
   3 -12   9  813.84   50.63
   3 -12   9  796.22   47.23
   3 -12  10  699.15   49.37
   3 -12  10  684.53   45.69
   3 -12  10  667.10   45.90
   3 -12  11  132.04   40.25
   3 -12  11  112.06   35.52
   3 -11 -10  300.46   43.85
  -3  11  10  325.42   42.74
  -3  11  10  299.95   46.48
   3 -11  -9   70.48   35.95
  -3  11   9   92.66   37.41
  -3  11   9   15.68   36.91
   3 -11  -8 1075.85   63.07
  -3  11   8 1231.06   66.89
  -3  11   8 1086.15   59.21
   3 -11  -7 1629.52   71.14
  -3  11   7 1625.16   64.23
  -3  11   7 1522.40   64.40
   3 -11  -6 1277.16   59.96
  -3  11   6 1173.09   59.96
  -3  11   6 1149.81   64.77
   3 -11  -5 8208.22  145.25
  -3  11   5 8033.59  151.39
  -3  11   5 8001.12  158.75
   3 -11  -4 1956.63   66.12
   3 -11  -4 1785.79   71.19
  -3  11   4 1816.76   69.88
  -3  11   4 1951.56   72.10
   3 -11  -3 1082.88   52.53
   3 -11  -3 1031.52   50.77
  -3  11   3 1121.47   61.64
   3 -11  -2   72.70   30.67
  -3  11   2   33.14   34.41
   3 -11  -1   21.24   21.33
  -3  11   1   27.91   40.02
  -3  11   1   31.41   30.23
   3 -11   0  427.22   40.74
  -3  11   0  361.68   38.53
   3 -11   1 1344.98   62.93
  -3  11  -1 1321.46   60.41
   3 -11   2 3042.06   76.67
   3 -11   2 3079.31   98.85
  -3  11  -2 3216.40  104.40
   3 -11   3  149.01   34.75
   3 -11   3  182.19   38.15
  -3  11  -3  183.98   34.03
   3 -11   4    4.79   32.35
   3 -11   4    6.19   28.21
   3 -11   4    2.51   34.07
  -3  11  -4   -0.41   30.71
   3 -11   5   82.97   43.33
   3 -11   5   66.85   28.58
   3 -11   6  507.80   42.32
   3 -11   6  526.05   44.82
   3 -11   6  530.84   42.34
   3 -11   7 1049.99   52.14
   3 -11   7 1106.87   50.66
   3 -11   7 1068.23   54.13
   3 -11   8   65.10   33.42
   3 -11   8   68.73   27.03
   3 -11   8   91.86   36.66
   3 -11   9    7.98   31.62
   3 -11   9   21.15   32.33
   3 -11   9   43.98   31.91
   3 -11  10  156.45   38.76
   3 -11  10  170.21   34.95
   3 -11  11 3462.16   93.22
   3 -11  11 3587.40   93.28
   3 -11  12  177.81   40.45
   3 -11  12  149.96   34.73
   3 -11  12  205.00   34.75
   3 -11  13    9.44   33.32
   3 -11  13   49.76   30.65
   3 -11  13   -0.84   31.82
   3 -10 -11 2500.44  111.47
  -3  10  11 2626.27   92.85
   3 -10 -10   -3.69   28.84
  -3  10  10    1.23   30.84
   3 -10  -9  171.97   32.49
  -3  10   9  149.34   32.90
  -3  10   9  155.23   32.96
   3 -10  -8 1190.33   66.29
  -3  10   8 1334.00   60.04
  -3  10   8 1254.04   57.40
   3 -10  -7 3436.53   92.70
  -3  10   7 3417.78   96.99
  -3  10   7 3467.90  100.50
   3 -10  -6   -7.19   28.81
   3 -10  -6   -4.00   30.95
  -3  10   6   -1.12   35.82
  -3  10   6   21.53   32.92
   3 -10  -5 1788.63   64.26
   3 -10  -5 1699.34   64.94
  -3  10   5 1882.88   66.39
  -3  10   5 1832.86   72.92
   3 -10  -4  818.47   47.62
   3 -10  -4  739.88   45.85
  -3  10   4  783.74   46.36
  -3  10   4  861.90   49.59
   3 -10  -3  154.29   29.89
   3 -10  -3  122.14   31.96
  -3  10   3  120.28   38.79
  -3  10   3   70.34   36.99
   3 -10  -2  817.77   44.77
   3 -10  -2  769.67   47.66
  -3  10   2  851.06   52.39
  -3  10   2  835.48   48.25
  -3  10   2  764.82   56.18
   3 -10  -1   23.85   29.69
   3 -10  -1  -10.28   27.72
  -3  10   1   -7.81   30.66
  -3  10   1    1.39   28.51
   3 -10   0  218.84   31.64
   3 -10   0  231.78   27.85
  -3  10   0  260.39   46.01
  -3  10   0  233.55   32.49
   3 -10   1 1384.26   56.93
   3 -10   1 1334.78   56.08
   3 -10   1 1313.31   56.44
  -3  10  -1 1365.20   62.23
   3 -10   2 1312.27   53.67
   3 -10   2 1217.85   52.92
  -3  10  -2 1207.29   59.26
   3 -10   3  387.93   37.76
   3 -10   3  391.06   40.63
   3 -10   3  418.64   38.01
  -3  10  -3  400.57   38.84
   3 -10   4  629.94   47.93
   3 -10   4  721.02   44.80
  -3  10  -4  697.89   51.12
   3 -10   5  -17.79   30.32
   3 -10   5    7.32   31.02
   3 -10   5   12.18   29.92
  -3  10  -5   23.10   27.02
   3 -10   6  520.57   45.76
   3 -10   6  510.27   42.26
   3 -10   7 1626.67   59.67
   3 -10   7 1719.83   60.51
   3 -10   7 1599.70   65.36
   3 -10   8 6460.42  153.71
   3 -10   8 6710.48  155.84
   3 -10   8 6138.07  150.73
   3 -10   9 2666.89   75.73
   3 -10   9 2685.22   78.96
   3 -10   9 2756.28   77.63
   3 -10  10   99.48   37.04
   3 -10  10  132.82   32.59
   3 -10  11  880.26   51.86
   3 -10  11  859.40   50.44
   3 -10  11  783.72   46.47
   3 -10  12  407.36   44.15
   3 -10  12  418.84   42.77
   3 -10  12  481.07   39.98
   3 -10  13  126.73   37.52
   3 -10  13   67.74   34.62
   3 -10  13   58.64   34.08
   3 -10  14 7846.00  148.46
   3 -10  14 7640.14  139.13
   3 -10  14 7783.95  129.73
  -3   9  13  279.00   43.43
  -3   9  13  252.42   41.13
  -3   9  12   -2.39   31.83
  -3   9  12   22.06   32.62
   3  -9 -11 4369.06  146.01
  -3   9  11 4463.93  117.77
   3  -9 -10   20.33   32.30
  -3   9  10    0.97   32.00
   3  -9  -9 2401.22   80.33
  -3   9   9 2607.72   80.33
  -3   9   9 2425.70   75.74
   3  -9  -8  347.22   36.97
   3  -9  -8  368.36   41.36
  -3   9   8  348.75   40.26
  -3   9   8  395.71   36.71
   3  -9  -7  941.46   50.26
   3  -9  -7  856.41   50.48
  -3   9   7  913.37   53.71
  -3   9   7  910.69   48.26
   3  -9  -6  936.25   49.26
   3  -9  -6  831.78   47.95
  -3   9   6  848.58   53.11
  -3   9   6  896.49   49.46
   3  -9  -5 1017.58   52.16
   3  -9  -5  898.54   49.09
  -3   9   5  988.19   50.58
  -3   9   5  905.79   47.78
   3  -9  -4 5147.04  101.74
   3  -9  -4 4893.85  107.01
  -3   9   4 5232.60  110.15
  -3   9   4 5036.28  112.44
   3  -9  -3  818.97   44.02
   3  -9  -3  753.42   44.31
  -3   9   3  714.48   48.72
  -3   9   3  774.35   48.18
  -3   9   3  706.65   42.89
   3  -9  -2 1385.26   56.09
   3  -9  -2 1303.02   56.17
  -3   9   2 1343.36   62.74
  -3   9   2 1249.04   54.75
  -3   9   2 1277.01   55.35
   3  -9  -1  394.12   35.64
   3  -9  -1  320.39   30.28
  -3   9   1  361.77   39.67
  -3   9   1  330.10   37.26
   3  -9   0 4974.89   98.78
   3  -9   0 4937.22   98.52
  -3   9   0 4800.46  114.81
  -3   9   0 5052.12  107.38
   3  -9   1 2348.26   69.58
   3  -9   1 2198.00   73.70
   3  -9   1 2149.89   69.20
  -3   9  -1 2306.50   76.45
   3  -9   2   92.83   28.29
   3  -9   2   68.79   24.75
   3  -9   2  101.19   34.94
   3  -9   2   71.31   28.03
  -3   9  -2   65.45   28.24
   3  -9   3 2329.84   65.52
   3  -9   3 2224.34   69.98
   3  -9   3 2326.66   71.38
  -3   9  -3 2302.24   76.32
   3  -9   4 5899.41  110.44
   3  -9   4 6088.81  118.14
  -3   9  -4 5790.28  130.13
   3  -9   5  808.78   50.41
   3  -9   5  846.24   48.15
  -3   9  -5  828.61   61.31
   3  -9   6   18.87   23.64
   3  -9   6   -1.64   27.41
   3  -9   6   -1.65   27.95
  -3   9  -6   37.72   32.66
   3  -9   7   42.54   33.19
   3  -9   7  -13.38   34.25
   3  -9   7   48.60   31.64
   3  -9   7    9.37   30.99
   3  -9   8 2416.88   72.05
   3  -9   8 2440.28   72.70
   3  -9   8 2265.58   70.31
   3  -9   9 3001.45   76.26
   3  -9   9 2954.56   77.50
   3  -9  10   31.73   33.86
   3  -9  10   64.78   33.03
   3  -9  11 1117.24   55.32
   3  -9  11 1142.81   55.73
   3  -9  11 1128.12   49.58
   3  -9  12 2095.96   68.61
   3  -9  12 2132.06   71.64
   3  -9  12 2241.22   70.17
   3  -9  13  836.67   52.01
   3  -9  13  875.38   49.49
   3  -9  13  897.43   45.37
   3  -9  14  273.27   40.02
   3  -9  14  280.85   38.89
   3  -9  14  279.92   38.50
   3  -9  15  623.50   46.21
   3  -9  15  620.01   48.88
   3  -9  16 2698.93   87.58
  -3   9 -16 2714.49   99.45
   3  -9  16 2590.52   87.35
   3  -9  16 2180.02  166.41
  -3   8  14 1129.55   63.57
  -3   8  14 1158.46   58.61
  -3   8  13 1278.32   66.18
  -3   8  13 1334.10   57.29
   3  -8 -12  583.31   45.86
  -3   8  12  618.49   42.02
  -3   8  12  625.49   43.56
   3  -8 -11  509.77   41.10
  -3   8  11  595.03   49.16
   3  -8 -11  580.62   41.73
  -3   8  11  603.44   44.44
   3  -8 -10 1416.04   58.46
   3  -8 -10 1447.94   78.15
   3  -8 -10 1446.82   60.43
  -3   8  10 1376.10   59.09
   3  -8  -9   41.34   28.60
   3  -8  -9   64.68   29.89
   3  -8  -9   66.18   25.81
  -3   8   9   79.22   32.24
   3  -8  -8  873.74   50.87
   3  -8  -8  821.44   51.07
  -3   8   8 1004.33   54.03
   3  -8  -8  965.26   48.48
  -3   8   8  936.12   53.71
   3  -8  -7 1134.54   52.54
   3  -8  -7 1085.56   59.63
  -3   8   7 1164.55   57.96
   3  -8  -7 1175.44   53.28
  -3   8   7 1053.15   50.86
   3  -8  -6 7250.83  130.79
   3  -8  -6 7082.26  135.15
  -3   8   6 7535.44  146.94
   3  -8  -6 7260.57  132.83
  -3   8   6 7111.91  133.97
   3  -8  -5 2101.15   82.52
   3  -8  -5 1994.02   66.90
  -3   8   5 2108.37   85.38
   3  -8  -5 2088.33   62.12
  -3   8   5 2044.47   71.78
   3  -8  -4   37.03   24.13
   3  -8  -4   94.88   30.54
  -3   8   4   68.91   28.72
  -3   8   4   80.37   32.14
   3  -8  -3 1077.96   50.31
   3  -8  -3 1063.98   50.38
  -3   8   3 1122.33   56.62
  -3   8   3 1094.49   52.76
   3  -8  -2 3001.91   79.65
   3  -8  -2 2890.38   76.13
  -3   8   2 2981.03   82.11
  -3   8   2 2848.09   85.22
   3  -8  -1  312.03   27.88
   3  -8  -1  296.67   33.27
  -3   8   1  321.25   38.70
  -3   8   1  303.73   33.64
   3  -8   0 2092.86   63.69
   3  -8   0 2056.51   65.82
  -3   8   0 2151.01   72.45
  -3   8   0 1989.16   78.14
   3  -8   1 4858.49   95.98
   3  -8   1 4867.93   99.80
   3  -8   1 4413.14  101.01
  -3   8  -1 4835.28  103.21
   3  -8   2 3162.29   82.42
   3  -8   2 3202.37   79.97
   3  -8   2 2845.22   77.34
   3  -8   2 2948.04  102.80
  -3   8  -2 2974.50   88.47
   3  -8   3   48.64   26.83
   3  -8   3   36.28   24.73
   3  -8   3   -0.38   26.06
   3  -8   3   41.14   18.58
  -3   8  -3   24.47   21.52
   3  -8   4 6862.86  139.85
   3  -8   4 6841.48  139.18
   3  -8   4 6615.67  139.66
   3  -8   4 6730.03  149.12
  -3   8  -4 6874.41  153.38
   3  -8   5 9472.64  179.41
   3  -8   5 9792.06  177.16
  -3   8  -5 9839.80  188.30
   3  -8   6 2528.63   73.65
   3  -8   6 2423.33   72.35
   3  -8   6 2634.36   74.75
  -3   8  -6 2525.11   82.72
   3  -8   7  898.68   52.44
   3  -8   7  892.75   45.79
   3  -8   7  880.93   46.58
   3  -8   8  261.32   29.34
   3  -8   8  232.41   39.14
   3  -8   8  262.78   34.80
   3  -8   8  215.77   34.66
   3  -8   9  981.06   50.22
   3  -8   9  982.65   51.73
   3  -8  10 2813.80   79.67
   3  -8  10 2701.85   77.59
   3  -8  10 2734.56   75.99
   3  -8  11  173.32   41.14
   3  -8  11  169.69   29.03
   3  -8  11  255.72   30.39
   3  -8  12 1409.21   59.67
   3  -8  12 1386.62   60.60
   3  -8  12 1298.03   56.31
   3  -8  13  228.08   31.17
   3  -8  13  197.60   38.00
   3  -8  13  257.20   37.93
   3  -8  14   90.04   37.40
   3  -8  14   64.09   34.56
   3  -8  15  980.72   59.37
   3  -8  15  981.85   53.08
   3  -8  16 1837.96   73.14
   3  -8  16 1768.87   71.87
   3  -8  17 1661.64   67.69
  -3   8 -17 1622.55   79.63
   3  -8  17 1668.11   62.59
   3  -8  17 1422.23  137.43
  -3   7  15  612.97   49.94
  -3   7  15  606.37   47.77
  -3   7  14 1026.17   62.36
   3  -7 -14  941.43   51.01
  -3   7  14  946.89   52.47
  -3   7  13   98.82   37.14
   3  -7 -13  107.95   31.03
  -3   7  13   86.27   30.11
   3  -7 -12  466.58   40.72
   3  -7 -12  448.06   49.14
  -3   7  12  434.51   49.26
   3  -7 -12  517.61   41.17
  -3   7  12  512.49   41.54
   3  -7 -11 3337.98   92.70
   3  -7 -11 3298.56  104.59
  -3   7  11 3470.96   93.58
   3  -7 -11 3444.58   85.01
  -3   7  11 3408.99   82.58
   3  -7 -10 2431.52   76.84
   3  -7 -10 2468.34   81.11
   3  -7 -10 2493.41   75.85
  -3   7  10 2492.34   77.26
   3  -7  -9    7.32   29.07
   3  -7  -9   19.10   33.49
   3  -7  -9   -1.89   26.44
  -3   7   9   -0.87   20.11
   3  -7  -8 2452.11   71.85
   3  -7  -8 2231.50   75.08
   3  -7  -8 2485.91   73.49
  -3   7   8 2448.32   73.33
   3  -7  -7   39.49   22.43
   3  -7  -7   52.79   21.27
   3  -7  -7   61.54   21.57
  -3   7   7   55.31   27.21
   3  -7  -6 8053.35  141.80
   3  -7  -6 8024.97  147.02
   3  -7  -6 8149.43  145.48
  -3   7   6 8163.82  155.01
   3  -7  -5  547.87   38.28
   3  -7  -5  537.66   42.70
   3  -7  -5  511.78   38.79
  -3   7   5  580.94   41.86
   3  -7  -4  264.13   30.05
   3  -7  -4  262.31   33.28
   3  -7  -4  217.41   31.09
  -3   7   4  277.03   30.79
   3  -7  -3  218.67   28.32
   3  -7  -3  166.39   29.12
   3  -7  -3  167.47   31.06
  -3   7   3  186.08   30.44
  -3   7   2  424.69   50.40
   3  -7  -2  492.04   37.89
   3  -7  -2  494.28   39.68
  -3   7   2  476.63   37.19
  -3   7   1  346.82   40.49
   3  -7  -1  376.42   35.72
   3  -7  -1  348.17   31.66
   3  -7  -1  348.09   33.83
  -3   7   1  325.77   38.59
  -3   7   0 1335.15   59.41
   3  -7   0 1301.51   61.35
   3  -7   0 1440.03   53.74
   3  -7   0 1427.75   62.97
  -3   7   0 1391.81   62.95
  -3   7  -1  158.15   26.66
   3  -7   1  206.90   31.60
   3  -7   1  169.95   26.51
   3  -7   1  185.23   23.76
   3  -7   1  147.13   24.29
  -3   7  -2 2419.11   82.91
   3  -7   2 2357.81   80.03
   3  -7   2 2395.71   68.10
   3  -7   2 2380.80   69.68
   3  -7   2 2098.68   67.57
  -3   7  -2 2407.42   73.82
  -3   7  -3 3532.34   94.32
   3  -7   3 3635.55   93.41
   3  -7   3 3692.91   83.36
   3  -7   3 3735.85   89.81
   3  -7   3 3697.97   86.38
   3  -7   3 3399.75  104.79
  -3   7  -3 3722.55   90.57
  -3   7  -4  381.41   34.53
  -3   7  -4  377.76   36.69
   3  -7   4  438.72   37.12
   3  -7   4  406.21   31.16
   3  -7   4  394.75   37.90
   3  -7   4  397.55   34.43
  -3   7  -4  384.43   34.89
  -3   7  -5 2695.45  100.88
   3  -7   5 2717.57   70.04
   3  -7   5 2868.51   78.50
   3  -7   5 2840.14   76.58
  -3   7  -5 2827.12   81.59
  -3   7  -6 1013.86   60.36
   3  -7   6 1005.44   50.79
   3  -7   6  991.14   48.11
  -3   7  -6 1079.28   55.70
   3  -7   7  203.74   33.70
   3  -7   7  174.25   22.73
   3  -7   7  200.72   31.06
   3  -7   8  124.37   31.44
   3  -7   8  135.23   23.09
   3  -7   9  515.89   43.03
   3  -7   9  505.81   42.32
   3  -7   9  470.49   39.76
   3  -7  10   52.49   34.92
   3  -7  10  115.19   35.36
   3  -7  10   85.94   26.11
   3  -7  1116200.24  193.66
   3  -7  1116515.17  195.26
   3  -7  1116193.02  192.54
   3  -7  12  701.08   49.91
   3  -7  12  790.88   47.64
   3  -7  12  770.35   48.86
   3  -7  13  218.01   39.43
   3  -7  13  302.16   37.12
   3  -7  13  250.59   38.06
   3  -7  14 1759.66   61.01
   3  -7  14 1682.90   63.30
   3  -7  15 2138.51   76.50
   3  -7  15 2015.44   68.08
   3  -7  16  374.77   42.00
   3  -7  16  374.17   42.46
   3  -7  16  365.70   36.52
   3  -7  17 1498.48   61.29
  -3   7 -17 1568.15   72.32
   3  -7  17 1470.63   60.23
   3  -7  17 1378.48   88.77
   3  -7  18 2088.91   81.46
  -3   7 -18 2119.90   92.48
   3  -7  18 2116.17   72.06
   3  -7  18 1800.01  140.69
  -3   6  15  250.86   45.65
   3  -6 -15  240.88   34.90
  -3   6  15  215.18   35.36
  -3   6  14  261.55   37.45
   3  -6 -14  255.91   42.16
  -3   6  14  251.33   36.91
   3  -6 -13  437.74   44.92
   3  -6 -13  407.13   40.60
  -3   6  13  440.94   36.64
   3  -6 -12  187.58   34.42
   3  -6 -12  230.87   36.54
   3  -6 -12  231.52   33.56
   3  -6 -11   49.38   30.94
   3  -6 -11    3.66   34.30
   3  -6 -11   14.09   20.89
   3  -6 -11   22.17   27.54
   3  -6 -10  600.08   42.31
   3  -6 -10  668.02   49.36
   3  -6 -10  664.56   45.35
   3  -6 -10  580.88   38.99
   3  -6  -9 8855.34  132.99
   3  -6  -9 8832.74  162.70
   3  -6  -9 9275.94  150.67
   3  -6  -9 9319.68  154.47
   3  -6  -8 4111.48   88.05
   3  -6  -8 4063.89  101.36
   3  -6  -8 4433.99   92.91
   3  -6  -8 4346.08   93.85
   3  -6  -7 1093.88   51.67
   3  -6  -7 1132.37   57.01
   3  -6  -7 1104.65   47.25
   3  -6  -7 1104.48   52.78
   3  -6  -6  954.87   46.35
   3  -6  -6  960.01   50.67
   3  -6  -6 1013.28   49.22
   3  -6  -6 1016.34   46.26
  -3   6   5 1568.06   73.25
   3  -6  -5 1515.57   60.56
   3  -6  -5 1571.39   61.49
   3  -6  -5 1622.48   60.96
  -3   6   5 1714.27   61.88
  -3   6   4  186.80   39.38
   3  -6  -4  207.07   28.90
   3  -6  -4  228.51   28.63
   3  -6  -4  216.51   33.78
   3  -6  -4  221.44   24.32
  -3   6   4  183.79   26.88
  -3   6   3   85.38   24.35
   3  -6  -3  102.75   26.06
   3  -6  -3  104.35   22.03
   3  -6  -3  107.99   20.40
  -3   6   3   84.19   26.04
  -3   6   2  531.59   40.70
   3  -6  -2  503.65   35.21
   3  -6  -2  534.73   38.28
   3  -6  -2  491.15   43.72
  -3   6   1 7351.16  159.37
   3  -6  -1 7088.20  157.10
   3  -6  -1 7254.52  127.18
   3  -6  -1 7434.75  138.56
   3  -6  -1 7336.85  132.46
  -3   6   0  140.36   28.89
   3  -6   0  168.66   24.80
   3  -6   0  204.57   23.01
   3  -6   0  189.97   28.37
  -3   6  -1  293.60   30.42
   3  -6   1  284.37   30.11
   3  -6   1  338.41   29.73
   3  -6   1  319.54   27.84
   3  -6   1  250.00   32.77
  -3   6  -219271.61  336.52
   3  -6   219594.43  310.82
   3  -6   219170.56  302.28
   3  -6   219256.50  315.32
  -3   6  -3   25.90   23.75
   3  -6   3   47.21   22.13
   3  -6   3   67.47   22.84
   3  -6   3   73.65   23.04
   3  -6   3  111.35   28.27
   3  -6   3   52.46   21.85
  -3   6  -4 7366.44  153.65
   3  -6   4 7515.75  130.89
   3  -6   4 7604.43  134.53
   3  -6   4 7203.57  152.14
  -3   6  -4 7502.19  137.52
  -3   6  -5 2996.50   85.45
   3  -6   5 2825.06   74.96
   3  -6   5 2789.46   75.09
   3  -6   5 2831.30   77.00
  -3   6  -5 2948.54   87.76
  -3   6  -6 9039.52  181.19
   3  -6   6 8853.43  136.48
   3  -6   6 8863.96  131.11
   3  -6   6 9075.42  132.33
  -3   6  -6 8804.53  155.20
  -3   6  -7   18.57   18.63
  -3   6  -7  -12.83   25.40
   3  -6   7   35.47   26.55
   3  -6   7   38.67   24.09
   3  -6   7   35.70   18.02
  -3   6  -8  131.83   30.43
   3  -6   8  144.71   26.43
   3  -6   8  165.61   30.31
   3  -6   9  612.31   42.74
   3  -6   9  589.25   39.45
   3  -6   9  556.52   36.80
   3  -6  10  449.74   39.27
   3  -6  10  555.78   43.31
   3  -6  10  486.61   40.29
   3  -6  10  422.69   40.48
   3  -6  11  570.70   39.99
   3  -6  11  650.26   43.62
   3  -6  11  617.63   43.93
   3  -6  12 8885.29  138.52
   3  -6  12 9150.81  149.47
   3  -6  12 9207.94  133.44
   3  -6  13 1512.05   60.85
   3  -6  13 1654.42   65.35
   3  -6  14   71.11   35.74
   3  -6  14   89.33   38.06
   3  -6  15   -7.13   33.95
   3  -6  15   -6.30   29.99
   3  -6  16  327.08   39.91
   3  -6  16  360.38   38.92
   3  -6  16  321.81   40.55
   3  -6  17  -37.39   33.66
  -3   6 -17   31.12   37.13
   3  -6  17   16.87   31.40
   3  -6  17   27.47   30.81
   3  -6  18   93.44   31.32
  -3   6 -18   56.39   45.48
   3  -6  18   39.35   33.15
   3  -6  18   50.52   30.96
  -3   5  16 2911.06   89.68
   3  -5 -16 2855.63   83.56
  -3   5  16 3152.08   87.66
  -3   5  15  722.41   49.48
   3  -5 -15  667.27   46.91
   3  -5 -14 2615.40   97.32
   3  -5 -14 2824.13   80.70
   3  -5 -14 2798.43   84.61
   3  -5 -13   65.75   37.40
   3  -5 -13   37.89   31.06
   3  -5 -13   61.01   29.88
   3  -5 -12  343.93   41.91
   3  -5 -12  321.86   34.90
   3  -5 -12  332.98   39.26
   3  -5 -11 1843.57   67.17
   3  -5 -11 1943.41   71.68
   3  -5 -11 1975.61   70.02
   3  -5 -11 1894.97   63.58
   3  -5 -10  180.49   29.62
   3  -5 -10  162.17   39.76
   3  -5 -10  152.00   31.48
   3  -5 -10  179.24   26.76
   3  -5  -919864.77  263.56
   3  -5  -920796.05  288.21
   3  -5  -921884.82  285.67
   3  -5  -921467.92  284.41
   3  -5  -8 4270.44   99.16
   3  -5  -8 4225.23  108.97
   3  -5  -8 4344.50   93.88
   3  -5  -8 4413.48   98.93
   3  -5  -7   -8.38   22.67
   3  -5  -7   15.79   29.90
   3  -5  -7    8.80   25.22
   3  -5  -7   11.97   25.86
  -3   5   6   95.03   38.93
   3  -5  -6   65.40   27.49
   3  -5  -6   51.07   25.87
   3  -5  -6   95.97   31.36
   3  -5  -6   89.57   25.34
   3  -5  -6   69.47   24.42
  -3   5   5 4429.71  114.39
   3  -5  -5 4142.65  107.59
   3  -5  -5 4447.07   96.22
   3  -5  -5 4447.32  103.88
   3  -5  -5 4391.96   99.62
   3  -5  -5 4370.32  103.26
  -3   5   4 2752.31  107.33
   3  -5  -4 2839.08   91.79
   3  -5  -4 2752.33   81.83
   3  -5  -4 2878.67   80.52
   3  -5  -4 2967.03   76.24
   3  -5  -4 2856.01   77.44
  -3   5   3  107.17   30.42
   3  -5  -3  126.48   26.11
   3  -5  -3  144.67   20.88
   3  -5  -3  120.20   26.96
   3  -5  -3  162.17   24.18
  -3   5   2  259.23   33.81
   3  -5  -2  236.87   26.30
   3  -5  -2  211.58   30.50
   3  -5  -2  265.00   28.30
  -3   5   1  381.35   38.87
   3  -5  -1  386.21   31.82
   3  -5  -1  365.55   35.09
   3  -5  -1  379.23   31.45
  -3   5   0 2930.10   83.86
   3  -5   0 2941.37   80.52
   3  -5   0 2883.51   79.64
   3  -5   0 2910.23   82.92
  -3   5  -1 4692.27  105.03
   3  -5   1 4841.54  100.32
   3  -5   1 4543.00   98.65
   3  -5   1 4449.88   99.27
  -3   5  -222793.92  311.13
   3  -5   222995.89  289.18
   3  -5   222467.67  283.54
   3  -5   3 7453.69  140.82
   3  -5   3 7200.44  135.07
   3  -5   3 6864.28  130.41
   3  -5   4 1131.39   49.37
   3  -5   4 1011.74   50.80
   3  -5   4 1013.54   50.39
   3  -5   4  998.14   55.81
  -3   5  -5   41.43   18.41
  -3   5  -5   21.02   22.90
   3  -5   5    2.35   14.65
   3  -5   5    7.90   15.22
   3  -5   5   18.69   24.20
   3  -5   5   36.50   22.79
  -3   5  -6  390.27   36.12
  -3   5  -6  388.44   31.96
   3  -5   6  355.51   30.99
   3  -5   6  355.37   32.51
   3  -5   6  378.37   29.41
  -3   5  -6  381.07   36.71
  -3   5  -7 9300.70  157.52
  -3   5  -7 9135.93  179.64
   3  -5   7 8966.09  147.64
   3  -5   7 8483.21  146.68
   3  -5   7 9124.86  145.30
  -3   5  -8  378.95   33.24
  -3   5  -8  383.71   34.01
   3  -5   8  399.71   30.15
   3  -5   8  394.92   35.16
  -3   5  -9 1375.19   64.89
  -3   5  -9 1320.91   58.62
   3  -5   9 1335.04   58.39
   3  -5   9 1296.63   54.85
   3  -5   9 1389.00   57.25
   3  -5  10  131.13   31.91
   3  -5  10  190.94   31.79
   3  -5  10  167.38   30.44
   3  -5  11  194.09   34.72
   3  -5  11  165.67   31.55
   3  -5  11  184.97   31.58
   3  -5  11  192.59   34.38
   3  -5  12  844.31   50.52
   3  -5  12  828.83   47.10
   3  -5  12  741.98   44.33
   3  -5  12  931.69   50.16
   3  -5  13 1440.63   62.10
   3  -5  13 1402.63   54.22
   3  -5  14  479.81   41.40
   3  -5  14  468.40   44.55
   3  -5  14  540.72   50.39
   3  -5  15    2.53   33.14
   3  -5  15   44.60   33.90
   3  -5  15   32.16   27.47
   3  -5  15    9.45   31.74
   3  -5  16  253.80   38.35
   3  -5  16  296.30   37.94
   3  -5  16  268.22   37.82
   3  -5  16  295.25   36.88
   3  -5  17    3.41   28.09
   3  -5  17   -0.54   30.61
  -3   5 -17   -7.35   37.46
   3  -5  17   18.68   28.11
   3  -5  17   29.84   31.85
   3  -5  18   58.84   32.16
  -3   5 -18   96.11   37.48
   3  -5  18   47.41   30.55
   3  -5  18   52.84   31.48
  -3   5 -19  325.75   56.49
   3  -5  19  392.02   41.34
   3  -5  19  344.06   48.92
   3  -4 -17  394.56   43.18
  -3   4  17  459.22   42.34
   3  -4 -16 4326.96  162.42
  -3   4  16 4369.96  106.22
   3  -4 -16 4651.75  105.91
   3  -4 -16 4588.54  113.65
   3  -4 -15   -1.18   34.85
   3  -4 -15   31.36   28.21
   3  -4 -15   -8.08   21.58
   3  -4 -14  186.69   44.59
   3  -4 -14  172.51   33.88
   3  -4 -14  172.87   35.39
   3  -4 -13  122.53   42.01
   3  -4 -13   98.09   31.45
   3  -4 -13  158.53   36.18
   3  -4 -12  165.85   39.43
   3  -4 -12  200.99   36.06
   3  -4 -11  677.46   52.82
   3  -4 -11  705.30   46.68
   3  -4 -10  722.81   50.17
   3  -4 -10  795.43   42.63
   3  -4  -9 5503.00  107.00
   3  -4  -9 5803.44  124.49
   3  -4  -9 5916.20  135.29
   3  -4  -8 5943.63  137.24
   3  -4  -8 6151.37  153.69
   3  -4  -8 5865.41  143.00
  -3   4   7 1422.67   66.33
   3  -4  -7 1397.34   56.41
   3  -4  -7 1476.86   53.51
   3  -4  -7 1448.91   58.75
   3  -4  -7 1364.13   56.10
   3  -4  -7 1440.12   58.13
  -3   4   6 1032.78   63.04
   3  -4  -6 1002.40   48.79
   3  -4  -6  991.45   48.03
   3  -4  -6  959.22   51.18
   3  -4  -6 1037.93   52.37
   3  -4  -6  994.92   44.83
   3  -4  -6 1013.34   51.27
  -3   4   513977.76  265.53
   3  -4  -513843.61  253.72
   3  -4  -513590.74  241.47
   3  -4  -513828.44  246.94
   3  -4  -513809.07  268.11
   3  -4  -513491.90  233.90
   3  -4  -513635.28  250.70
  -3   4   414289.66  282.43
   3  -4  -414026.11  242.88
   3  -4  -413996.41  245.78
   3  -4  -413893.56  257.12
   3  -4  -413507.50  244.64
   3  -4  -413681.16  235.90
   3  -4  -413828.10  249.95
  -3   4   3  739.04   50.60
   3  -4  -3  773.99   42.55
   3  -4  -3  765.46   47.57
   3  -4  -3  773.27   44.74
   3  -4  -3  743.12   40.92
  -3   4   2 5011.07  120.29
   3  -4  -2 4483.07  137.37
   3  -4  -2 4465.19  114.42
  -3   4   1  768.80   49.10
   3  -4  -1  754.27   42.03
  -3   4   0    1.60   25.87
   3  -4   217600.35  284.99
   3  -4   3  853.59   44.22
  -3   4  -426289.98  400.14
  -3   4  -426969.51  405.59
  -3   4  -5 3186.55   86.05
  -3   4  -5 3131.56   85.88
   3  -4   5 2925.57   81.75
   3  -4   5 3004.34   95.31
   3  -4   5 2953.33   82.54
  -3   4  -612255.41  193.71
  -3   4  -611960.18  188.82
   3  -4   611332.17  182.66
   3  -4   611145.39  193.36
   3  -4   611564.57  179.69
   3  -4   610797.98  205.45
   3  -4   611326.08  179.27
  -3   4  -7  404.73   35.78
  -3   4  -7  385.82   34.99
   3  -4   7  367.73   32.60
   3  -4   7  368.37   31.03
   3  -4   7  355.96   33.84
  -3   4  -8 7389.88  164.54
  -3   4  -8 7205.81  176.23
   3  -4   8 6998.69  148.15
   3  -4   8 7068.49  152.33
   3  -4   8 6872.48  142.67
   3  -4   8 7073.17  156.17
  -3   4  -9 4679.02  114.30
  -3   4  -9 4747.11  114.81
   3  -4   9 4697.34  104.78
   3  -4   9 4547.66  101.46
   3  -4   9 4482.62   95.70
  -3   4 -1020546.11  236.17
  -3   4 -1020384.01  233.98
   3  -4  1021117.18  207.25
   3  -4  1019794.99  205.75
   3  -4  1021097.34  201.21
   3  -4  11 2735.07   75.24
   3  -4  11 2555.65   69.47
   3  -4  11 2703.94   74.27
   3  -4  12 5201.66  104.86
   3  -4  12 5113.01  109.53
   3  -4  12 5224.25  101.66
   3  -4  12 4726.32   97.80
   3  -4  13  146.20   27.93
   3  -4  13  165.79   35.01
   3  -4  13  165.49   32.50
   3  -4  13  146.41   30.56
   3  -4  14    3.35   25.49
   3  -4  14   -3.45   30.86
   3  -4  14   34.23   27.54
   3  -4  14    9.41   28.06
   3  -4  15  143.45   33.29
   3  -4  15  183.84   35.95
   3  -4  15  169.56   33.97
   3  -4  15  173.19   34.94
   3  -4  16 1324.96   57.04
   3  -4  16 1302.60   57.01
   3  -4  16 1381.28   55.51
   3  -4  16 1278.05   64.20
   3  -4  17  506.64   43.26
   3  -4  17  594.99   43.81
  -3   4 -17  538.64   52.20
   3  -4  17  588.35   52.08
   3  -4  17  550.55   42.34
   3  -4  17  549.29   43.57
   3  -4  18   74.57   35.34
   3  -4  18   43.39   32.61
  -3   4 -18   63.43   53.81
   3  -4  18   52.33   28.67
   3  -4  18   83.19   31.73
   3  -4  19 1042.60   62.79
   3  -4  19  978.50   51.37
   3  -4  19  933.14   52.48
   3  -4  20  724.42   50.39
   3  -4  20  616.30   77.23
   3  -3 -17  183.79   50.36
   3  -3 -17  176.97   34.92
   3  -3 -17  215.63   33.86
   3  -3 -16 1865.73  100.27
   3  -3 -16 1865.06   68.90
   3  -3 -16 1879.20   71.35
   3  -3 -15 2100.17   96.09
   3  -3 -15 2038.68   66.50
   3  -3 -15 2205.43   70.00
   3  -3 -14  631.65   50.02
   3  -3 -14  655.72   40.91
   3  -3 -13  957.97   57.36
   3  -3 -13  825.26   49.18
   3  -3 -12 1676.06   65.79
   3  -3 -12 1832.99   68.51
   3  -3 -11 4020.24  111.03
   3  -3 -11 4036.12   98.46
   3  -3 -10  486.74   44.82
   3  -3 -10  539.64   45.75
   3  -3 -10  453.85   41.85
   3  -3  -9 1198.18   55.60
   3  -3  -9 1372.50   62.38
   3  -3  -9 1426.68   59.74
   3  -3  -9 1345.00   55.88
   3  -3  -8 4130.18  111.89
   3  -3  -8 3781.79   94.55
   3  -3  -8 4240.95  104.45
   3  -3  -8 3806.07   97.80
   3  -3  -8 4199.07   97.05
   3  -3  -7 9270.39  183.16
   3  -3  -7 9291.54  164.34
   3  -3  -7 9756.43  171.72
   3  -3  -7 9527.68  158.89
   3  -3  -6 5931.21  141.34
   3  -3  -6 5843.75  134.66
   3  -3  -6 5955.42  141.42
   3  -3  -6 5780.48  139.89
   3  -3  -6 5783.94  134.86
   3  -3  -5 5039.58  104.60
   3  -3  -5 5095.33  118.51
   3  -3  -5 4838.94  107.57
   3  -3  -5 4947.06  107.97
  -3   3   4 3394.58  101.63
   3  -3  -4 3509.36   88.37
   3  -3  -4 3369.99   99.32
   3  -3  -4 2896.51   99.17
  -3   3   3  165.72   34.76
   3  -3  -3  184.96   26.57
  -3   3   2   -5.19   28.90
   3  -3  -2   22.44   15.50
   3  -3  -1 2131.41   72.43
   3  -3   0   22.55   15.89
  -3   3  -2 4584.77  154.16
  -3   3  -312101.00  281.72
   3  -3   312200.49  277.85
  -3   3  -4 1508.83   59.06
  -3   3  -4 1510.52   60.35
   3  -3   4 1429.88   60.06
  -3   3  -512204.52  281.68
  -3   3  -512156.41  284.94
   3  -3   512012.39  287.29
  -3   3  -6   42.13   24.53
  -3   3  -6   62.79   26.08
   3  -3   6   31.34   17.10
  -3   3  -726444.44  345.38
   3  -3   725254.10  316.54
   3  -3   724094.26  322.45
   3  -3   724803.46  326.35
  -3   3  -8  287.42   33.21
  -3   3  -8  326.40   33.92
   3  -3   8  261.81   29.26
   3  -3   8  258.16   32.82
   3  -3   8  263.55   29.59
   3  -3   8  247.98   30.89
   3  -3   8  251.79   31.52
  -3   3  -9   43.78   27.23
  -3   3  -9   51.78   19.93
   3  -3   9   39.08   23.98
   3  -3   9   54.85   23.65
   3  -3   9   33.86   23.31
   3  -3   9   35.77   16.06
   3  -3   9   54.24   21.67
  -3   3 -10 7387.69  151.20
  -3   3 -10 7365.10  153.08
   3  -3  10 7783.63  136.11
   3  -3  10 7280.19  126.33
   3  -3  10 7690.49  133.70
  -3   3 -11 4384.57  117.05
   3  -3  11 4598.53   95.02
   3  -3  11 4878.94  106.60
   3  -3  11 4578.99   99.45
   3  -3  11 4527.32   98.09
   3  -3  12  512.59   37.39
   3  -3  12  577.43   40.09
   3  -3  12  527.06   38.02
   3  -3  13 2615.84   75.49
   3  -3  13 2707.28   76.90
   3  -3  13 2579.72   76.22
   3  -3  14    8.12   26.52
   3  -3  14   34.19   33.27
   3  -3  14  -13.84   26.95
   3  -3  14   -6.45   27.17
   3  -3  15  426.06   39.22
   3  -3  15  480.18   42.03
   3  -3  15  361.22   37.78
   3  -3  15  355.14   35.52
   3  -3  16 2070.31   69.72
   3  -3  16 2228.59   70.14
  -3   3 -16 2120.00   83.91
   3  -3  16 2176.47   67.15
   3  -3  16 2037.00   71.74
   3  -3  17 1660.01   61.69
   3  -3  17 1603.34   59.80
  -3   3 -17 1623.53   71.85
   3  -3  17 1793.01   64.71
   3  -3  17 1724.37   65.50
   3  -3  18 1637.51   64.08
   3  -3  18 1661.06   61.24
  -3   3 -18 1626.80   78.76
   3  -3  18 1709.63   90.42
   3  -3  18 1723.17   60.60
   3  -3  18 1661.93   68.67
   3  -3  19  590.48   47.55
  -3   3 -19  609.25   39.80
   3  -3  19  642.91   52.45
   3  -3  19  637.12   46.17
   3  -3  19  626.93   46.76
   3  -3  20 2268.66   84.17
  -3   3 -20 2094.13   74.69
   3  -3  20 2128.45  104.81
   3  -3  20 2196.68   76.57
   3  -3  20 2018.06  107.75
   3  -2 -18  860.63   64.45
   3  -2 -18  996.77   61.03
   3  -2 -17  298.38   43.46
   3  -2 -17  340.73   35.60
   3  -2 -17  390.19   38.11
   3  -2 -16   13.92   35.26
   3  -2 -16    5.09   29.08
   3  -2 -15 4105.64  104.07
   3  -2 -15 4370.93   99.35
   3  -2 -14 3589.58  111.24
   3  -2 -14 3756.20  116.63
   3  -2 -13  183.87   40.40
   3  -2 -13  185.26   37.92
   3  -2 -12  586.13   56.01
   3  -2 -12  547.67   44.84
   3  -2 -12  472.80   36.67
   3  -2 -11 4343.55  104.76
   3  -2 -11 4330.63  103.26
   3  -2 -11 4233.72   95.01
   3  -2 -10   -1.48   21.94
   3  -2 -10   -1.09   28.97
   3  -2 -10    2.76   24.95
   3  -2  -9  131.21   36.07
   3  -2  -9  148.52   29.62
   3  -2  -9  145.92   37.80
   3  -2  -9  171.16   26.19
   3  -2  -9  173.56   29.23
   3  -2  -8 1650.35   77.63
   3  -2  -8 1559.07   60.00
   3  -2  -8 1753.80   70.22
   3  -2  -8 1788.91   65.10
   3  -2  -8 1769.09   64.41
   3  -2  -7 1376.48   62.34
   3  -2  -7 1369.77   54.70
  -3   2   7 1342.82   87.32
   3  -2  -7 1496.75   66.40
   3  -2  -7 1377.86   57.77
   3  -2  -6 2917.64   86.40
   3  -2  -6 3059.97   86.47
  -3   2   6 3057.47   96.02
   3  -2  -6 3004.09  101.84
   3  -2  -6 2980.22   81.37
   3  -2  -5 3706.34   96.83
   3  -2  -5 3830.94   89.44
  -3   2   5 3495.68   93.49
   3  -2  -5 3667.67  111.62
   3  -2  -5 3340.54  110.80
   3  -2  -4  400.56   34.05
  -3   2   4  397.60   33.54
   3  -2  -3   77.47   22.83
  -3   2   3   32.11   18.68
   3  -2  -2 2292.92   65.96
  -3   2   2 2103.95   83.53
  -3   2   2 2014.58   74.68
   3  -2  -1 2381.20   69.28
  -3   2   1 2384.45   87.04
  -3   2   1 2314.00  110.93
  -3   2   0   31.13   21.32
   3  -2   0   17.86   19.16
  -3   2   0   24.76   18.51
  -3   2  -1 8108.18  182.92
   3  -2   1 7936.52  161.47
  -3   2  -1 7550.33  195.10
  -3   2  -1 8026.81  188.46
  -3   2  -2  435.20   34.63
   3  -2   2  406.50   31.14
   3  -2   2  475.29   36.19
  -3   2  -2  458.20   38.49
  -3   2  -3 1328.46   62.44
   3  -2   3 1295.00   55.47
  -3   2  -3 1024.90   62.35
  -3   2  -4 1187.03   53.93
  -3   2  -4 1203.38   51.96
   3  -2   4 1214.30   53.87
  -3   2  -4  920.82   65.91
  -3   2  -5  490.36   34.74
  -3   2  -5  494.58   34.70
   3  -2   5  521.44   37.08
  -3   2  -5  400.99   37.06
  -3   2  -6 8145.58  167.29
  -3   2  -6 8248.67  175.07
   3  -2   6 8150.93  168.68
  -3   2  -7 8941.56  226.85
  -3   2  -7 8865.61  218.04
   3  -2   7 8800.53  224.78
  -3   2  -8 4349.38   96.76
  -3   2  -8 4557.39   98.44
   3  -2   8 4435.40  107.94
   3  -2   8 4283.16  101.85
   3  -2   8 4225.39   94.79
   3  -2   8 4018.52   93.00
   3  -2   8 4280.28   92.85
  -3   2  -9  367.25   36.39
  -3   2  -9  372.04   35.97
   3  -2   9  355.76   33.14
   3  -2   9  372.41   33.75
   3  -2   9  407.44   34.01
   3  -2   9  382.92   32.72
   3  -2   9  358.53   29.16
  -3   2 -10 3264.32   98.25
  -3   2 -10 3351.97   90.36
   3  -2  10 3146.66   86.33
   3  -2  10 3283.27   83.91
   3  -2  10 3024.13   84.93
   3  -2  10 3297.69   81.18
   3  -2  10 3206.77   98.08
   3  -2  10 3377.23   84.43
  -3   2 -11 2718.73   97.33
  -3   2 -11 2682.89   83.82
   3  -2  11 2774.56   88.39
   3  -2  11 2808.58   78.22
   3  -2  11 2935.62   78.21
   3  -2  11 2821.87   73.44
  -3   2 -12  337.35   44.45
  -3   2 -12  317.24   33.13
   3  -2  12  298.68   34.74
   3  -2  12  319.21   31.84
   3  -2  12  340.81   35.63
   3  -2  12  370.83   29.33
   3  -2  13  380.07   36.89
   3  -2  13  365.71   37.36
   3  -2  13  384.91   39.68
   3  -2  13  390.88   36.03
   3  -2  14  669.41   38.43
   3  -2  14  786.74   47.58
   3  -2  14  719.81   46.98
   3  -2  14  751.31   41.64
   3  -2  15   22.81   24.15
   3  -2  15   -1.75   30.70
   3  -2  15   64.70   22.10
   3  -2  15    6.95   31.25
   3  -2  16   20.55   26.06
   3  -2  16   11.28   23.08
  -3   2 -16   54.67   38.18
   3  -2  16   62.43   23.47
   3  -2  16   51.42   31.62
   3  -2  17 1114.07   51.62
   3  -2  17 1114.55   54.39
  -3   2 -17 1096.47   61.55
   3  -2  17 1104.83   56.06
   3  -2  17 1122.81   52.63
   3  -2  18 3767.21   98.07
   3  -2  18 3803.80   88.09
   3  -2  18 3795.34  109.71
   3  -2  18 3878.32   94.22
   3  -2  18 3887.25   95.36
   3  -2  19    3.90   28.48
  -3   2 -19  -11.05   25.64
   3  -2  19   34.20   30.82
   3  -2  19   17.94   29.63
   3  -2  19    1.30   27.56
   3  -2  20 2632.56   90.39
  -3   2 -20 2535.38   75.40
   3  -2  20 2535.39   94.48
   3  -2  20 2585.66   84.93
   3  -2  20 2508.41   87.30
   3  -1 -18 2066.36  110.73
   3  -1 -18 1948.02   89.06
   3  -1 -17  248.47   42.69
   3  -1 -17  258.35   31.47
   3  -1 -16  191.62   41.15
   3  -1 -16  165.54   36.72
   3  -1 -15  530.10   48.93
   3  -1 -15  549.02   43.65
   3  -1 -14  835.15   55.10
   3  -1 -14  937.31   49.52
   3  -1 -14  849.30   50.73
   3  -1 -13  417.88   48.35
   3  -1 -13  326.44   43.24
   3  -1 -13  411.71   42.34
   3  -1 -12 1903.59   84.01
   3  -1 -12 1879.05   70.64
   3  -1 -12 1979.51   66.30
   3  -1 -11 4728.59  109.64
   3  -1 -11 4934.27  105.90
   3  -1 -11 4893.49  103.10
   3  -1 -10 2010.30   75.93
   3  -1 -10 1987.37   69.40
   3  -1 -10 2042.10   72.59
   3  -1  -9 1132.03   60.67
  -3   1   9 1053.26   57.08
   3  -1  -9 1083.68   53.81
   3  -1  -9 1158.35   56.51
   3  -1  -9 1145.46   52.71
   3  -1  -8 3137.05   97.78
   3  -1  -8 3162.54   85.63
  -3   1   8 3422.54  109.33
   3  -1  -8 3308.73  101.24
   3  -1  -8 3412.72   99.02
   3  -1  -8 3347.26   83.66
   3  -1  -7   75.48   31.45
   3  -1  -7   39.83   19.48
  -3   1   7   46.70   21.91
   3  -1  -7   28.67   28.55
   3  -1  -7   48.80   25.33
   3  -1  -7   38.85   22.67
   3  -1  -6 2487.36   70.59
  -3   1   6 2279.11   73.16
   3  -1  -6 2267.84   83.47
   3  -1  -5 5721.28  130.74
  -3   1   5 5245.81  143.91
   3  -1  -4 1504.69   54.23
  -3   1   4 1534.98   64.61
   3  -1  -3 2974.14  111.88
  -3   1   3 3189.03  120.50
   3  -1  -3 3172.06  111.66
  -3   1   3 2949.89  122.67
  -3   1   3 3188.70  117.49
   3  -1  -2 2474.29   79.40
   3  -1  -2 2493.60   74.81
  -3   1   2 2388.18   86.47
  -3   1   2 2417.14   85.31
  -3   1   112086.69  300.49
   3  -1  -111810.85  260.30
  -3   1   111245.84  277.83
  -3   1   111137.06  299.73
  -3   1   0 1490.88   68.55
   3  -1   0 1482.33   56.63
  -3   1   0 1348.83   57.79
  -3   1   0 1421.13   61.62
  -3   1  -1 4909.87  154.51
   3  -1   1 4819.43  143.88
  -3   1  -1 4753.47  152.52
  -3   1  -1 4789.66  159.01
  -3   1  -2 9563.03  258.44
   3  -1   210460.19  142.54
   3  -1   2 9564.13  256.42
  -3   1  -2 9057.61  252.89
  -3   1  -313509.84  300.22
   3  -1   313639.78  311.79
  -3   1  -311952.33  306.47
  -3   1  -4 1210.47   52.56
   3  -1   4 1251.30   53.03
  -3   1  -4 1059.88   64.83
  -3   1  -5 2864.55   78.74
  -3   1  -5 2831.14   77.07
   3  -1   5 2859.34   78.45
  -3   1  -5 2506.92   99.55
  -3   1  -6   46.76   23.11
  -3   1  -6   29.31   28.06
   3  -1   6   75.84   17.51
  -3   1  -7 3039.94  108.17
  -3   1  -7 3136.39  110.11
   3  -1   7 3204.75  118.19
  -3   1  -8 2602.52   77.81
  -3   1  -8 2763.04   84.55
   3  -1   8 2690.03   76.26
  -3   1  -9  662.18   43.71
  -3   1  -9  750.57   44.47
   3  -1   9  847.33   46.33
   3  -1   9  631.03   42.02
   3  -1   9  661.31   38.84
   3  -1   9  608.36   39.26
   3  -1   9  644.78   38.19
  -3   1 -1011120.37  244.72
  -3   1 -1011196.34  207.33
   3  -1  1011452.95  217.10
   3  -1  1011490.94  212.89
   3  -1  1011315.92  231.39
   3  -1  1011484.69  213.55
   3  -1  1011353.58  203.33
   3  -1  1011211.53  211.04
  -3   1 -1120741.59  296.45
  -3   1 -1120416.37  283.55
   3  -1  1120570.77  263.21
   3  -1  1120813.41  241.29
   3  -1  1120584.24  244.09
   3  -1  1120719.24  244.19
   3  -1  1120858.26  241.19
  -3   1 -12  909.74   52.80
  -3   1 -12  925.14   52.84
   3  -1  12  976.95   53.42
   3  -1  12  959.15   45.70
   3  -1  12 1007.51   50.85
   3  -1  12 1001.33   43.40
   3  -1  12  912.93   46.29
   3  -1  13 3061.40   76.71
   3  -1  13 2995.76   78.31
   3  -1  13 2970.61   76.85
   3  -1  14  583.95   40.58
   3  -1  14  553.64   42.91
   3  -1  14  541.17   41.58
   3  -1  14  573.85   35.69
   3  -1  14  618.25   42.41
   3  -1  15   66.10   25.70
   3  -1  15   33.28   33.69
   3  -1  15   30.53   28.79
   3  -1  15   97.41   29.88
   3  -1  16 8478.41  129.86
   3  -1  16 8245.35  134.24
   3  -1  16 8169.65  127.65
   3  -1  16 8228.52  131.29
   3  -1  17   79.17   29.93
   3  -1  17  133.91   31.41
   3  -1  17  104.89   35.06
   3  -1  17  122.67   27.11
   3  -1  18 3343.00   86.78
   3  -1  18 3626.32  101.24
   3  -1  18 3491.12   86.47
   3  -1  18 3467.51   87.02
   3  -1  19 1516.96   61.84
  -3   1 -19 1527.27   58.16
   3  -1  19 1604.54   65.06
   3  -1  19 1456.03   58.80
   3  -1  19 1567.36   60.14
   3  -1  20  564.45   45.47
  -3   1 -20  539.81   40.22
   3  -1  20  526.01   47.17
   3  -1  20  486.59   41.81
   3  -1  20  508.65   45.65
   3   0 -18 1733.23   91.45
   3   0 -17 3389.47   95.58
   3   0 -16   43.53   39.76
   3   0 -16  -26.99   29.06
   3   0 -15   -6.58   28.70
   3   0 -15    4.28   28.51
  -3   0  14  281.10   40.50
   3   0 -14  195.66   36.01
   3   0 -14  248.66   40.42
   3   0 -14  285.38   35.24
  -3   0  13 3532.95   85.27
   3   0 -13 3742.66  103.81
   3   0 -13 3746.73   97.63
   3   0 -13 3702.27   87.44
  -3   0  12 2533.97   76.31
   3   0 -12 2874.03   88.15
   3   0 -12 2601.08   81.36
   3   0 -12 2618.67   73.22
   3   0 -1123837.89  372.84
   3   0 -1123235.22  362.29
   3   0 -1123016.56  352.51
   3   0 -1014115.64  289.21
  -3   0  1014209.40  295.73
   3   0 -1014825.72  329.12
   3   0 -1015086.30  283.23
   3   0 -1014500.56  290.93
   3   0  -9  555.34   45.63
  -3   0   9  579.49   42.09
   3   0  -9  614.42   45.97
   3   0  -9  621.54   41.96
   3   0  -9  613.08   44.91
   3   0  -9  578.05   40.22
  -3   0   8 3609.80  100.59
   3   0  -8 3053.01   93.14
   3   0  -8 3406.91   90.79
   3   0  -8 3458.43  102.28
   3   0  -8 3430.38   89.37
   3   0  -7   59.20   20.68
  -3   0   7   35.02   24.86
   3   0  -7   40.44   21.45
   3   0  -7   57.04   21.31
   3   0  -619103.21  305.85
  -3   0   617928.19  328.45
   3   0  -512875.02  319.38
   3   0  -513184.01  299.87
  -3   0   513474.41  328.45
   3   0  -4  304.56   37.53
   3   0  -4  292.98   28.11
  -3   0   4  340.46   37.02
   3   0  -362653.83  854.42
  -3   0   364461.75  872.47
   3   0  -364849.59  865.87
  -3   0   363155.41  869.29
   3   0  -2 1015.63   54.29
  -3   0   2 1028.55   54.75
   3   0  -2  998.71   44.60
  -3   0   2  872.38   45.88
  -3   0   2  991.89   54.71
  -3   0   2 1030.02   52.38
   3   0  -1 2620.72   81.65
   3   0  -1 2543.17   71.97
  -3   0   1 2341.40   93.61
  -3   0   1 2424.47   91.50
  -3   0   1 2562.39   83.32
  -3   0   0 1407.60   73.95
  -3   0   0 1504.80   66.59
   3   0   0 1553.36   57.67
  -3   0   0 1326.56   57.49
  -3   0   0 1394.13   63.77
  -3   0   0 1587.80   71.71
  -3   0  -1  343.18   34.62
  -3   0  -1  375.18   39.07
   3   0   1  392.32   33.46
  -3   0  -1  334.52   31.73
   3   0   1  392.79   33.15
  -3   0  -1  362.14   31.80
  -3   0  -2 2350.69   81.89
  -3   0  -2 2452.02   79.57
  -3   0  -2 2673.69   77.29
   3   0   2 2501.39   78.69
  -3   0  -2 2222.64   78.35
  -3   0  -3  102.89   18.21
  -3   0  -3   94.47   25.49
  -3   0  -3   99.43   29.18
   3   0   3  117.89   24.67
  -3   0  -3   98.13   18.55
  -3   0  -4 8208.80  223.11
   3   0   4 7436.49  240.90
   3   0   4 8316.69  226.01
  -3   0  -4 7587.59  224.24
  -3   0  -5  607.86   38.61
   3   0   5  569.27   50.54
   3   0   5  649.50   39.88
  -3   0  -612753.95  292.72
  -3   0  -611594.08  267.98
   3   0   613019.80  296.15
  -3   0  -7 6712.62  153.06
  -3   0  -7 6746.89  158.98
   3   0   7 6481.20  145.46
  -3   0  -821141.13  365.87
  -3   0  -820802.31  329.18
   3   0   820288.52  323.13
  -3   0  -911562.03  217.72
  -3   0  -911302.87  196.99
   3   0   911164.22  182.87
   3   0   911823.78  193.54
   3   0   910981.86  188.45
  -3   0 -10   13.88   25.08
  -3   0 -10   53.60   29.79
   3   0  10   27.41   23.57
   3   0  10   30.49   19.58
   3   0  10   50.44   22.23
   3   0  10   21.87   21.83
   3   0  10   41.31   22.21
  -3   0 -11  651.81   49.20
  -3   0 -11  662.39   45.10
   3   0  11  661.49   43.57
   3   0  11  641.24   37.10
   3   0  11  676.40   40.06
   3   0  11  635.90   38.03
   3   0  11  673.21   41.04
  -3   0 -12 4140.21  113.92
   3   0  12 4002.20  102.13
   3   0  12 4072.69   92.16
   3   0  12 3795.42   87.62
   3   0  12 4093.39   94.41
   3   0  12 4103.12  102.37
   3   0  12 4193.30   98.57
   3   0  13   35.84   27.65
   3   0  13   58.22   22.59
   3   0  13   34.41   25.18
   3   0  13   23.85   27.44
   3   0  14   42.49   27.60
   3   0  14   42.63   26.24
   3   0  14   24.45   25.82
   3   0  15   39.09   22.75
   3   0  15   97.70   29.60
   3   0  15   23.15   21.34
   3   0  15   27.32   30.23
   3   0  16   25.89   28.79
   3   0  16   23.50   21.28
   3   0  16   49.30   26.68
   3   0  16  -16.92   23.60
   3   0  17  260.32   34.14
   3   0  17  244.23   36.29
   3   0  17  236.72   32.70
   3   0  17  253.12   35.67
   3   0  18  938.00   51.38
  -3   0 -18  824.36   41.62
   3   0  18  934.73   53.08
   3   0  18  816.61   48.71
   3   0  18  784.09   47.59
   3   0  19 3953.77   98.56
  -3   0 -19 3753.70   96.78
   3   0  19 3814.77   99.13
   3   0  19 3786.31   89.08
   3   0  19 3961.51  100.92
   3   0  20  309.56   40.56
  -3   0 -20  288.63   34.48
   3   0  20  313.76   45.73
   3   0  20  332.42   44.70
   3   0  20  296.97   38.43
  -3   0 -21   -2.08   33.86
   3   0  21    3.41   29.46
   3   1 -18   11.10   38.94
   3   1 -17 2131.92   79.77
  -3  -1  16  410.70   42.63
   3   1 -16  367.05   39.66
  -3  -1  15  104.30   31.78
   3   1 -15  151.23   43.89
   3   1 -15  138.87   36.37
   3   1 -15  102.47   29.06
  -3  -1  14  207.86   33.02
   3   1 -14  201.20   43.32
   3   1 -14  241.47   39.27
   3   1 -14  194.90   38.62
  -3  -1  13  104.69   29.11
   3   1 -13  116.27   39.10
   3   1 -13  142.30   31.89
   3   1 -13  120.17   36.56
  -3  -1  13  100.49   30.44
  -3  -1  12  853.47   45.37
   3   1 -12  897.74   58.79
   3   1 -12  945.32   54.55
   3   1 -12  931.23   49.44
  -3  -1  11   38.19   25.39
   3   1 -11    4.27   34.07
   3   1 -11   19.80   32.56
   3   1 -11   13.69   26.45
   3   1 -1014009.53  298.66
  -3  -1  1014483.07  287.48
  -3  -1  1014557.13  271.90
   3   1 -1015461.18  280.98
   3   1 -1014709.12  288.69
   3   1 -1014354.84  271.92
  -3  -1   9 4325.00  104.43
  -3  -1   9 4307.44   92.50
   3   1  -9 4630.19  100.79
   3   1  -9 4620.65  117.54
   3   1  -9 4499.05  110.30
  -3  -1   8 1261.45   56.96
   3   1  -8 1167.69   53.68
   3   1  -8 1255.67   62.05
   3   1  -8 1268.80   54.63
   3   1  -7  310.03   38.66
   3   1  -7  279.84   28.90
  -3  -1   7  263.83   37.07
   3   1  -7  289.60   38.45
   3   1  -7  272.74   32.98
   3   1  -7  295.42   40.39
   3   1  -7  285.31   30.46
   3   1  -619610.02  332.11
   3   1  -619453.77  309.64
  -3  -1   619967.67  330.10
   3   1  -5   -4.79   27.93
   3   1  -5    0.47   14.73
  -3  -1   5    7.13   27.79
   3   1  -4 2342.31   78.50
   3   1  -4 2284.24   67.27
  -3  -1   4 2152.03   79.98
  -3  -1   4 2099.74   89.22
   3   1  -356211.25  780.55
  -3  -1   357244.19  793.56
   3   1  -356647.00  766.75
  -3  -1   354300.22  757.35
  -3  -1   357782.11  794.01
   3   1  -2 6458.54  197.22
  -3  -1   2 6610.39  195.20
   3   1  -2 6441.22  179.12
  -3  -1   2 5863.27  186.63
  -3  -1   2 5929.80  183.64
  -3  -1   2 6387.42  187.70
   3   1  -1 5395.74  171.35
  -3  -1   1 5034.88  164.33
  -3  -1   1 5659.01  168.05
   3   1  -1 5429.52  156.51
  -3  -1   1 5082.54  159.18
  -3  -1   1 4945.30  163.27
  -3  -1   1 5670.07  180.40
   3   1   0 1569.35   64.40
  -3  -1   0 1456.85   67.09
   3   1   0 1542.63   56.33
  -3  -1   0 1436.70   57.63
  -3  -1   0 1485.20   63.87
  -3  -1   0 1575.45   68.98
  -3  -1  -117653.99  396.69
  -3  -1  -117594.91  385.41
  -3  -1  -117429.10  413.01
  -3  -1  -118300.05  385.81
   3   1   117535.54  373.05
  -3  -1  -117776.04  404.89
  -3  -1  -2  930.46   53.38
  -3  -1  -2 1065.05   53.19
  -3  -1  -2 1007.81   47.97
  -3  -1  -2 1056.62   50.79
   3   1   2 1045.12   50.78
  -3  -1  -2  983.73   63.90
  -3  -1  -3 9659.50  265.71
  -3  -1  -310408.06  167.82
  -3  -1  -310234.18  142.60
   3   1   310605.86  151.19
  -3  -1  -3 9686.28  278.11
  -3  -1  -4 1805.67   72.60
  -3  -1  -4 1956.40   66.30
  -3  -1  -4 1999.29   67.15
   3   1   4 1938.05   69.33
  -3  -1  -4 1692.73   71.59
  -3  -1  -5 2763.37   76.19
   3   1   5 2687.33   94.04
  -3  -1  -5 2912.07   79.67
   3   1   5 2944.91   80.17
  -3  -1  -6 8519.63  212.89
   3   1   6 8064.70  188.52
   3   1   6 8571.17  218.42
  -3  -1  -7  132.14   29.59
   3   1   7  159.76   27.49
  -3  -1  -8  469.49   38.06
  -3  -1  -8  506.26   42.80
   3   1   8  578.55   39.98
  -3  -1  -9 4541.26  115.56
  -3  -1  -9 4391.72  107.94
   3   1   9 4097.20   95.87
   3   1   9 4142.67  104.43
   3   1   9 3711.79  119.64
   3   1   9 3796.29   93.66
  -3  -1 -10 2369.50   79.63
  -3  -1 -10 2479.58   76.58
   3   1  10 2164.52   72.63
   3   1  10 2298.92   70.26
   3   1  10 2284.96   76.25
   3   1  10 2198.68   68.90
   3   1  10 2304.24   89.66
   3   1  10 2267.56   79.82
  -3  -1 -11 1549.15   62.63
   3   1  11 1473.09   61.10
   3   1  11 1545.76   59.29
   3   1  11 1548.10   55.49
   3   1  11 1517.70   56.71
   3   1  11 1477.73   55.70
   3   1  11 1481.42   57.31
  -3  -1 -12 7449.89  140.27
   3   1  12 7174.36  146.69
   3   1  12 7111.88  122.09
   3   1  12 7315.58  128.02
   3   1  12 7266.59  124.08
   3   1  12 7311.59  120.10
   3   1  12 7176.48  124.82
   3   1  13  414.06   37.89
   3   1  13  423.30   35.53
   3   1  13  428.85   36.26
   3   1  14 2938.99   79.61
   3   1  14 2989.51   78.33
   3   1  14 2928.47   79.92
   3   1  15 7048.87  133.41
   3   1  15 7303.64  135.19
   3   1  15 6891.61  131.77
   3   1  16  614.89   45.93
   3   1  16  727.69   44.95
   3   1  16  642.50   44.24
   3   1  16  644.14   44.04
   3   1  17 1006.26   53.74
  -3  -1 -17  881.72   47.02
   3   1  17  898.33   48.68
   3   1  17  929.63   52.62
   3   1  17  936.31   52.29
   3   1  18   97.38   24.49
  -3  -1 -18  115.62   31.34
   3   1  18   93.89   27.40
   3   1  18   77.54   36.54
   3   1  18  100.83   37.06
   3   1  19 1181.09   53.98
  -3  -1 -19 1158.66   53.23
   3   1  19 1181.13   66.17
   3   1  19 1163.63   54.03
   3   1  19 1214.24   54.98
   3   1  20 1009.20   53.19
  -3  -1 -20 1045.00   47.70
   3   1  20 1030.89   57.39
   3   1  20  969.48   57.86
   3   1  20  968.92   53.10
   3   1  21  528.20   43.88
  -3  -1 -21  556.45   43.14
   3   1  21  546.43   48.11
   3   1  21  545.58   49.38
   3   2 -18  387.49   49.87
  -3  -2  17 3035.00   85.32
   3   2 -17 2901.68   95.08
  -3  -2  16  146.73   34.22
   3   2 -16  120.80   32.82
  -3  -2  15   -5.15   29.74
   3   2 -15  -30.40   40.01
   3   2 -15   12.05   33.39
  -3  -2  14 1566.14   60.77
   3   2 -14 1628.06   70.16
   3   2 -14 1528.76   64.55
   3   2 -14 1528.74   63.09
  -3  -2  14 1521.60   61.70
  -3  -2  13  987.30   49.73
   3   2 -13 1038.67   61.31
   3   2 -13  959.59   53.70
   3   2 -13 1007.52   51.72
  -3  -2  13  932.85   50.42
  -3  -2  12  528.48   38.95
   3   2 -12  581.66   45.83
   3   2 -12  594.81   43.13
  -3  -2  12  512.50   43.50
  -3  -2  11  922.01   48.34
   3   2 -11  916.59   50.99
   3   2 -11 1016.06   54.65
   3   2 -11  879.88   48.98
  -3  -2  10 2513.52   88.86
  -3  -2  10 2524.59   74.08
   3   2 -10 2531.53   72.70
   3   2 -10 2563.17   83.91
   3   2 -10 2482.97   74.44
   3   2  -9 2152.83   79.00
  -3  -2   9 2077.32   83.76
  -3  -2   9 2175.07   77.86
   3   2  -9 2178.53   75.53
   3   2  -9 2165.66   70.85
   3   2  -9 2246.85   82.80
   3   2  -9 2232.48   76.19
   3   2  -8  788.21   55.69
  -3  -2   8  786.87   49.21
   3   2  -8  765.00   46.84
   3   2  -8  782.78   50.53
   3   2  -8  780.50   43.91
   3   2  -8  790.39   52.84
   3   2  -8  767.43   45.12
   3   2  -7 4677.90  125.33
  -3  -2   7 4900.64  108.00
   3   2  -7 4604.39  114.64
   3   2  -7 4938.23  118.18
   3   2  -7 4838.11  139.67
   3   2  -7 4761.31  107.26
   3   2  -6 5546.72  141.93
   3   2  -6 5516.68  136.14
  -3  -2   6 5993.23  153.53
   3   2  -5 4758.23  161.22
   3   2  -5 4480.82  144.59
  -3  -2   5 4873.12  166.02
   3   2  -416482.86  287.73
   3   2  -416095.65  180.09
  -3  -2   415588.28  361.57
  -3  -2   416592.23  289.18
   3   2  -3  256.00   35.71
  -3  -2   3  254.84   26.09
   3   2  -3  267.36   26.69
  -3  -2   3  257.63   24.18
  -3  -2   3  260.14   37.02
   3   2  -2  756.75   48.00
  -3  -2   2  736.61   39.38
   3   2  -2  707.15   38.92
  -3  -2   2  698.97   38.81
  -3  -2   2  779.23   50.10
   3   2  -122655.13  475.43
  -3  -2   119926.97  432.19
  -3  -2   122829.71  469.27
  -3  -2   120401.65  443.26
  -3  -2   122671.65  466.66
  -3  -2   120669.73  436.25
  -3  -2   122529.23  476.73
   3   2   0 1388.97   60.22
  -3  -2   0 1276.45   72.29
  -3  -2   0 1458.18   58.56
  -3  -2   0 1289.33   54.94
  -3  -2   0 1359.42   55.24
  -3  -2   0 1356.02   70.69
   3   2   1 1485.11   67.42
  -3  -2  -1 1440.60   67.25
  -3  -2  -1 1504.89   59.77
  -3  -2  -1 1330.17   56.94
  -3  -2  -1 1525.32   56.50
   3   2   1 1508.22   60.12
  -3  -2  -1 1367.12   74.69
  -3  -2  -2   20.49   19.54
  -3  -2  -2    6.63   17.73
  -3  -2  -2   11.32   12.70
  -3  -2  -2   19.15   23.34
   3   2   2    7.25   21.64
  -3  -2  -2    7.41   11.20
  -3  -2  -3 2309.44   79.35
  -3  -2  -3 2343.47   98.25
  -3  -2  -3 2269.00   81.41
  -3  -2  -3 2476.54   72.85
   3   2   3 2541.20   76.32
  -3  -2  -4  878.48   50.24
  -3  -2  -4  944.00   50.80
  -3  -2  -4  978.14   49.81
   3   2   4  958.80   48.60
  -3  -2  -5  885.70   46.32
  -3  -2  -5  929.94   46.52
   3   2   5  871.39   46.07
  -3  -2  -6 2142.97   75.70
   3   2   6 1996.62   82.13
  -3  -2  -6 2184.73   71.21
   3   2   6 2260.37   68.81
  -3  -2  -7 6350.94  149.51
   3   2   7 6670.69  150.29
  -3  -2  -8  501.75   38.58
   3   2   8  520.99   39.16
  -3  -2  -9  452.51   40.05
  -3  -2  -9  484.62   38.29
   3   2   9  456.86   33.76
   3   2   9  471.95   37.62
  -3  -2 -10    9.38   22.91
   3   2  10   14.22   21.49
   3   2  10   -6.19   13.98
   3   2  10   12.49   13.92
   3   2  10   15.88   18.73
   3   2  10    6.53   21.54
  -3  -2 -11 2605.96   86.94
  -3  -2 -11 2838.19   75.54
   3   2  11 2618.13   78.92
   3   2  11 2680.48   80.84
   3   2  11 2613.59   74.59
   3   2  11 2544.52   76.31
   3   2  11 2555.17   69.31
   3   2  11 2579.09   83.28
  -3  -2 -12  347.84   31.84
   3   2  12  396.29   40.49
   3   2  12  341.54   34.25
   3   2  12  337.14   35.37
   3   2  12  353.93   33.38
   3   2  12  321.61   33.93
   3   2  13  524.63   38.55
   3   2  13  481.84   37.33
   3   2  13  488.11   36.43
   3   2  13  481.77   41.79
   3   2  14   26.06   24.12
   3   2  14   63.18   25.28
   3   2  14   84.03   25.99
   3   2  15   14.45   26.11
   3   2  15   35.20   25.90
   3   2  15   49.66   29.25
   3   2  16 8670.14  136.96
  -3  -2 -16 8780.15  130.73
   3   2  16 8846.79  135.32
   3   2  16 8936.08  138.45
   3   2  17 1400.47   57.43
  -3  -2 -17 1362.83   56.39
   3   2  17 1346.58   58.24
   3   2  17 1349.16   57.42
   3   2  17 1375.78   58.83
   3   2  18    2.55   34.26
  -3  -2 -18   68.53   27.02
   3   2  18   86.93   36.17
   3   2  18   50.36   31.62
   3   2  18   57.90   33.07
   3   2  19 1004.90   51.68
  -3  -2 -19  955.28   50.34
   3   2  19 1003.97   56.88
   3   2  19 1024.20   53.05
   3   2  19  925.84   51.68
   3   2  20  710.72   45.99
  -3  -2 -20  714.63   45.18
   3   2  20  611.20   51.04
   3   2  20  676.26   50.23
   3   2  20  649.82   45.27
   3   2  21  224.60   38.82
  -3  -3  18  643.63   52.46
   3   3 -18  621.15   52.35
   3   3 -18  613.09   45.46
  -3  -3  17   -4.18   34.94
   3   3 -17   20.24   28.93
  -3  -3  16 1475.51   59.38
   3   3 -16 1456.34   70.49
  -3  -3  15 1821.73   63.51
   3   3 -15 1727.71   74.41
  -3  -3  15 1651.64   68.97
  -3  -3  14 6254.15  110.53
   3   3 -14 5851.27  116.43
  -3  -3  14 6099.12  112.70
  -3  -3  1311718.03  157.33
   3   3 -1311441.18  177.90
   3   3 -1311184.07  174.64
  -3  -3  1311310.94  163.84
  -3  -3  1220488.07  270.95
   3   3 -1219857.26  298.89
   3   3 -1220199.64  270.57
  -3  -3  1219886.26  271.53
  -3  -3  11 2535.94   73.32
   3   3 -11 2546.30   84.87
   3   3 -11 2591.54   75.73
   3   3 -11 2605.16   85.74
   3   3 -11 2502.38   74.35
  -3  -3  11 2546.09   75.23
   3   3 -10  234.40   40.33
  -3  -3  10  198.56   38.53
   3   3 -10  220.93   37.59
   3   3 -10  221.74   32.78
   3   3 -10  235.48   41.33
   3   3 -10  220.16   33.03
   3   3  -9 2004.51   83.88
  -3  -3   9 1898.99   72.68
   3   3  -9 1948.27   63.89
   3   3  -9 1963.16   74.57
   3   3  -9 1830.62   62.97
   3   3  -9 1911.80   79.05
   3   3  -9 1956.37   69.56
   3   3  -8 2405.38   82.47
  -3  -3   8 2638.18   86.08
   3   3  -8 2419.08   74.25
   3   3  -8 2305.38   87.01
   3   3  -8 2405.73   92.84
   3   3  -8 2467.03   86.25
   3   3  -8 2439.83   76.97
   3   3  -7  -15.00   27.47
  -3  -3   7   13.60   20.48
   3   3  -7   -5.79   29.14
   3   3  -7    5.88   16.53
   3   3  -7   -4.59   28.26
   3   3  -7    5.06   16.06
   3   3  -6  752.06   50.72
  -3  -3   6  778.06   45.00
   3   3  -5 4257.42  146.91
  -3  -3   5 4317.90  147.95
   3   3  -414738.77  339.71
  -3  -3   415206.11  348.37
   3   3  -3 8342.16  181.87
  -3  -3   3 8270.26  175.47
  -3  -3   3 7919.10  176.50
  -3  -3   3 7555.47  170.31
  -3  -3   3 8103.30  178.78
   3   3  -2 5254.69  168.70
  -3  -3   2 4650.80  169.58
  -3  -3   2 5206.18  157.95
  -3  -3   2 4820.30  157.25
  -3  -3   2 4798.61  154.75
  -3  -3   2 5357.78  171.22
   3   3  -110775.04  256.94
  -3  -3   1 9210.62  262.01
  -3  -3   110428.40  144.80
  -3  -3   110210.50  149.32
  -3  -3   1 9754.30  256.22
  -3  -3   110262.11  161.99
   3   3   0 4139.17  136.79
  -3  -3   0 3655.58  121.66
  -3  -3   0 4093.51  130.40
  -3  -3   0 3799.26  105.12
  -3  -3   0 3911.71   96.91
   3   3   0 3897.84   91.95
   3   3   1 4590.03  148.27
  -3  -3  -1 4220.08  149.61
  -3  -3  -1 4657.54  149.26
  -3  -3  -1 4346.49  137.55
  -3  -3  -1 4219.70  156.43
   3   3   1 4456.60  138.32
  -3  -3  -2 7367.75  221.74
  -3  -3  -2 8122.65  230.55
  -3  -3  -2 8210.26  224.22
  -3  -3  -2 7735.30  227.85
  -3  -3  -2 8143.83  220.47
   3   3   2 8154.56  222.48
  -3  -3  -3 1063.37   57.30
  -3  -3  -3 1236.23   61.53
  -3  -3  -3 1152.50   49.53
   3   3   3 1136.86   66.45
   3   3   3 1177.97   58.15
  -3  -3  -4  159.96   30.69
  -3  -3  -4  107.52   29.84
   3   3   4  120.83   26.13
  -3  -3  -5 4121.29  218.51
  -3  -3  -5 4241.48  190.87
  -3  -3  -5 3948.67  138.63
  -3  -3  -5 4533.27  146.09
   3   3   5 4655.65  154.64
  -3  -3  -6   33.37   19.72
  -3  -3  -6   23.69   19.62
  -3  -3  -6   -4.86   26.34
  -3  -3  -6   26.91   28.59
   3   3   6   26.16   17.07
  -3  -3  -7 1034.37   62.65
  -3  -3  -7 1066.10   52.10
  -3  -3  -7 1135.40   53.77
   3   3   7 1047.53   51.01
  -3  -3  -8 3067.88  110.52
  -3  -3  -8 3155.63  112.38
   3   3   8 3003.32  107.93
  -3  -3  -917043.13  241.03
   3   3   915910.08  233.57
   3   3   916480.80  234.68
  -3  -3 -10 2593.83   77.26
  -3  -3 -10 2566.48   71.95
   3   3  10 2438.35   74.07
   3   3  10 2529.28   73.99
   3   3  10 2539.87   71.84
   3   3  10 2472.50   72.18
   3   3  10 2479.73   85.26
  -3  -3 -11  446.64   37.23
  -3  -3 -11  528.18   37.71
   3   3  11  521.60   38.46
   3   3  11  480.18   35.59
   3   3  11  512.06   32.91
   3   3  11  461.71   34.27
  -3  -3 -12 2165.82   66.94
   3   3  12 2208.58   70.83
   3   3  12 2117.72   64.60
   3   3  12 2194.33   69.14
   3   3  12 2119.74   65.63
   3   3  13 6454.31  137.93
   3   3  13 6419.07  136.77
   3   3  13 6459.78  134.36
   3   3  13 6294.57  138.40
   3   3  14  559.60   42.09
   3   3  14  583.55   40.86
   3   3  14  591.68   42.17
   3   3  15   98.52   29.66
   3   3  15  125.88   32.98
   3   3  15  111.98   28.35
   3   3  16 3821.87   92.30
   3   3  16 3851.17   85.33
   3   3  16 3922.79   89.98
   3   3  17 2444.16   72.13
  -3  -3 -17 2427.71   73.45
   3   3  17 2460.63   73.65
   3   3  17 2416.35   76.35
   3   3  18    9.41   23.46
  -3  -3 -18   13.47   29.66
   3   3  18  -10.18   28.59
   3   3  18  -18.43   34.16
   3   3  19  174.79   35.52
  -3  -3 -19  188.62   31.90
   3   3  19  199.85   37.38
   3   3  19  206.03   39.61
   3   3  20  319.69   36.64
  -3  -3 -20  316.11   33.67
   3   3  20  283.81   48.62
   3   3  20  299.71   35.41
  -3  -4  18 2236.32   78.49
   3   4 -18 2076.61   93.09
   3   4 -18 2175.36   74.57
  -3  -4  17 1531.18   60.94
   3   4 -17 1480.19   69.91
   3   4 -17 1485.65   69.05
  -3  -4  16 1916.99   68.37
  -3  -4  15  310.51   31.08
  -3  -4  15  349.71   43.16
  -3  -4  14 2156.28   68.26
   3   4 -14 2012.41   72.30
  -3  -4  14 2170.72   72.88
  -3  -4  13   69.43   27.41
   3   4 -13   22.63   39.39
   3   4 -13  137.31   35.94
  -3  -4  13  115.60   33.74
  -3  -4  12   46.00   26.65
   3   4 -12   21.87   36.45
   3   4 -12    7.56   36.23
   3   4 -12   23.59   36.24
   3   4 -12   44.49   30.89
  -3  -4  12   36.86   31.91
  -3  -4  11 6439.03  133.84
   3   4 -11 6702.27  155.68
   3   4 -11 6536.49  143.78
   3   4 -11 6545.87  156.07
   3   4 -11 6289.48  134.29
   3   4 -10   31.93   24.72
   3   4 -10    9.65   29.13
   3   4 -10  -20.70   28.58
   3   4 -10  -21.10   28.17
   3   4 -10    3.02   29.59
   3   4  -9 8548.45  166.32
  -3  -4   9 8650.62  158.37
   3   4  -9 8225.10  134.99
   3   4  -9 8651.03  146.67
   3   4  -9 8373.05  133.00
   3   4  -9 8582.08  169.09
   3   4  -9 8595.49  145.29
   3   4  -8 2133.87   88.22
  -3  -4   8 2111.61   72.64
   3   4  -8 2110.23   69.52
   3   4  -8 2163.12   81.24
   3   4  -8 2132.18   69.28
   3   4  -8 2140.06   94.55
   3   4  -8 2098.95   83.26
   3   4  -7 1170.58   56.04
   3   4  -7 1122.79   56.91
   3   4  -7 1139.57   57.61
   3   4  -7 1137.77   52.06
   3   4  -7 1171.75   66.96
   3   4  -7 1118.02   52.05
   3   4  -6 1553.21   64.87
   3   4  -6 1429.72   54.92
   3   4  -6 1576.90   72.69
   3   4  -6 1575.20   60.33
   3   4  -5 2105.04   75.51
   3   4  -4  828.44   51.06
   3   4  -3    5.36   18.62
  -3  -4   3   10.82   18.88
   3   4  -2 4525.62  152.56
  -3  -4   2 3780.67  169.28
  -3  -4   2 4421.06  142.40
   3   4  -1  119.34   26.83
  -3  -4   1  108.94   21.99
  -3  -4   1  145.44   25.16
  -3  -4   1  111.49   19.94
  -3  -4   1  125.33   19.51
   3   4   0 1495.71   64.48
  -3  -4   0 1352.27   75.67
  -3  -4   0 1410.57   54.42
  -3  -4   0 1392.83   61.37
  -3  -4   0 1443.75   55.92
   3   4   1 2326.88   80.87
  -3  -4  -1 2191.65   83.95
  -3  -4  -1 2505.52   71.83
  -3  -4  -1 2240.93   73.07
  -3  -4  -1 1993.54   69.79
  -3  -4  -216119.48  347.17
  -3  -4  -217786.65  379.07
   3   4   217838.27  394.47
  -3  -4  -3   55.51   23.77
   3   4   3   36.23   16.89
  -3  -4  -413847.90  311.83
  -3  -4  -414424.50  322.56
  -3  -4  -533698.02  492.20
  -3  -4  -535158.25  497.28
  -3  -4  -6 4727.72  153.16
  -3  -4  -6 5113.52  119.09
  -3  -4  -7  918.01   47.91
  -3  -4  -7  952.44   47.15
  -3  -4  -8 1057.60   51.32
  -3  -4  -8 1036.35   47.73
   3   4   8 1059.63   51.35
   3   4   8  915.60   45.56
   3   4   8 1062.43   53.21
  -3  -4  -920660.04  302.39
   3   4   921012.32  284.30
   3   4   920035.21  267.61
   3   4   920687.89  270.55
   3   4   920873.55  284.89
  -3  -4 -10 3637.02   94.92
   3   4  10 3493.53   91.31
   3   4  10 3670.68   93.66
   3   4  10 3632.89   96.25
   3   4  10 3601.38   95.59
   3   4  10 3747.54   90.53
   3   4  10 3289.42   91.24
   3   4  11  274.64   34.10
   3   4  11  311.80   30.48
  -3  -4 -11  325.94   29.47
   3   4  11  272.26   38.23
   3   4  11  303.39   33.45
   3   4  11  316.50   29.51
   3   4  12 2687.18   78.29
  -3  -4 -12 2704.23   72.53
   3   4  12 2739.59   83.17
   3   4  12 2750.74   79.91
   3   4  12 2623.99   76.74
   3   4  13 5975.59  133.48
  -3  -4 -13 5904.47  128.21
   3   4  13 6313.24  144.96
   3   4  13 6135.80  130.83
   3   4  13 5785.69  107.03
   3   4  14 3534.39   85.63
  -3  -4 -14 3341.86   79.14
   3   4  14 3811.10   94.43
   3   4  14 3663.51   85.75
   3   4  14 3614.20   87.40
   3   4  15   11.71   19.64
   3   4  15   -4.87   29.21
   3   4  15  -18.85   17.54
   3   4  15   19.57   30.95
   3   4  16 5205.41  116.16
   3   4  16 5527.60  132.40
   3   4  16 5256.98  114.64
   3   4  16 5337.38  120.94
   3   4  17 1374.28   59.21
   3   4  17 1375.10   57.19
   3   4  17 1371.68   58.12
   3   4  17 1496.58   59.53
   3   4  18   41.69   29.27
  -3  -4 -18    5.82   26.49
   3   4  18   28.69   31.95
   3   4  18   10.23   32.04
   3   4  18   12.77   32.47
   3   4  19   54.67   31.36
  -3  -4 -19   51.58   31.25
   3   4  19   25.04   36.75
   3   4  19   32.07   31.40
   3   4  19   41.01   30.97
   3   4  20   21.48   30.46
  -3  -4 -20   39.40   32.61
   3   4  20   21.24   35.44
   3   4  20   34.17   28.05
  -3  -5  18 1730.57   70.24
   3   5 -18 1645.34  106.99
   3   5 -18 1756.55   71.57
  -3  -5  17  -21.15   30.56
   3   5 -17  -13.14   30.35
  -3  -5  16 4133.19   93.75
   3   5 -16 3951.66   94.01
  -3  -5  15  548.06   40.85
   3   5 -15  416.06   48.07
  -3  -5  15  455.85   44.82
  -3  -5  14   20.97   30.59
   3   5 -14   42.58   39.44
  -3  -5  14   39.37   31.60
  -3  -5  13   41.60   33.76
   3   5 -13   32.08   36.20
   3   5 -13   59.65   35.74
  -3  -5  13   59.73   24.34
  -3  -5  12 5004.67  114.70
   3   5 -12 5181.34  115.41
   3   5 -12 5105.30  121.21
   3   5 -11 1426.11   57.50
   3   5 -11 1399.64   60.74
   3   5 -11 1364.72   69.37
   3   5 -11 1439.43   58.78
   3   5 -10  557.35   35.69
   3   5 -10  560.42   49.27
   3   5 -10  482.77   46.22
   3   5 -10  499.02   41.38
   3   5  -9 5230.61  143.88
  -3  -5   9 4827.82  124.92
   3   5  -9 5234.14  107.11
   3   5  -9 5443.44  129.40
   3   5  -9 5320.50  134.00
   3   5  -9 5555.36  110.32
   3   5  -8 5946.13  141.13
  -3  -5   8 5607.93  128.49
   3   5  -8 6053.89  118.80
   3   5  -8 5973.67  132.64
   3   5  -8 6037.99  140.00
   3   5  -8 5775.69  123.47
   3   5  -7  156.16   37.31
  -3  -5   7  153.62   34.95
   3   5  -7  146.77   25.58
   3   5  -7  131.50   30.33
   3   5  -7  173.48   37.50
   3   5  -7  176.58   29.11
   3   5  -6  328.67   42.45
  -3  -5   6  353.75   33.68
   3   5  -6  347.50   32.66
   3   5  -6  336.44   33.68
   3   5  -6  330.48   28.43
   3   5  -6  385.34   38.59
   3   5  -6  376.51   33.96
   3   5  -5  153.15   31.96
  -3  -5   5  147.80   31.65
   3   5  -5  140.86   26.01
   3   5  -4  236.77   33.70
  -3  -5   4  288.17   36.32
   3   5  -3 4950.44  165.83
  -3  -5   3 5073.70  114.61
   3   5  -2   64.30   25.54
  -3  -5   2   70.24   21.13
  -3  -5   2   75.69   32.21
   3   5  -1 9523.54  242.84
  -3  -5   1 8327.18  188.35
  -3  -5   1 9218.17  220.55
  -3  -5   1 9625.40  241.03
   3   5   0    9.62   15.57
  -3  -5   0   22.83   15.14
  -3  -5   0   26.38   22.14
  -3  -5   0   10.06   12.24
  -3  -5   0    7.93   12.52
  -3  -5   0    7.10   28.58
   3   5   115815.66  205.22
  -3  -5  -114977.76  329.50
  -3  -5  -115086.58  337.08
   3   5   114609.75  346.41
   3   5   115760.92  196.79
  -3  -5  -2  149.84   22.20
   3   5   2  145.62   22.26
   3   5   2  157.33   30.48
  -3  -5  -319502.11  306.32
  -3  -5  -319477.63  299.53
   3   5   321006.88  338.94
  -3  -5  -4 9219.99  232.42
  -3  -5  -4 8682.75  206.41
   3   5   4 9464.99  231.28
  -3  -5  -5 2157.53   68.43
  -3  -5  -5 2232.46   66.98
   3   5   5 2277.10   72.51
  -3  -5  -6 7108.47  158.56
  -3  -5  -6 7318.63  152.45
   3   5   6 7585.28  163.17
  -3  -5  -7 3587.78  131.17
  -3  -5  -7 3799.68  124.01
   3   5   7 3788.08  128.73
  -3  -5  -8  122.83   25.01
  -3  -5  -8  128.57   21.16
   3   5   8  124.98   28.56
   3   5   8  107.35   23.99
  -3  -5  -8   90.67   21.81
   3   5   8  121.22   26.38
   3   5   8  121.64   24.51
  -3  -5  -9 3138.51   97.87
  -3  -5  -9 3222.87   84.60
   3   5   9 3018.21   83.11
   3   5   9 2970.22   77.07
  -3  -5  -9 2880.09   74.85
   3   5   9 2940.66  105.00
   3   5   9 2997.61   81.84
   3   5   9 2910.60   77.88
   3   5   9 3048.43   83.41
  -3  -5 -10 7909.45  155.22
  -3  -5 -10 8325.83  149.11
   3   5  10 7280.09  184.66
   3   5  10 7665.54  131.93
  -3  -5 -10 7984.57  129.91
   3   5  10 7913.41  148.35
   3   5  10 7395.17  126.60
   3   5  10 7939.41  134.82
   3   5  10 7569.45  136.53
  -3  -5 -11 2345.59   69.46
   3   5  11 2252.60   75.91
   3   5  11 2359.85   72.34
  -3  -5 -11 2402.01   68.40
   3   5  11 2346.05   74.17
   3   5  11 2375.98   68.61
   3   5  11 2359.54   70.51
   3   5  12 1732.68   62.18
  -3  -5 -12 1692.23   58.28
   3   5  12 1744.57   63.84
   3   5  12 1680.38   62.11
   3   5  12 1670.30   63.54
   3   5  13 9458.74  168.83
  -3  -5 -13 9478.04  158.55
   3   5  13 9967.26  172.89
   3   5  13 9091.00  152.08
   3   5  13 9643.14  164.22
   3   5  1416358.89  229.56
  -3  -5 -1417496.08  237.06
   3   5  1416925.18  254.90
   3   5  1416617.45  224.60
   3   5  1416725.68  252.78
  -3  -5 -15 2575.19   69.60
   3   5  15 2793.77   82.84
   3   5  15 2670.45   72.60
   3   5  15 2773.74   76.68
   3   5  16   25.14   35.04
   3   5  16   54.01   32.90
   3   5  16   32.70   33.76
   3   5  17  494.41   39.22
   3   5  17  481.06   40.55
   3   5  17  526.18   40.63
   3   5  18  -31.80   35.46
   3   5  18   -2.24   26.98
   3   5  18    8.74   27.50
  -3  -5 -19  603.07   43.44
   3   5  19  624.08   49.09
   3   5  19  546.24   47.87
   3   5  19  564.94   47.29
  -3  -5 -20 1033.02   60.90
   3   5  20 1086.00   63.34
   3   5  20 1018.01   51.08
  -3  -6  17 1714.49   73.06
   3   6 -17 1536.66   68.72
   3   6 -17 1640.06   66.92
  -3  -6  16 1908.78   65.81
   3   6 -16 1930.06   80.45
   3   6 -16 1961.79   74.37
  -3  -6  1521041.29  211.54
   3   6 -1521312.09  239.64
   3   6 -1520260.84  205.83
  -3  -6  1520919.77  229.01
  -3  -6  14  272.81   30.84
   3   6 -14  247.85   43.36
  -3  -6  14  219.52   37.50
  -3  -6  13   76.86   30.23
   3   6 -13   63.73   28.94
   3   6 -13   59.37   40.56
   3   6 -12  240.48   37.91
   3   6 -12  260.19   39.77
   3   6 -12  257.27   39.93
   3   6 -12  250.76   46.25
   3   6 -11 1492.24   58.95
   3   6 -11 1517.93   62.99
   3   6 -11 1450.78   62.92
   3   6 -11 1564.71   77.57
   3   6 -10  812.08   46.61
   3   6 -10  903.70   54.62
   3   6 -10  793.56   50.73
   3   6 -10  830.26   58.79
   3   6 -10  873.82   49.42
   3   6  -917210.63  301.85
   3   6  -916935.73  317.54
   3   6  -916966.20  301.40
   3   6  -917037.20  333.01
   3   6  -916701.31  311.57
   3   6  -8   80.81   34.78
  -3  -6   8   90.78   27.34
   3   6  -8   66.32   25.78
   3   6  -8  101.76   32.48
   3   6  -8   98.44   22.66
   3   6  -8   82.23   27.45
   3   6  -8   83.70   29.12
   3   6  -7 3558.10  101.59
  -3  -6   7 3479.10  108.83
   3   6  -7 3491.73   97.18
   3   6  -7 3486.49   97.97
   3   6  -7 3511.79   84.05
   3   6  -7 3570.69  105.26
   3   6  -7 3620.39   89.46
   3   6  -6 4123.24  119.46
  -3  -6   6 4165.53   99.44
   3   6  -6 4209.30   97.80
   3   6  -6 3935.75  101.31
   3   6  -6 4046.71   91.35
   3   6  -6 4291.07  126.43
   3   6  -6 4245.44  105.31
   3   6  -5  451.04   40.54
  -3  -6   5  468.33   36.98
   3   6  -5  435.73   37.32
   3   6  -5  447.97   32.78
   3   6  -5  467.84   45.87
   3   6  -5  464.84   35.99
   3   6  -4 2668.02   87.68
  -3  -6   4 3011.67   97.39
   3   6  -4 2663.16   87.93
   3   6  -4 2751.55   81.82
   3   6  -4 2804.06  105.59
   3   6  -3  775.20   47.86
  -3  -6   3  774.00   46.91
   3   6  -220754.02  340.76
  -3  -6   220981.62  351.24
   3   6  -1  359.87   36.50
  -3  -6   1  404.73   33.33
  -3  -6   1  392.86   36.95
   3   6   012676.63  312.52
  -3  -6   012405.47  278.62
  -3  -6   012284.79  280.63
  -3  -6   012860.23  305.74
   3   6   1 5407.75  154.05
  -3  -6  -1 4906.18  154.30
  -3  -6  -1 5236.21  133.21
   3   6   1 5410.54  129.85
  -3  -6  -2 8787.76  208.93
   3   6   2 8932.70  219.60
  -3  -6  -3  500.50   33.27
  -3  -6  -3  500.28   31.42
   3   6   3  527.36   39.86
  -3  -6  -4  241.28   29.99
  -3  -6  -4  223.20   25.26
   3   6   4  247.39   27.32
  -3  -6  -5 6408.13  160.17
  -3  -6  -5 6357.85  135.32
   3   6   5 6343.35  143.27
  -3  -6  -618710.28  256.62
  -3  -6  -619437.96  256.52
   3   6   619810.97  271.73
   3   6   618449.87  254.70
   3   6   617852.48  242.13
  -3  -6  -721848.91  283.11
   3   6   722969.24  301.36
  -3  -6  -722438.44  290.48
   3   6   722635.47  308.87
   3   6   721485.64  308.80
  -3  -6  -8  278.14   30.97
  -3  -6  -8  290.99   28.88
   3   6   8  276.57   32.41
   3   6   8  287.85   29.71
  -3  -6  -8  286.76   26.48
   3   6   8  297.27   30.82
   3   6   8  248.21   27.61
   3   6   8  284.82   30.32
   3   6   8  275.59   28.20
   3   6   8  283.49   30.72
  -3  -6  -9  275.09   31.81
  -3  -6  -9  250.30   28.99
   3   6   9  245.12   27.37
   3   6   9  238.89   26.73
  -3  -6  -9  248.92   30.15
   3   6   9  264.35   29.18
   3   6   9  249.25   27.28
   3   6   9  260.28   31.37
   3   6   9  224.51   29.41
   3   6   9  219.86   29.20
  -3  -6 -10 2888.21   76.72
   3   6  10 2577.59   81.63
  -3  -6 -10 2592.42   69.35
   3   6  10 2695.63   81.27
   3   6  10 2576.62   78.82
   3   6  10 2658.79   72.26
   3   6  10 2760.97   77.45
  -3  -6 -11 1196.30   52.03
   3   6  11 1201.97   58.06
   3   6  11 1099.65   51.26
   3   6  11 1212.89   51.90
   3   6  11 1202.70   52.38
  -3  -6 -12  510.89   36.31
   3   6  12  502.73   38.13
   3   6  12  463.29   39.27
   3   6  12  491.77   37.81
   3   6  12  434.19   34.64
  -3  -6 -13 1520.25   55.60
   3   6  13 1570.13   63.96
   3   6  13 1479.91   59.31
   3   6  13 1378.94   56.67
   3   6  13 1547.45   59.61
  -3  -6 -14 3416.41   87.94
   3   6  14 3532.29   95.43
   3   6  14 3224.63   85.50
   3   6  14 3316.29   83.49
  -3  -6 -15  197.44   33.17
   3   6  15  175.61   36.53
   3   6  15  162.63   33.17
   3   6  15  153.01   31.83
   3   6  16  925.98   55.10
   3   6  16  950.96   50.68
   3   6  16  888.64   46.05
   3   6  17   52.81   32.07
   3   6  17   85.16   26.54
   3   6  17   49.67   34.17
   3   6  18   12.30   33.19
   3   6  18   16.96   32.37
   3   6  18    6.48   30.73
   3   6  19   26.22   30.46
   3   6  19  -19.43   34.03
   3   6  19   -2.59   28.10
  -3  -7  17    4.46   33.80
   3   7 -17   28.43   34.25
   3   7 -17   44.13   35.37
  -3  -7  16  445.52   39.21
   3   7 -16  425.21   49.66
   3   7 -16  405.14   35.92
  -3  -7  15 1769.35   62.88
   3   7 -15 1546.45   71.60
   3   7 -15 1589.33   64.17
  -3  -7  15 1622.42   66.17
  -3  -7  14 5540.48  110.35
   3   7 -14 5048.59  116.64
   3   7 -14 5091.48  100.42
  -3  -7  14 5307.34  116.15
  -3  -7  13 1497.90   55.80
   3   7 -13 1449.82   67.33
   3   7 -12  385.79   41.17
   3   7 -12  394.61   48.71
   3   7 -12  368.18   46.12
   3   7 -12  405.62   49.42
   3   7 -11  481.23   42.04
   3   7 -11  529.12   47.99
   3   7 -11  491.95   47.29
   3   7 -11  482.75   50.50
   3   7 -10 9832.18  177.63
   3   7 -1010194.10  179.79
   3   7 -10 9437.64  158.60
   3   7 -1010129.80  195.78
   3   7  -9 3292.19   78.80
   3   7  -9 3307.31   91.84
   3   7  -9 3391.25   84.60
   3   7  -9 3271.09   98.96
   3   7  -9 3202.68   84.07
   3   7  -8 1912.33   79.99
  -3  -7   8 1989.79   77.92
   3   7  -8 2034.37   66.40
   3   7  -8 2072.60   73.45
   3   7  -8 2063.52   66.74
   3   7  -8 2123.58   78.26
   3   7  -8 2033.77   70.29
   3   7  -7  103.10   42.98
  -3  -7   7  164.30   35.99
   3   7  -7  140.95   23.49
   3   7  -7  112.94   31.76
   3   7  -7  132.63   28.75
   3   7  -7  127.31   37.15
   3   7  -7  152.52   34.63
   3   7  -6    2.42   28.61
  -3  -7   6   23.21   22.18
   3   7  -6    7.40   22.17
   3   7  -6   13.43   25.05
   3   7  -6   -8.93   15.87
   3   7  -6   21.89   31.33
   3   7  -6   -4.70   27.03
   3   7  -5  124.65   35.16
  -3  -7   5   94.93   31.29
   3   7  -5  130.67   23.99
   3   7  -5  121.17   32.67
   3   7  -5  132.74   27.95
   3   7  -5  154.79   36.04
   3   7  -5  116.56   27.14
   3   7  -5  128.24   26.00
   3   7  -4  674.86   42.95
  -3  -7   4  745.57   49.38
   3   7  -4  771.16   40.41
   3   7  -4  751.22   47.54
   3   7  -4  717.20   52.37
   3   7  -4  716.44   42.50
   3   7  -3  509.06   43.77
  -3  -7   3  506.47   38.58
   3   7  -3  535.73   36.38
   3   7  -3  551.44   35.80
   3   7  -3  538.03   47.41
   3   7  -3  539.17   35.39
   3   7  -2  630.22   44.47
  -3  -7   2  688.09   47.43
   3   7  -2  658.58   44.78
   3   7  -2  690.82   50.54
   3   7  -1    8.86   21.72
  -3  -7   1   16.35   25.29
  -3  -7   0  122.16   25.33
  -3  -7   0  110.95   29.12
  -3  -7  -1 1575.98   66.38
  -3  -7  -1 1738.44   71.70
  -3  -7  -2   81.28   23.59
  -3  -7  -2   74.32   16.97
   3   7   2   83.38   21.73
  -3  -7  -3 1089.68   45.97
  -3  -7  -3 1073.83   45.37
   3   7   3 1043.88   49.29
  -3  -7  -421356.97  281.79
  -3  -7  -421849.56  301.85
   3   7   421368.77  295.52
   3   7   420606.64  281.41
   3   7   421133.85  295.02
   3   7   420380.41  274.95
  -3  -7  -5 6787.39  135.20
  -3  -7  -5 6945.32  112.95
   3   7   5 6953.81  135.75
   3   7   5 6705.44  132.42
   3   7   5 6670.89  127.75
   3   7   5 6937.74  141.39
   3   7   5 6774.74  141.05
   3   7   5 6252.31  117.63
  -3  -7  -6  738.46   39.32
  -3  -7  -6  716.65   48.42
   3   7   6  741.21   46.10
  -3  -7  -6  722.29   40.99
   3   7   6  711.66   47.89
   3   7   6  640.23   35.30
   3   7   6  694.40   47.56
   3   7   6  717.40   41.72
   3   7   6  701.73   41.64
  -3  -7  -7 6650.96  154.33
  -3  -7  -7 6908.97  145.22
   3   7   7 7088.48  159.74
  -3  -7  -7 6976.56  141.16
   3   7   7 7163.91  159.07
   3   7   7 6525.94  138.40
   3   7   7 6804.30  157.11
   3   7   7 6757.81  142.99
   3   7   7 7030.44  148.06
  -3  -7  -8 2880.16   90.90
  -3  -7  -8 2839.48   79.79
   3   7   8 2876.19   84.41
  -3  -7  -8 2915.50   74.77
   3   7   8 2868.08   87.36
   3   7   8 2767.20   73.50
   3   7   8 2645.55   83.01
   3   7   8 2902.61   80.57
   3   7   8 2858.14   78.19
   3   7   8 2924.04   76.62
  -3  -7  -9    6.77   23.47
  -3  -7  -9   21.21   23.27
   3   7   9   12.27   25.63
  -3  -7  -9    5.14   18.77
   3   7   9    6.71   27.02
   3   7   9   11.17   22.23
   3   7   9   12.35   22.95
   3   7   9   28.21   22.59
   3   7   9   11.73   21.75
   3   7  10 1478.66   65.91
  -3  -7 -10 1520.58   55.43
   3   7  10 1514.72   62.22
   3   7  10 1509.48   59.27
   3   7  10 1595.89   56.91
   3   7  10 1619.31   56.84
  -3  -7 -1115993.99  252.86
   3   7  1115482.63  263.64
   3   7  1114705.60  247.60
   3   7  1115497.02  254.87
   3   7  1115327.87  254.44
  -3  -7 -12 3295.33   79.18
   3   7  12 3131.88   89.18
   3   7  12 3238.20   82.62
   3   7  12 3336.62   83.38
   3   7  12 3286.84   86.47
   3   7  13 7693.40  148.98
  -3  -7 -13 8437.72  144.87
   3   7  13 8456.20  155.02
   3   7  13 8386.37  155.09
   3   7  13 8400.82  150.01
   3   7  13 8552.92  150.77
   3   7  14 5239.04  103.58
  -3  -7 -14 5414.01   97.51
   3   7  14 5427.40  117.54
   3   7  14 5141.43  110.27
   3   7  14 5470.79  103.85
   3   7  14 5566.28  104.01
   3   7  15 1139.92   52.93
  -3  -7 -15 1116.32   47.47
   3   7  15 1134.66   53.04
   3   7  15 1060.02   52.20
   3   7  15 1157.29   53.93
   3   7  16 1756.65   65.61
  -3  -7 -16 1788.33   69.94
   3   7  16 1634.10   63.61
   3   7  16 1733.37   64.42
   3   7  16 1757.91   60.40
   3   7  17  490.88   45.93
   3   7  17  478.85   45.68
   3   7  17  481.56   38.49
   3   7  17  485.30   43.88
   3   7  18 1688.50   63.19
   3   7  18 1629.86   72.62
   3   7  18 1522.99   79.18
   3   7  18 1606.94   66.29
   3   7  19  827.29   56.56
   3   7  19  850.36   59.28
   3   7  19  783.01   47.78
  -3  -8  17  303.13   36.93
   3   8 -17  298.43   48.42
   3   8 -17  296.94   38.28
  -3  -8  16   98.88   31.71
   3   8 -16   79.18   37.32
   3   8 -16  102.17   33.21
  -3  -8  15  273.12   36.21
   3   8 -15  257.28   42.26
   3   8 -15  274.36   40.31
  -3  -8  15  270.81   44.87
  -3  -8  14 2224.68   70.01
   3   8 -14 2139.77   77.42
   3   8 -14 2118.94   70.88
  -3  -8  13   71.23   26.61
   3   8 -13   59.67   39.59
   3   8 -13   13.49   37.57
   3   8 -12 7362.47  153.45
   3   8 -12 7275.52  156.68
   3   8 -12 7876.44  158.22
   3   8 -12 6893.12  172.50
   3   8 -11 1838.67   66.41
   3   8 -11 1821.86   69.54
   3   8 -11 1859.76   62.67
   3   8 -11 1807.85   82.75
   3   8 -1012117.35  193.29
   3   8 -1011464.50  191.20
   3   8 -1011669.97  186.62
   3   8 -1011889.90  223.89
   3   8  -9   66.49   25.17
   3   8  -9   32.86   37.65
   3   8  -9  100.64   32.31
   3   8  -9   72.25   30.57
   3   8  -8 2324.72   71.30
   3   8  -8 2217.52   73.41
   3   8  -8 2235.55   71.98
   3   8  -8 2301.14   83.29
   3   8  -8 2309.47   75.84
   3   8  -7 6707.92  176.12
  -3  -8   7 6895.21  178.38
   3   8  -7 7302.95  168.56
   3   8  -7 7302.17  173.04
   3   8  -7 7394.51  158.68
   3   8  -7 7550.02  188.63
   3   8  -7 7208.98  163.70
  -3  -8   7 6679.06  158.62
   3   8  -6  159.62   37.55
  -3  -8   6  138.37   37.35
   3   8  -6  172.31   29.24
   3   8  -6  160.46   37.47
   3   8  -6  188.22   29.65
   3   8  -6  135.07   43.44
   3   8  -6  197.59   32.91
  -3  -8   6  167.05   26.78
   3   8  -6  202.39   29.02
   3   8  -5   14.95   23.64
  -3  -8   5  -24.87   26.98
   3   8  -5   40.95   18.51
   3   8  -5   26.34   23.26
   3   8  -5   20.47   35.33
   3   8  -5  -12.91   29.57
  -3  -8   5    8.08   20.07
   3   8  -5   13.79   21.87
   3   8  -4  380.50   40.67
  -3  -8   4  411.47   40.60
   3   8  -4  440.44   35.21
   3   8  -4  442.67   35.72
   3   8  -4  401.31   39.80
   3   8  -4  433.41   32.38
  -3  -8   4  435.56   37.69
   3   8  -4  434.71   34.93
  -3  -8   3 3842.71  104.08
   3   8  -3 3771.41   90.46
   3   8  -3 3809.94   94.14
   3   8  -3 4032.90  131.03
   3   8  -3 3661.23  107.78
  -3  -8   3 3748.36   94.66
   3   8  -3 3749.88   91.14
  -3  -8   2 5800.77  145.76
   3   8  -2 5869.21  133.04
   3   8  -2 5643.18  134.04
   3   8  -2 6043.78  157.85
   3   8  -2 5671.72  134.88
  -3  -8   2 5650.32  130.46
   3   8  -2 5515.00  134.30
  -3  -8   1  309.57   36.96
   3   8  -1  287.31   28.40
   3   8  -1  273.65   35.24
   3   8  -1  270.15   29.37
   3   8  -1  310.27   30.16
   3   8  -1  317.02   30.07
  -3  -8   0  173.38   35.21
   3   8   0  169.34   28.89
   3   8   0  187.59   32.58
   3   8   0  158.01   25.25
   3   8   0  148.90   23.76
   3   8   0  168.09   25.00
  -3  -8  -1   11.91   25.39
   3   8   1   19.81   26.53
   3   8   1  -11.36   24.21
   3   8   1   13.76   14.01
   3   8   1   18.33   18.16
   3   8   1   18.17   20.40
  -3  -8  -2  369.66   31.57
  -3  -8  -2  434.67   41.14
   3   8   2  351.61   35.35
   3   8   2  363.10   33.74
   3   8   2  364.74   33.59
   3   8   2  369.11   30.88
   3   8   2  352.16   30.27
  -3  -8  -3  121.73   26.38
  -3  -8  -3  130.81   20.06
   3   8   3  144.37   28.15
   3   8   3  156.94   29.41
   3   8   3  140.17   31.32
   3   8   3  149.77   21.81
   3   8   3  120.59   20.16
   3   8   3  126.74   26.86
  -3  -8  -4 5598.92  126.60
  -3  -8  -4 5418.29  131.06
   3   8   4 5412.47  130.10
   3   8   4 5490.03  136.89
   3   8   4 5668.02  146.15
   3   8   4 5298.17  113.14
   3   8   4 5516.22  135.40
   3   8   4 5011.13  106.65
  -3  -8  -5 7437.08  153.51
  -3  -8  -5 7114.33  149.52
   3   8   5 7503.00  163.92
  -3  -8  -5 7352.32  154.27
   3   8   5 7322.29  166.28
   3   8   5 7509.45  174.82
   3   8   5 7079.72  152.06
   3   8   5 6920.55  169.24
   3   8   5 7052.20  148.75
  -3  -8  -6  473.58   34.75
  -3  -8  -6  435.95   29.78
   3   8   6  461.33   38.28
   3   8   6  365.05   31.38
  -3  -8  -6  424.20   32.92
   3   8   6  424.71   38.27
   3   8   6  446.13   44.08
   3   8   6  408.99   34.53
   3   8   6  481.76   32.84
  -3  -8  -7  567.86   38.14
  -3  -8  -7  552.41   38.18
   3   8   7  537.86   42.77
   3   8   7  568.81   35.33
  -3  -8  -7  620.45   35.14
   3   8   7  562.53   39.58
   3   8   7  581.92   45.45
   3   8   7  578.06   39.93
   3   8   7  518.23   32.83
   3   8   7  560.72   35.38
  -3  -8  -8  540.64   40.33
  -3  -8  -8  510.58   39.99
   3   8   8  492.61   41.96
   3   8   8  588.16   39.64
  -3  -8  -8  601.04   37.69
   3   8   8  605.46   46.70
   3   8   8  551.34   44.38
   3   8   8  553.56   38.36
   3   8   8  590.67   40.58
   3   8   8  592.87   44.83
   3   8   9  768.90   51.26
   3   8   9  845.46   45.32
  -3  -8  -9  929.10   43.18
   3   8   9  786.30   50.56
   3   8   9  951.81   55.74
   3   8   9  827.52   45.47
   3   8   9  848.16   45.64
   3   8   9  824.78   44.04
   3   8  10  140.26   23.80
  -3  -8 -10  138.97   28.52
   3   8  10  167.64   28.88
   3   8  10  159.64   36.22
   3   8  10  111.74   29.47
   3   8  10  118.85   27.63
   3   8  10  118.94   31.23
   3   8  11 4938.92  103.94
  -3  -8 -11 4787.69  104.57
   3   8  11 4813.69  107.43
   3   8  11 4678.17  101.63
   3   8  11 4755.85  107.25
   3   8  11 4750.25   96.35
   3   8  12 9491.25  164.31
  -3  -8 -12 9284.07  150.40
   3   8  12 8993.05  167.76
   3   8  12 9462.99  163.59
   3   8  12 9554.09  160.07
   3   8  12 9064.40  153.76
   3   8  13 1390.42   57.45
  -3  -8 -13 1339.66   55.15
   3   8  13 1371.95   64.02
   3   8  13 1292.31   57.92
   3   8  13 1342.25   55.64
   3   8  13 1408.56   56.17
   3   8  14 2414.18   71.11
  -3  -8 -14 2421.13   70.42
   3   8  14 2330.07   80.25
   3   8  14 2342.91   74.60
   3   8  14 2389.05   71.19
   3   8  14 2339.98   68.61
   3   8  15 5311.82  106.10
  -3  -8 -15 5420.52  105.15
   3   8  15 5200.67  120.03
   3   8  15 5050.08  106.67
   3   8  15 5210.72  106.97
   3   8  15 5411.42  107.36
   3   8  16  700.39   46.04
  -3  -8 -16  792.25   46.52
   3   8  16  687.12   54.45
   3   8  16  681.98   45.21
   3   8  16  726.71   44.25
   3   8  17   42.83   30.75
  -3  -8 -17    5.27   29.17
   3   8  17   24.78   37.65
   3   8  17   16.81   31.83
   3   8  17  -10.47   28.05
   3   8  18 4372.29  101.88
   3   8  18 4107.03  110.97
   3   8  18 4194.49   96.59
  -3  -9  16  469.72   42.92
   3   9 -16  485.81   48.51
   3   9 -16  396.68   44.14
  -3  -9  15  304.36   36.91
   3   9 -15  290.75   43.68
   3   9 -15  291.92   40.12
  -3  -9  15  296.71   44.54
  -3  -9  14 2155.04   71.43
   3   9 -14 1927.74   80.58
   3   9 -14 2157.83   75.13
  -3  -9  13  107.50   35.45
   3   9 -13  128.59   44.34
   3   9 -13   83.57   37.55
   3   9 -12 1680.45   64.16
   3   9 -12 1598.00   69.73
   3   9 -12 1647.02   66.26
   3   9 -11 2093.59   68.60
   3   9 -11 2352.40   78.26
   3   9 -11 2308.79   77.72
   3   9 -11 2153.80   91.06
   3   9 -10 4430.64   97.40
   3   9 -10 4521.83  110.61
   3   9 -10 4437.58  107.04
   3   9 -10 4464.76  123.77
   3   9  -9   48.22   30.77
   3   9  -9   -2.89   33.10
   3   9  -9   73.39   33.71
   3   9  -9   37.08   39.40
   3   9  -8  513.26   42.93
   3   9  -8  482.00   39.74
   3   9  -8  484.67   45.70
   3   9  -8  511.02   49.82
  -3  -9   8  449.56   37.76
   3   9  -7 2600.96   79.04
   3   9  -7 2981.61   96.40
   3   9  -7 2980.71   83.84
   3   9  -7 2994.08   99.13
   3   9  -7 2751.64   78.84
  -3  -9   7 2914.01   82.10
   3   9  -6 1366.45   66.02
   3   9  -6 1438.29   56.71
   3   9  -6 1454.57   74.20
   3   9  -6 1427.22   59.30
  -3  -9   6 1369.73   59.55
   3   9  -6 1350.91   54.56
  -3  -9   5   28.42   31.33
   3   9  -5   65.21   25.64
   3   9  -5   77.64   36.04
   3   9  -5   11.53   28.53
  -3  -9   5   57.28   18.43
   3   9  -5   51.58   21.40
  -3  -9   4   65.34   28.97
   3   9  -4   86.83   26.06
   3   9  -4   51.49   27.36
   3   9  -4  101.43   26.83
  -3  -9   4   62.71   21.58
   3   9  -4   69.43   24.06
  -3  -9   3  160.31   35.39
   3   9  -3  149.82   29.29
   3   9  -3  196.05   39.78
   3   9  -3  178.30   27.38
  -3  -9   3  140.59   23.58
   3   9  -3  163.92   25.82
  -3  -9   2 4424.52  119.03
   3   9  -2 4485.89  105.67
   3   9  -2 4500.91  117.66
   3   9  -2 4521.94  113.21
  -3  -9   2 4469.71   91.08
   3   9  -2 4572.83  101.05
  -3  -9   1 1108.25   56.28
   3   9  -1 1131.39   52.77
   3   9  -1 1050.76   55.70
   3   9  -1 1111.57   48.78
  -3  -9   1 1141.31   49.53
   3   9  -1 1122.01   49.93
  -3  -9   0 3845.97  107.79
   3   9   0 3623.24   95.71
   3   9   0 3727.31   93.31
   3   9   0 3733.28   85.80
   3   9   0 3657.37  102.08
  -3  -9  -1 4209.05  121.88
   3   9   1 3869.71   94.31
   3   9   1 4128.35  100.46
   3   9   1 4380.52  108.13
   3   9   1 4120.93   95.54
   3   9   1 4210.40   91.70
   3   9   1 4223.76  108.73
  -3  -9  -2  750.50   54.85
   3   9   2  684.94   41.80
   3   9   2  678.22   47.49
   3   9   2  690.65   48.23
   3   9   2  701.95   40.48
   3   9   2  714.41   40.81
   3   9   2  722.42   39.87
  -3  -9  -3 4581.76  117.89
   3   9   3 4490.21  100.00
   3   9   3 4472.09  101.63
   3   9   3 4496.42  112.80
   3   9   3 4516.97  100.34
   3   9   3 4574.46   95.64
   3   9   3 4533.22   99.50
   3   9   4 1583.16   63.09
   3   9   4 1658.69   64.43
  -3  -9  -4 1645.14   58.75
   3   9   4 1644.04   66.37
   3   9   4 1741.99   69.61
   3   9   4 1628.53   57.61
   3   9   4 1671.82   56.60
   3   9   4 1665.22   63.01
   3   9   5 6835.70  139.38
   3   9   5 7273.86  126.16
  -3  -9  -5 7267.03  118.97
   3   9   5 7059.23  128.03
   3   9   5 7433.06  144.06
   3   9   5 7508.18  123.95
   3   9   5 7435.20  126.07
  -3  -9  -6 3571.62  102.99
   3   9   6 3581.75   96.66
   3   9   6 3875.94   93.98
  -3  -9  -6 3848.77   87.59
   3   9   6 3887.44   98.74
   3   9   6 3956.12  105.80
   3   9   6 3921.48   89.36
   3   9   6 3915.32   86.77
  -3  -9  -7 3755.39   99.03
   3   9   7 3976.83   88.03
  -3  -9  -7 3991.30   89.60
   3   9   7 3835.51   94.12
   3   9   7 3831.05  102.75
   3   9   7 3776.41   86.54
   3   9   7 3821.13   85.84
   3   9   7 3960.18   89.59
   3   9   8   10.22   23.56
  -3  -9  -8   -0.44   20.71
   3   9   8    9.94   32.70
   3   9   8   30.14   31.90
   3   9   8    7.07   24.44
   3   9   8   28.36   27.93
   3   9   8   25.47   16.40
   3   9   9   94.92   31.07
  -3  -9  -9  110.08   27.11
   3   9   9   85.44   31.54
   3   9   9  107.57   35.75
   3   9   9  112.96   27.91
   3   9   9  103.28   28.61
   3   9   9  106.56   30.20
   3   9  10 2722.13   73.82
  -3  -9 -10 2801.07   72.53
   3   9  10 2770.46   81.94
   3   9  10 2674.00   91.47
   3   9  10 2642.59   75.67
   3   9  10 2708.47   73.04
   3   9  10 2731.48   75.88
   3   9  1110160.91  157.67
  -3  -9 -1110406.52  153.78
   3   9  1110040.87  164.67
   3   9  1110239.45  177.43
   3   9  11 9933.23  146.18
   3   9  1110351.85  156.89
   3   9  11 9825.66  146.27
   3   9  12 3650.30   88.92
  -3  -9 -12 3678.49   80.55
   3   9  12 3401.93   94.05
   3   9  12 3903.01   90.98
   3   9  12 3723.99   85.95
   3   9  12 3639.69   88.14
   3   9  13 1378.19   57.52
  -3  -9 -13 1342.89   55.51
   3   9  13 1304.21   62.30
   3   9  13 1331.85   57.89
   3   9  13 1454.32   57.01
   3   9  13 1282.15   57.75
   3   9  14 1788.96   65.67
  -3  -9 -14 1782.37   59.84
   3   9  14 1708.95   70.49
   3   9  14 1705.70   63.51
   3   9  14 1661.05   60.38
   3   9  14 1743.88   62.56
   3   9  15  606.18   45.66
  -3  -9 -15  594.94   36.89
   3   9  15  563.74   48.25
   3   9  15  537.61   44.43
   3   9  15  578.62   47.27
   3   9  15  573.84   42.65
   3   9  16  -34.01   31.10
  -3  -9 -16  -11.21   25.72
   3   9  16  -12.45   43.63
   3   9  16  -13.59   28.75
   3   9  16   37.44   30.53
   3   9  17  344.51   42.08
  -3  -9 -17  363.82   35.14
   3   9  17  296.52   41.23
   3   9  17  328.21   35.91
   3   9  18  143.68   33.66
  -3  -9 -18  119.29   29.86
   3   9  18  131.88   32.53
   3  10 -15  184.54   43.97
   3  10 -15  150.40   34.71
   3  10 -14  604.63   53.32
   3  10 -14  583.47   48.76
   3  10 -13  841.65   55.30
   3  10 -13  749.33   54.20
   3  10 -12  151.26   43.70
   3  10 -12   64.00   38.23
   3  10 -11 1540.72   67.98
   3  10 -11 1626.90   65.24
   3  10 -11 1588.07   63.55
   3  10 -10  335.70   45.83
   3  10 -10  406.01   42.98
   3  10 -10  396.42   54.30
   3  10  -9 2683.00   89.47
   3  10  -9 2665.07   79.97
   3  10  -9 2772.78   98.29
  -3 -10   9 2766.54   82.02
   3  10  -8 5771.84  126.27
   3  10  -8 5629.13  120.24
   3  10  -8 5918.07  146.03
  -3 -10   8 5792.57  107.12
   3  10  -7  360.18   44.13
   3  10  -7  335.95   36.28
   3  10  -7  326.20   47.79
  -3 -10   7  343.99   35.04
   3  10  -6 2569.88   71.81
   3  10  -6 2563.74   95.25
   3  10  -6 2398.24   74.19
  -3 -10   6 2496.36   74.22
   3  10  -6 2451.27   70.33
   3  10  -5   44.91   21.00
   3  10  -5   23.42   46.62
   3  10  -5  -11.50   26.11
  -3 -10   5   16.76   23.65
   3  10  -5   -4.34   28.28
   3  10  -4 1015.41   46.03
   3  10  -4 1107.39   48.05
   3  10  -4 1110.14   62.92
   3  10  -4 1064.43   50.24
  -3 -10   4 1112.96   48.09
   3  10  -4 1129.94   53.53
   3  10  -3 4048.88   91.46
   3  10  -3 4086.78   96.88
   3  10  -3 4275.05  113.64
   3  10  -3 4179.08   91.17
  -3 -10   3 4349.19   94.83
   3  10  -3 4146.15   93.56
   3  10  -2 1046.37   49.11
   3  10  -2  988.71   49.01
   3  10  -2 1027.67   55.41
   3  10  -2 1011.63   46.57
  -3 -10   2  984.86   44.61
   3  10  -2 1010.46   47.96
   3  10  -1  120.03   22.01
   3  10  -1   85.12   30.27
   3  10  -1   94.51   32.25
   3  10  -1  117.07   26.67
  -3 -10   1   92.62   20.23
   3  10  -1  104.82   24.99
   3  10   0 1762.40   62.17
   3  10   0 1744.38   67.19
   3  10   0 1742.86   61.37
  -3 -10   0 1717.71   63.90
   3  10   0 1722.04   60.23
   3  10   1 9583.92  196.00
   3  10   1 9548.93  196.99
   3  10   1 9926.30  131.00
   3  10   1 9730.77  137.52
   3  10   2 8947.53  189.69
   3  10   2 8917.39  198.57
   3  10   2 8676.33  183.56
   3  10   2 8862.54  179.80
   3  10   2 8596.84  176.76
   3  10   3 1441.16   62.93
   3  10   3 1418.32   67.10
   3  10   3 1498.51   58.27
   3  10   3 1401.24   53.05
   3  10   3 1469.61   58.43
   3  10   4 3368.03   86.35
  -3 -10  -4 3240.34   84.22
   3  10   4 3286.85   94.15
   3  10   4 3336.86   87.81
   3  10   4 3254.31   90.21
   3  10   5 1673.36   58.59
  -3 -10  -5 1626.85   54.57
   3  10   5 1697.94   70.04
   3  10   5 1629.12   60.10
   3  10   5 1716.29   59.44
   3  10   6  510.05   39.18
  -3 -10  -6  468.80   35.79
   3  10   6  415.79   37.69
   3  10   6  460.92   39.01
   3  10   6  455.92   32.20
   3  10   6  489.12   35.49
   3  10   710934.00  175.25
  -3 -10  -710537.23  169.10
   3  10   710172.05  180.98
   3  10   710671.21  172.75
   3  10   710839.65  169.06
   3  10   710921.77  175.38
   3  10   8  442.70   38.86
  -3 -10  -8  444.37   34.97
   3  10   8  414.95   43.07
   3  10   8  486.83   45.08
   3  10   8  449.02   37.61
   3  10   8  462.37   37.90
   3  10   8  452.98   37.07
   3  10   9 1074.66   52.45
  -3 -10  -9 1008.32   45.43
   3  10   9 1024.37   58.01
   3  10   9 1160.48   63.74
   3  10   9 1061.52   50.06
   3  10   9 1001.28   49.16
   3  10   9 1106.89   54.50
   3  10  10  679.96   46.08
  -3 -10 -10  639.58   37.14
   3  10  10  577.97   47.26
   3  10  10  666.49   49.39
   3  10  10  557.80   44.69
   3  10  10  697.63   42.88
   3  10  10  630.93   42.54
   3  10  11 1983.44   67.07
  -3 -10 -11 1971.09   67.87
   3  10  11 1906.69   74.69
   3  10  11 1850.91   75.45
   3  10  11 1921.59   62.86
   3  10  11 1872.35   71.14
   3  10  11 1951.89   66.25
   3  10  12  400.57   42.66
  -3 -10 -12  423.27   37.27
   3  10  12  455.45   50.14
   3  10  12  431.25   38.87
   3  10  12  376.03   37.61
   3  10  12  416.40   38.39
   3  10  13   79.79   31.30
  -3 -10 -13  105.23   29.08
   3  10  13   66.56   28.29
   3  10  13   99.80   32.77
   3  10  13   91.23   32.03
   3  10  14   18.95   22.21
  -3 -10 -14   47.84   30.03
   3  10  14   45.98   32.40
   3  10  14   11.41   28.14
   3  10  14   30.25   20.74
   3  10  15   -8.04   28.21
  -3 -10 -15   26.84   25.41
   3  10  15    2.35   33.90
   3  10  15    8.30   28.77
   3  10  15  -13.49   28.26
   3  10  16  189.88   34.09
  -3 -10 -16  207.73   31.79
   3  10  16  198.25   35.95
   3  10  16  189.98   35.50
   3  10  17  492.19   43.39
  -3 -10 -17  485.17   39.57
   3  10  17  544.24   44.00
   3  11 -14  944.85   67.13
   3  11 -14  932.86   50.77
  -3 -11  14  875.95   79.21
   3  11 -13    8.23   40.08
   3  11 -13  -14.75   38.02
   3  11 -12   49.20   39.23
   3  11 -12   -4.39   25.80
   3  11 -11 2728.47   91.92
   3  11 -11 2711.93   87.89
   3  11 -10 4708.60  142.84
   3  11 -10 4838.01  132.14
   3  11 -10 4636.80  152.70
   3  11 -10 4485.84  129.36
  -3 -11  10 4562.25  128.31
   3  11  -911430.87  222.66
   3  11  -910975.98  198.80
   3  11  -911282.88  235.52
  -3 -11   911216.21  201.55
   3  11  -8 5704.22  114.75
   3  11  -8 5412.49  109.32
   3  11  -8 6043.72  156.76
  -3 -11   8 5849.05  108.76
   3  11  -7 3023.28   80.52
   3  11  -7 2923.31   88.90
   3  11  -7 3150.49  106.14
  -3 -11   7 3055.67   76.98
   3  11  -6 3432.07   82.05
   3  11  -6 3237.72   86.91
   3  11  -6 3384.82  103.04
  -3 -11   6 3348.67   83.30
   3  11  -6 3346.54   84.58
   3  11  -5 9600.23  165.16
   3  11  -5 9643.32  167.58
   3  11  -5 9815.04  193.66
   3  11  -5 9153.23  165.82
  -3 -11   5 9504.84  168.27
   3  11  -5 9102.17  185.69
   3  11  -4  497.71   43.14
   3  11  -4  545.52   45.37
   3  11  -4  574.06   43.04
  -3 -11   4  547.73   39.48
   3  11  -4  484.01   39.31
   3  11  -3   60.96   35.27
   3  11  -3   92.62   47.18
   3  11  -3   54.17   21.83
  -3 -11   3   51.89   29.44
   3  11  -3   71.86   19.22
   3  11  -215954.20  222.42
   3  11  -216277.79  256.21
   3  11  -215268.46  220.85
  -3 -11   216433.96  225.53
   3  11  -216065.55  236.35
   3  11  -1  984.52   48.53
   3  11  -1 1077.39   62.08
   3  11  -1 1000.39   56.36
  -3 -11   1  994.84   43.16
   3  11  -1 1012.22   47.48
   3  11   0  270.82   29.37
   3  11   0  285.64   42.85
   3  11   0  295.29   34.37
  -3 -11   0  255.90   30.06
   3  11   0  263.27   27.31
   3  11   1 1162.59   53.96
   3  11   1 1178.34   53.38
  -3 -11  -1 1236.93   47.95
   3  11   1 1155.70   51.87
   3  11   225929.04  375.70
   3  11   224452.88  381.03
   3  11   225393.79  377.78
   3  11   226120.19  372.73
   3  11   225577.31  374.06
   3  11   3 3217.77   85.07
   3  11   3 2972.41   86.94
   3  11   3 2911.19   75.90
   3  11   3 3037.03   78.97
   3  11   3 3091.63   82.79
   3  11   4  -18.02   27.40
  -3 -11  -4   -2.42   26.81
   3  11   4   15.31   26.31
   3  11   4   28.78   26.50
   3  11   4   -8.54   21.96
   3  11   5 1020.67   49.93
  -3 -11  -5 1059.92   49.73
   3  11   5 1048.95   59.63
   3  11   5 1055.77   51.19
   3  11   5 1087.72   49.47
   3  11   6  519.71   39.48
  -3 -11  -6  542.26   39.93
   3  11   6  616.38   45.73
   3  11   6  578.38   39.07
   3  11   6  530.40   39.49
   3  11   6  526.27   40.85
   3  11   7 2306.84   66.89
  -3 -11  -7 2265.36   74.61
   3  11   7 2265.63   82.88
   3  11   7 2250.17   68.57
   3  11   7 2250.97   63.90
   3  11   7 2366.53   68.75
   3  11   8 5851.05  112.36
  -3 -11  -8 5808.82  114.00
   3  11   8 5437.57  125.12
   3  11   8 5523.94  111.40
   3  11   8 5678.34  102.28
   3  11   8 5560.13  108.51
   3  11   9 5410.10  106.32
  -3 -11  -9 5342.88   98.92
   3  11   9 5748.29  123.85
   3  11   9 5348.35  107.78
   3  11   9 5344.16  104.72
   3  11   9 5350.84  108.02
   3  11  10  267.36   35.22
  -3 -11 -10  247.41   34.05
   3  11  10  228.34   41.71
   3  11  10  231.10   35.78
   3  11  10  262.59   34.78
   3  11  10  223.93   31.95
   3  11  11  175.64   38.57
  -3 -11 -11  146.99   26.05
   3  11  11  147.29   37.12
   3  11  11  143.03   33.59
   3  11  11  194.92   33.05
   3  11  11  133.11   31.07
   3  11  12   23.82   29.47
  -3 -11 -12   32.26   32.10
   3  11  12   66.40   41.92
   3  11  12   33.16   27.63
   3  11  12   28.18   27.74
   3  11  12   37.92   30.26
   3  11  13  603.41   43.87
  -3 -11 -13  588.62   41.15
   3  11  13  562.48   43.07
   3  11  13  550.00   41.05
   3  11  13  638.05   46.73
   3  11  14  232.03   37.35
  -3 -11 -14  284.87   39.99
   3  11  14  266.70   39.00
   3  11  14  255.18   36.71
   3  11  14  293.92   35.54
   3  11  15  294.05   37.71
  -3 -11 -15  313.12   36.77
   3  11  15  294.29   41.36
   3  11  15  299.78   39.25
   3  11  15  310.02   37.90
   3  11  16 1368.94   62.00
  -3 -11 -16 1323.01   74.12
   3  11  16 1403.04   56.74
  -3 -12  13  174.05   37.39
   3  12 -13  139.76   40.10
   3  12 -12 3696.02  115.14
   3  12 -11   47.58   32.42
   3  12 -11    9.28   26.17
   3  12 -10  218.14   36.47
   3  12 -10  221.97   40.41
  -3 -12  10  227.58   40.02
   3  12  -9   51.78   33.85
  -3 -12   9   43.43   34.51
   3  12  -9   25.95   48.33
   3  12  -9  107.95   39.07
  -3 -12   9   57.61   30.88
   3  12  -8   90.42   26.32
   3  12  -8  130.05   46.44
  -3 -12   8   97.75   29.74
   3  12  -711209.07  209.34
   3  12  -711193.30  235.15
  -3 -12   710962.00  190.68
   3  12  -6  303.62   40.09
   3  12  -6  273.74   55.33
  -3 -12   6  285.33   36.42
   3  12  -5  224.71   37.03
   3  12  -5  207.83   47.18
  -3 -12   5  214.01   30.94
   3  12  -5  187.23   34.05
   3  12  -4 2980.23   82.78
   3  12  -4 3014.13   97.96
   3  12  -4 2812.46   84.38
  -3 -12   4 3030.99   79.11
   3  12  -4 2890.60   83.39
   3  12  -3   -2.40   25.62
   3  12  -3   39.26   46.02
   3  12  -3   52.43   22.46
  -3 -12   3    3.31   26.83
   3  12  -3   14.51   28.93
   3  12  -2  570.37   41.76
   3  12  -2  539.42   54.33
   3  12  -2  546.52   42.47
  -3 -12   2  525.10   39.20
   3  12  -2  499.09   39.12
   3  12  -1   56.10   29.49
   3  12  -1   53.98   42.66
   3  12  -1   35.61   32.27
  -3 -12   1   48.64   26.42
   3  12  -1   37.61   22.57
   3  12   0  316.68   34.20
   3  12   0  377.68   45.42
   3  12   0  332.41   35.34
  -3 -12   0  384.83   36.76
   3  12   0  376.33   35.38
   3  12   1 2224.45   72.61
   3  12   1 2256.59   69.75
  -3 -12  -1 2357.53   65.43
   3  12   1 2135.44   72.09
   3  12   213434.11  209.28
   3  12   213150.50  199.27
   3  12   213306.40  201.99
   3  12   3 6622.87  130.96
   3  12   3 6245.72  127.11
   3  12   3 6607.77  131.00
   3  12   3 6659.87  125.76
   3  12   4  127.81   31.73
  -3 -12  -4  129.38   30.36
   3  12   4   96.75   35.26
   3  12   4  149.90   25.51
   3  12   4  160.41   31.48
   3  12   5  167.31   34.81
  -3 -12  -5  152.78   29.26
   3  12   5  198.09   44.31
   3  12   5  141.46   32.50
   3  12   5  147.64   29.58
   3  12   5  206.97   32.05
   3  12   6  637.14   42.00
  -3 -12  -6  570.92   38.96
   3  12   6  669.25   56.88
   3  12   6  596.28   43.47
   3  12   6  666.75   41.60
   3  12   6  601.23   41.71
   3  12   7 2639.06   78.61
  -3 -12  -7 2613.22   77.27
   3  12   7 2557.82   88.28
   3  12   7 2588.20   77.67
   3  12   7 2629.00   72.34
   3  12   7 2858.84   73.39
   3  12   8 4190.66  100.58
  -3 -12  -8 4290.33   96.00
   3  12   8 4249.65  113.73
   3  12   8 4196.82  100.59
   3  12   8 4323.15   99.33
   3  12   8 4397.06   94.96
   3  12   911236.62  235.14
  -3 -12  -911178.33  229.48
   3  12   911363.02  251.18
   3  12   911114.21  233.36
   3  12   911347.27  231.54
   3  12   911651.19  236.02
   3  12  10   25.39   31.10
  -3 -12 -10   26.90   27.58
   3  12  10   50.36   40.74
   3  12  10   -1.38   22.53
   3  12  10    9.41   26.08
   3  12  10   42.86   29.00
   3  12  11   77.20   33.68
  -3 -12 -11   98.86   33.32
   3  12  11   72.50   39.98
   3  12  11   66.79   31.60
   3  12  11  104.38   23.77
   3  12  11   60.60   27.15
   3  12  12  197.67   36.04
  -3 -12 -12  188.32   33.79
   3  12  12  241.29   50.31
   3  12  12  228.93   32.58
   3  12  12  201.91   34.14
   3  12  12  210.75   33.87
   3  12  13  227.82   35.43
  -3 -12 -13  257.01   34.20
   3  12  13  270.15   40.25
   3  12  13  212.82   35.92
   3  12  13  272.02   34.31
   3  12  14   19.76   29.11
  -3 -12 -14   31.44   30.75
   3  12  14   18.23   39.13
   3  12  14   12.01   32.42
   3  12  14   -5.26   26.08
   3  12  15  391.10   45.20
  -3 -12 -15  411.51   38.25
   3  12  15  407.46   41.20
  -3 -13  12 9149.17  158.90
   3  13 -12 8790.75  168.04
   3  13 -11   39.79   35.80
   3  13 -11   30.63   37.24
   3  13 -10  125.43   33.90
   3  13 -10  117.36   36.70
   3  13  -9 2372.89   69.90
  -3 -13   9 2405.87   78.96
   3  13  -9 2385.34   80.36
  -3 -13   9 2472.99   77.91
   3  13  -8  132.73   29.16
   3  13  -8  118.85   56.05
   3  13  -8  169.31   41.51
  -3 -13   8  111.34   34.39
   3  13  -7 1158.81   55.58
   3  13  -7 1141.31   77.06
  -3 -13   7 1134.35   54.00
   3  13  -6    0.31   37.72
   3  13  -6    9.39   48.03
  -3 -13   6   21.74   29.76
   3  13  -5  825.42   50.29
   3  13  -5  780.66   54.40
   3  13  -5  733.32   44.90
   3  13  -4  679.39   45.12
   3  13  -4  708.20   59.13
  -3 -13   4  702.77   39.05
   3  13  -4  677.39   40.91
   3  13  -3 6719.64  142.43
   3  13  -3 6755.98  159.88
   3  13  -3 6006.83  132.11
  -3 -13   3 6734.88  137.11
   3  13  -3 6538.12  152.26
   3  13  -2 1256.22   56.26
   3  13  -2 1267.14   65.64
   3  13  -2 1158.62   56.51
  -3 -13   2 1205.21   52.13
   3  13  -2 1169.48   56.90
   3  13  -1 2973.66   83.80
   3  13  -1 3045.59   98.48
   3  13  -1 2840.26   81.55
  -3 -13   1 3061.50   77.66
   3  13  -1 2879.71   83.84
   3  13   0  905.04   47.07
   3  13   0  939.11   56.63
   3  13   0  951.08   49.97
  -3 -13   0  920.25   47.31
   3  13   0  932.12   49.67
   3  13   1 6895.48  124.75
   3  13   1 7070.44  150.86
   3  13   1 7042.77  119.26
  -3 -13  -1 6855.95  108.14
   3  13   1 6857.00  117.38
   3  13   2 7341.32  120.84
   3  13   2 7165.15  128.50
   3  13   2 7205.81  121.78
   3  13   3   82.81   24.79
   3  13   3   48.97   29.73
   3  13   3   71.13   29.14
   3  13   4 2221.12   67.98
   3  13   4 2268.41   84.78
   3  13   4 2246.51   78.51
  -3 -13  -4 2201.24   67.31
   3  13   4 2268.78   70.30
   3  13   5  251.32   39.73
  -3 -13  -5  241.48   35.18
   3  13   5  243.84   47.50
   3  13   5  225.88   34.09
  -3 -13  -5  245.94   33.63
   3  13   5  236.79   37.43
  -3 -13  -6 2210.55   68.27
   3  13   6 2126.86   82.64
   3  13   6 2139.77   71.54
  -3 -13  -6 2274.62   65.39
   3  13   6 2163.42   65.63
   3  13   7 2302.05   69.57
  -3 -13  -7 2395.56   70.25
   3  13   7 2380.41   89.82
   3  13   7 2236.45   70.46
   3  13   7 2451.07   73.31
   3  13   8   60.17   33.21
  -3 -13  -8   43.51   30.39
   3  13   8   59.67   43.66
   3  13   8   26.12   30.08
   3  13   8   16.26   29.14
   3  13   8   17.45   28.33
   3  13   9 6692.27  126.79
  -3 -13  -9 6752.70  129.78
   3  13   9 7233.00  148.45
   3  13   9 6626.80  117.30
   3  13   9 6722.94  118.17
   3  13   9 6674.42  118.69
   3  13  10 3017.21   89.22
  -3 -13 -10 2940.14   84.98
   3  13  10 3126.38  100.47
   3  13  10 3095.88   82.74
   3  13  10 3208.40   84.29
   3  13  10 2944.12   77.95
   3  13  11  -29.32   30.82
  -3 -13 -11   -8.33   30.82
   3  13  11   27.83   44.59
   3  13  11    5.03   31.07
   3  13  11   21.52   26.07
   3  13  12   66.54   33.88
  -3 -13 -12   20.57   28.38
   3  13  12   33.33   53.34
   3  13  12   -3.71   32.57
  -3 -13 -12   -0.46   27.83
   3  13  12   21.46   30.03
   3  13  13  138.25   37.26
  -3 -13 -13  129.43   36.78
   3  13  13  139.86   41.19
  -3 -13 -13  118.56   36.42
   3  13  13  114.55   34.23
   3  14 -10  210.03   38.13
   3  14 -10  209.15   40.82
   3  14  -9 1241.77   64.79
  -3 -14   9 1286.67   59.99
   3  14  -9 1213.41   63.83
  -3 -14   9 1326.10   60.42
   3  14  -8 4012.34   99.44
  -3 -14   8 4292.20  106.98
   3  14  -8 4091.08  102.48
  -3 -14   8 4255.96  105.42
   3  14  -7  532.15   45.13
   3  14  -7  512.98   62.68
   3  14  -7  557.61   46.71
  -3 -14   7  487.29   41.77
   3  14  -6 1495.15   59.29
   3  14  -6 1582.85   81.25
  -3 -14   6 1556.10   63.22
   3  14  -5 3270.65   91.41
   3  14  -5 3313.95  111.21
  -3 -14   5 3297.13   83.58
   3  14  -4   21.57   35.77
   3  14  -4   -1.44   52.43
  -3 -14   4   31.10   27.26
   3  14  -4    3.32   29.63
   3  14  -3 1846.77   64.75
   3  14  -3 1898.24   93.15
  -3 -14   3 1962.48   59.84
   3  14  -3 1839.10   59.92
   3  14  -2   24.91   31.03
   3  14  -2  -14.37   43.83
   3  14  -2   42.47   24.06
  -3 -14   2   14.86   26.63
   3  14  -2    1.42   25.40
   3  14  -1 1931.09   68.64
   3  14  -1 2059.25   84.47
   3  14  -1 1894.41   67.70
  -3 -14   1 2040.73   65.55
   3  14  -1 1807.47   61.43
   3  14   0 1599.68   60.35
   3  14   0 1644.31   77.53
   3  14   0 1513.13   57.60
  -3 -14   0 1623.87   58.41
   3  14   0 1518.68   56.91
   3  14   1 1090.11   49.37
   3  14   1 1140.51   61.51
   3  14   1 1086.88   53.99
   3  14   1 1075.07   50.78
   3  14   2 3753.32  106.04
   3  14   2 3638.17  123.64
   3  14   2 3688.82  101.74
   3  14   3 1627.70   65.97
   3  14   3 1685.56   63.86
  -3 -14  -3 1560.85   59.54
   3  14   3 1603.52   59.91
   3  14   4  334.31   38.61
   3  14   4  392.19   47.43
   3  14   4  390.01   38.70
  -3 -14  -4  324.19   37.57
   3  14   4  402.67   38.89
   3  14   5  -35.08   27.97
   3  14   5    2.95   46.49
   3  14   5   -3.75   30.63
  -3 -14  -5  -14.41   26.02
   3  14   5    3.50   26.30
   3  14   6  931.01   51.18
  -3 -14  -6  981.35   51.64
   3  14   6  994.81   63.55
   3  14   6  966.11   52.22
  -3 -14  -6  966.88   46.32
   3  14   6  991.58   50.06
   3  14   7 2706.60   82.76
  -3 -14  -7 2720.29   77.67
   3  14   7 2802.66  103.14
   3  14   7 2805.24   84.89
  -3 -14  -7 2759.60   73.69
   3  14   7 2821.37   84.57
   3  14   8 2271.37   78.29
  -3 -14  -8 2181.20   72.18
   3  14   8 2382.25   94.50
   3  14   8 2209.34   78.08
  -3 -14  -8 2163.58   89.47
   3  14   8 2335.73   70.91
   3  14   9   43.35   35.42
  -3 -14  -9   43.47   31.68
   3  14   9   68.28   41.99
   3  14   9   41.12   34.89
  -3 -14  -9   46.50   28.09
   3  14   9   33.18   29.54
   3  14  10 4627.90  104.15
  -3 -14 -10 4537.03  111.16
   3  14  10 4923.49  134.99
   3  14  10 4819.84  110.17
  -3 -14 -10 4860.16  120.78
   3  14  10 4728.95  106.50
   3  14  11 1165.95   57.34
  -3 -14 -11 1124.38   65.86
   3  14  11 1222.70   73.35
   3  14  11 1209.67   63.12
  -3 -14 -11 1110.95   67.63
   3  14  11 1177.60   55.44
   3  14  12  206.69   41.98
  -3 -14 -12  167.98   39.35
   3  14  12  223.23   40.30
   3  14  12  214.52   34.07
   3  15  -8 3207.68  100.70
  -3 -15   8 3227.49  103.99
   3  15  -8 3195.32   99.43
  -3 -15   8 3224.22   96.29
   3  15  -7  649.09   44.27
  -3 -15   7  658.55   55.66
   3  15  -7  702.11   49.68
  -3 -15   7  705.85   50.79
   3  15  -6  585.84   46.31
  -3 -15   6  590.07   48.15
   3  15  -6  570.76   64.49
   3  15  -6  641.73   50.71
  -3 -15   6  592.57   45.12
   3  15  -5  172.53   34.44
   3  15  -5  154.89   56.76
  -3 -15   5  146.73   33.66
   3  15  -4  817.00   48.08
   3  15  -4  790.52   61.57
  -3 -15   4  821.37   46.00
   3  15  -3   16.40   34.01
   3  15  -3    5.14   45.98
  -3 -15   3    5.63   26.96
   3  15  -3   40.53   30.61
   3  15  -2 1804.20   66.77
   3  15  -2 1901.21   82.53
  -3 -15   2 1852.66   65.21
   3  15  -2 1892.02   71.96
   3  15  -1 2602.11   76.26
   3  15  -1 2764.44   96.13
   3  15  -1 2527.29   74.90
  -3 -15   1 2734.49   72.32
   3  15  -1 2578.12   80.42
   3  15   0   18.40   29.19
   3  15   0   25.64   42.82
   3  15   0   56.90   33.66
  -3 -15   0   14.19   27.76
   3  15   0   60.15   31.24
   3  15   1  694.16   47.33
   3  15   1  771.62   62.11
   3  15   1  688.93   49.23
   3  15   1  631.99   42.55
   3  15   2  101.38   33.56
   3  15   2   71.43   46.58
   3  15   2  142.17   57.23
   3  15   2   77.62   27.43
   3  15   3   51.19   30.35
   3  15   3   75.66   34.10
  -3 -15  -3   70.13   22.65
   3  15   3   64.96   31.40
   3  15   4  -35.72   28.89
   3  15   4  -10.58   31.79
  -3 -15  -4  -12.48   27.87
   3  15   4   -0.91   27.89
   3  15   5   74.31   33.41
   3  15   5   31.07   46.29
   3  15   5   26.64   22.61
  -3 -15  -5   26.51   27.34
   3  15   5    3.25   30.39
   3  15   6   31.27   34.95
   3  15   6   26.95   39.61
   3  15   6   17.25   35.17
  -3 -15  -6    9.83   25.63
   3  15   6   19.78   21.51
   3  15   7 2267.63   76.37
   3  15   7 2388.85   88.58
   3  15   7 2229.33   71.51
  -3 -15  -7 2261.35   69.52
   3  15   7 2275.47   72.86
   3  15   8 1236.70   61.23
   3  15   8 1298.65   76.43
   3  15   8 1235.62   64.92
  -3 -15  -8 1211.75   53.48
   3  15   8 1290.79   58.27
   3  15   9  412.91   46.60
   3  15   9  383.12   54.68
   3  15   9  427.17   42.41
  -3 -15  -9  381.25   46.26
   3  15   9  408.74   41.17
   3  16  -5  128.68   36.99
  -3 -16   5  150.86   34.33
   3  16  -5  112.53   42.67
  -3 -16   5  137.65   40.47
   3  16  -4 1734.30   73.08
  -3 -16   4 1798.43   71.09
   3  16  -4 1723.23   97.78
   3  16  -4 1626.04   72.53
  -3 -16   4 1742.90   63.47
   3  16  -3  457.96   45.15
   3  16  -3  454.23   61.32
  -3 -16   3  441.14   40.64
   3  16  -2   18.26   32.24
   3  16  -2   16.71   47.82
  -3 -16   2   29.70   31.27
   3  16  -2   31.97   30.93
   3  16  -1 1330.18   67.05
   3  16  -1 1426.60   76.89
  -3 -16   1 1365.11   55.50
   3  16  -1 1285.83   56.67
   3  16   0 1742.28   68.99
   3  16   0 1807.82   83.29
   3  16   0 1617.01   68.25
   3  16   0 1762.75   69.05
   3  16   1  178.94   51.18
   3  16   1  169.80   42.20
   3  16   1  184.90   32.70
   3  16   2  176.76   46.33
  -3 -16  -2  124.18   25.24
   3  16   2  184.77   36.01
   3  16   3 1514.43   70.91
   3  16   3 1594.63   82.38
   3  16   3 1563.87  131.75
  -3 -16  -3 1519.29   57.38
   3  16   3 1603.81  137.10
   3  16   4 1024.45   61.54
   3  16   4  996.70   55.02
  -3 -16  -4 1070.71   51.30
   3  16   4 1053.03  150.70
   3  16   5   74.38   41.45
   3  16   5  103.49   35.49
   3  16   5  120.27   31.38
  -3 -16  -5   88.58   27.69
   3  16   5   95.68   29.70
   3  16   6  169.52   50.02
   3  16   6  129.11   39.19
  -3 -16  -6  167.25   32.98
   3  16   6  155.04   31.78
   4 -13   2  772.18   50.16
   4 -12  -4  252.98   47.10
   4 -12  -3  981.84   52.78
   4 -12  -2   -2.05   31.56
   4 -12  -1  335.41   41.11
   4 -12   0 1804.17   68.40
   4 -12   1  793.28   54.29
   4 -12   1  780.13   47.27
   4 -12   2  493.20   52.98
   4 -12   2  485.65   44.68
   4 -12   3  832.10   48.03
   4 -12   3  830.80   51.53
   4 -12   4 2410.81   78.39
   4 -12   5   42.03   34.72
   4 -12   5  -16.14   32.68
   4 -12   6  301.11   39.24
   4 -12   7  133.19   36.16
   4 -12   8   -8.95   33.70
   4 -12   9  202.45   40.89
   4 -12   9  219.99   39.14
   4 -11  -7 1944.47   89.25
  -4  11   7 1929.19   76.95
   4 -11  -6   11.46   37.86
  -4  11   6   22.34   41.80
   4 -11  -5   47.04   32.07
  -4  11   5   98.74   41.98
   4 -11  -4  -13.46   31.10
  -4  11   4   -1.35   43.05
   4 -11  -3  200.04   35.48
  -4  11   3  150.89   43.24
   4 -11  -2  156.41   37.58
   4 -11  -1  752.54   45.68
   4 -11   0 2164.27   72.40
   4 -11   1 4266.19   97.43
   4 -11   2  664.36   60.73
   4 -11   3  347.78   39.56
   4 -11   3  335.80   34.18
   4 -11   4 1819.73   65.12
   4 -11   4 1723.68   67.44
   4 -11   4 1735.63   61.66
   4 -11   5  257.99   37.65
   4 -11   5  253.25   41.25
   4 -11   5  237.07   40.53
   4 -11   6  954.76   52.43
   4 -11   6 1003.08   55.06
   4 -11   7  476.91   46.49
   4 -11   7  421.78   44.65
   4 -11   8 1131.03   60.81
   4 -11   8 1087.81   57.74
   4 -11   9 1689.11   66.35
   4 -11   9 1586.31   64.35
   4 -11  10  720.19   49.63
   4 -11  10  804.10   49.83
   4 -11  10  762.14   49.10
   4 -11  11 1091.13   56.69
   4 -11  11 1109.60   55.50
   4 -11  11 1108.91   57.93
  -4  10   9  689.25   53.28
  -4  10   8  787.66   58.08
   4 -10  -7 2503.25  101.42
   4 -10  -7 2586.44   86.89
  -4  10   7 2652.09   85.56
   4 -10  -6 2476.11   86.52
   4 -10  -6 2554.16   89.97
  -4  10   6 2449.54   88.62
   4 -10  -5  113.07   35.44
   4 -10  -5   99.16   34.10
  -4  10   5  129.52   45.02
   4 -10  -4   39.21   26.40
   4 -10  -4    5.49   25.05
  -4  10   4   56.09   33.54
   4 -10  -3  765.53   44.81
   4 -10  -3  793.64   48.18
  -4  10   3  753.21   54.01
   4 -10  -2  122.52   33.86
   4 -10  -2  199.43   37.19
  -4  10   2  149.16   40.27
   4 -10  -1  381.24   38.92
   4 -10  -1  447.73   39.89
   4 -10   0    6.50   28.42
   4 -10   0   17.49   29.68
   4 -10   1 3382.99   98.68
   4 -10   2  322.11   37.21
   4 -10   3   10.44   31.36
   4 -10   3   52.41   33.07
   4 -10   4 2272.17   66.50
   4 -10   4 2177.81   67.64
   4 -10   4 2137.39   65.39
   4 -10   5  555.61   43.47
   4 -10   5  467.98   44.72
   4 -10   5  456.36   37.81
   4 -10   6   29.55   25.30
   4 -10   6  105.51   34.60
   4 -10   6   74.11   31.68
   4 -10   6   39.44   35.21
   4 -10   7  609.09   44.99
   4 -10   7  626.82   47.88
   4 -10   7  607.92   43.86
   4 -10   7  638.79   45.22
   4 -10   8 3898.48   96.78
   4 -10   8 3883.47   93.40
   4 -10   9 3944.37   90.01
   4 -10   9 3665.28   97.95
   4 -10  10  732.20   50.06
   4 -10  10  696.96   45.05
   4 -10  11  260.29   41.06
   4 -10  11  312.06   38.62
   4 -10  12 3438.15  103.66
   4 -10  12 3427.66   90.36
   4 -10  13  398.06   41.71
   4 -10  13  341.06   42.39
   4 -10  13  377.18   40.46
  -4   9  11   94.84   36.48
  -4   9  10 3102.89   91.77
   4  -9  -9 1338.53   69.55
  -4   9   9 1571.36   70.04
   4  -9  -8  115.70   33.93
   4  -9  -8  140.39   35.60
  -4   9   8   80.20   36.17
   4  -9  -7 1621.57   68.29
   4  -9  -7 1620.50   68.33
  -4   9   7 1646.18   68.79
   4  -9  -6 1841.44   73.57
   4  -9  -6 1738.17   62.47
  -4   9   6 1860.69   75.02
   4  -9  -5  236.52   33.93
   4  -9  -5  213.02   33.42
  -4   9   5  195.58   43.42
   4  -9  -4   29.95   27.80
   4  -9  -4   25.97   30.43
  -4   9   4   11.70   31.12
   4  -9  -3 2542.24   76.83
   4  -9  -3 2435.70   73.37
  -4   9   3 2694.10   81.36
   4  -9  -2 1276.87   57.09
   4  -9  -2 1279.32   55.21
  -4   9   2 1189.64   67.76
   4  -9  -1   10.55   30.58
   4  -9  -1   63.59   33.40
  -4   9   1   83.08   33.78
   4  -9   0 2708.46   74.29
   4  -9   0 2712.18   76.49
   4  -9   1  163.12   33.67
   4  -9   1  169.22   33.49
   4  -9   2  557.30   43.05
   4  -9   2  528.64   43.20
   4  -9   2  545.36   44.00
   4  -9   3 2471.90   72.90
   4  -9   3 2258.06   75.35
   4  -9   4  362.37   31.23
   4  -9   4  326.82   36.61
   4  -9   5   21.27   33.94
   4  -9   5   13.01   31.30
   4  -9   5   49.10   28.42
   4  -9   5   -8.72   32.38
   4  -9   6  136.80   35.66
   4  -9   6  130.57   30.37
   4  -9   6   98.17   29.87
   4  -9   6  119.77   30.49
   4  -9   7   56.73   34.25
   4  -9   7   26.20   24.42
   4  -9   7   -8.31   28.25
   4  -9   7   12.15   20.56
   4  -9   8  404.00   42.36
   4  -9   8  488.24   46.50
   4  -9   8  446.51   40.14
   4  -9   8  425.94   40.41
   4  -9   9  208.96   39.93
   4  -9   9  187.66   33.23
   4  -9  10  161.84   37.62
   4  -9  10  158.98   34.69
   4  -9  11 3874.84   92.95
   4  -9  12  929.72   47.85
   4  -9  12  897.45   51.14
   4  -9  12  912.71   49.54
   4  -9  13 1423.21   60.85
   4  -9  13 1350.53   61.19
   4  -9  13 1340.11   56.59
   4  -9  14  152.06   35.15
   4  -9  14  189.45   45.22
   4  -9  14  171.23   32.72
   4  -9  15  -10.06   40.77
   4  -9  15    5.41   39.46
   4  -9  15  -14.79   30.10
  -4   8  12 1462.68   69.18
  -4   8  11  308.53   44.31
   4  -8 -10 1667.75   71.92
  -4   8  10 1680.47   75.17
  -4   8  10 1735.96   76.99
   4  -8  -9 5361.60  121.63
  -4   8   9 5587.56  123.01
  -4   8   9 5007.25  118.68
   4  -8  -8 2735.65   84.37
   4  -8  -8 2754.48   85.90
  -4   8   8 2970.98   84.59
  -4   8   8 2678.08   84.98
   4  -8  -7  -12.36   30.06
   4  -8  -7   -4.86   28.58
  -4   8   7   -3.10   32.41
  -4   8   7   12.00   33.85
   4  -8  -6  199.55   35.46
   4  -8  -6  197.44   31.59
  -4   8   6  220.94   32.27
  -4   8   6  185.19   35.19
   4  -8  -5    5.50   26.87
   4  -8  -5    4.63   21.06
  -4   8   5   -8.33   34.12
   4  -8  -4  534.54   38.37
   4  -8  -4  484.58   41.53
  -4   8   4  521.48   45.29
   4  -8  -3 1374.62   57.72
   4  -8  -3 1361.79   55.19
  -4   8   3 1380.32   60.68
   4  -8  -2 4852.33  104.05
   4  -8  -2 4827.51   99.12
  -4   8   2 4830.72  109.69
   4  -8  -1 2716.90   74.76
   4  -8  -1 2690.80   73.23
  -4   8   1 2733.48   82.94
   4  -8   0  411.65   38.66
   4  -8   0  372.44   33.24
   4  -8   1   91.55   29.00
   4  -8   1   98.43   22.56
   4  -8   2  760.39   43.34
   4  -8   2  733.27   44.86
   4  -8   2  643.79   43.82
   4  -8   3  736.42   43.37
   4  -8   3  556.11   42.22
   4  -8   3  570.23   42.78
   4  -8   4  458.81   36.69
   4  -8   4  424.26   39.46
   4  -8   4  415.60   33.43
   4  -8   5  475.82   40.68
   4  -8   5  517.91   43.36
   4  -8   5  427.70   34.31
   4  -8   6 2110.81   68.46
   4  -8   6 2058.12   67.51
   4  -8   6 2014.61   62.93
   4  -8   6 1993.53   66.07
   4  -8   7 6065.77  113.19
   4  -8   7 6109.84  124.07
   4  -8   7 5963.66  108.10
   4  -8   7 5805.22  113.77
   4  -8   8   59.54   24.43
   4  -8   8   58.21   25.14
   4  -8   8   45.10   28.75
   4  -8   8   63.74   31.32
   4  -8   9 1989.42   67.54
   4  -8   9 2204.06   67.51
   4  -8   9 2170.85   66.10
   4  -8   9 2202.35   71.78
   4  -8  10   53.60   29.93
   4  -8  10   17.99   31.98
   4  -8  11   27.79   35.30
   4  -8  12  187.29   37.43
   4  -8  12  226.72   30.85
   4  -8  13 1310.06   60.15
   4  -8  13 1262.23   57.80
   4  -8  13 1297.07   54.26
   4  -8  14  -35.00   35.08
   4  -8  14    9.28   32.71
   4  -8  14   -8.24   28.07
   4  -8  15  178.25   35.32
   4  -8  15  143.26   35.65
   4  -8  15  171.13   32.47
   4  -8  16 2056.20   75.72
   4  -8  16 2212.17   89.63
   4  -8  16 2154.71   71.89
  -4   7  13   41.66   38.80
   4  -7 -13    6.52   29.57
  -4   7  13    1.43   42.06
   4  -7 -12  439.35   52.28
  -4   7  12  478.01   44.73
   4  -7 -12  422.70   40.56
  -4   7  12  408.16   42.72
   4  -7 -11    0.39   33.16
   4  -7 -11    7.12   20.59
  -4   7  11   30.73   32.74
   4  -7 -10   37.27   32.17
   4  -7 -10    0.34   29.44
  -4   7  10   45.28   34.95
   4  -7  -9 2642.59   87.59
   4  -7  -9 2633.55   74.97
  -4   7   9 2482.32   76.00
   4  -7  -8  780.70   49.91
   4  -7  -8  845.09   50.41
   4  -7  -8  770.36   43.01
  -4   7   8  868.60   47.87
   4  -7  -7  248.43   33.19
   4  -7  -7  299.12   44.48
   4  -7  -7  287.96   35.87
  -4   7   7  299.65   35.20
   4  -7  -6 1278.75   56.53
   4  -7  -6 1253.37   52.96
   4  -7  -6 1234.02   54.41
  -4   7   6 1175.17   57.07
   4  -7  -5  913.13   51.58
   4  -7  -5  901.44   47.36
   4  -7  -5 1031.69   51.35
   4  -7  -4    6.49   26.88
   4  -7  -4    3.38   30.81
   4  -7  -3 1174.75   52.90
   4  -7  -3 1137.84   54.30
   4  -7  -2  494.40   38.22
   4  -7  -2  523.09   41.15
  -4   7   2  523.76   41.25
   4  -7  -1 2534.08   76.30
   4  -7  -1 2437.62   78.53
  -4   7   1 2487.62   83.21
   4  -7   0 6522.10  124.51
   4  -7   0 6487.26  114.52
   4  -7   1 1128.40   52.02
   4  -7   1 1165.23   57.45
   4  -7   2   51.80   27.66
   4  -7   2   98.00   28.45
   4  -7   2   45.17   29.31
   4  -7   3 2288.01   70.60
   4  -7   3 2126.85   66.43
   4  -7   3 2121.98   66.00
   4  -7   4   42.30   29.26
   4  -7   4   19.34   26.72
   4  -7   5 5261.25  102.72
   4  -7   5 4959.92  109.62
   4  -7   5 4983.01   99.71
   4  -7   6 2218.50   72.70
   4  -7   6 2189.35   70.15
   4  -7   6 2172.15   66.85
   4  -7   6 2107.31   71.81
   4  -7   7  599.15   41.25
   4  -7   7  542.31   44.41
   4  -7   7  511.16   34.29
   4  -7   7  514.07   39.77
   4  -7   8  280.67   38.44
   4  -7   8  253.44   30.54
   4  -7   8  222.22   32.37
   4  -7   8  230.04   29.12
   4  -7   920228.84  215.59
   4  -7   920687.95  218.92
   4  -7   920045.56  209.13
   4  -7   920288.10  215.48
   4  -7  10  839.08   52.40
   4  -7  10  977.67   49.92
   4  -7  10  935.72   50.43
   4  -7  11 5209.69  116.91
   4  -7  11 5027.79  110.54
   4  -7  11 5505.45  122.48
   4  -7  12   68.30   35.20
   4  -7  12   87.31   30.93
   4  -7  13 3004.54   80.58
   4  -7  13 2897.02   80.60
   4  -7  14 1908.63   68.53
   4  -7  14 1969.15   63.53
   4  -7  14 2049.22   66.64
   4  -7  15  423.66   35.51
   4  -7  15  348.56   42.34
   4  -7  15  385.94   37.12
   4  -7  16 1463.52   61.17
   4  -7  16 1388.45   64.49
   4  -7  16 1431.69   60.43
   4  -7  16 1186.96   95.98
   4  -7  17 1502.13   62.70
  -4   7 -17 1506.81   73.58
   4  -7  17 1380.02   67.80
  -4   6  14  -20.29   34.04
   4  -6 -14  -25.39   30.27
  -4   6  14    8.01   31.24
   4  -6 -13   48.48   39.93
  -4   6  13    7.89   33.46
   4  -6 -13   66.27   30.15
  -4   6  13   43.91   29.64
   4  -6 -12 1477.24   71.61
   4  -6 -12 1537.88   58.37
  -4   6  12 1520.64   71.59
   4  -6 -11  312.90   42.85
   4  -6 -11  327.43   39.62
  -4   6  11  287.55   36.84
   4  -6 -10  143.70   37.19
   4  -6 -10  156.96   27.42
  -4   6  10  139.12   32.65
   4  -6  -9 3471.64   97.20
   4  -6  -9 3547.14   91.18
  -4   6   9 3213.93   86.28
   4  -6  -8 1117.16   57.73
   4  -6  -8 1173.85   50.21
  -4   6   8 1163.07   57.92
   4  -6  -7   81.77   30.56
   4  -6  -7   80.73   32.81
   4  -6  -7   41.92   28.51
  -4   6   7   65.48   27.86
   4  -6  -6 1004.18   54.30
   4  -6  -6 1046.87   52.01
   4  -6  -6 1078.94   46.88
  -4   6   6 1021.42   50.14
   4  -6  -5 6250.89  115.49
   4  -6  -5 6429.26  119.78
   4  -6  -5 6489.18  122.21
  -4   6   5 6246.94  130.09
   4  -6  -4 3607.82   89.93
   4  -6  -4 3681.17   86.56
   4  -6  -4 3585.07   83.91
   4  -6  -3 1297.18   55.25
   4  -6  -3 1339.50   56.31
   4  -6  -3 1385.98   53.94
   4  -6  -2  592.69   39.58
   4  -6  -2  608.52   41.49
   4  -6  -1 1063.63   48.78
   4  -6  -1 1078.70   51.71
   4  -6   0  390.36   30.36
   4  -6   0  382.69   30.76
  -4   6  -1 1594.94   73.27
   4  -6   1 1599.93   62.97
   4  -6   1 1718.96   58.89
   4  -6   1 1614.99   59.29
  -4   6  -2 3904.75  119.85
   4  -6   2 3990.34   94.98
   4  -6   2 4222.21   90.88
   4  -6   2 3871.67   93.64
   4  -6   3 1038.90   52.91
   4  -6   3 1040.65   47.01
   4  -6   3 1004.84   51.84
   4  -6   4 2153.82   65.07
   4  -6   4 2053.30   64.58
   4  -6   4 1919.68   66.00
   4  -6   5 1064.76   47.61
   4  -6   5 1027.51   49.19
   4  -6   5 1052.19   48.53
   4  -6   5 1064.86   48.76
   4  -6   613860.37  229.90
   4  -6   613519.07  226.64
   4  -6   613542.56  223.27
   4  -6   613569.32  240.29
   4  -6   7   -2.99   26.89
   4  -6   7  -13.16   29.07
   4  -6   7   23.40   25.37
   4  -6   7   14.79   29.71
   4  -6   8 4915.92  100.64
   4  -6   8 5056.28   98.26
   4  -6   8 4990.45   95.35
   4  -6   8 4843.17   97.96
   4  -6   9  238.44   37.62
   4  -6   9  262.11   34.14
   4  -6   9  308.44   34.64
   4  -6  10   23.98   34.64
   4  -6  10   27.98   33.39
   4  -6  10   49.07   28.79
   4  -6  11   -2.53   30.69
   4  -6  11   -3.77   29.49
   4  -6  11    1.59   21.06
   4  -6  12 2779.23   84.67
   4  -6  12 2572.57   69.45
   4  -6  12 2605.44   77.80
   4  -6  13  267.55   35.83
   4  -6  13  199.80   33.90
   4  -6  13  285.18   35.27
   4  -6  14 2695.05   79.76
   4  -6  14 2846.37   79.09
   4  -6  14 2829.54   78.43
   4  -6  15  108.69   37.73
   4  -6  15  146.26   36.63
   4  -6  15  165.02   35.07
   4  -6  16   22.04   31.41
   4  -6  16   58.13   34.91
   4  -6  16   40.36   23.36
   4  -6  16   28.89   37.45
   4  -6  17  395.75   34.92
  -4   6 -17  428.95   48.37
   4  -6  17  399.31   45.96
   4  -6  17  348.44   61.34
   4  -6  18 2923.08   88.22
  -4   6 -18 2899.50  106.52
  -4   5  15    2.84   38.50
   4  -5 -15    0.13   33.90
  -4   5  15   27.49   29.50
   4  -5 -14   66.99   39.90
  -4   5  14   84.31   37.38
   4  -5 -14   67.73   32.02
  -4   5  14   63.91   30.96
   4  -5 -13   35.27   33.31
   4  -5 -13   63.90   31.38
  -4   5  13   69.70   36.41
   4  -5 -12 1958.88   73.78
   4  -5 -12 1978.97   70.90
   4  -5 -11 1026.70   55.76
   4  -5 -11  975.33   50.31
   4  -5 -11 1157.12   56.70
   4  -5 -10 5368.73  124.87
   4  -5 -10 5462.20  121.10
   4  -5 -10 5682.65  139.09
   4  -5  -9   26.14   37.84
   4  -5  -9   80.83   27.91
   4  -5  -9   83.25   27.67
   4  -5  -8 2915.59   87.66
   4  -5  -8 2922.95   79.02
   4  -5  -8 2985.62   81.78
   4  -5  -7 2712.33   83.46
   4  -5  -7 2663.40   71.64
   4  -5  -7 2748.84   82.44
   4  -5  -6 5610.86  108.18
   4  -5  -6 5688.69  114.52
   4  -5  -6 5841.96  121.03
   4  -5  -6 6012.02  120.61
   4  -5  -5 6645.31  152.53
   4  -5  -5 7063.22  150.71
   4  -5  -5 7033.39  141.91
   4  -5  -4 1748.99   63.93
   4  -5  -4 1723.71   63.93
   4  -5  -4 1772.95   60.39
  -4   5   311102.37  246.04
   4  -5  -310574.25  242.15
   4  -5  -311475.78  222.33
   4  -5  -311789.89  227.76
   4  -5  -311572.79  231.76
  -4   5   2   39.00   29.73
   4  -5  -2   64.09   28.98
   4  -5  -2   54.98   25.21
   4  -5  -2   78.94   27.20
   4  -5  -2   67.31   18.97
  -4   5   127334.40  288.27
   4  -5  -127072.83  261.48
   4  -5  -127111.89  243.99
   4  -5  -127297.78  281.91
  -4   5   0 3857.03  110.75
   4  -5   0 3863.34   86.88
   4  -5   1  246.36   28.72
   4  -5   2   41.79   23.20
   4  -5   2    1.54   21.46
   4  -5   2   -6.82   21.58
   4  -5   2   27.63   18.77
  -4   5  -3  283.18   29.59
   4  -5   3  231.07   25.85
   4  -5   3  243.80   25.87
   4  -5   3  258.50   27.96
   4  -5   3  231.24   34.46
  -4   5  -4  301.09   30.80
  -4   5  -4  335.16   37.96
   4  -5   4  338.10   32.57
   4  -5   4  364.54   29.85
   4  -5   4  330.52   33.64
  -4   5  -5  739.05   45.36
  -4   5  -5  748.15   49.16
   4  -5   5  749.70   41.20
   4  -5   5  803.27   43.69
   4  -5   5  771.27   44.41
   4  -5   5  680.90   40.95
  -4   5  -6 9744.10  158.26
  -4   5  -6 9804.91  165.91
   4  -5   6 9672.83  135.08
   4  -5   6 9950.59  141.69
   4  -5   610008.41  147.52
   4  -5   6 9835.01  132.81
   4  -5   6 9533.77  138.88
  -4   5  -7 3333.00  111.49
  -4   5  -7 3393.82  111.23
   4  -5   7 3388.96   93.84
   4  -5   7 3640.52   84.76
   4  -5   7 3446.95   82.76
   4  -5   7 3425.82   83.71
   4  -5   8  633.74   38.90
   4  -5   8  686.71   43.75
   4  -5   8  672.44   42.48
   4  -5   8  659.37   44.86
   4  -5   9   -0.16   30.19
   4  -5   9   57.07   25.44
   4  -5   9   21.26   26.91
   4  -5  10  111.56   34.17
   4  -5  10   75.30   32.27
   4  -5  10  122.58   24.90
   4  -5  10  112.24   29.03
   4  -5  11  249.68   35.87
   4  -5  11  279.69   31.34
   4  -5  11  261.23   29.94
   4  -5  11  301.20   35.37
   4  -5  12  568.41   43.20
   4  -5  12  524.92   41.70
   4  -5  12  520.51   40.69
   4  -5  13  476.47   43.53
   4  -5  13  511.41   38.97
   4  -5  13  509.48   42.31
   4  -5  14   43.28   31.73
   4  -5  14   81.30   32.55
   4  -5  15   76.00   35.17
   4  -5  15   51.69   31.01
   4  -5  15   52.92   30.36
   4  -5  16  132.08   35.44
   4  -5  16  121.59   31.68
   4  -5  16  132.72   37.02
   4  -5  17  824.95   47.44
  -4   5 -17  902.98   62.26
   4  -5  17  848.56   55.10
   4  -5  17  739.13   67.16
   4  -5  18  462.19   38.88
   4  -5  18  469.06   39.98
   4  -5  18  404.58   66.54
   4  -4 -15  230.57   43.97
   4  -4 -15  213.32   34.42
  -4   4  15  209.02   36.47
   4  -4 -14  169.55   37.35
   4  -4 -14  211.63   33.23
   4  -4 -14  212.88   35.02
   4  -4 -13  504.82   45.37
   4  -4 -13  473.71   40.96
   4  -4 -13  460.87   43.01
   4  -4 -12  851.32   52.92
   4  -4 -12  701.46   41.27
   4  -4 -12  702.92   41.18
   4  -4 -11 2532.24   94.06
   4  -4 -11 2572.76   74.71
   4  -4 -11 2792.80   81.99
   4  -4 -10 2219.42   79.93
   4  -4 -10 2275.03   70.28
   4  -4 -10 2434.73   74.63
   4  -4  -9  682.43   51.21
   4  -4  -9  660.12   38.55
   4  -4  -9  629.72   43.49
   4  -4  -8 2878.88   85.45
   4  -4  -8 2922.94   82.18
   4  -4  -8 2888.99   85.73
   4  -4  -7 6744.00  140.94
   4  -4  -7 6894.91  138.91
   4  -4  -7 6728.06  130.05
   4  -4  -7 6621.37  141.17
   4  -4  -6 3519.88   88.63
   4  -4  -6 3486.25   96.74
   4  -4  -6 3617.10   88.73
   4  -4  -6 3569.92   92.92
  -4   4   5  249.46   45.48
   4  -4  -5  213.38   30.19
   4  -4  -5  217.73   32.97
   4  -4  -5  240.34   33.74
   4  -4  -5  223.60   30.66
   4  -4  -5  189.20   30.41
  -4   4   4 3090.68  107.19
   4  -4  -4 3060.37   87.00
   4  -4  -4 3164.15   91.65
   4  -4  -4 3111.90   92.15
   4  -4  -4 3175.45   87.38
  -4   4   321989.60  307.11
   4  -4  -322374.74  269.68
   4  -4  -322248.41  274.23
  -4   4   210881.94  188.69
   4  -4  -210805.91  196.06
   4  -4  -211035.55  165.35
   4  -4  -210753.77  190.77
   4  -4  -1  932.30   46.70
   4  -4  -1  903.36   44.81
   4  -4  -1  906.58   57.93
   4  -4   0  531.91   36.63
   4  -4   0  485.75   31.93
   4  -4   0  537.25   39.02
  -4   4  -1 2983.31   86.46
   4  -4   1 2709.15   79.24
   4  -4   1 2946.66   77.92
   4  -4   1 2927.51   94.88
  -4   4  -2 6181.06  144.01
   4  -4   2 5742.64  125.87
   4  -4   2 5989.63  139.86
   4  -4   2 5658.95  133.59
  -4   4  -3   43.02   29.78
   4  -4   3   16.58   15.44
   4  -4   3   30.22   22.46
   4  -4   3   18.14   23.76
   4  -4   3   14.84   15.84
  -4   4  -411092.18  207.96
  -4   4  -411229.23  213.07
   4  -4   410610.30  196.15
   4  -4   410841.94  215.21
   4  -4   410599.81  201.19
  -4   4  -5 2959.67   91.10
  -4   4  -5 3145.99   92.16
   4  -4   5 3005.79   78.00
   4  -4   5 2962.88   94.15
   4  -4   5 3005.13   84.12
   4  -4   5 2836.06   99.60
  -4   4  -6    6.14   22.73
  -4   4  -6  -13.51   27.22
   4  -4   6   -9.60   21.61
   4  -4   6    1.58   24.00
   4  -4   6   15.07   26.99
   4  -4   6   11.68   20.19
   4  -4   6   19.68   21.15
  -4   4  -7 2983.51   88.01
  -4   4  -7 2868.27   89.68
   4  -4   7 2845.01   74.89
   4  -4   7 2947.92   81.32
   4  -4   7 2894.28   76.05
   4  -4   7 2799.48   76.98
  -4   4  -8   -2.47   31.44
  -4   4  -8   11.89   18.97
   4  -4   8   19.88   23.75
   4  -4   8   12.50   27.48
   4  -4   8   18.95   18.49
   4  -4   8   10.69   17.31
  -4   4  -9  291.97   36.38
  -4   4  -9  224.72   35.90
   4  -4   9  279.59   33.54
   4  -4   9  247.99   34.82
   4  -4   9  320.95   33.92
   4  -4  10   -1.99   21.66
   4  -4  10    9.62   26.31
   4  -4  10    7.91   29.03
   4  -4  10   32.21   27.68
   4  -4  11   96.90   33.87
   4  -4  11   13.79   32.13
   4  -4  11   80.68   29.71
   4  -4  11   60.77   34.66
   4  -4  12 6142.10  117.04
   4  -4  12 6406.06  124.89
   4  -4  12 6230.61  108.61
   4  -4  12 6454.59  122.93
   4  -4  13 7887.14  133.60
   4  -4  13 7504.19  125.88
   4  -4  13 7668.80  123.79
   4  -4  14 2152.90   68.40
   4  -4  14 2047.16   66.74
   4  -4  15  399.36   38.37
   4  -4  15  376.73   39.00
   4  -4  15  452.87   41.39
   4  -4  16 1315.00   64.88
   4  -4  16 1270.24   55.63
   4  -4  16 1290.52   64.69
   4  -4  17  476.04   42.58
  -4   4 -17  487.79   54.83
   4  -4  17  446.71   42.67
   4  -4  17  420.80   44.80
   4  -4  18   39.15   34.22
   4  -4  18   11.62   28.00
   4  -4  18   52.05   38.11
   4  -4  19 1296.96   65.77
   4  -4  19 1311.72   58.56
   4  -4  19 1038.95  109.09
   4  -3 -16   36.47   43.60
  -4   3  16   73.13   42.54
   4  -3 -16   72.20   35.16
   4  -3 -16   42.41   33.76
   4  -3 -15  114.24   35.67
   4  -3 -15  105.74   31.15
   4  -3 -15  118.00   31.84
   4  -3 -14 1936.70   76.94
   4  -3 -14 2116.70   76.15
   4  -3 -14 2103.87   81.64
   4  -3 -13  798.99   56.76
   4  -3 -13  800.35   50.04
   4  -3 -13  828.41   50.57
   4  -3 -12  217.74   42.65
   4  -3 -12  276.17   35.53
   4  -3 -12  282.76   36.06
   4  -3 -11   -1.30   23.82
   4  -3 -11   19.90   30.24
   4  -3 -11   -2.41   30.40
   4  -3 -10 3680.70   97.86
   4  -3 -10 3730.38   94.14
   4  -3 -10 3571.64   94.18
   4  -3 -10 3689.65   89.66
   4  -3  -9   83.37   35.35
   4  -3  -9  108.83   28.72
   4  -3  -9  129.69   31.19
   4  -3  -8 3174.45   91.85
   4  -3  -8 3145.97   86.29
   4  -3  -8 3132.67   79.11
   4  -3  -8 3167.39   85.48
   4  -3  -7  695.54   48.88
   4  -3  -7  704.07   46.12
   4  -3  -7  687.36   45.79
   4  -3  -7  629.66   49.96
  -4   3   6 4313.70  125.13
   4  -3  -6 4301.00   99.27
   4  -3  -6 4656.01  126.51
   4  -3  -6 4390.05   98.80
   4  -3  -6 4615.53   96.65
   4  -3  -6 4662.41  108.85
  -4   3   5  538.74   51.52
   4  -3  -5  547.74   36.26
   4  -3  -5  552.27   43.24
   4  -3  -5  557.42   45.21
   4  -3  -5  628.54   40.95
  -4   3   4  254.42   42.48
   4  -3  -4  262.88   29.81
   4  -3  -4  243.40   33.30
   4  -3  -4  250.35   29.80
   4  -3  -3   65.60   19.60
   4  -3  -3   42.95   24.15
   4  -3  -3   45.18   16.35
   4  -3  -2 8634.02  177.90
   4  -3  -2 8474.02  187.05
   4  -3  -2 8979.39  186.80
   4  -3  -2 8642.46  191.42
  -4   3   1 2198.93   76.04
   4  -3  -1 2391.25   70.04
   4  -3  -1 2373.88   75.35
  -4   3   0 3237.56  102.44
   4  -3   0 3227.24   78.93
   4  -3   0 3212.74   89.22
  -4   3  -1 5186.99  115.65
   4  -3   1 5108.37  111.29
   4  -3   1 5056.20  111.14
  -4   3  -219658.12  275.06
   4  -3   218644.15  256.21
   4  -3   217906.52  274.88
  -4   3  -3 4202.30   99.09
   4  -3   3 4101.73   97.00
  -4   3  -4 2349.86   77.55
  -4   3  -4 2236.96   75.88
   4  -3   4 2138.19   68.91
   4  -3   4 2173.41   72.75
   4  -3   4 2165.07   69.23
  -4   3  -5   39.87   24.67
  -4   3  -5   59.56   26.14
   4  -3   5   46.93   18.25
   4  -3   5   40.51   25.02
   4  -3   5   28.77   18.31
  -4   3  -6 1692.45   69.83
  -4   3  -6 1702.69   74.05
   4  -3   6 1571.60   57.84
   4  -3   6 1668.03   62.76
   4  -3   6 1610.89   59.14
   4  -3   6 1590.83   60.07
   4  -3   6 1590.84   62.42
  -4   3  -721674.37  356.33
  -4   3  -722655.88  360.41
   4  -3   721903.94  350.80
   4  -3   722186.10  344.59
   4  -3   721204.50  334.84
   4  -3   721287.85  342.51
  -4   3  -8  660.37   39.90
  -4   3  -8  619.62   49.49
   4  -3   8  632.93   40.92
   4  -3   8  655.49   39.76
   4  -3   8  658.53   37.63
  -4   3  -9   41.19   30.69
  -4   3  -9   34.12   32.84
   4  -3   9   74.64   22.16
   4  -3   9   49.64   24.66
   4  -3   9   43.79   25.01
   4  -3   9   17.98   23.95
  -4   3 -10 6930.77  177.64
  -4   3 -10 7435.49  170.57
   4  -3  10 7249.64  159.95
   4  -3  10 7476.66  166.78
   4  -3  10 7305.81  155.36
   4  -3  10 7347.02  158.16
   4  -3  11  671.35   40.39
   4  -3  11  638.82   38.26
   4  -3  11  654.50   42.51
   4  -3  11  703.90   38.95
   4  -3  12 5629.77  113.73
   4  -3  12 5316.98  105.20
   4  -3  12 5328.17  104.87
   4  -3  12 5336.44  100.91
   4  -3  13  393.15   35.05
   4  -3  13  412.60   37.88
   4  -3  13  389.84   40.25
   4  -3  13  471.79   40.23
   4  -3  14 3479.12   85.38
   4  -3  14 3577.48   85.77
   4  -3  15 1329.35   57.64
   4  -3  15 1316.97   60.20
   4  -3  16  281.38   39.20
   4  -3  16  257.91   38.01
   4  -3  17   11.64   30.55
   4  -3  17   35.01   32.16
   4  -3  17   33.13   29.07
   4  -3  18  276.67   38.44
   4  -3  18  250.10   36.57
   4  -3  18  262.62   41.65
   4  -3  19  246.69   37.63
   4  -3  19  235.27   41.83
   4  -2 -16  550.99   59.04
   4  -2 -16  564.11   46.60
   4  -2 -16  537.33   43.80
   4  -2 -15  103.34   41.68
   4  -2 -15   72.12   30.44
   4  -2 -15   78.89   29.70
   4  -2 -14 1729.35   67.30
   4  -2 -14 1677.87   65.12
   4  -2 -14 1759.81   68.64
   4  -2 -13 1354.27   64.93
   4  -2 -13 1476.59   65.74
   4  -2 -12   26.81   44.42
   4  -2 -12   19.75   31.16
   4  -2 -12   40.72   22.55
   4  -2 -11  -43.04   25.03
   4  -2 -11  -27.36   29.19
   4  -2 -11   20.15   30.20
   4  -2 -10  467.00   41.35
   4  -2 -10  505.76   38.54
   4  -2 -10  520.98   39.87
   4  -2  -9   47.98   35.71
   4  -2  -9   39.73   21.68
   4  -2  -8  579.55   48.88
   4  -2  -8  608.36   40.94
   4  -2  -7 4131.87  111.25
   4  -2  -7 3642.59   93.04
   4  -2  -7 4144.78  102.50
   4  -2  -7 4119.84  101.79
   4  -2  -7 3943.29   97.47
   4  -2  -6 6763.95  124.98
   4  -2  -6 7141.12  129.99
   4  -2  -6 7312.62  124.20
   4  -2  -5 1833.94   63.98
   4  -2  -5 1933.32   75.33
   4  -2  -4 7778.95  164.47
   4  -2  -4 6875.93  204.74
   4  -2  -4 7409.07  182.19
   4  -2  -4 8005.86  161.63
  -4   2   3 1259.39   63.86
   4  -2  -3 1310.41   54.87
   4  -2  -3 1268.57   58.00
   4  -2  -3 1182.98   59.35
  -4   2   2  429.42   44.79
   4  -2  -2  369.68   32.21
   4  -2  -2  384.09   35.71
  -4   2   1  163.26   34.08
   4  -2  -1  127.89   20.28
  -4   2   0  146.99   33.45
   4  -2   0  120.80   23.13
  -4   2  -1 2734.07   81.79
   4  -2   1 2721.57   78.88
  -4   2  -2 2467.88   86.66
   4  -2   2 2398.43   77.45
  -4   2  -3    6.53   17.04
  -4   2  -3    3.70   17.25
  -4   2  -4 8544.90  215.42
  -4   2  -5 1819.08   65.45
  -4   2  -5 1515.76   83.13
   4  -2   5 1650.90   61.33
  -4   2  -6 6672.61  127.67
  -4   2  -6 6893.08  127.96
   4  -2   6 6202.65  123.06
   4  -2   6 6363.89  128.84
   4  -2   6 5995.09  148.86
  -4   2  -7 3628.07   97.26
  -4   2  -7 3653.41   93.15
   4  -2   7 3548.72   90.27
   4  -2   7 3409.36   88.85
   4  -2   7 3490.26  102.95
   4  -2   7 3656.67   86.97
  -4   2  -8   24.13   20.63
  -4   2  -8   18.23   17.68
   4  -2   8   16.80   15.19
   4  -2   8   28.58   20.35
   4  -2   8   58.17   18.67
  -4   2  -9 4300.60  103.99
  -4   2  -9 4283.22  131.26
   4  -2   9 4204.83   95.40
   4  -2   9 4568.34  104.76
   4  -2   9 4484.47   96.32
   4  -2   9 4488.55   95.06
  -4   2 -10  393.23   41.62
  -4   2 -10  391.33   42.14
   4  -2  10  378.13   32.42
   4  -2  10  443.88   38.86
   4  -2  10  370.06   35.95
   4  -2  10  416.33   35.84
   4  -2  11 3561.58   92.03
   4  -2  11 3631.73   93.51
   4  -2  11 3525.60   82.56
   4  -2  11 3571.88   87.66
   4  -2  12 2370.08   71.29
   4  -2  12 2175.11   75.07
   4  -2  12 2246.93   70.03
   4  -2  12 2080.24   64.52
   4  -2  12 2201.06   67.41
   4  -2  13 1844.66   61.25
   4  -2  13 1868.05   75.64
   4  -2  13 1809.38   60.76
   4  -2  13 1717.24   57.66
   4  -2  13 1835.51   62.05
   4  -2  14  852.31   47.02
   4  -2  14  881.31   50.82
   4  -2  14  935.09   55.56
   4  -2  14  921.36   45.22
   4  -2  14  714.21   44.37
   4  -2  14  899.14   50.62
   4  -2  15 8596.02  146.44
   4  -2  15 8738.56  162.19
   4  -2  15 8798.55  137.88
   4  -2  15 8722.37  140.32
   4  -2  16 4009.33  120.72
   4  -2  16 3882.15  124.30
   4  -2  16 3847.14  108.64
   4  -2  16 3716.12  120.80
   4  -2  17  116.50   33.70
   4  -2  17  178.99   45.33
   4  -2  17   77.58   31.46
   4  -2  17  111.14   35.50
   4  -2  18  341.45   42.27
   4  -2  18  396.01   41.59
   4  -2  18  371.61   47.19
   4  -2  18  402.15   38.93
   4  -2  18  361.17   38.94
   4  -2  19   89.00   40.27
  -4   2 -19   44.21   22.15
   4  -2  19   29.62   39.25
   4  -2  19   27.17   33.29
   4  -2  19   41.57   32.23
  -4   2 -20  309.70   36.64
   4  -2  20  348.90   40.83
   4  -2  20  302.38   56.96
   4  -1 -17   55.63   36.43
   4  -1 -17   46.91   35.17
   4  -1 -17   64.57   35.78
   4  -1 -16 3520.14  125.14
   4  -1 -16 3361.56   92.42
   4  -1 -16 3575.14  103.76
   4  -1 -15  107.38   41.65
   4  -1 -15   73.71   32.98
   4  -1 -14 2508.75   86.13
   4  -1 -14 2457.26   81.88
   4  -1 -13 1414.22   62.64
   4  -1 -13 1458.39   61.67
   4  -1 -13 1372.28   59.60
   4  -1 -12 1843.71   71.01
   4  -1 -12 2007.44   67.62
   4  -1 -12 1836.92   69.72
   4  -1 -11 1480.75   68.68
   4  -1 -11 1458.17   64.15
   4  -1 -11 1440.11   64.16
   4  -1 -10 1477.95   69.06
   4  -1 -10 1519.69   64.55
   4  -1 -10 1487.50   61.18
   4  -1  -9  697.73   51.15
   4  -1  -9  798.36   52.32
   4  -1  -9  763.30   46.65
   4  -1  -8  207.32   31.65
   4  -1  -7 4577.08  104.36
   4  -1  -7 4780.56  107.52
   4  -1  -6 5358.24  116.90
   4  -1  -6 5385.12  123.17
   4  -1  -6 5367.46  116.06
   4  -1  -5 7082.57  187.59
   4  -1  -5 6910.92  170.84
   4  -1  -5 7141.10  187.73
   4  -1  -5 7032.17  168.99
   4  -1  -5 6831.64  158.79
   4  -1  -4  188.51   25.35
   4  -1  -4  169.85   24.60
  -4   1   4  186.99   29.15
   4  -1  -4  184.23   25.50
   4  -1  -4  177.25   29.47
   4  -1  -3 1273.53   66.92
   4  -1  -3 1476.99   54.62
  -4   1   3 1442.57   81.19
   4  -1  -3 1487.64   66.19
  -4   1   2   11.93   30.11
   4  -1  -2   13.06   13.67
  -4   1   2    4.40   21.06
  -4   1   1 5326.56  140.35
   4  -1  -1 4994.01  155.94
  -4   1   1 5096.12  140.53
  -4   1   0  110.18   33.02
   4  -1   0   79.50   23.51
  -4   1   0   81.21   22.74
  -4   1  -1   57.71   27.63
   4  -1   1   67.51   24.48
  -4   1  -1   66.65   26.97
  -4   1  -214359.57  336.22
   4  -1   214001.65  311.98
  -4   1  -214589.88  352.45
  -4   1  -3 1124.19   54.28
  -4   1  -3 1260.82   56.79
   4  -1   3 1126.67   52.60
  -4   1  -4   97.93   25.02
  -4   1  -4  126.13   28.13
   4  -1   4  110.24   22.39
  -4   1  -513544.58  308.06
   4  -1   513662.88  332.87
  -4   1  -6 2171.29   69.67
   4  -1   6 2307.95   73.67
   4  -1   6 2027.77   66.34
  -4   1  -7  254.16   30.29
  -4   1  -7  263.00   28.51
   4  -1   7  239.97   27.92
   4  -1   7  219.48   27.88
   4  -1   7  210.50   29.88
  -4   1  -8  430.85   33.92
  -4   1  -8  432.93   38.81
   4  -1   8  465.62   37.31
   4  -1   8  444.29   32.61
   4  -1   8  403.71   35.25
   4  -1   8  415.33   32.87
   4  -1   8  439.77   34.16
  -4   1  -9 8733.18  221.04
  -4   1  -9 9074.26  188.17
   4  -1   9 8671.76  185.57
   4  -1   9 8443.16  178.50
   4  -1   9 8590.33  169.79
   4  -1   9 8758.66  179.06
   4  -1   9 8573.68  168.68
  -4   1 -10  541.49   45.44
  -4   1 -10  592.12   43.42
   4  -1  10  546.16   45.50
   4  -1  10  572.64   41.77
   4  -1  10  554.32   40.38
   4  -1  10  614.05   36.66
   4  -1  10  622.13   40.86
   4  -1  10  618.52   35.88
  -4   1 -1111968.39  244.68
   4  -1  1112917.14  253.93
   4  -1  1112328.98  245.40
   4  -1  1112711.05  238.83
   4  -1  1112540.47  257.58
   4  -1  12 1012.38   50.43
   4  -1  12  995.74   50.44
   4  -1  12  946.90   47.95
   4  -1  12  951.38   43.71
   4  -1  12 1009.08   44.89
   4  -1  13 1137.90   53.31
   4  -1  13 1243.60   55.45
   4  -1  13 1136.12   57.73
   4  -1  13 1174.40   53.03
   4  -1  13 1194.72   53.45
   4  -1  13 1125.40   49.49
   4  -1  13 1117.99   48.82
   4  -1  14  520.66   38.81
   4  -1  14  563.24   42.67
   4  -1  14  557.47   41.89
   4  -1  14  590.00   42.03
   4  -1  14  655.65   43.30
   4  -1  15 6630.31  121.55
   4  -1  15 6659.82  114.98
   4  -1  15 6729.61  137.56
   4  -1  15 6617.42  118.18
   4  -1  15 6720.01  128.82
   4  -1  16 1219.78   54.50
   4  -1  16 1233.41   61.51
   4  -1  16 1214.72   55.08
   4  -1  16 1203.63   60.94
   4  -1  16 1258.60   58.84
   4  -1  17  802.51   48.67
   4  -1  17  816.16   55.96
   4  -1  17  843.20   48.52
   4  -1  17  764.04   48.13
   4  -1  18   85.08   34.23
   4  -1  18  137.33   33.25
   4  -1  18  105.46   25.24
   4  -1  18   95.02   33.58
   4  -1  19   28.90   33.10
  -4   1 -19   11.91   26.79
   4  -1  19   24.22   35.83
   4  -1  19   40.70   28.85
   4  -1  19   13.27   33.54
   4  -1  20  261.92   45.00
  -4   1 -20  275.81   32.81
   4  -1  20  248.68   48.40
   4  -1  20  292.64   36.18
   4  -1  20  245.63   43.17
   4   0 -17   44.54   37.75
   4   0 -17   32.97   33.63
   4   0 -17   17.87   32.40
   4   0 -16 2783.42   94.06
   4   0 -16 2793.14   88.83
   4   0 -15 3136.14   95.89
   4   0 -15 3067.37   84.85
   4   0 -14 3983.55  110.80
   4   0 -14 4183.51  107.98
   4   0 -14 3958.64   92.55
   4   0 -1312249.61  224.56
   4   0 -1312448.68  217.21
   4   0 -1312574.29  216.99
   4   0 -12  876.71   51.90
   4   0 -12  903.31   53.24
   4   0 -12  938.62   52.28
   4   0 -11   78.33   37.35
   4   0 -11  121.58   33.61
   4   0 -11   67.92   29.43
   4   0 -10  660.97   48.21
   4   0 -10  614.51   42.25
   4   0  -9 8764.86  170.65
   4   0  -9 8730.71  189.93
   4   0  -9 8414.06  172.71
   4   0  -815103.72  283.67
   4   0  -814476.43  287.20
   4   0  -814738.52  270.15
   4   0  -7 2411.56   90.91
  -4   0   7 2118.71   88.80
   4   0  -7 2437.90   80.41
   4   0  -7 2315.81   82.73
   4   0  -614801.52  274.66
   4   0  -613831.61  247.02
  -4   0   613849.90  294.31
   4   0  -615129.41  274.36
   4   0  -614612.81  273.51
   4   0  -614278.60  265.28
   4   0  -510045.30  181.08
   4   0  -510269.93  177.51
  -4   0   510659.58  196.01
   4   0  -510782.80  190.70
   4   0  -510327.46  200.77
   4   0  -4  558.32   48.25
   4   0  -4  600.88   37.19
  -4   0   4  578.46   42.02
   4   0  -4  564.89   41.22
   4   0  -4  584.50   41.71
   4   0  -312060.38  293.15
   4   0  -311550.34  267.14
  -4   0   312455.10  323.43
   4   0  -2 3942.35  138.60
  -4   0   2 3788.61  131.37
   4   0  -2 3814.08  126.32
  -4   0   2 3648.28  131.76
  -4   0   1 3457.79  133.96
   4   0  -1 3300.28  115.94
  -4   0   1 3351.39  124.82
  -4   0   0  765.94   51.45
   4   0   0  664.18   37.67
  -4   0   0  592.25   48.29
  -4   0   0  689.90   46.10
  -4   0  -1 3836.78  140.48
   4   0   1 3931.24  129.58
  -4   0  -1 3445.11  142.84
  -4   0  -1 3954.20  146.04
  -4   0  -2 9603.97  277.10
  -4   0  -210227.81  249.21
   4   0   2 9591.44  235.93
  -4   0  -2 8677.67  252.51
  -4   0  -3  966.72   50.16
  -4   0  -3 1076.24   52.90
   4   0   3  991.73   53.15
  -4   0  -4 1265.11   68.74
  -4   0  -4 1401.63   58.95
   4   0   4 1327.32   57.91
  -4   0  -5  528.04   38.47
  -4   0  -5  635.36   43.72
   4   0   5  617.02   42.04
  -4   0  -615396.79  345.12
   4   0   615828.31  190.65
  -4   0  -7 1735.49   67.11
   4   0   7 1841.02   64.66
  -4   0  -8 7018.79  135.75
  -4   0  -8 7526.37  143.98
   4   0   8 7149.29  153.97
   4   0   8 6572.65  125.52
   4   0   8 7009.68  123.53
   4   0   8 6802.44  127.01
  -4   0  -9 1184.20   69.03
  -4   0  -9 1266.79   54.13
   4   0   9 1241.68   55.36
   4   0   9 1181.44   54.58
   4   0   9 1273.61   59.04
   4   0   9 1219.69   51.06
   4   0   9 1156.29   51.03
   4   0   9 1158.43   50.17
  -4   0 -10 4816.90  116.06
   4   0  10 4491.58  108.58
   4   0  10 4907.77  115.52
   4   0  10 4875.42  114.88
   4   0  10 4863.23  104.09
   4   0  10 4735.05  128.45
   4   0  10 4787.59   98.97
  -4   0 -11  628.29   41.33
   4   0  11  702.20   44.83
   4   0  11  691.86   43.00
   4   0  11  693.62   43.29
   4   0  11  728.72   43.55
   4   0  11  649.64   41.42
   4   0  11  662.01   39.73
   4   0  11  696.09   38.46
   4   0  11  667.14   43.00
   4   0  12  810.34   42.46
   4   0  12  803.69   45.15
   4   0  12  795.95   46.37
   4   0  12  759.21   42.78
   4   0  12  789.16   43.74
   4   0  12  784.30   42.35
   4   0  13 2222.91   71.84
   4   0  13 2215.47   65.41
   4   0  13 2283.47   78.09
   4   0  13 2235.22   67.12
   4   0  13 2210.94   71.00
   4   0  14 6195.16  113.05
   4   0  14 5920.12  107.54
   4   0  14 6239.25  123.36
   4   0  14 5940.05  109.86
   4   0  14 5985.65  115.74
   4   0  15 1236.86   52.99
   4   0  15 1191.73   52.93
   4   0  15 1270.13   62.72
   4   0  15 1216.08   52.90
   4   0  15 1168.68   48.90
   4   0  15 1202.38   56.64
   4   0  16 2378.33   73.96
   4   0  16 2068.70   66.83
   4   0  16 2322.38   79.66
   4   0  16 2398.89   72.40
   4   0  16 2370.88   75.82
   4   0  17 1828.62   69.84
   4   0  17 1858.44   74.02
   4   0  17 1906.80   65.98
   4   0  17 1883.18   71.23
   4   0  18  503.94   41.73
   4   0  18  489.97   49.01
   4   0  18  535.07   42.21
   4   0  18  506.33   44.79
   4   0  19   59.64   37.08
  -4   0 -19  122.39   28.56
   4   0  19   52.33   34.74
   4   0  19   55.14   22.39
   4   0  19   77.12   34.34
   4   0  20 2095.92   75.47
  -4   0 -20 2187.83   75.35
   4   0  20 2140.07   96.77
   4   0  20 2149.97   73.54
   4   0  20 2054.61  124.86
   4   1 -17   43.90   40.45
   4   1 -17   46.59   32.80
   4   1 -16 3092.00  100.89
   4   1 -16 3081.34   87.41
   4   1 -15 7672.66  144.48
   4   1 -15 7127.78  131.01
   4   1 -15 7570.93  131.36
   4   1 -14 1934.58   77.51
   4   1 -14 1782.40   66.61
   4   1 -14 1807.76   62.49
   4   1 -1314728.58  269.81
   4   1 -1314841.83  254.91
   4   1 -1315130.58  251.01
   4   1 -12 3497.02   93.79
   4   1 -12 3490.56   87.23
   4   1 -11 2046.76   69.81
   4   1 -11 2064.25   70.52
   4   1 -10 2995.48   78.20
   4   1 -10 2958.95   84.90
   4   1 -10 2860.92   82.53
  -4  -1   9   -5.46   29.42
   4   1  -9   -0.63   32.73
   4   1  -9    7.84   27.10
   4   1  -9    6.36   33.34
   4   1  -9   33.62   21.19
   4   1  -8 5020.68  169.85
  -4  -1   8 5051.32  113.56
   4   1  -8 5247.60  125.27
   4   1  -8 5223.17  105.30
   4   1  -8 5884.05  134.58
   4   1  -8 5585.03  111.95
   4   1  -7 6471.32  152.24
  -4  -1   7 6767.05  162.72
   4   1  -7 7361.49  154.39
   4   1  -7 7200.98  138.69
   4   1  -7 7134.68  135.91
   4   1  -613224.18  250.32
  -4  -1   613019.05  245.27
   4   1  -613513.02  257.58
   4   1  -612870.02  224.99
   4   1  -612882.92  242.72
   4   1  -513477.27  221.38
   4   1  -513000.75  205.00
  -4  -1   513957.87  227.53
   4   1  -513334.47  223.31
   4   1  -513454.29  244.83
   4   1  -4   28.76   23.47
   4   1  -4   26.35   15.83
  -4  -1   4    5.06   25.28
   4   1  -3   97.48   27.67
  -4  -1   3   94.00   19.86
   4   1  -3   82.59   20.20
  -4  -1   3   75.78   21.10
   4   1  -2  351.69   36.49
  -4  -1   2  401.38   32.54
   4   1  -2  362.09   31.80
  -4  -1   2  323.79   35.16
   4   1  -1 7037.83  164.37
  -4  -1   1 7288.03  166.00
   4   1  -1 6802.88  147.31
  -4  -1   1 6766.73  166.44
  -4  -1   0 3342.93  125.46
  -4  -1   0 3245.51  119.46
  -4  -1   0 3330.76  117.92
  -4  -1   0 3490.87  130.58
  -4  -1  -1 9110.16  238.08
  -4  -1  -1 8767.57  219.16
  -4  -1  -1 8757.05  230.49
  -4  -1  -2  355.70   34.24
  -4  -1  -2  301.48   30.01
   4   1   2  344.40   29.99
  -4  -1  -324627.37  392.64
  -4  -1  -324953.04  383.34
   4   1   323877.99  385.30
  -4  -1  -4  144.49   23.94
  -4  -1  -4   32.27   20.42
   4   1   4   23.78   21.43
  -4  -1  -5  728.97   41.91
  -4  -1  -5  739.69   46.16
   4   1   5  723.46   40.92
  -4  -1  -610665.48  266.74
  -4  -1  -611407.70  270.62
   4   1   610845.16  260.74
  -4  -1  -7  242.58   32.54
  -4  -1  -7  267.14   35.29
   4   1   7  267.20   31.66
  -4  -1  -8 5979.55  139.41
   4   1   8 5914.16  123.83
   4   1   8 5478.12  118.89
   4   1   8 5629.38  125.09
   4   1   8 5578.52  115.03
  -4  -1  -9 2184.78   73.50
   4   1   9 2568.71   76.41
   4   1   9 2471.23   82.32
   4   1   9 2570.71   77.97
   4   1   9 2581.94   74.23
   4   1   9 2431.80   72.61
  -4  -1 -10  495.96   40.63
   4   1  10  522.39   41.17
   4   1  10  489.61   34.26
   4   1  10  552.77   37.74
   4   1  10  510.85   42.39
   4   1  10  510.15   37.37
   4   1  10  501.56   37.08
   4   1  10  525.86   36.70
  -4  -1 -11  241.08   31.60
   4   1  11  203.90   32.97
   4   1  11  252.85   31.91
   4   1  11  219.31   24.88
   4   1  11  226.42   32.28
   4   1  11  192.49   29.28
   4   1  11  256.14   32.24
   4   1  11  217.30   30.46
   4   1  11  219.30   29.48
   4   1  12 8490.49  180.12
   4   1  12 8552.67  178.98
   4   1  12 8538.86  187.55
   4   1  12 8448.32  179.90
   4   1  12 8232.82  174.97
   4   1  12 8232.98  178.16
   4   1  13 2918.26   84.57
   4   1  13 2992.14   81.10
   4   1  13 3054.43   88.40
   4   1  13 2908.19   75.20
   4   1  13 3020.81   81.22
   4   1  14 7518.63  146.09
   4   1  14 7604.91  140.00
   4   1  14 7761.92  147.58
   4   1  14 7517.48  138.78
   4   1  14 7390.77  141.74
   4   1  15 1215.89   53.79
   4   1  15 1188.28   49.47
   4   1  15 1254.14   59.65
   4   1  15 1147.87   53.49
   4   1  15 1251.53   54.87
   4   1  15 1286.79   52.76
   4   1  16  773.19   47.74
   4   1  16  835.53   46.48
   4   1  16  822.65   47.78
   4   1  16  796.95   48.03
   4   1  16  755.67   47.23
   4   1  17   52.58   29.70
   4   1  17    7.71   33.30
   4   1  17   14.95   20.55
   4   1  17   46.27   30.13
   4   1  18   45.91   33.90
   4   1  18   19.12   32.25
   4   1  18   20.59   23.04
   4   1  18   31.22   29.91
   4   1  19   42.47   29.72
  -4  -1 -19   65.81   33.33
   4   1  19   47.43   36.82
   4   1  19   44.44   28.86
   4   1  19   16.14   31.84
   4   1  20 1440.28   65.64
  -4  -1 -20 1387.14   59.67
   4   1  20 1452.65   67.70
   4   1  20 1425.86   65.40
   4   1  20 1365.65   78.26
   4   2 -17   28.59   47.18
   4   2 -17   60.25   33.30
   4   2 -16 1458.97   66.17
   4   2 -16 1342.07   56.73
   4   2 -15 2548.63   84.96
   4   2 -15 2530.41   88.02
   4   2 -15 2523.51   82.23
   4   2 -14 5852.91  152.10
   4   2 -14 5838.42  147.48
   4   2 -13  131.42   36.59
   4   2 -13  223.10   36.69
   4   2 -12  795.62   53.74
   4   2 -12  725.19   42.20
   4   2 -11 3702.03  104.15
   4   2 -11 4031.50   97.34
   4   2 -11 3912.64  111.91
   4   2 -11 3901.25   90.39
   4   2 -10  140.20   37.77
   4   2 -10   82.57   35.36
   4   2 -10   95.91   28.44
   4   2 -10   79.19   35.32
  -4  -2   9 6156.98  181.67
   4   2  -9 7028.75  169.19
   4   2  -9 6817.85  156.91
   4   2  -9 7370.89  176.64
   4   2  -9 7160.15  158.94
   4   2  -8 8253.33  166.05
  -4  -2   8 8214.39  176.13
   4   2  -8 8075.57  148.66
   4   2  -8 8572.06  139.26
   4   2  -8 8715.73  193.05
   4   2  -8 8704.60  139.70
   4   2  -7 5506.90  139.71
  -4  -2   7 5815.35  134.53
   4   2  -7 5558.09  131.57
   4   2  -7 5446.25  116.76
   4   2  -7 5833.47  145.13
   4   2  -7 5598.24  116.12
   4   2  -6 1272.80   62.11
  -4  -2   6 1390.46   60.67
   4   2  -6 1395.24   64.40
   4   2  -6 1361.20   54.70
   4   2  -6 1351.13   60.64
   4   2  -5  354.67   37.66
  -4  -2   5  402.18   40.05
   4   2  -5  380.11   39.38
   4   2  -5  405.30   41.76
   4   2  -4  209.93   28.26
   4   2  -4  229.55   25.45
  -4  -2   4  268.09   33.59
   4   2  -3   14.18   24.07
  -4  -2   3   22.08   13.45
   4   2  -3   20.37   14.92
  -4  -2   3   -3.37   24.63
   4   2  -2 1998.96   72.45
  -4  -2   2 2151.34   74.57
  -4  -2   2 2145.27   76.12
   4   2  -125497.11  403.00
  -4  -2   126140.49  408.09
  -4  -2   125274.86  390.19
  -4  -2   125116.65  425.95
   4   2   0  952.55   50.92
  -4  -2   0 1002.61   48.78
  -4  -2   0  990.19   50.99
  -4  -2   0 1069.21   58.58
  -4  -2  -117744.34  344.00
  -4  -2  -119049.61  361.06
  -4  -2  -119811.73  317.58
  -4  -2  -119572.43  319.05
   4   2   119061.44  309.99
  -4  -2  -2   37.72   18.94
  -4  -2  -2   49.25   21.68
  -4  -2  -2   33.77   18.10
  -4  -2  -2   42.90   22.57
   4   2   2   41.61   22.37
  -4  -2  -3 2379.50   90.19
  -4  -2  -3 2579.14   78.71
  -4  -2  -3 2537.16   95.62
   4   2   3 2496.61  109.35
  -4  -2  -4 1035.77   59.94
  -4  -2  -4 1125.24   63.28
  -4  -2  -4 1175.46   52.14
   4   2   4 1134.74   53.23
  -4  -2  -5   73.30   20.32
  -4  -2  -5   44.10   22.15
   4   2   5   72.28   24.84
  -4  -2  -6  295.57   33.69
  -4  -2  -6  315.46   36.65
   4   2   6  325.08   33.39
  -4  -2  -7  770.84   68.47
  -4  -2  -7  799.57   44.04
   4   2   7  791.73   45.82
  -4  -2  -8 6812.30  126.78
   4   2   8 7030.95  138.29
   4   2   8 7040.68  141.91
   4   2   8 6609.53  139.93
   4   2   8 6693.63  134.03
   4   2   8 6472.02  124.75
   4   2   9 1698.18   68.81
   4   2   9 1524.08   60.40
   4   2   9 1543.29   55.96
   4   2   9 1657.87   67.58
   4   2   9 1618.85   59.42
   4   2   9 1572.52   57.24
   4   2   9 1594.76   56.63
   4   2  10 2528.44   86.07
   4   2  10 2408.04   73.00
   4   2  10 2583.48   72.02
   4   2  10 2641.85   86.17
   4   2  10 2647.64   73.89
   4   2  10 2638.76   74.64
  -4  -2 -11 1358.04   56.65
   4   2  11 1204.36   59.75
   4   2  11 1334.49   56.56
   4   2  11 1337.39   53.39
   4   2  11 1244.92   61.64
   4   2  11 1408.08   59.16
   4   2  11 1381.46   53.96
   4   2  11 1388.93   58.04
  -4  -2 -12 6614.39  170.82
   4   2  12 7111.66  156.77
   4   2  12 6991.48  157.58
   4   2  12 6799.62  159.21
   4   2  12 7080.16  157.55
   4   2  12 6872.07  157.00
   4   2  1311867.37  209.92
   4   2  1311729.44  212.06
   4   2  1312023.26  220.47
   4   2  1311357.24  204.70
   4   2  1311608.77  205.53
   4   2  14 4433.97   96.14
   4   2  14 4266.80   98.76
   4   2  14 4433.45  110.09
   4   2  14 4182.74   94.15
   4   2  14 4145.69   88.43
   4   2  14 4331.16  100.55
   4   2  15   24.96   29.34
   4   2  15   69.47   28.12
   4   2  15   98.87   34.45
   4   2  15   53.24   21.75
   4   2  15   64.57   24.61
   4   2  16  107.59   35.54
  -4  -2 -16  120.03   32.80
   4   2  16  153.40   36.14
   4   2  16   85.10   24.79
   4   2  16   90.64   31.60
   4   2  17   -2.06   27.89
   4   2  17   28.67   35.67
   4   2  17   21.81   29.71
   4   2  17   37.93   29.30
   4   2  18 1416.89   54.76
   4   2  18 1322.92   57.25
   4   2  18 1356.16   58.40
   4   2  18 1297.99   60.20
   4   2  19  880.59   49.94
   4   2  19  844.11   52.55
   4   2  19  912.09   49.19
   4   2  19  911.48   54.82
   4   2  20 4341.23  102.37
  -4  -2 -20 4180.16   98.96
   4   2  20 4222.09  109.91
   4   2  20 4215.12  121.30
   4   2  20 4103.62  117.73
   4   3 -17  496.80   50.63
   4   3 -17  427.65   41.63
   4   3 -16  118.58   32.66
   4   3 -15  971.64   53.22
   4   3 -15 1023.25   54.20
  -4  -3  14 1421.06   57.38
   4   3 -14 1315.74   61.34
   4   3 -14 1386.91   57.36
  -4  -3  13 1179.23   54.97
   4   3 -13 1089.48   56.36
   4   3 -13 1124.33   62.65
   4   3 -13 1080.40   49.02
  -4  -3  12 3167.27   85.25
   4   3 -12 3199.32   98.85
   4   3 -12 3082.73   97.88
   4   3 -12 3327.01   86.88
  -4  -3  11  134.67   32.82
   4   3 -11  122.34   43.66
   4   3 -11  118.01   35.04
   4   3 -11  112.13   42.81
   4   3 -11  156.81   32.73
  -4  -3  10 1820.55   65.33
   4   3 -10 1851.18   75.76
   4   3 -10 1738.53   64.13
   4   3 -10 1865.26   74.71
   4   3 -10 1798.43   64.68
  -4  -3   9   43.20   24.30
   4   3  -9   31.03   33.04
   4   3  -9   48.30   27.89
   4   3  -9   30.34   26.40
   4   3  -9   35.13   25.79
   4   3  -8 8874.92  196.41
  -4  -3   8 9182.91  183.45
   4   3  -8 9144.15  160.60
   4   3  -8 9369.52  145.00
   4   3  -8 9596.41  165.85
   4   3  -8 9355.36  144.27
   4   3  -7  559.26   46.98
  -4  -3   7  552.39   47.80
   4   3  -7  557.80   49.23
   4   3  -7  574.74   39.40
   4   3  -7  639.80   48.06
   4   3  -7  617.47   38.07
   4   3  -6  980.56   56.98
  -4  -3   6 1046.00   54.09
   4   3  -6  970.99   55.23
   4   3  -6  949.18   49.03
   4   3  -6  972.57   54.35
   4   3  -5 5264.11  150.34
  -4  -3   5 5451.56  121.30
   4   3  -5 5030.31  128.24
   4   3  -5 4793.02  108.23
   4   3  -4 8041.29  181.52
  -4  -3   4 7984.69  183.50
   4   3  -4 7236.75  190.37
   4   3  -3 6995.30  162.47
  -4  -3   3 6935.86  165.13
  -4  -3   3 6217.75  145.85
  -4  -3   3 6989.21  173.64
   4   3  -2 2841.78  103.96
  -4  -3   2 3096.69  112.09
  -4  -3   2 2624.08   85.97
  -4  -3   2 2961.75  113.98
   4   3  -1  537.31   38.74
  -4  -3   1  530.67   37.75
  -4  -3   1  496.51   36.31
  -4  -3   1  552.51   46.18
   4   3   030750.13  467.15
  -4  -3   031805.09  470.54
  -4  -3   028664.66  483.13
  -4  -3   029984.47  445.60
  -4  -3  -1  962.64   62.89
  -4  -3  -1 1059.13   58.50
  -4  -3  -1 1022.04   58.41
  -4  -3  -1  946.21   56.10
  -4  -3  -1 1028.67   47.02
   4   3   1 1037.83   48.95
  -4  -3  -248337.43  724.85
  -4  -3  -245229.83  631.44
  -4  -3  -246035.35  642.91
   4   3   246300.01  645.02
  -4  -3  -3 5546.97  145.41
  -4  -3  -3 5840.64  134.64
  -4  -3  -3 5910.21  135.46
   4   3   3 5804.90  145.83
  -4  -3  -4 1769.63   71.50
  -4  -3  -4 1750.50   63.26
  -4  -3  -4 1923.91   65.32
   4   3   4 1839.84   65.97
  -4  -3  -5   10.89   17.81
  -4  -3  -5  -27.38   26.79
   4   3   5   -8.69   21.94
  -4  -3  -6 5234.50  131.75
  -4  -3  -6 5495.12  134.48
   4   3   6 5835.97  137.56
  -4  -3  -7 5138.77  129.66
  -4  -3  -7 5172.69  126.72
   4   3   7 5157.39  127.51
  -4  -3  -8 1432.93   57.58
  -4  -3  -8 1512.69   56.16
   4   3   8 1391.00   58.22
   4   3   8 1405.23   60.05
   4   3   8 1433.91   55.72
   4   3   8 1495.75   55.34
   4   3   8 1323.26   57.34
  -4  -3  -911656.99  220.43
   4   3   911791.36  229.44
   4   3   911067.66  208.05
   4   3   910716.09  196.12
   4   3   911789.76  218.70
   4   3   911297.11  207.15
   4   3   911363.08  219.51
   4   3   911332.14  205.22
  -4  -3 -10 3482.43   94.98
  -4  -3 -10 3300.67   91.60
   4   3  10 3249.59   96.19
   4   3  10 3277.68   84.69
   4   3  10 3434.80   85.55
   4   3  10 3421.81   91.18
   4   3  10 3522.89   84.85
   4   3  10 3677.86   89.93
   4   3  10 3362.64   86.66
  -4  -3 -11 7045.23  138.26
   4   3  11 7011.92  132.85
   4   3  11 7220.57  119.56
   4   3  11 6986.94  126.57
   4   3  11 7173.05  127.09
   4   3  11 7135.28  116.41
   4   3  11 7329.46  130.53
  -4  -3 -12 2682.34   94.07
   4   3  12 3085.89   81.32
   4   3  12 2911.77   80.45
   4   3  12 2936.27   86.50
   4   3  12 2988.92   80.53
   4   3  12 2991.81   79.70
   4   3  13 3251.55   83.13
   4   3  13 3245.01   77.71
   4   3  13 3231.84   86.42
   4   3  13 3115.87   78.60
   4   3  13 3274.88   82.66
   4   3  14 5498.84  108.62
   4   3  14 5359.57  104.09
   4   3  14 5537.75  114.38
   4   3  14 5410.84  102.42
   4   3  14 5371.50  102.37
   4   3  15  733.37   46.66
  -4  -3 -15  845.61   42.12
   4   3  15  730.50   52.23
   4   3  15  831.92   43.74
   4   3  15  756.79   45.52
   4   3  16 2496.60   70.59
  -4  -3 -16 2557.08   71.72
   4   3  16 2462.20   81.74
   4   3  16 2604.47   70.01
   4   3  16 2514.73   75.26
   4   3  17   25.56   31.41
  -4  -3 -17   40.80   30.57
   4   3  17   15.90   38.19
   4   3  17   -9.73   27.13
   4   3  17    7.55   33.09
   4   3  18 2171.63   70.00
   4   3  18 2121.74   72.26
   4   3  18 2169.21   65.50
   4   3  18 2165.99   70.22
   4   3  19 2196.68   79.49
   4   3  19 2201.05   74.58
   4   3  19 2245.95   72.14
   4   3  19 2183.40   73.79
   4   3  20 1660.42   63.90
   4   3  20 1711.15   67.87
   4   3  20 1751.08   67.12
   4   3  20 1590.78   70.67
   4   4 -17  941.93   52.33
   4   4 -16  631.43   46.25
  -4  -4  15 1397.34   69.93
   4   4 -15 1451.00   67.66
   4   4 -15 1432.14   63.87
   4   4 -15 1433.62   60.62
  -4  -4  14  901.39   49.58
   4   4 -14  880.08   58.23
   4   4 -14  865.38   56.14
   4   4 -14  888.57   53.08
  -4  -4  13  420.54   41.50
   4   4 -13  442.98   40.65
   4   4 -13  437.13   46.79
   4   4 -13  421.59   35.20
  -4  -4  12   92.41   31.43
   4   4 -12   60.10   38.72
   4   4 -12   99.31   28.89
   4   4 -12   46.14   36.54
   4   4 -12  111.30   25.85
  -4  -4  11 1793.19   65.98
   4   4 -11 1838.57   72.91
   4   4 -11 1703.82   60.67
   4   4 -11 1843.15   76.24
   4   4 -11 1830.07   67.19
  -4  -4  10  143.67   27.69
   4   4 -10  121.23   37.52
   4   4 -10  134.14   33.18
   4   4 -10  151.89   35.62
   4   4 -10  163.88   33.34
   4   4  -9  563.88   39.44
   4   4  -9  589.74   49.34
   4   4  -9  598.55   44.60
   4   4  -9  615.31   54.90
   4   4  -9  516.81   44.08
   4   4  -8 7398.14  158.78
  -4  -4   8 8057.44  156.77
   4   4  -8 7824.61  132.59
   4   4  -8 7731.00  150.25
   4   4  -8 8129.28  130.11
   4   4  -8 7822.43  152.24
   4   4  -8 8206.47  135.82
   4   4  -7 6145.59  149.38
  -4  -4   7 6967.67  153.97
   4   4  -7 6635.15  132.02
   4   4  -7 6162.91  142.40
   4   4  -7 6611.49  127.99
   4   4  -7 6719.13  147.36
   4   4  -7 6824.24  132.15
   4   4  -6   76.77   31.63
  -4  -4   6   76.19   23.24
   4   4  -6   78.47   25.73
   4   4  -6   84.35   34.29
   4   4  -6   83.94   19.82
   4   4  -6   74.85   37.35
   4   4  -6   76.13   20.20
   4   4  -5 4636.50  121.22
  -4  -4   5 4959.22  116.97
   4   4  -5 4393.77  110.00
   4   4  -5 4563.67   99.70
   4   4  -5 4480.81  114.59
   4   4  -4  959.39   53.81
  -4  -4   4  960.64   54.28
   4   4  -4  846.47   51.52
   4   4  -4  939.85   64.17
   4   4  -3  829.48   50.55
  -4  -4   3  821.07   45.96
  -4  -4   3  763.69   50.47
   4   4  -223589.25  392.51
  -4  -4   223122.01  358.98
  -4  -4   223905.90  392.54
   4   4  -1 3642.78  131.98
  -4  -4   1 3747.91  124.93
  -4  -4   1 3231.00  121.52
  -4  -4   1 3904.88  150.07
   4   4   0 3847.19  138.58
  -4  -4   0 3937.09  134.31
  -4  -4   0 3481.26  125.49
  -4  -4   0 4121.89  146.36
  -4  -4  -115761.14  190.21
   4   4   117038.89  318.44
  -4  -4  -2 1299.80   69.01
  -4  -4  -2 1294.24   54.93
  -4  -4  -2 1300.09   54.97
   4   4   2 1333.78   55.15
  -4  -4  -335513.95  712.40
  -4  -4  -336551.44  526.95
  -4  -4  -333130.81  512.85
   4   4   335210.48  513.96
  -4  -4  -4 1813.49   62.23
   4   4   4 1944.47   68.04
  -4  -4  -5 1375.19   57.74
  -4  -4  -5 1417.03   57.57
   4   4   5 1420.59   59.71
  -4  -4  -6 5518.04  134.27
  -4  -4  -6 5754.89  132.07
   4   4   6 5555.36  132.18
  -4  -4  -7  536.47   37.24
  -4  -4  -7  563.51   39.52
   4   4   7  571.42   38.33
   4   4   7  516.88   38.47
   4   4   7  485.59   32.33
   4   4   7  538.96   40.29
   4   4   7  535.42   43.66
  -4  -4  -8   70.65   26.51
  -4  -4  -8   71.33   25.17
   4   4   8   64.98   24.53
   4   4   8   75.75   24.05
   4   4   8   55.70   20.62
   4   4   8   67.38   25.37
   4   4   8   75.25   24.91
   4   4   8   69.82   19.42
  -4  -4  -9  760.68   50.63
  -4  -4  -9  837.65   50.97
   4   4   9  656.99   44.20
   4   4   9  768.87   44.78
   4   4   9  737.53   42.93
   4   4   9  754.94   47.31
   4   4   9  777.92   42.22
   4   4   9  770.78   43.82
  -4  -4 -10  602.62   43.46
  -4  -4 -10  611.66   41.66
   4   4  10  554.53   42.25
   4   4  10  599.60   40.74
   4   4  10  578.27   39.88
   4   4  10  628.30   44.72
   4   4  10  626.95   40.23
   4   4  10  612.29   36.00
   4   4  10  589.33   40.40
  -4  -4 -1117114.92  327.32
  -4  -4 -1118220.61  326.48
   4   4  1116620.43  297.67
   4   4  1117772.71  316.13
   4   4  1116371.31  298.81
   4   4  1117535.62  311.75
   4   4  1117524.91  314.24
   4   4  1214435.89  247.59
  -4  -4 -1213980.99  227.52
   4   4  1214200.70  233.61
   4   4  1214542.77  247.46
   4   4  13 2606.84   73.56
  -4  -4 -13 2341.28   69.53
   4   4  13 2335.12   69.07
   4   4  13 2250.99   68.58
   4   4  13 2470.04   72.64
   4   4  14  247.05   32.59
  -4  -4 -14  252.78   31.68
   4   4  14  272.32   34.41
   4   4  14  302.59   35.14
   4   4  15   78.07   32.33
  -4  -4 -15   68.15   27.22
   4   4  15   50.76   29.23
   4   4  15   30.21   28.49
   4   4  16   -9.32   26.01
  -4  -4 -16   -5.99   27.31
   4   4  16   51.33   33.87
   4   4  16   10.41   28.25
   4   4  17   33.09   24.61
  -4  -4 -17   12.88   27.83
   4   4  17   27.90   29.13
   4   4  17    2.07   32.33
   4   4  18 1922.88   70.76
  -4  -4 -18 1893.02   62.71
   4   4  18 1889.58   62.96
   4   4  18 1857.44   69.54
   4   4  19 2262.29   69.53
   4   4  19 2241.99   74.49
   4   4  19 2296.24   73.61
   4   4  20  150.00   33.66
   4   4  20  105.29   37.84
   4   4  20  115.14   38.05
   4   5 -17 1457.72   76.00
   4   5 -17 1418.25   59.87
  -4  -5  16   -1.05   34.05
   4   5 -16  -38.17   36.19
   4   5 -16   -6.78   28.98
  -4  -5  15 2773.83   78.22
   4   5 -15 2802.82   96.31
   4   5 -15 2721.73   84.82
   4   5 -15 2795.43   77.19
  -4  -5  14   23.40   28.80
   4   5 -14   83.44   39.50
   4   5 -14   -5.03   37.58
   4   5 -14   39.33   31.78
  -4  -5  13  809.50   48.62
   4   5 -13  767.51   55.79
   4   5 -13  841.23   53.85
   4   5 -13  816.37   49.50
  -4  -5  12 5010.94  103.78
   4   5 -12 4773.92  112.19
   4   5 -12 5034.68  115.02
   4   5 -12 4731.52  114.40
   4   5 -12 4799.11  101.13
  -4  -5  11 9859.52  164.76
   4   5 -11 9818.49  183.38
   4   5 -11 9629.11  161.39
   4   5 -1110204.46  189.73
   4   5 -11 9866.26  165.20
   4   5 -10 7522.14  143.99
   4   5 -10 7781.14  158.50
   4   5 -10 7286.46  137.48
   4   5 -10 7626.74  162.88
   4   5 -10 7475.76  141.89
   4   5  -9 1587.60   62.12
   4   5  -9 1698.97   68.71
   4   5  -9 1685.98   68.21
   4   5  -9 1609.13   73.71
   4   5  -9 1662.77   62.44
   4   5  -8 6851.16  189.27
   4   5  -8 6880.65  155.28
   4   5  -8 6924.87  169.85
   4   5  -8 7191.03  156.11
   4   5  -8 6872.33  174.33
   4   5  -8 7364.11  169.09
   4   5  -7 3360.53  105.32
  -4  -5   7 3661.43  111.81
   4   5  -7 3667.52   86.81
   4   5  -7 3387.46  105.73
   4   5  -7 3716.90   89.82
   4   5  -7 3905.29  116.54
   4   5  -7 3609.00   90.22
   4   5  -6 1148.40   60.79
  -4  -5   6 1344.01   65.88
   4   5  -6 1338.52   55.71
   4   5  -6 1249.60   61.52
   4   5  -6 1307.40   53.11
   4   5  -6 1389.51   67.82
   4   5  -6 1296.64   58.65
   4   5  -5  525.76   43.11
  -4  -5   5  541.04   46.55
   4   5  -5  495.16   35.74
   4   5  -5  536.74   41.87
   4   5  -5  523.89   41.46
   4   5  -5  509.13   47.86
   4   5  -5  510.99   36.31
   4   5  -4 2793.77   89.25
  -4  -5   4 2709.87   91.10
   4   5  -4 2808.45   83.54
   4   5  -4 2731.50   79.50
   4   5  -3 4101.88  118.57
   4   5  -3 3822.27   97.36
   4   5  -3 4145.62  115.83
   4   5  -224510.51  421.29
  -4  -5   224521.06  378.22
   4   5  -1 1786.51   69.53
  -4  -5   1 1703.92   59.45
   4   5   013772.11  329.12
  -4  -5   013642.72  309.50
  -4  -5   012784.97  303.35
   4   5   121753.69  374.39
  -4  -5  -122801.63  350.26
  -4  -5  -120374.34  318.75
  -4  -5  -2 2197.80   69.84
  -4  -5  -2 1990.02   65.81
  -4  -5  -3 1779.41   60.35
  -4  -5  -3 1641.06   69.82
  -4  -5  -4 3093.51  109.64
  -4  -5  -5 4562.51  149.05
  -4  -5  -5 4467.79  145.44
  -4  -5  -6 5408.80  122.33
  -4  -5  -6 5771.86  107.23
   4   5   6 5510.90  114.63
   4   5   6 5406.29  112.01
  -4  -5  -7   19.38   24.60
  -4  -5  -7   18.95   23.40
   4   5   7   11.64   19.29
   4   5   7    2.34   19.86
   4   5   7    6.77   15.70
  -4  -5  -8  228.08   30.50
  -4  -5  -8  235.86   27.68
   4   5   8  215.85   27.30
  -4  -5  -8  241.13   26.36
   4   5   8  214.99   24.93
   4   5   8  219.44   31.16
  -4  -5  -9 5709.50  123.10
  -4  -5  -9 6040.89  120.53
   4   5   9 5797.42  119.03
  -4  -5  -9 5326.41  107.73
   4   5   9 5732.74  112.21
   4   5   9 5486.15  108.14
   4   5   9 5588.36  116.66
  -4  -5 -10   41.16   26.72
  -4  -5 -10   65.88   21.32
   4   5  10    8.73   30.92
   4   5  10   55.01   24.05
  -4  -5 -10   39.30   24.12
   4   5  10   11.18   22.50
   4   5  10   40.62   22.54
   4   5  10   62.93   26.47
  -4  -5 -11 1116.13   60.40
   4   5  11 1136.30   58.32
  -4  -5 -11 1181.09   48.65
   4   5  11 1167.59   49.27
   4   5  11 1148.76   51.36
   4   5  12 1454.68   60.55
  -4  -5 -12 1460.88   52.57
   4   5  12 1284.46   59.62
   4   5  12 1456.24   56.67
   4   5  12 1431.33   54.74
   4   5  13  666.87   44.84
  -4  -5 -13  641.59   40.04
   4   5  13  685.26   48.28
   4   5  13  697.42   43.46
   4   5  13  694.17   44.28
   4   5  14  793.13   46.58
  -4  -5 -14  707.20   44.97
   4   5  14  742.36   49.97
   4   5  14  775.32   43.75
   4   5  14  778.57   47.04
   4   5  15 1886.98   66.42
  -4  -5 -15 1942.95   63.09
   4   5  15 1912.21   67.52
   4   5  15 1990.45   64.47
   4   5  15 1788.38   63.71
   4   5  16  539.05   37.25
  -4  -5 -16  584.25   36.61
   4   5  16  596.97   47.44
   4   5  16  516.44   41.70
   4   5  16  575.41   39.93
   4   5  17  958.31   51.02
  -4  -5 -17  873.84   46.16
   4   5  17  938.28   54.08
   4   5  17  853.32   44.93
   4   5  17  805.51   47.27
   4   5  18 2420.89   77.67
  -4  -5 -18 2616.85   77.82
   4   5  18 2473.65   76.87
   4   5  18 2434.38   73.41
   4   5  18 2477.94   75.70
   4   5  19 2247.13   76.63
  -4  -5 -19 2336.03   69.37
   4   5  19 2226.20   81.78
   4   5  19 2121.15   79.78
   4   5  19 2241.26   73.91
   4   5  20  -13.97   37.94
   4   5  20   19.97   38.32
   4   5  20   32.80   33.77
   4   5  20   25.20   34.10
  -4  -6  17  357.35   47.80
   4   6 -17  315.26   43.64
  -4  -6  16 1735.46   68.72
   4   6 -16 1740.15   73.04
   4   6 -16 1669.85   60.62
  -4  -6  15   24.90   26.56
   4   6 -15    3.88   43.22
   4   6 -15   37.54   33.71
  -4  -6  14 1345.10   57.01
   4   6 -14 1281.80   61.24
   4   6 -14 1202.57   63.34
   4   6 -14 1347.96   59.46
  -4  -6  13 3271.18  100.47
   4   6 -13 3278.16  107.35
   4   6 -13 3151.81  101.81
   4   6 -13 3106.55  117.54
  -4  -6  12  928.02   48.75
   4   6 -12  880.69   55.19
   4   6 -12  936.33   57.18
   4   6 -12  921.97   46.85
   4   6 -11 7047.63  124.70
   4   6 -11 6933.52  140.35
   4   6 -11 6851.13  145.49
   4   6 -11 6703.18  131.10
   4   6 -10  667.88   39.23
   4   6 -10  635.40   51.83
   4   6 -10  683.79   48.76
   4   6 -10  681.80   47.58
   4   6  -916127.73  236.57
   4   6  -916223.38  246.82
   4   6  -916409.81  260.82
   4   6  -916570.12  238.19
   4   6  -8  886.98   45.63
   4   6  -8  808.37   52.63
   4   6  -8  765.00   55.43
   4   6  -8  809.62   52.96
   4   6  -7  623.39   52.66
   4   6  -7  720.54   43.48
   4   6  -7  692.99   48.44
   4   6  -7  817.14   53.70
   4   6  -7  717.43   47.27
   4   6  -6  813.94   50.53
   4   6  -6  974.01   49.81
   4   6  -6  893.68   49.25
   4   6  -6  933.03   58.64
   4   6  -6  925.28   54.67
   4   6  -5  636.41   47.91
  -4  -6   5  574.30   45.65
   4   6  -5  600.75   38.54
   4   6  -5  616.37   53.45
   4   6  -5  621.80   51.70
   4   6  -5  642.49   43.78
   4   6  -4  404.06   40.66
  -4  -6   4  377.32   39.45
   4   6  -4  413.75   32.22
   4   6  -4  444.55   38.95
   4   6  -3 3606.37  104.76
  -4  -6   3 3467.04  118.24
   4   6  -3 3327.50   86.07
   4   6  -3 3357.57   90.98
   4   6  -2 5824.57  130.47
  -4  -6   2 5932.87  122.63
  -4  -6   2 6044.82  134.18
   4   6  -2 5429.22  117.59
   4   6  -2 5623.40  146.03
   4   6  -122587.59  321.28
  -4  -6   122988.18  292.89
  -4  -6   121541.04  369.55
   4   6  -121736.42  297.91
   4   6  -121744.91  324.22
  -4  -6   025370.38  377.82
  -4  -6   025924.22  413.34
  -4  -6  -1 2092.04   65.48
  -4  -6  -1 1912.37   66.86
  -4  -6  -1 2026.42   83.22
  -4  -6  -2 4326.95  138.46
  -4  -6  -2 4462.01  148.24
   4   6   2 4384.88  145.49
  -4  -6  -3 1649.61   62.72
   4   6   3 1628.09   60.17
  -4  -6  -4 8189.14  205.27
  -4  -6  -4 8536.30  147.49
   4   6   4 9197.46  166.41
   4   6   4 8686.20  171.16
  -4  -6  -5 3434.65   96.68
  -4  -6  -5 3438.92   97.54
   4   6   5 3648.83   91.28
   4   6   5 3316.64   84.01
   4   6   5 3575.24   99.02
   4   6   5 3356.52   91.87
   4   6   5 3347.32  104.92
  -4  -6  -6 4726.24  103.33
  -4  -6  -6 4811.75  100.28
   4   6   6 5128.84  111.10
   4   6   6 4776.69  111.86
   4   6   6 4844.49  109.22
   4   6   6 4719.55  101.77
   4   6   6 4770.58  100.51
  -4  -6  -7 2350.65   77.12
  -4  -6  -7 2463.56   70.81
   4   6   7 2453.21   75.30
   4   6   7 2417.10   72.44
  -4  -6  -7 2377.61   68.98
   4   6   7 2683.17   80.14
   4   6   7 2269.48   72.24
   4   6   7 2427.03   89.32
  -4  -6  -8 3844.53  100.97
  -4  -6  -8 3946.19   93.90
   4   6   8 3989.05   97.86
   4   6   8 3918.63   95.40
  -4  -6  -8 3737.50   88.00
   4   6   8 3952.04   93.93
   4   6   8 3708.23   81.69
   4   6   8 3895.39   89.15
   4   6   8 3840.78   90.48
  -4  -6  -9 1318.88   68.90
  -4  -6  -9 1364.03   60.31
   4   6   9 1387.19   57.52
   4   6   9 1440.30   56.37
  -4  -6  -9 1261.08   51.75
   4   6   9 1388.23   58.30
   4   6   9 1312.97   53.06
   4   6   9 1376.33   52.15
   4   6   9 1281.49   55.11
  -4  -6 -10 2433.75   82.02
  -4  -6 -10 2472.73   84.50
   4   6  10 2414.57   82.40
   4   6  10 2510.19   75.44
  -4  -6 -10 2408.27   68.38
   4   6  10 2507.93   80.50
   4   6  10 2474.84   70.61
   4   6  10 2497.46   77.80
   4   6  11 3691.86   93.30
  -4  -6 -11 3755.24   85.37
   4   6  11 3779.34   98.22
   4   6  11 3892.39   85.90
   4   6  11 3751.84   91.10
   4   6  12 5592.39  109.80
  -4  -6 -12 5590.86  100.67
   4   6  12 5547.68  121.00
   4   6  12 5507.57  103.12
   4   6  12 5698.46  105.22
   4   6  12 5562.50  113.79
   4   6  13 2780.58   79.90
  -4  -6 -13 2684.69   74.78
   4   6  13 2650.41   87.57
   4   6  13 2829.05   76.33
   4   6  13 2777.15   83.65
   4   6  14 6680.87  119.55
  -4  -6 -14 6623.82  111.36
   4   6  14 6589.71  126.99
   4   6  14 6738.88  115.56
   4   6  14 6371.81  118.51
   4   6  15 5911.25  128.94
  -4  -6 -15 6091.81  129.52
   4   6  15 5931.92  134.34
   4   6  15 5940.30  128.45
   4   6  15 5987.27  129.03
   4   6  16 1131.61   53.98
  -4  -6 -16 1174.95   50.64
   4   6  16 1218.99   60.45
   4   6  16 1172.31   52.59
   4   6  16 1131.59   53.68
   4   6  17  137.91   34.50
  -4  -6 -17  188.74   30.23
   4   6  17  116.07   37.16
   4   6  17  170.93   32.83
   4   6  17  145.21   30.54
   4   6  18 2126.55   69.71
  -4  -6 -18 2229.73   72.93
   4   6  18 2147.81   74.86
   4   6  18 2229.39   74.94
   4   6  18 2047.29   67.82
   4   6  19  840.28   52.77
  -4  -6 -19  894.46   53.73
   4   6  19  838.05   55.19
   4   6  19  841.27   50.29
   4   6  19  853.96   48.87
  -4  -7  16   36.74   29.73
   4   7 -16   31.04   41.64
  -4  -7  15   43.31   27.77
   4   7 -15   38.89   30.41
   4   7 -15   23.31   34.96
  -4  -7  14  180.43   37.36
   4   7 -14  154.30   41.97
   4   7 -14  162.70   37.39
  -4  -7  13 1094.71   49.94
   4   7 -13  932.78   62.02
   4   7 -13  956.51   61.30
   4   7 -13 1035.48   57.57
  -4  -7  12 1040.24   52.69
   4   7 -12 1016.25   60.34
   4   7 -12 1069.95   61.13
   4   7 -12 1042.24   55.16
   4   7 -11  177.69   30.81
   4   7 -11  175.46   45.28
   4   7 -11  124.21   37.77
   4   7 -11  153.44   32.61
   4   7 -11  140.28   27.30
   4   7 -10  167.48   33.40
   4   7 -10  193.52   38.15
   4   7 -10  168.60   39.19
   4   7 -10  194.03   44.00
   4   7 -10  178.44   37.61
   4   7  -9 3979.80  100.25
   4   7  -9 3869.49  102.53
   4   7  -9 3945.19   97.02
   4   7  -9 3975.70  107.73
   4   7  -9 3782.79   90.55
   4   7  -8  152.42   28.58
   4   7  -8  138.14   38.72
   4   7  -8  112.53   36.51
   4   7  -8  149.96   32.57
   4   7  -8  152.16   33.87
   4   7  -7 1430.19   70.86
   4   7  -7 1575.05   58.44
   4   7  -7 1435.58   88.82
   4   7  -7 1587.01   62.39
   4   7  -7 1592.98   69.22
   4   7  -7 1623.06   61.93
   4   7  -6  134.24   33.42
  -4  -7   6  182.99   37.12
   4   7  -6  159.74   30.36
   4   7  -6  174.15   32.92
   4   7  -6  194.06   30.20
   4   7  -6  147.72   32.31
   4   7  -6  194.37   33.09
   4   7  -5 7747.59  170.65
  -4  -7   5 8604.76  212.76
   4   7  -5 8440.44  142.71
   4   7  -5 8523.73  163.49
   4   7  -5 8853.38  176.14
   4   7  -5 8346.52  148.13
  -4  -7   4    7.89   26.71
   4   7  -4    5.82   23.92
   4   7  -4    4.83   23.50
   4   7  -4    6.09   29.27
   4   7  -4   24.45   22.92
  -4  -7   3 2493.38   91.55
   4   7  -3 2439.64   77.90
   4   7  -3 2363.36   73.99
   4   7  -3 2448.65   77.34
  -4  -7   2 2175.06   77.84
   4   7  -2 2176.38   68.84
   4   7  -2 2183.90   70.93
   4   7  -2 2133.01   81.09
   4   7  -2 2123.66   80.81
  -4  -7   1 1871.44   59.98
  -4  -7   1 1755.46   71.33
   4   7  -1 1756.33   67.05
   4   7  -1 1754.56   72.53
   4   7  -1 1811.15   75.42
   4   7  -1 1694.94   65.15
  -4  -7   0   44.98   21.06
  -4  -7   0   52.39   31.95
   4   7   0   72.58   20.35
   4   7   0   40.85   23.03
   4   7   0   67.54   32.86
  -4  -7  -1   71.38   24.03
  -4  -7  -1   74.98   29.63
   4   7   1   56.92   22.98
   4   7   1   43.08   25.51
   4   7   1   55.04   21.84
   4   7   1   68.87   32.33
  -4  -7  -213596.43  219.46
   4   7   214346.68  221.49
   4   7   214272.84  226.53
   4   7   214672.38  234.08
   4   7   213896.78  220.52
   4   7   214243.50  239.16
   4   7   213527.99  222.78
  -4  -7  -3 4179.79  102.60
   4   7   3 4455.73  106.81
   4   7   3 4162.35   99.71
   4   7   3 4264.80  105.23
   4   7   3 4265.81  113.06
   4   7   3 4314.25   99.29
  -4  -7  -4 7773.35  148.88
  -4  -7  -4 7499.86  143.12
   4   7   4 8066.48  155.41
   4   7   4 7907.94  149.66
   4   7   4 7943.37  157.45
   4   7   4 7857.79  139.87
   4   7   4 7631.16  167.21
   4   7   4 7902.10  157.81
  -4  -7  -5   57.89   21.87
  -4  -7  -5   33.26   19.29
   4   7   5   51.82   24.61
   4   7   5   45.74   23.43
   4   7   5   59.42   31.38
   4   7   5   21.24   20.83
   4   7   5   38.13   29.10
   4   7   5   47.33   20.04
  -4  -7  -6 1622.09   61.18
  -4  -7  -6 1505.57   59.00
   4   7   6 1601.44   64.97
   4   7   6 1525.30   60.18
   4   7   6 1571.79   64.42
   4   7   6 1627.23   56.28
   4   7   6 1515.15   69.05
   4   7   6 1617.95   61.01
   4   7   6 1483.81   58.55
  -4  -7  -7 1982.38   76.38
  -4  -7  -7 2086.68   86.21
   4   7   7 2101.65   76.49
   4   7   7 2106.12   68.87
  -4  -7  -7 2107.80   65.97
   4   7   7 2181.64   76.23
   4   7   7 2044.70   61.99
   4   7   7 2152.70   69.72
   4   7   7 2116.43   67.03
  -4  -7  -8 7009.94  124.37
  -4  -7  -8 7065.60  115.29
   4   7   8 7168.84  134.43
   4   7   8 7141.28  129.00
  -4  -7  -8 6980.57  116.35
   4   7   8 7287.68  136.65
   4   7   8 6859.20  114.46
   4   7   8 7164.11  125.17
   4   7   8 7028.35  127.14
  -4  -7  -9 5442.93  111.24
  -4  -7  -9 5903.79  143.18
   4   7   9 5718.92  146.38
   4   7   9 5864.14  136.32
  -4  -7  -9 5532.77  102.69
   4   7   9 5887.47  151.23
   4   7   9 5690.99  132.46
   4   7   9 5590.36  136.08
   4   7  10  158.34   29.14
  -4  -7 -10  164.43   26.10
   4   7  10  157.02   34.87
   4   7  10  168.47   22.64
   4   7  10  152.61   29.61
   4   7  11 1621.83   63.08
  -4  -7 -11 1547.09   58.93
   4   7  11 1556.18   64.24
   4   7  11 1649.94   57.95
   4   7  11 1569.07   57.22
   4   7  11 1605.72   57.97
   4   7  12  855.33   47.68
  -4  -7 -12  904.30   43.13
   4   7  12  855.58   51.85
   4   7  12  961.01   46.71
   4   7  12  863.38   47.62
   4   7  13  251.30   35.70
  -4  -7 -13  194.50   24.65
   4   7  13  257.42   34.08
   4   7  13  278.27   31.85
   4   7  13  218.73   30.34
   4   7  14 1341.17   54.28
  -4  -7 -14 1360.69   54.84
   4   7  14 1407.74   64.64
   4   7  14 1476.90   57.74
   4   7  14 1272.27   55.83
   4   7  15 1814.29   61.50
  -4  -7 -15 1831.58   63.80
   4   7  15 1715.42   70.40
   4   7  15 1900.67   64.33
   4   7  15 1778.10   61.60
   4   7  16 2234.09   70.75
  -4  -7 -16 2311.76   67.38
   4   7  16 2234.62   79.52
   4   7  16 2270.68   66.27
   4   7  16 2299.84   72.06
   4   7  17   18.34   33.79
  -4  -7 -17    1.88   26.44
   4   7  17   36.86   33.25
   4   7  17   49.75   31.94
   4   7  17   32.55   30.09
   4   7  18  634.83   43.31
  -4  -7 -18  752.58   44.91
   4   7  18  661.01   48.48
   4   7  18  710.70   47.80
   4   7  18  664.82   43.62
  -4  -7 -19  667.23   45.72
   4   7  19  628.05   53.45
   4   7  19  656.92   46.15
   4   7  19  626.87   45.04
  -4  -8  16   75.03   35.85
   4   8 -16   85.09   42.19
  -4  -8  15   23.99   31.55
   4   8 -15   -0.35   39.44
  -4  -8  14 2024.50   87.03
   4   8 -14 1971.31   85.53
   4   8 -14 1915.56   69.80
  -4  -8  13 1541.14   63.80
   4   8 -13 1508.80   73.89
   4   8 -13 1495.13   71.57
   4   8 -13 1508.59   64.58
   4   8 -12  677.39   45.18
   4   8 -12  721.65   54.72
   4   8 -12  687.67   49.21
   4   8 -12  621.47   55.17
   4   8 -12  684.86   53.41
   4   8 -11   78.33   33.96
   4   8 -11   68.18   39.50
   4   8 -11   54.94   39.39
   4   8 -11   90.30   48.82
   4   8 -11  100.96   26.93
   4   8 -10 3783.44   89.17
   4   8 -10 3910.49  102.60
   4   8 -10 3780.54   92.03
   4   8 -10 3802.35  114.11
   4   8 -10 3858.08   97.86
   4   8  -9 2125.61   68.18
   4   8  -9 2061.90   75.31
   4   8  -9 2213.08   73.12
   4   8  -9 2194.54   81.86
   4   8  -9 2168.85   72.81
   4   8  -8  211.15   34.46
   4   8  -8  223.38   37.69
   4   8  -8  270.21   39.42
   4   8  -8  208.91   45.57
   4   8  -8  215.06   30.98
   4   8  -7   10.19   18.98
   4   8  -7   17.15   35.13
   4   8  -7   -5.02   29.78
   4   8  -7    2.06   46.54
   4   8  -7   28.37   32.46
   4   8  -6   91.96   27.25
   4   8  -6   77.62   29.32
   4   8  -6   81.80   37.75
   4   8  -6   70.65   28.37
  -4  -8   5  183.40   42.07
   4   8  -5  177.08   28.60
   4   8  -5  177.51   30.94
   4   8  -5  153.59   31.96
   4   8  -5  155.62   26.26
  -4  -8   4   20.73   37.97
   4   8  -4   55.77   24.71
   4   8  -4   29.84   25.53
   4   8  -4   24.89   35.00
   4   8  -4   16.40   25.37
  -4  -8   3    2.29   30.79
   4   8  -3   11.27   22.05
   4   8  -3   -2.30   24.64
   4   8  -3   28.11   25.96
  -4  -8   2  183.59   38.25
   4   8  -2  174.77   27.52
   4   8  -2  181.13   28.78
   4   8  -2  193.76   29.12
  -4  -8   2  176.27   27.08
  -4  -8   1 1216.99   73.31
   4   8  -1 1161.29   50.00
   4   8  -1 1149.57   54.66
   4   8  -1 1146.55   63.96
   4   8  -1 1131.88   53.24
   4   8  -1 1108.07   52.33
  -4  -8   0   35.47   31.58
   4   8   0   28.87   15.74
   4   8   0   27.72   24.39
   4   8   0  109.21   33.80
   4   8   0   27.96   26.03
   4   8   0   20.66   15.07
  -4  -8  -1   25.38   20.28
  -4  -8  -1   10.53   27.88
   4   8   1   47.76   22.32
   4   8   1   14.47   23.63
   4   8   1   30.53   25.92
   4   8   1   29.25   21.13
   4   8   1   36.82   16.41
  -4  -8  -2 1456.09   63.93
   4   8   2 1391.02   54.64
   4   8   2 1295.49   55.62
   4   8   2 1402.17   65.28
   4   8   2 1328.46   53.60
   4   8   2 1373.28   51.99
  -4  -8  -3   15.00   15.79
   4   8   3   19.36   20.08
   4   8   3    0.43   21.81
   4   8   3    9.82   18.29
   4   8   3    7.29   24.38
   4   8   3   10.63   22.12
   4   8   3   10.10   19.43
  -4  -8  -4  615.38   36.04
   4   8   4  638.72   44.39
   4   8   4  620.98   40.30
   4   8   4  572.06   44.73
   4   8   4  619.68   36.80
   4   8   4  571.24   50.85
   4   8   4  575.43   38.33
   4   8   4  636.74   38.51
  -4  -8  -5 4245.60   96.82
  -4  -8  -5 4048.77  113.68
   4   8   5 4167.40  109.41
   4   8   5 4206.54   93.67
   4   8   5 4285.39  104.77
   4   8   5 4384.99  102.66
   4   8   5 4539.43  120.12
   4   8   5 4347.60   94.73
   4   8   5 4379.33   89.30
   4   8   5 4195.82   99.01
  -4  -8  -6 4173.76  104.73
  -4  -8  -6 4149.04  127.96
   4   8   6 4194.87  108.99
   4   8   6 4487.61  101.77
   4   8   6 4431.75  107.58
   4   8   6 4409.05   86.35
   4   8   6 4487.13  114.74
   4   8   6 4269.49  100.44
   4   8   6 4424.84   99.99
   4   8   6 4360.95   96.99
  -4  -8  -7 2381.53   74.73
  -4  -8  -7 2272.70   79.58
   4   8   7 2373.05   88.91
   4   8   7 2445.23   73.81
  -4  -8  -7 2472.43   68.24
   4   8   7 2401.42   78.05
   4   8   7 2398.54   66.29
   4   8   7 2350.85   83.37
   4   8   7 2584.21   74.60
   4   8   7 2451.45   73.03
  -4  -8  -815537.37  302.76
  -4  -8  -815440.46  283.98
   4   8   815597.93  298.08
   4   8   816599.39  295.74
  -4  -8  -816611.65  290.16
   4   8   816903.24  306.63
   4   8   816244.96  288.65
   4   8   816543.55  302.23
   4   8   816619.56  295.17
   4   8   9 7884.90  156.91
  -4  -8  -9 7803.78  152.99
   4   8   9 8016.80  166.21
   4   8   9 7867.08  150.00
   4   8   9 7771.87  160.64
   4   8  10 2711.06   77.59
  -4  -8 -10 2448.68   69.86
   4   8  10 2497.71   83.73
   4   8  10 2627.96   71.27
   4   8  10 2616.50   73.18
   4   8  11 3083.33   79.85
  -4  -8 -11 3219.43   78.75
   4   8  11 3213.56   90.75
   4   8  11 3327.41   78.52
   4   8  11 3356.07   82.62
   4   8  11 3206.90   81.51
   4   8  12 4219.68   98.32
  -4  -8 -12 4356.93   94.08
   4   8  12 4233.06   99.90
   4   8  12 4650.57   94.52
   4   8  12 4319.53   98.12
   4   8  13 2477.33   77.27
  -4  -8 -13 2753.56   70.21
   4   8  13 2743.68   85.35
   4   8  13 2685.81   75.83
   4   8  13 2687.50   74.64
  -4  -8 -14 1069.39   49.30
   4   8  14 1175.74   58.13
   4   8  14 1075.74   47.29
   4   8  14  936.53   51.33
  -4  -8 -15 3718.36   87.25
   4   8  15 3714.76   97.75
   4   8  15 3667.52   82.32
   4   8  15 3750.33   89.36
  -4  -8 -16 4955.10  103.28
   4   8  16 4769.72  111.55
   4   8  16 4735.99  106.10
   4   8  16 4845.23  109.90
  -4  -8 -17  642.35   41.18
   4   8  17  636.33   56.75
   4   8  17  608.86   40.66
   4   8  17  680.78   43.06
  -4  -8 -18  197.64   30.19
   4   8  18  231.23   43.53
   4   8  18  239.19   38.75
   4   8  18  240.99   34.38
  -4  -9  15  499.75   42.87
   4   9 -15  547.45   56.51
  -4  -9  14  193.38   33.06
   4   9 -14  219.19   41.04
  -4  -9  13 2299.71   70.07
   4   9 -13 2161.32   84.24
   4   9 -13 2019.34   72.50
   4   9 -12  271.29   36.96
   4   9 -12  267.44   51.97
   4   9 -12  268.01   43.22
   4   9 -12  250.65   49.45
   4   9 -12  277.50   41.32
   4   9 -11  741.85   48.23
   4   9 -11  782.29   54.63
   4   9 -11  743.16   51.72
   4   9 -11  773.77   61.47
   4   9 -11  699.85   50.41
   4   9 -10 7617.72  152.07
   4   9 -10 7910.64  179.66
   4   9 -10 7467.28  165.70
   4   9 -10 7565.44  182.69
   4   9 -10 7952.53  161.31
   4   9  -9  362.05   39.32
   4   9  -9  315.92   42.74
   4   9  -9  282.20   41.30
   4   9  -9  299.03   44.18
   4   9  -9  286.25   39.92
   4   9  -8 2610.93   71.57
   4   9  -8 2407.39   87.57
   4   9  -8 2552.89   73.54
   4   9  -8 2521.73   89.73
   4   9  -8 2480.83   80.35
   4   9  -7   47.06   29.44
   4   9  -7   68.68   33.17
   4   9  -7   51.55   41.66
   4   9  -7   13.24   29.00
   4   9  -6  288.59   34.15
   4   9  -6  301.42   34.95
   4   9  -6  254.25   47.52
   4   9  -6  261.21   34.76
   4   9  -5 1997.40   62.81
   4   9  -5 2037.85   65.92
   4   9  -5 2079.81   87.27
   4   9  -5 2009.32   71.69
   4   9  -4   72.71   27.26
   4   9  -4   87.38   26.84
   4   9  -4   98.78   29.86
   4   9  -4  100.80   29.86
  -4  -9   4   79.70   25.08
  -4  -9   3 1621.55   73.41
   4   9  -3 1759.13   66.36
   4   9  -3 1607.34   61.78
   4   9  -3 1788.94   76.60
   4   9  -3 1589.63   57.07
  -4  -9   3 1598.65   60.58
  -4  -9   2 1520.65   81.55
   4   9  -2 1576.59   58.12
   4   9  -2 1628.52   62.36
   4   9  -2 1578.05   60.98
  -4  -9   2 1673.31   57.58
  -4  -9   1 1400.38   65.24
   4   9  -1 1347.22   54.21
   4   9  -1 1422.68   56.02
   4   9  -1 1379.24   67.99
   4   9  -1 1314.26   55.38
  -4  -9   1 1386.84   55.26
  -4  -9   0   -6.30   33.50
   4   9   0   36.68   22.91
   4   9   0   38.37   27.00
   4   9   0  -25.45   35.52
   4   9   0   25.51   17.77
   4   9   0   21.86   15.31
  -4  -9  -1 2983.79  115.51
   4   9   1 2896.35   80.87
   4   9   1 2836.70   85.04
   4   9   1 3057.04   96.65
   4   9   1 2836.05   82.02
   4   9   1 2934.97   75.77
   4   9   1 2537.79   93.00
  -4  -9  -2 1816.40   78.87
   4   9   2 1956.95   69.21
   4   9   2 1928.36   71.24
   4   9   2 1988.31   82.24
   4   9   2 1901.68   62.27
   4   9   2 1956.91   60.64
   4   9   2 1881.31   63.15
  -4  -9  -3 3667.77   90.86
  -4  -9  -3 3915.87  110.45
   4   9   3 3926.05   88.95
   4   9   3 3779.99   91.43
   4   9   3 3806.30  110.84
   4   9   3 3717.10   89.80
   4   9   3 3796.03   82.33
   4   9   3 3808.47   89.08
  -4  -9  -4  395.88   35.85
   4   9   4  386.95   38.43
   4   9   4  352.81   30.49
   4   9   4  411.61   38.42
   4   9   4  395.39   38.91
   4   9   4  401.97   34.91
   4   9   4  414.89   33.61
   4   9   4  409.17   35.89
  -4  -9  -5  448.92   36.07
   4   9   5  455.73   41.20
   4   9   5  434.64   36.02
   4   9   5  492.57   41.09
   4   9   5  459.63   41.33
   4   9   5  459.50   36.82
   4   9   5  476.94   35.90
   4   9   5  481.22   36.20
  -4  -9  -6  830.75   58.55
   4   9   6  826.23   50.33
   4   9   6  897.23   46.99
   4   9   6  889.06   50.04
   4   9   6  836.70   56.97
   4   9   6  881.06   46.00
   4   9   6  937.42   46.62
   4   9   6  844.40   42.90
   4   9   7 3427.50   86.18
  -4  -9  -7 3601.81   83.24
   4   9   7 3764.50   97.99
   4   9   7 3354.06  101.12
   4   9   7 3636.72   89.92
   4   9   7 3595.33   81.50
   4   9   7 3506.84   85.86
   4   9   8 7064.38  147.04
  -4  -9  -8 7618.45  150.68
   4   9   8 7697.53  161.11
   4   9   8 7142.17  168.33
   4   9   8 7563.53  153.30
   4   9   8 7454.34  147.42
  -4  -9  -9 5370.45  100.96
   4   9   9 5515.57  113.95
   4   9   9 5498.01  124.08
   4   9   9 5233.87  106.77
   4   9   9 5639.06  107.89
  -4  -9 -10 6296.94  122.55
   4   9  10 6343.17  134.59
   4   9  10 5842.19  113.50
   4   9  10 6262.90  123.72
   4   9  10 6478.92  130.24
  -4  -9 -11 1242.04   49.88
   4   9  11 1215.11   61.00
   4   9  11 1202.49   51.36
   4   9  11 1194.39   53.13
  -4  -9 -12  480.91   38.74
   4   9  12  429.52   42.03
   4   9  12  464.25   39.14
   4   9  12  483.40   38.24
  -4  -9 -13  145.65   25.92
   4   9  13  111.32   36.40
   4   9  13  181.90   33.24
   4   9  13  155.58   31.34
  -4  -9 -14 4970.75  100.38
   4   9  14 5161.93  113.14
   4   9  14 5019.86  103.62
   4   9  14 5239.62  105.03
  -4  -9 -15  948.78   49.05
   4   9  15  936.78   59.43
   4   9  15  933.53   48.48
   4   9  15  922.44   48.29
  -4  -9 -16 1504.81   60.08
   4   9  16 1469.40   66.73
   4   9  16 1485.86   63.40
   4   9  16 1530.23   58.54
   4   9  17  212.71   36.15
  -4  -9 -17  240.34   35.41
   4   9  17  243.67   46.07
   4   9  17  261.73   36.61
   4   9  17  240.69   35.67
   4   9  18  901.11   54.67
  -4  -9 -18  892.92   55.51
   4   9  18  911.72   63.02
   4   9  18  894.57   69.75
   4   9  18  926.68   50.99
  -4 -10  14  414.05   41.74
   4  10 -14  432.75   52.61
  -4 -10  13 1824.15   69.23
   4  10 -13 1760.93   82.90
   4  10 -12  981.69   52.85
   4  10 -12 1023.24   67.93
   4  10 -12  992.06   64.91
   4  10 -12  975.14   53.63
   4  10 -11 5498.87  107.27
   4  10 -11 5582.04  132.82
   4  10 -11 5632.38  106.38
   4  10 -11 5549.38  139.45
   4  10 -11 5570.10  124.60
   4  10 -10   38.66   33.71
   4  10 -10   64.96   38.77
   4  10 -10   52.49   34.07
   4  10 -10   57.36   49.77
   4  10 -10   28.87   33.37
   4  10  -9  361.33   42.28
   4  10  -9  325.84   47.33
   4  10  -9  293.32   39.43
   4  10  -9  345.48   49.88
   4  10  -9  408.72   42.47
   4  10  -8  282.50   38.89
   4  10  -8  310.54   32.31
   4  10  -8  351.83   49.12
   4  10  -8  373.47   42.81
   4  10  -7  297.29   32.43
   4  10  -7  342.62   32.89
   4  10  -7  311.80   50.82
   4  10  -7  298.31   37.20
   4  10  -6  744.98   42.78
   4  10  -6  713.02   47.07
   4  10  -6  866.01   60.28
   4  10  -6  796.06   49.52
   4  10  -5 1236.84   57.83
   4  10  -5 1265.91   54.92
   4  10  -5 1232.18   63.61
   4  10  -5 1234.02   54.62
  -4 -10   5 1192.22   54.13
   4  10  -4  499.18   40.24
   4  10  -4  513.76   39.54
   4  10  -4  567.35   53.97
   4  10  -4  490.09   41.04
  -4 -10   4  506.76   35.73
   4  10  -4  526.88   41.83
   4  10  -3   18.56   29.32
   4  10  -3  -18.35   22.61
   4  10  -3  -23.85   36.62
   4  10  -3  -28.80   24.61
  -4 -10   3   -6.74   23.86
   4  10  -3    2.18   26.17
   4  10  -2 4215.22   92.13
   4  10  -2 4116.32   94.69
   4  10  -2 4151.54   97.21
  -4 -10   2 4235.55   98.66
   4  10  -2 3961.80  105.86
   4  10  -1 1682.25   63.16
   4  10  -1 1662.23   61.53
   4  10  -1 1706.56   61.15
  -4 -10   1 1749.63   59.63
   4  10  -1 1649.01   70.66
  -4 -10   0  266.27   46.66
   4  10   0  272.69   29.50
   4  10   0  303.26   38.07
   4  10   0  323.10   45.82
   4  10   0  292.79   33.42
  -4 -10   0  337.82   33.55
   4  10   0  288.49   28.12
  -4 -10  -1  391.40   49.14
   4  10   1  344.03   36.50
   4  10   1  363.66   38.85
   4  10   1  320.36   42.88
   4  10   1  333.40   34.20
   4  10   1  397.84   32.70
   4  10   1  369.88   34.19
  -4 -10  -2  343.07   47.24
   4  10   2  382.43   33.68
   4  10   2  365.00   35.86
   4  10   2  376.30   48.37
   4  10   2  358.82   34.28
   4  10   2  352.16   29.93
   4  10   2  384.11   33.28
  -4 -10  -3  300.49   46.77
   4  10   3  283.89   36.45
   4  10   3  302.57   36.05
   4  10   3  321.65   33.24
   4  10   3  324.10   30.82
   4  10   3  311.54   31.96
   4  10   4   24.92   26.72
   4  10   4   11.88   32.14
   4  10   4    9.32   27.51
   4  10   4   49.99   22.14
   4  10   4   35.83   23.60
   4  10   5 4645.80  107.57
   4  10   5 4630.14  110.64
   4  10   5 4590.40   98.55
   4  10   5 4584.01   93.66
   4  10   5 4547.41  103.75
   4  10   6  421.03   40.38
   4  10   6  393.69   49.05
   4  10   6  409.74   38.34
   4  10   6  396.41   30.50
   4  10   6  423.58   36.82
  -4 -10  -7 3689.05   86.14
   4  10   7 3645.42   95.69
   4  10   7 3588.43  101.94
   4  10   7 3581.77   87.85
   4  10   7 3711.83   86.87
   4  10   7 3727.96   87.44
  -4 -10  -8  221.91   29.50
   4  10   8  220.52   39.16
   4  10   8  159.34   44.17
   4  10   8  212.41   31.93
   4  10   8  224.29   32.07
  -4 -10  -9  110.34   26.70
   4  10   9  113.59   37.22
   4  10   9  155.75   43.31
   4  10   9   65.41   30.43
   4  10   9  108.89   24.66
  -4 -10 -10 2109.07   61.95
   4  10  10 2248.60   77.91
   4  10  10 2097.96   81.84
   4  10  10 1993.89   67.57
   4  10  10 2135.74   69.28
   4  10  10 2170.07   70.87
  -4 -10 -11  138.27   29.52
   4  10  11  126.68   42.42
   4  10  11  168.35   33.06
   4  10  11  134.87   31.50
   4  10  11  161.40   29.99
   4  10  12   55.28   29.34
  -4 -10 -12   97.65   28.06
   4  10  12  113.22   33.92
   4  10  12  105.89   32.92
   4  10  12  109.23   24.31
   4  10  12  103.33   32.11
   4  10  13 1038.28   52.28
  -4 -10 -13  989.43   49.26
   4  10  13  990.98   57.73
   4  10  13 1008.74   45.37
   4  10  13  937.42   51.86
   4  10  14   91.42   32.50
  -4 -10 -14   77.93   29.69
   4  10  14   35.84   37.32
   4  10  14   47.27   32.85
   4  10  14   73.06   37.61
   4  10  15  323.51   33.42
  -4 -10 -15  298.44   34.37
   4  10  15  282.96   49.02
   4  10  15  281.83   34.52
   4  10  15  278.01   37.63
   4  10  16   14.82   26.79
  -4 -10 -16   37.47   30.78
   4  10  16   36.89   49.56
   4  10  16   17.66   28.70
   4  10  16   16.41   28.67
   4  10  17  246.31   39.50
  -4 -10 -17  236.34   32.71
   4  10  17  221.39   37.81
   4  10  17  199.72   33.70
  -4 -11  14 1060.23   55.10
  -4 -11  13   66.04   36.43
   4  11 -12 2335.99   93.03
   4  11 -11 1803.69   63.46
   4  11 -11 1753.00   85.08
   4  11 -11 1600.12   79.03
   4  11 -10   36.42   37.08
   4  11 -10   71.78   35.21
   4  11 -10   66.31   46.20
   4  11 -10  110.52   39.38
   4  11  -9   18.73   35.19
   4  11  -9  -11.89   37.34
   4  11  -9   14.99   41.35
   4  11  -9  -10.89   33.78
   4  11  -8  863.95   51.51
   4  11  -8  815.53   50.38
   4  11  -8  864.67   62.15
   4  11  -8  912.60   52.72
   4  11  -7 1495.56   62.62
   4  11  -7 1406.55   59.14
   4  11  -7 1466.87   73.33
   4  11  -7 1444.59   61.50
   4  11  -6 1316.33   58.78
   4  11  -6 1302.87   52.68
   4  11  -6 1242.24   70.37
   4  11  -6 1181.88   58.41
  -4 -11   6 1235.10   52.77
   4  11  -5 2463.37   75.74
   4  11  -5 2267.40   70.52
   4  11  -5 2415.18   94.33
   4  11  -5 2365.98   73.50
  -4 -11   5 2365.52   69.02
   4  11  -4 1055.40   52.72
   4  11  -4 1145.06   52.72
   4  11  -4 1133.88   68.60
   4  11  -4 1036.45   53.07
  -4 -11   4 1126.18   48.56
   4  11  -4  991.12   77.69
   4  11  -3   22.53   26.66
   4  11  -3    8.37   27.90
   4  11  -3    3.21   42.37
   4  11  -3    1.08   31.91
  -4 -11   3   -0.13   27.92
   4  11  -3   11.18   28.69
   4  11  -2   36.68   27.84
   4  11  -2   51.00   41.33
   4  11  -2   18.39   21.05
  -4 -11   2   34.97   19.53
   4  11  -2   44.94   25.97
   4  11  -1   36.60   28.91
   4  11  -1   11.00   21.66
  -4 -11   1   13.78   17.89
   4  11  -1    1.14   24.09
   4  11   0 2474.90   78.06
   4  11   0 2413.44   72.94
  -4 -11   0 2705.14   75.40
   4  11   0 2528.06   75.91
   4  11   1  813.18   49.27
   4  11   1  799.67   62.25
   4  11   1  806.51   43.47
  -4 -11  -1  830.66   42.42
   4  11   1  770.53   45.06
   4  11   2  394.36   39.29
   4  11   2  425.14   46.81
   4  11   2  379.78   35.53
   4  11   2  411.10   36.82
   4  11   2  430.66   36.52
   4  11   3  214.71   37.16
   4  11   3  206.20   43.17
   4  11   3  220.25   30.17
   4  11   3  241.46   29.54
   4  11   3  206.14   32.94
   4  11   4  609.69   42.70
   4  11   4  639.60   51.66
   4  11   4  601.21   41.48
   4  11   4  613.50   38.73
   4  11   4  602.34   41.82
   4  11   5    9.11   30.75
   4  11   5   33.80   39.52
   4  11   5   11.15   18.38
   4  11   5    1.29   24.75
   4  11   5  -26.57   25.49
   4  11   6 1034.43   50.86
   4  11   6 1236.96   59.15
   4  11   6 1222.49   69.52
   4  11   6 1270.57   54.41
   4  11   6 1250.88   50.58
   4  11   6 1226.96   57.51
   4  11   7 2709.20   77.49
  -4 -11  -7 2619.22   70.16
   4  11   7 2687.76   81.21
   4  11   7 2601.98   92.19
   4  11   7 2677.00   76.13
   4  11   7 2912.65   79.52
   4  11   8  129.17   29.95
  -4 -11  -8   95.92   31.05
   4  11   8  152.78   39.76
   4  11   8  148.60   43.95
   4  11   8  131.05   30.23
   4  11   8  170.47   32.28
   4  11   9   14.28   30.29
  -4 -11  -9    8.78   30.88
   4  11   9   39.26   34.77
   4  11   9   12.44   33.02
   4  11   9  -16.46   26.10
   4  11   9    9.55   27.00
   4  11   9  -12.69   19.15
   4  11  10   96.93   32.63
  -4 -11 -10   47.36   25.97
   4  11  10   40.63   36.18
   4  11  10   40.38   38.66
   4  11  10   63.73   27.80
   4  11  10   58.72   26.42
   4  11  10   47.52   25.87
   4  11  11  744.91   43.16
  -4 -11 -11  660.94   41.87
   4  11  11  686.36   52.46
   4  11  11  733.94   46.78
   4  11  11  779.95   44.42
   4  11  11  760.82   44.16
   4  11  12   59.48   29.55
  -4 -11 -12   75.34   27.28
   4  11  12   74.27   40.28
   4  11  12  113.64   35.48
   4  11  12   67.41   22.25
   4  11  12   78.03   30.31
   4  11  13  279.60   35.33
  -4 -11 -13  247.48   32.17
   4  11  13  219.55   31.72
   4  11  13  265.34   34.37
   4  11  14 1131.81   53.45
  -4 -11 -14 1105.73   50.54
   4  11  14 1153.84   48.53
   4  11  14 1143.59   53.02
   4  11  15  759.60   45.91
  -4 -11 -15  809.01   48.85
   4  11  15  787.15   55.57
   4  11  15  791.36   49.23
   4  11  16  135.34   33.88
  -4 -11 -16  141.82   33.96
   4  11  16  128.74   38.40
   4  11  16  154.36   32.79
  -4 -12  12 2673.88   87.82
   4  12 -11 1761.31   63.68
   4  12 -10   24.18   35.65
   4  12 -10   13.28   42.00
   4  12 -10  -28.90   38.35
   4  12  -9  405.32   41.34
   4  12  -9  411.15   43.99
   4  12  -9  432.95   55.97
   4  12  -9  406.96   45.32
   4  12  -8 2505.35   81.71
   4  12  -8 2640.72   99.58
   4  12  -8 2555.70   87.13
   4  12  -7 1222.41   63.62
   4  12  -7 1384.09   68.33
   4  12  -7 1381.00   57.56
  -4 -12   7 1386.91   57.90
   4  12  -6  928.49   50.50
   4  12  -6  991.72   61.84
   4  12  -6  933.29   53.23
  -4 -12   6  941.79   48.65
   4  12  -5 5659.48  128.46
   4  12  -5 6093.70  140.95
   4  12  -5 5775.85  111.09
  -4 -12   5 5852.62  109.19
   4  12  -4 4328.11   99.39
   4  12  -4 4588.24  122.53
   4  12  -4 4479.61   99.96
  -4 -12   4 4564.89   93.09
   4  12  -4 4304.15  133.47
   4  12  -3 7987.28  139.18
   4  12  -3 8232.64  174.88
   4  12  -3 8019.41  144.15
  -4 -12   3 8288.90  130.20
   4  12  -3 7680.39  125.45
   4  12  -2  830.61   51.12
   4  12  -2  961.82   57.79
   4  12  -2  936.35   50.86
  -4 -12   2  904.63   46.75
   4  12  -2  933.50   48.97
   4  12  -111148.29  163.88
   4  12  -111045.94  200.62
   4  12  -111843.53  179.81
  -4 -12   111984.64  154.46
   4  12  -111618.48  180.55
   4  12   0  199.44   35.40
   4  12   0  172.13   26.39
  -4 -12   0  195.01   29.84
   4  12   0  213.91   33.87
   4  12   1   58.97   21.63
   4  12   1   19.75   32.08
   4  12   1   28.98   46.10
   4  12   1   60.18   29.81
  -4 -12  -1   33.42   18.03
   4  12   1   49.58   28.00
   4  12   2 4940.51  105.87
   4  12   2 4688.13  116.93
   4  12   2 4597.01  100.45
  -4 -12  -2 4789.60   97.88
   4  12   2 4690.79  101.83
   4  12   3 1105.68   48.64
   4  12   3 1110.89   65.81
   4  12   3 1041.21   48.76
   4  12   3 1018.73   47.35
   4  12   3 1099.04   50.10
   4  12   4  603.50   37.97
   4  12   4  555.26   54.82
   4  12   4  558.61   66.91
   4  12   4  580.12   38.82
   4  12   4  556.16   35.56
   4  12   5 1918.36   63.70
   4  12   5 1941.32   80.20
   4  12   5 1827.34   64.87
   4  12   5 1986.16   68.52
   4  12   5 1887.12   63.04
   4  12   6 6513.05  114.32
   4  12   6 6511.65  132.47
   4  12   6 6461.55  122.75
   4  12   6 6285.24  107.64
   4  12   6 6581.33  113.48
   4  12   7  616.91   44.21
   4  12   7  625.85   54.64
   4  12   7  620.73   45.67
   4  12   7  610.87   41.91
   4  12   8 4501.18   92.71
  -4 -12  -8 4520.25  103.15
   4  12   8 4674.30  135.34
   4  12   8 4256.13  101.44
   4  12   8 4232.67   97.83
   4  12   9  573.37   46.42
  -4 -12  -9  567.40   42.25
   4  12   9  542.29   58.09
   4  12   9  493.30   42.03
   4  12   9  645.64   40.72
   4  12   9  570.01   40.65
   4  12  10   12.07   29.40
  -4 -12 -10   -7.60   27.32
   4  12  10   25.59   43.80
   4  12  10   33.74   29.01
   4  12  10   23.39   23.85
   4  12  10   42.44   24.91
   4  12  11  535.74   45.69
  -4 -12 -11  567.53   41.83
   4  12  11  576.38   57.23
   4  12  11  548.56   44.08
   4  12  11  524.95   40.23
   4  12  11  526.45   42.79
   4  12  12  117.72   34.48
  -4 -12 -12   89.89   30.66
   4  12  12   79.35   33.71
   4  12  12  124.68   29.74
   4  12  12  122.29   35.30
   4  12  13   73.00   29.00
  -4 -12 -13   48.33   36.19
   4  12  13   56.77   29.52
   4  12  13   40.26   28.52
   4  12  14  426.09   42.61
  -4 -12 -14  402.73   38.48
   4  12  14  396.23   37.27
   4  12  14  422.51   40.63
   4  12  15 1946.97   75.50
  -4 -12 -15 1952.32   74.61
   4  12  15 2036.73   91.83
   4  12  15 1966.35   73.79
   4  13  -9  635.92   63.47
   4  13  -9  594.52   46.84
   4  13  -8   47.65   47.32
   4  13  -8  -19.03   33.46
   4  13  -7 7771.96  157.18
   4  13  -7 7454.80  148.40
  -4 -13   7 7354.46  141.34
   4  13  -6 1583.45   75.13
   4  13  -6 1547.23   63.91
  -4 -13   6 1556.08   60.38
   4  13  -5  245.37   49.61
   4  13  -5  269.08   39.63
  -4 -13   5  229.99   33.78
   4  13  -4  595.89   44.34
   4  13  -4  563.84   57.14
   4  13  -4  569.97   48.00
  -4 -13   4  599.13   41.83
   4  13  -4  534.74   41.23
   4  13  -3 5069.50  112.89
   4  13  -3 5352.02  145.07
   4  13  -3 5112.68  131.48
  -4 -13   3 5287.60  117.68
   4  13  -3 4976.11  134.89
   4  13  -2  399.18   37.61
   4  13  -2  367.49   43.49
   4  13  -2  421.46   41.24
  -4 -13   2  464.22   39.03
   4  13  -2  411.02   40.83
   4  13  -1 5373.48  121.20
   4  13  -1 5447.65  145.87
   4  13  -1 5097.02  118.26
  -4 -13   1 5196.89  120.05
   4  13  -1 4790.35  115.45
   4  13   0   97.99   23.63
   4  13   0   28.86   32.28
  -4 -13   0   93.91   32.02
   4  13   0   64.63   25.99
   4  13   1   38.71   31.21
   4  13   1  -15.37   29.21
  -4 -13  -1   24.01   19.40
   4  13   1   31.26   27.80
   4  13   2   53.78   29.73
   4  13   2   20.23   43.12
   4  13   2   28.50   26.79
  -4 -13  -2   37.56   25.53
   4  13   2   30.01   25.36
   4  13   3 2064.02   64.70
   4  13   3 2194.36   85.30
   4  13   3 2023.49   67.96
  -4 -13  -3 2267.91   62.74
   4  13   3 2113.79   67.26
   4  13   4 5683.35  126.61
   4  13   4 5691.93  150.65
   4  13   4 5537.69  123.04
  -4 -13  -4 5668.56  122.45
   4  13   4 5587.05  119.77
   4  13   5 1193.26   54.76
   4  13   5 1147.23   67.95
   4  13   5 1099.46   54.97
   4  13   5 1183.50   53.06
   4  13   6 2351.47   72.07
   4  13   6 2089.17   84.22
   4  13   6 2205.51   69.45
   4  13   6 2299.63   74.09
   4  13   7 1445.87   59.08
   4  13   7 1459.98   74.85
   4  13   7 1441.45   63.51
   4  13   7 1522.55   60.31
   4  13   8  394.92   39.39
   4  13   8  428.14   50.58
   4  13   8  306.87   37.88
   4  13   8  380.20   38.29
   4  13   8  364.18   36.29
   4  13   9 1055.30   51.38
  -4 -13  -9  960.63   51.78
   4  13   9  932.69   65.43
   4  13   9 1004.04   54.84
   4  13   9  996.32   44.18
   4  13   9 1033.88   52.03
   4  13  10   71.26   34.34
  -4 -13 -10   81.87   34.40
   4  13  10   78.25   45.74
   4  13  10   91.31   36.53
   4  13  10   80.27   29.41
   4  13  10   74.34   29.66
   4  13  11  559.69   44.90
  -4 -13 -11  488.14   45.40
   4  13  11  574.78   55.58
   4  13  11  530.04   44.19
   4  13  11  494.16   41.92
   4  13  11  512.06   42.18
   4  13  12  937.59   52.46
  -4 -13 -12  926.88   53.56
   4  13  12  938.80   56.02
   4  13  12 1014.45   51.08
   4  13  12  968.68   51.16
   4  13  13   71.16   33.73
  -4 -13 -13   27.29   35.81
   4  13  13   68.11   33.40
   4  14 -10  557.68   53.69
   4  14  -9   68.08   31.03
   4  14  -8 1634.37   72.26
  -4 -14   8 1689.43   72.27
   4  14  -8 1646.25   87.70
   4  14  -8 1510.21   60.88
   4  14  -7  279.26   42.64
   4  14  -7  297.21   60.27
   4  14  -7  315.13   42.85
  -4 -14   7  253.73   41.51
   4  14  -6 3124.09   87.01
   4  14  -6 3177.86  112.70
   4  14  -6 3032.45   88.37
  -4 -14   6 3115.87   86.15
   4  14  -5   25.20   34.15
   4  14  -5   62.75   40.14
   4  14  -5   10.43   38.24
  -4 -14   5   29.98   31.85
   4  14  -4 2834.21   82.18
   4  14  -4 2880.23   97.76
   4  14  -4 2730.48   87.26
  -4 -14   4 2817.87   76.97
   4  14  -3 3109.23   79.31
   4  14  -3 3330.81  119.34
   4  14  -3 3074.50   86.95
  -4 -14   3 3259.74   84.12
   4  14  -3 3106.02   85.92
   4  14  -2   23.79   31.46
   4  14  -2   12.51   42.45
   4  14  -2    5.21   30.13
  -4 -14   2  -13.80   31.29
   4  14  -2   -7.88   32.14
   4  14  -1  210.08   36.22
   4  14  -1  177.82   50.28
   4  14  -1  221.08   34.70
  -4 -14   1  211.36   35.17
   4  14  -1  221.45   32.13
   4  14   0  169.02   32.35
   4  14   0  196.48   37.34
  -4 -14   0  236.80   34.28
   4  14   0  193.23   30.99
   4  14   1 1349.46   60.40
   4  14   1 1224.70   54.73
  -4 -14  -1 1317.86   53.84
   4  14   1 1294.89   56.85
   4  14   2 1970.11   66.30
   4  14   2 1896.71   83.09
   4  14   2 1926.47   65.05
  -4 -14  -2 1970.63   64.36
   4  14   2 2006.86   67.89
   4  14   3  183.75   37.27
   4  14   3  231.66   51.91
   4  14   3  240.10   37.47
  -4 -14  -3  181.38   29.88
   4  14   3  160.45   31.21
   4  14   4  894.74   50.66
   4  14   4  782.21   53.46
   4  14   4  806.85   99.48
  -4 -14  -4  828.96   45.15
   4  14   4  840.58   49.30
   4  14   5 2536.46   77.30
   4  14   5 2459.63   91.81
   4  14   5 2532.84   77.11
   4  14   5 2455.59   74.28
   4  14   6  116.10   35.00
   4  14   6  102.03   34.17
   4  14   6   87.52   35.28
   4  14   6  108.02   33.49
   4  14   7  228.56   32.99
   4  14   7  192.27   48.24
   4  14   7  173.06   38.78
  -4 -14  -7  152.26   30.72
   4  14   7  197.67   33.63
   4  14   8  322.39   33.30
   4  14   8  320.71   47.82
   4  14   8  322.90   40.25
  -4 -14  -8  305.77   34.90
   4  14   8  327.15   41.72
   4  14   9  145.54   33.37
   4  14   9  151.17   46.24
   4  14   9  121.92   37.72
  -4 -14  -9  141.71   32.71
   4  14   9  113.35   33.40
   4  14  10  966.15   53.73
   4  14  10 1029.28   69.85
   4  14  10 1009.32   57.84
  -4 -14 -10 1029.48   50.97
   4  14  10  960.86   51.84
   4  14  11 2413.88   81.02
   4  14  11 2370.52   83.12
  -4 -14 -11 2224.25   77.35
   4  14  11 2343.99   80.02
   4  14  12 2365.10   88.09
  -4 -14 -12 2251.95  113.93
   4  14  12 2252.97   77.57
   4  15  -8  479.27   44.07
   4  15  -7 1171.70   69.51
  -4 -15   7 1226.34   64.34
   4  15  -7 1154.47   81.18
   4  15  -7 1137.82   58.53
   4  15  -6 1397.27   66.06
   4  15  -6 1399.65   82.81
   4  15  -6 1369.74   65.86
  -4 -15   6 1439.60   63.48
   4  15  -5 4032.72  108.51
   4  15  -5 4000.24  128.47
   4  15  -5 4205.01  109.21
  -4 -15   5 4106.44  103.72
   4  15  -4    5.99   31.26
   4  15  -4   34.34   49.47
   4  15  -4    9.15   25.15
  -4 -15   4   15.97   29.57
   4  15  -3  635.06   44.64
   4  15  -3  660.77   62.39
   4  15  -3  648.01   46.87
  -4 -15   3  638.48   41.53
   4  15  -2  297.07   38.78
   4  15  -2  248.81   53.75
   4  15  -2  276.69   39.59
  -4 -15   2  316.35   37.66
   4  15  -2  323.54   37.17
   4  15  -1  366.11   39.52
   4  15  -1  366.20   54.33
   4  15  -1  341.90   40.02
  -4 -15   1  356.83   34.90
   4  15  -1  331.68   38.39
   4  15   0   -5.05   31.71
   4  15   0  -33.56   46.85
   4  15   0  -18.15   22.95
  -4 -15   0  -28.42   26.45
   4  15   0   -4.40   27.17
   4  15   1   22.51   29.36
   4  15   1   12.38   32.93
  -4 -15  -1  -21.20   26.17
   4  15   1   15.25   29.20
   4  15   2   49.20   31.53
   4  15   2   32.84   33.25
  -4 -15  -2   33.72   29.86
   4  15   2   23.97   30.05
   4  15   3  407.65   41.89
   4  15   3  394.41   56.11
   4  15   3  408.91   44.02
  -4 -15  -3  458.30   37.71
   4  15   3  409.55   54.22
   4  15   4  438.97   41.09
   4  15   4  363.32   54.63
   4  15   4  394.49   39.64
   4  15   4  382.73   40.62
   4  15   5 1959.08   71.93
   4  15   5 1932.46   84.71
   4  15   5 1950.56   71.54
   4  15   5 2038.48   72.52
   4  15   6  171.18   33.93
   4  15   6  191.83   45.56
   4  15   6  185.97   36.11
  -4 -15  -6  184.75   30.25
   4  15   6  173.13   36.45
   4  15   7   10.35   31.18
   4  15   7   35.85   45.53
   4  15   7   16.75   35.80
  -4 -15  -7   33.01   28.68
   4  15   7  -16.95   29.10
   4  15   8  146.96   35.18
   4  15   8  205.75   52.87
   4  15   8  148.73   35.03
  -4 -15  -8  173.11   30.71
   4  15   8  176.51   31.62
   4  15   9   51.25   34.30
   4  15   9   62.74   45.85
   4  15   9   56.13   41.07
  -4 -15  -9   67.74   30.39
   4  15   9   63.98   33.94
   4  15  10  626.71   46.06
   4  15  10  649.40   53.88
  -4 -15 -10  617.34   53.34
   4  15  10  693.37   45.67
   4  16  -5  192.06   37.49
  -4 -16   5  246.52   39.18
   4  16  -5  243.38   64.75
   4  16  -5  209.47   37.75
  -4 -16   5  220.43   46.34
   4  16  -4  434.66   44.25
   4  16  -4  484.61   63.06
   4  16  -4  464.20   48.19
  -4 -16   4  496.52   43.67
   4  16  -3   75.88   38.89
   4  16  -3   75.79   49.84
   4  16  -3   65.45   34.15
  -4 -16   3   71.84   32.04
   4  16  -2  -16.07   30.06
   4  16  -2   -6.75   44.80
   4  16  -2   11.67   34.53
  -4 -16   2    0.53   33.52
   4  16  -1   67.81   35.15
   4  16  -1   95.25   46.82
   4  16  -1   82.81   34.94
  -4 -16   1   34.89   29.62
   4  16  -1   58.24   36.84
   4  16   0   70.01   31.99
   4  16   0   70.53   43.95
  -4 -16   0   42.53   27.15
   4  16   0   90.88   37.81
   4  16   1 1109.40   56.13
   4  16   1 1177.76   71.13
   4  16   1 1126.66   57.54
  -4 -16  -1 1096.78   49.42
   4  16   1 1080.10   57.18
   4  16   2  -14.52   33.38
  -4 -16  -2   20.20   25.32
   4  16   2    8.30   36.43
   4  16   3   21.85   35.04
   4  16   3   -3.74   41.23
  -4 -16  -3   27.64   27.92
   4  16   3    5.40   47.44
   4  16   4  120.71   37.15
   4  16   4  106.28   46.32
   4  16   4   99.74   35.98
   4  16   4  116.59   39.04
   4  16   5  604.32   47.27
   4  16   5  630.17   60.30
   4  16   5  631.05   48.09
   4  16   5  595.52   47.28
   4  16   6  481.81   40.48
   4  16   6  436.42   52.93
   4  16   6  402.52   45.70
  -4 -16  -6  391.50   39.49
   4  16   6  437.66   44.37
   4  16   7   55.15   38.97
   4  16   7   38.68   50.66
   4  16   7   46.96   37.93
  -4 -16  -7   56.82   34.51
   4  16   7   61.25   35.97
   5 -11  -3  615.05   55.27
   5 -11  -2  945.02   64.13
   5 -11  -1 1400.67   68.39
   5 -11   0  725.48   56.39
   5 -11   0  674.87   44.59
   5 -11   1  146.02   34.85
   5 -11   1  148.44   34.92
   5 -11   2    4.05   30.16
   5 -11   2   -3.79   32.27
   5 -11   3  151.38   34.12
   5 -11   3  150.53   33.75
   5 -11   4  180.32   35.65
   5 -11   4  188.61   35.76
   5 -11   5   22.06   33.35
   5 -11   5   50.46   36.13
   5 -11   6  329.04   38.34
   5 -11   6  310.14   47.12
   5 -11   7 1901.21   74.89
   5 -11   7 1908.05   73.60
   5 -11   8  847.48   52.40
   5 -11   8  836.74   55.66
   5 -10  -6  771.94   60.75
  -5  10   6  730.97   64.22
   5 -10  -5 3220.30  105.45
  -5  10   5 3106.48  114.38
   5 -10  -4 4616.10  114.26
   5 -10  -4 4632.39  115.05
   5 -10  -3  223.49   36.93
   5 -10  -3  200.79   37.60
   5 -10  -2  675.75   48.32
   5 -10  -2  647.65   46.03
   5 -10  -1 1701.74   67.94
   5 -10  -1 1574.56   60.96
   5 -10   0  101.92   30.57
   5 -10   1    6.34   27.93
   5 -10   2   -6.06   28.44
   5 -10   3  541.91   44.40
   5 -10   3  575.20   40.00
   5 -10   4 1269.28   60.03
   5 -10   4 1229.20   53.98
   5 -10   5  187.99   36.98
   5 -10   5  156.41   40.93
   5 -10   5  181.94   30.73
   5 -10   6  969.08   53.28
   5 -10   6  999.55   51.77
   5 -10   6  929.73   49.68
   5 -10   7  183.35   36.52
   5 -10   7  128.71   34.11
   5 -10   7  160.80   38.22
   5 -10   8    2.46   32.89
   5 -10   8  -16.48   31.75
   5 -10   9  749.27   47.68
   5 -10   9  803.83   50.92
   5 -10  10 1107.62   55.67
   5 -10  10 1138.95   57.97
   5 -10  11   60.64   33.58
   5 -10  11   36.37   32.86
   5  -9  -8  326.67   45.65
  -5   9   8  366.20   47.71
   5  -9  -7  413.89   43.51
  -5   9   7  410.54   45.96
   5  -9  -6   32.21   32.56
  -5   9   6   63.98   36.15
   5  -9  -5   84.78   38.73
   5  -9  -5  119.73   34.68
  -5   9   5   90.45   37.82
   5  -9  -4 4751.05  116.85
   5  -9  -4 4834.64  103.32
  -5   9   4 4712.70  120.00
   5  -9  -3  378.99   39.16
   5  -9  -3  397.54   41.51
  -5   9   3  368.84   49.04
   5  -9  -2    6.62   24.57
   5  -9  -2   -0.44   30.07
   5  -9  -1 2791.84   80.27
   5  -9  -1 2702.83   73.07
   5  -9   0   -3.62   27.28
   5  -9   0   21.89   29.49
   5  -9   1   83.77   30.95
   5  -9   1  108.53   32.16
   5  -9   2   17.89   30.78
   5  -9   2    4.12   29.99
   5  -9   3  961.43   50.82
   5  -9   4  969.87   46.11
   5  -9   4  852.54   50.94
   5  -9   4  870.35   49.20
   5  -9   5  245.56   37.25
   5  -9   5  270.56   38.26
   5  -9   5  339.45   36.09
   5  -9   6   77.56   35.52
   5  -9   6    3.29   33.41
   5  -9   6  110.39   31.46
   5  -9   7  912.32   52.08
   5  -9   7  967.89   55.80
   5  -9   7  947.54   49.87
   5  -9   8  539.98   44.09
   5  -9   8  567.61   46.53
   5  -9   8  528.88   42.72
   5  -9   9 2268.07   71.16
   5  -9   9 2399.42   75.05
   5  -9   9 2237.73   72.49
   5  -9   9 2313.07   82.18
   5  -9  10  501.38   40.96
   5  -9  10  510.82   39.31
   5  -9  10  487.46   43.31
   5  -9  11  223.54   42.92
   5  -9  11  278.88   40.74
   5  -9  11  195.82   35.94
   5  -9  12   54.17   33.20
   5  -9  12   43.51   35.10
   5  -9  13 4930.74  108.24
   5  -8 -10  911.96   68.36
  -5   8  10  904.23   60.47
   5  -8  -9   95.63   36.21
  -5   8   9   99.87   36.05
   5  -8  -8  772.95   50.17
  -5   8   8  734.40   50.28
   5  -8  -7   17.58   30.11
  -5   8   7   11.53   34.13
   5  -8  -6   15.32   32.14
  -5   8   6    0.52   40.16
   5  -8  -5 1119.34   58.24
   5  -8  -5 1279.03   56.00
  -5   8   5 1122.09   56.65
   5  -8  -4 2347.48   76.03
   5  -8  -4 2487.65   75.32
  -5   8   4 2462.94   81.23
   5  -8  -3   14.70   26.63
   5  -8  -3   27.80   22.37
  -5   8   3    6.58   33.14
   5  -8  -2 1607.29   60.13
   5  -8  -2 1542.78   60.26
  -5   8   2 1648.88   69.31
   5  -8  -1  553.86   42.99
   5  -8  -1  604.33   43.33
   5  -8   0    8.14   33.44
   5  -8   0   38.89   28.37
   5  -8   1  490.47   37.66
   5  -8   1  490.80   42.35
   5  -8   2 1478.25   60.25
   5  -8   2 1326.65   58.15
   5  -8   3 2946.58   81.63
   5  -8   3 2784.37   81.34
   5  -8   4 3907.78   91.33
   5  -8   4 3698.71   92.09
   5  -8   5   73.20   30.95
   5  -8   5  100.83   31.98
   5  -8   5  104.15   27.86
   5  -8   6 1922.16   67.31
   5  -8   6 2037.64   67.96
   5  -8   6 2028.56   64.59
   5  -8   7 1644.78   58.12
   5  -8   7 1654.03   68.54
   5  -8   7 1545.07   56.90
   5  -8   8   89.85   32.99
   5  -8   8   82.71   44.16
   5  -8   8   73.91   28.84
   5  -8   8   56.71   35.22
   5  -8   9 1055.09   53.06
   5  -8   9 1110.70   50.67
   5  -8   9  993.66   50.29
   5  -8   9 1061.41   52.29
   5  -8  10 3112.10   80.10
   5  -8  10 3192.57   83.63
   5  -8  10 3034.07   80.95
   5  -8  10 3103.00   86.01
   5  -8  11 1087.95   57.07
   5  -8  11 1219.63   56.53
   5  -8  11 1087.09   54.07
   5  -8  11 1131.54   52.29
   5  -8  12  990.13   48.59
   5  -8  12  965.77   50.27
   5  -8  13 1943.98   67.03
   5  -8  13 1989.59   68.84
   5  -8  13 2059.90   68.26
   5  -8  14 7163.20  127.62
   5  -8  14 7088.48  128.84
   5  -8  15  424.27   42.07
   5  -8  15  451.04   40.41
   5  -7 -11 1421.42   87.13
  -5   7  11 1421.04   68.66
   5  -7 -10 3567.21  107.51
  -5   7  10 3696.09   92.90
   5  -7  -9  787.51   52.66
  -5   7   9  799.20   51.46
   5  -7  -8   -2.94   30.14
  -5   7   8  -19.90   34.18
   5  -7  -7 1980.30   73.53
  -5   7   7 2014.95   77.52
   5  -7  -6   18.42   33.41
  -5   7   6    2.88   25.94
   5  -7  -5 1242.84   52.62
  -5   7   5 1187.26   58.00
   5  -7  -4 4149.51  111.25
   5  -7  -4 4487.84  108.99
  -5   7   4 4455.26  108.01
   5  -7  -3 3405.56   91.77
   5  -7  -3 3535.67   96.90
  -5   7   3 3390.95   90.87
   5  -7  -2 3955.15   90.57
   5  -7  -2 4283.81   95.08
  -5   7   2 3984.30   98.64
   5  -7  -1 2496.27   71.74
   5  -7  -1 2593.45   74.68
   5  -7   0  659.62   46.32
   5  -7   0  715.66   44.82
   5  -7   1 6004.31  114.16
   5  -7   2  427.99   39.48
   5  -7   3  188.32   32.39
   5  -7   3  205.16   38.01
   5  -7   412040.22  158.05
   5  -7   411850.39  165.08
   5  -7   5 5052.15  103.91
   5  -7   5 4387.93   98.48
   5  -7   5 4994.98   97.76
   5  -7   6 8288.72  132.54
   5  -7   6 8245.51  144.27
   5  -7   6 8482.72  126.81
   5  -7   7  707.71   46.39
   5  -7   7  744.00   46.90
   5  -7   7  680.07   42.40
   5  -7   8 1249.05   56.57
   5  -7   8 1211.53   55.91
   5  -7   8 1171.99   52.07
   5  -7   8 1152.07   55.48
   5  -7   9   12.71   37.09
   5  -7   9  -26.83   33.29
   5  -7   9    5.72   29.42
   5  -7   9   33.70   33.73
   5  -7  10 1438.19   60.26
   5  -7  10 1391.91   60.53
   5  -7  10 1514.27   58.63
   5  -7  10 1419.94   63.23
   5  -7  11  121.00   37.65
   5  -7  11  114.55   33.04
   5  -7  11   74.73   34.83
   5  -7  11  118.06   34.08
   5  -7  12  600.34   49.54
   5  -7  12  540.90   44.36
   5  -7  12  558.05   40.05
   5  -7  13 6863.88  127.16
   5  -7  13 6925.95  123.46
   5  -7  13 6794.79  120.80
   5  -7  14 1457.38   61.15
   5  -7  14 1368.02   59.29
   5  -7  14 1422.97   58.03
   5  -7  15 1116.43   55.56
   5  -7  15 1140.54   54.77
   5  -7  16 1297.17   66.28
   5  -7  16 1274.02   58.30
   5  -6 -12  419.84   49.47
   5  -6 -11  386.80   45.39
  -5   6  11  386.45   45.42
   5  -6 -11  400.21   39.82
   5  -6 -10   12.45   35.61
   5  -6 -10   -3.29   31.22
   5  -6  -9  -48.54   29.96
   5  -6  -9   -1.63   25.70
   5  -6  -8   90.85   34.14
   5  -6  -8  121.75   31.43
   5  -6  -7 4189.94  125.39
   5  -6  -7 4177.80  111.80
   5  -6  -6  111.53   32.08
   5  -6  -6  168.68   31.43
   5  -6  -5 1932.34   69.27
   5  -6  -4 2514.70   71.40
   5  -6  -3 5077.08  103.34
   5  -6  -3 5005.83  110.47
   5  -6  -2 1254.94   55.74
   5  -6  -2 1232.90   55.15
   5  -6  -1  175.92   35.09
   5  -6   0 1088.00   52.93
   5  -6   1  469.05   36.93
   5  -6   2 4080.43   94.30
   5  -6   2 3807.69   93.47
   5  -6   3  557.05   41.76
   5  -6   3  535.03   40.60
   5  -6   3  518.78   41.22
   5  -6   410847.80  170.55
   5  -6   410778.10  170.94
   5  -6   4 9951.26  175.86
   5  -6   5 3596.27   90.83
   5  -6   5 3558.80   85.78
   5  -6   5 3307.19   84.24
   5  -6   6 2427.16   75.96
   5  -6   6 2350.77   69.17
   5  -6   6 2480.93   68.59
   5  -6   710263.17  170.80
   5  -6   710011.42  170.63
   5  -6   7 9948.56  161.73
   5  -6   7 9948.99  165.30
   5  -6   8 6463.35  119.81
   5  -6   8 6389.27  114.46
   5  -6   8 6454.64  114.78
   5  -6   8 6431.95  117.35
   5  -6   9  149.88   36.72
   5  -6   9  245.05   38.63
   5  -6   9  242.43   36.65
   5  -6   9  255.46   34.17
   5  -6  10  106.96   35.95
   5  -6  10  160.85   34.01
   5  -6  10  143.01   35.10
   5  -6  10  126.46   32.84
   5  -6  11   88.65   26.45
   5  -6  11   44.77   32.02
   5  -6  11   73.92   32.30
   5  -6  12 1348.21   61.39
   5  -6  12 1230.81   55.53
   5  -6  12 1302.08   58.37
   5  -6  12 1368.82   55.81
   5  -6  13 1918.33   63.95
   5  -6  13 2025.66   67.04
   5  -6  13 1895.21   65.94
   5  -6  13 1963.92   66.38
   5  -6  14   46.37   38.18
   5  -6  14   48.48   32.97
   5  -6  14   67.97   25.43
   5  -6  15 3627.83   90.89
   5  -6  15 3853.79   91.55
   5  -6  15 3798.46   94.13
   5  -6  16 1179.50   56.01
   5  -6  16 1173.44   54.35
   5  -6  17   65.40   40.47
   5  -6  17  101.16   33.54
   5  -5 -13  709.53   68.90
  -5   5  13  837.17   53.42
   5  -5 -13  685.99   48.80
   5  -5 -12  426.45   42.52
   5  -5 -12  426.53   40.56
  -5   5  12  424.53   44.63
   5  -5 -11 1094.69   57.02
   5  -5 -11 1074.73   56.64
  -5   5  11 1076.61   59.55
   5  -5 -10 1225.50   60.21
   5  -5 -10 1193.91   58.78
  -5   5  10 1188.82   60.18
   5  -5  -9 3446.95   93.77
   5  -5  -9 3366.31   83.41
  -5   5   9 3112.50   87.11
   5  -5  -8 2052.92   72.60
   5  -5  -8 2042.80   65.02
   5  -5  -7 1353.62   56.44
   5  -5  -7 1389.35   57.79
   5  -5  -6 3609.89   93.60
   5  -5  -6 3516.04   93.98
   5  -5  -514459.48  188.95
   5  -5  -514400.47  184.57
   5  -5  -4 1445.87   56.96
   5  -5  -4 1356.31   54.35
   5  -5  -1  359.44   34.75
   5  -5   0  720.47   42.82
   5  -5   0  726.57   40.47
   5  -5   1  655.17   41.92
   5  -5   1  714.73   43.16
   5  -5   212117.95  210.58
   5  -5   212272.23  212.81
   5  -5   3 1006.21   48.12
   5  -5   3  967.48   50.38
   5  -5   3  905.36   48.36
   5  -5   411203.49  195.75
   5  -5   411851.77  205.13
   5  -5   411037.03  200.87
   5  -5   5   35.12   28.69
   5  -5   5   -0.21   27.61
   5  -5   5   46.96   28.49
   5  -5   6 7106.05  136.29
   5  -5   6 7336.80  137.56
   5  -5   6 7047.94  135.57
   5  -5   6 7109.71  127.95
   5  -5   7 1190.10   52.34
   5  -5   7 1151.35   51.17
   5  -5   7 1228.17   51.55
   5  -5   7 1256.35   54.35
   5  -5   8 1983.31   65.26
   5  -5   8 1903.00   65.12
   5  -5   8 1893.58   62.18
   5  -5   8 1889.45   65.99
   5  -5   910333.87  166.99
   5  -5   910443.09  171.75
   5  -5   910370.12  164.97
   5  -5   910395.49  169.01
   5  -5  10  239.39   36.93
   5  -5  10  245.31   38.64
   5  -5  10  258.23   30.53
   5  -5  10  247.98   32.26
   5  -5  11  951.77   53.05
   5  -5  11  928.31   49.27
   5  -5  11  964.56   44.89
   5  -5  12 8020.94  159.49
   5  -5  12 8185.58  159.63
   5  -5  12 7916.70  151.32
   5  -5  12 8050.36  154.02
   5  -5  13  181.37   40.69
   5  -5  13  190.87   36.47
   5  -5  13  174.55   32.99
   5  -5  13  214.46   32.64
   5  -5  14  194.39   37.45
   5  -5  14  186.66   29.33
   5  -5  14  211.09   36.91
   5  -5  14  235.99   28.57
   5  -5  15 1003.48   51.99
   5  -5  15 1005.54   52.17
   5  -5  15  977.44   57.07
   5  -5  16 1600.11   61.74
   5  -5  16 1803.97   65.30
   5  -5  16 1881.27   66.98
   5  -5  17  359.73   44.39
   5  -5  17  363.63   36.59
   5  -5  18  626.12   43.95
   5  -4 -14  386.69   42.76
  -5   4  14  407.05   44.06
   5  -4 -14  404.05   45.46
  -5   4  14  388.90   45.71
   5  -4 -13 1819.87   89.79
   5  -4 -13 1888.79   68.82
  -5   4  13 1883.67   76.92
   5  -4 -12 1299.00   60.77
   5  -4 -12 1322.69   66.20
  -5   4  12 1266.42   62.86
   5  -4 -11 1564.37   65.92
   5  -4 -11 1440.79   61.55
   5  -4 -10 1867.36   73.54
   5  -4 -10 1741.40   61.11
   5  -4 -10 1826.71   68.54
   5  -4  -9 7040.06  148.43
   5  -4  -9 6760.17  147.47
   5  -4  -9 6893.15  156.41
   5  -4  -8  794.49   55.03
   5  -4  -8  864.78   49.24
   5  -4  -7  606.01   42.23
   5  -4  -7  581.36   43.30
   5  -4  -6 4180.07   99.80
   5  -4  -6 4079.10   97.11
   5  -4  -511344.01  188.93
   5  -4  -512188.86  189.96
   5  -4  -4   26.58   24.08
   5  -4  -3 1520.03   58.26
   5  -4  -2 1280.69   52.84
   5  -4  -2 1342.68   52.56
   5  -4  -1  113.73   31.54
  -5   4   0 3188.52  106.26
   5  -4   0 3040.16   85.00
   5  -4   0 3181.70   88.62
  -5   4  -1 3102.94   89.25
   5  -4   1 2881.32   90.57
   5  -4   1 2956.01   79.20
   5  -4   1 3141.76   87.96
  -5   4  -2 3625.96  100.39
   5  -4   2 3576.89   83.84
   5  -4   2 3767.06   89.81
  -5   4  -3   41.49   28.63
   5  -4   3   61.88   18.58
   5  -4   3   56.17   23.54
   5  -4   3   43.72   30.84
  -5   4  -4 1398.77   67.35
  -5   4  -4 1261.63   68.71
   5  -4   4 1390.82   53.85
   5  -4   4 1356.85   56.77
   5  -4   4 1241.09   56.28
  -5   4  -5  163.59   31.69
   5  -4   5  175.99   27.52
   5  -4   5  186.94   27.92
   5  -4   5  171.80   30.26
   5  -4   6  962.02   45.85
   5  -4   6  931.06   45.62
   5  -4   6  904.65   48.97
   5  -4   6  962.88   46.49
   5  -4   7  406.27   32.24
   5  -4   7  368.32   37.83
   5  -4   7  400.20   31.10
   5  -4   7  426.80   37.00
   5  -4   8 7358.23  153.73
   5  -4   8 7483.86  153.71
   5  -4   8 7450.48  143.69
   5  -4   8 7188.47  151.90
   5  -4   9  464.59   42.97
   5  -4   9  485.88   41.02
   5  -4   9  425.68   33.20
   5  -4   9  405.90   37.49
   5  -4  1025235.27  312.00
   5  -4  1025676.20  333.22
   5  -4  1025438.83  308.18
   5  -4  11  148.00   36.21
   5  -4  11   94.82   25.77
   5  -4  11  105.76   33.87
   5  -4  11  114.96   28.66
   5  -4  12 5449.39  101.99
   5  -4  12 5634.78  114.03
   5  -4  12 5465.61   96.68
   5  -4  12 5468.35  101.33
   5  -4  13  478.24   44.26
   5  -4  13  522.29   44.26
   5  -4  13  540.41   40.43
   5  -4  13  524.91   40.53
   5  -4  14  168.97   35.78
   5  -4  14  115.31   26.05
   5  -4  14  147.35   34.57
   5  -4  14  116.71   31.01
   5  -4  15  231.62   39.11
   5  -4  15  238.05   35.66
   5  -4  15  232.16   35.68
   5  -4  16    6.24   34.36
   5  -4  16   48.09   29.72
   5  -4  16   17.75   28.43
   5  -4  17  304.60   42.92
   5  -4  17  313.13   39.09
   5  -4  18 2547.58   75.28
   5  -3 -14  130.72   39.69
   5  -3 -14   85.71   33.95
  -5   3  14  119.96   37.27
   5  -3 -13  624.97   50.80
   5  -3 -13  604.87   42.65
   5  -3 -13  580.11   46.16
   5  -3 -12  -14.21   34.54
   5  -3 -12    9.05   28.16
   5  -3 -12   -8.27   29.79
   5  -3 -11   73.93   28.16
   5  -3 -11  141.17   33.19
   5  -3 -11   99.55   32.67
   5  -3 -10   99.34   35.42
   5  -3 -10  107.22   35.90
   5  -3 -10   94.41   33.09
   5  -3  -9  131.46   36.71
   5  -3  -9  112.23   32.87
   5  -3  -9  156.77   32.75
   5  -3  -813170.80  186.33
   5  -3  -813776.89  190.03
   5  -3  -813227.41  180.55
   5  -3  -812924.34  184.09
   5  -3  -7  169.11   35.28
   5  -3  -7  203.64   28.93
   5  -3  -7  209.55   25.90
   5  -3  -6 8779.34  162.12
   5  -3  -6 8381.40  154.61
   5  -3  -5 4607.90  101.38
   5  -3  -5 4574.73   96.78
   5  -3  -4  532.08   41.95
   5  -3  -4  499.27   40.25
   5  -3  -4  595.09   40.98
   5  -3  -3  331.92   31.98
   5  -3  -3  354.39   32.64
   5  -3  -3  347.84   30.90
   5  -3  -3  360.19   30.65
  -5   3   2  196.46   47.09
   5  -3  -2  179.33   29.01
   5  -3  -2  234.98   34.18
   5  -3  -2  223.31   31.61
   5  -3  -2  226.99   30.16
  -5   3   1   96.74   25.69
   5  -3  -1   97.53   28.15
   5  -3  -1  134.79   23.79
   5  -3  -1   95.03   28.64
  -5   3   0  116.61   31.57
   5  -3   0  121.26   28.73
   5  -3   0  121.99   29.05
  -5   3  -1 2569.04   81.68
   5  -3   1 2336.26   72.33
   5  -3   1 2485.15   82.33
  -5   3  -2 7671.09  152.12
   5  -3   2 7471.24  133.20
   5  -3   2 7243.39  130.62
  -5   3  -3  210.97   32.61
  -5   3  -3  271.47   33.95
   5  -3   3  197.85   27.00
   5  -3   3  203.43   28.42
   5  -3   3  196.13   30.03
  -5   3  -4 2502.53   79.45
   5  -3   4 2433.87   70.20
   5  -3   4 2461.51   71.31
   5  -3   4 2191.10   68.81
  -5   3  -5 1039.77   53.07
   5  -3   5  970.01   44.26
   5  -3   5  990.46   48.96
   5  -3   5  922.91   46.96
  -5   3  -6    0.27   30.78
  -5   3  -6  -10.00   26.24
   5  -3   6   21.18   21.38
   5  -3   6   13.67   21.95
   5  -3   6  -20.50   23.02
   5  -3   6  -16.65   21.71
  -5   3  -7 3505.74  122.36
  -5   3  -7 3418.11  106.64
   5  -3   7 3573.84   87.38
   5  -3   7 3662.51   86.14
   5  -3   7 3537.18   93.84
   5  -3   7 3457.38   84.82
   5  -3   8  354.93   40.71
   5  -3   8  385.51   39.20
   5  -3   8  398.00   30.83
   5  -3   8  435.36   35.49
   5  -3   9 9983.09  188.50
   5  -3   9 9905.52  183.31
   5  -3   910163.74  180.11
   5  -3   910050.21  181.35
   5  -3  10 1684.07   62.65
   5  -3  10 1865.75   61.28
   5  -3  10 1826.77   59.02
   5  -3  11 2903.56   78.01
   5  -3  11 2880.85   77.75
   5  -3  11 2782.58   74.34
   5  -3  11 2780.22   77.82
   5  -3  12  314.09   33.06
   5  -3  12  269.91   39.05
   5  -3  12  280.45   39.57
   5  -3  12  296.03   33.46
   5  -3  13  667.99   46.64
   5  -3  13  660.28   46.02
   5  -3  13  658.96   43.70
   5  -3  13  663.73   43.67
   5  -3  14 2280.69   72.11
   5  -3  14 2246.82   69.13
   5  -3  14 2310.36   67.40
   5  -3  14 2232.21   68.50
   5  -3  15  427.54   40.27
   5  -3  15  399.25   38.45
   5  -3  15  400.16   39.19
   5  -3  16  154.06   33.64
   5  -3  16  197.77   38.54
   5  -3  16  187.69   34.11
   5  -3  17  536.82   43.42
   5  -3  17  540.66   47.44
   5  -3  17  558.79   43.08
   5  -2 -15 3763.59  126.04
   5  -2 -15 3727.83  111.97
   5  -2 -15 3751.27  108.17
   5  -2 -14  383.27   43.75
   5  -2 -14  417.95   40.48
   5  -2 -14  414.89   44.62
   5  -2 -13   44.08   33.84
   5  -2 -13   82.73   30.32
   5  -2 -13   63.93   30.02
   5  -2 -12  638.42   45.93
   5  -2 -12  624.38   44.07
   5  -2 -12  607.19   55.35
   5  -2 -11  223.21   41.75
   5  -2 -11  172.49   30.14
   5  -2 -11  257.97   33.95
   5  -2 -10 1190.20   64.47
   5  -2 -10 1165.06   52.72
   5  -2 -10 1262.43   61.04
   5  -2  -9 2869.80   86.22
   5  -2  -9 3271.60   95.20
   5  -2  -9 3061.41   85.17
   5  -2  -9 3150.18   88.45
   5  -2  -8 5274.20  109.06
   5  -2  -8 5037.05   99.61
   5  -2  -8 5061.60  113.33
   5  -2  -7 1683.41   64.92
   5  -2  -7 1776.35   61.78
   5  -2  -6 3432.34   90.65
   5  -2  -6 3961.37   96.25
   5  -2  -6 3880.26   87.49
   5  -2  -5 5566.18  138.34
   5  -2  -5 5733.31  142.91
   5  -2  -5 5696.17  138.25
  -5   2   4 1543.45   73.54
   5  -2  -4 1467.60   61.59
   5  -2  -4 1738.36   65.51
   5  -2  -4 1607.07   63.23
   5  -2  -4 1619.34   66.86
  -5   2   3  478.35   48.98
   5  -2  -3  438.26   36.57
   5  -2  -3  536.52   42.27
   5  -2  -3  452.52   34.81
  -5   2   2 2141.35   92.66
   5  -2  -2 1956.74   70.37
   5  -2  -2 2118.11   71.80
   5  -2  -2 2096.51   79.02
  -5   2   116490.93  237.76
   5  -2  -116107.42  218.37
   5  -2  -116730.64  227.70
   5  -2  -115678.31  246.71
  -5   2   0 1656.99   68.96
   5  -2   0 1520.43   58.10
   5  -2   0 1586.04   68.88
  -5   2  -1 1230.44   58.98
   5  -2   1 1204.47   56.63
   5  -2   1 1053.09   62.82
  -5   2  -210398.49  206.17
  -5   2  -210722.32  218.51
   5  -2   210210.54  198.48
   5  -2   2 9898.35  191.43
  -5   2  -3  909.20   52.74
  -5   2  -3  890.72   48.82
   5  -2   3  888.57   47.05
   5  -2   3  785.17   44.97
  -5   2  -4 9278.45  191.89
   5  -2   4 8557.56  172.15
   5  -2   4 8746.02  178.77
   5  -2   4 8493.61  176.73
  -5   2  -5 1410.77   63.34
   5  -2   5 1236.49   53.72
   5  -2   5 1310.16   63.26
   5  -2   5 1241.36   55.41
   5  -2   5 1270.40   49.45
  -5   2  -6 1129.65   59.83
   5  -2   6 1122.83   51.49
   5  -2   6 1148.97   52.50
   5  -2   6 1183.33   52.90
  -5   2  -7  398.60   36.29
  -5   2  -7  384.16   33.25
   5  -2   7  406.68   35.32
   5  -2   7  427.62   33.11
   5  -2   7  446.77   36.79
   5  -2   7  425.65   35.82
  -5   2  -8   38.29   32.42
  -5   2  -8   42.43   31.29
   5  -2   8   77.04   30.54
   5  -2   8   57.61   27.65
   5  -2   8   46.83   19.53
   5  -2   8   51.50   28.76
   5  -2   9 9425.55  191.43
   5  -2   910188.73  195.68
   5  -2   910015.47  198.73
   5  -2  10 7902.90  160.49
   5  -2  10 7761.57  158.39
   5  -2  10 7789.79  150.04
   5  -2  10 7622.13  151.41
   5  -2  11 2144.67   71.01
   5  -2  11 2215.74   71.53
   5  -2  11 2219.79   63.14
   5  -2  11 2128.07   64.72
   5  -2  12 7528.93  145.05
   5  -2  12 7493.36  133.64
   5  -2  12 7413.84  131.66
   5  -2  12 7524.41  146.06
   5  -2  13 3941.01   93.93
   5  -2  13 4352.46   93.53
   5  -2  13 4132.46   88.10
   5  -2  13 4030.28   89.51
   5  -2  14  681.87   41.09
   5  -2  14  699.67   51.35
   5  -2  14  724.01   43.75
   5  -2  14  635.33   43.77
   5  -2  15  215.47   36.59
   5  -2  15  250.63   39.88
   5  -2  15  216.12   33.01
   5  -2  16  126.69   31.33
   5  -2  16  125.17   33.45
   5  -2  16  163.24   33.11
   5  -2  17 1037.73   54.13
   5  -2  17  947.84   51.77
   5  -2  17  958.54   46.27
   5  -2  18  310.58   34.84
   5  -1 -15 1851.06   97.72
   5  -1 -15 1801.81   89.46
   5  -1 -15 1845.68   80.29
   5  -1 -14   40.93   33.43
   5  -1 -14    8.04   35.14
   5  -1 -14  -12.56   29.34
   5  -1 -13  651.91   45.01
   5  -1 -13  611.53   43.92
   5  -1 -13  626.31   47.43
   5  -1 -12   71.20   36.37
   5  -1 -12  150.38   30.88
   5  -1 -12   87.78   33.32
   5  -1 -12  102.89   34.09
   5  -1 -11 2175.14   76.71
   5  -1 -11 2368.07   81.49
   5  -1 -11 2106.01   71.80
   5  -1 -11 2253.25   71.95
   5  -1 -10   39.84   25.06
   5  -1 -10   35.27   31.64
   5  -1  -9 1362.76   60.16
   5  -1  -8 8072.74  151.42
   5  -1  -8 7839.31  148.13
   5  -1  -7 3701.25  100.45
   5  -1  -7 3681.77   91.91
   5  -1  -7 3586.87   91.42
   5  -1  -7 3400.76   89.95
   5  -1  -6  240.52   31.22
   5  -1  -6  301.96   31.88
   5  -1  -6  265.04   30.76
  -5   1   5 1993.12   89.77
   5  -1  -5 1967.61   79.03
   5  -1  -5 1949.94   85.15
  -5   1   4 2194.42   84.51
   5  -1  -4 2097.45   71.67
   5  -1  -4 2300.19   74.75
   5  -1  -4 2267.85   77.58
  -5   1   3  143.66   35.88
   5  -1  -3  105.25   25.51
   5  -1  -3   95.38   28.24
   5  -1  -3  132.76   33.11
  -5   1   2   19.20   29.41
   5  -1  -2    8.38   20.30
   5  -1  -2    8.26   27.39
   5  -1  -2   26.37   22.96
  -5   1   123488.36  411.03
   5  -1  -122545.92  362.28
   5  -1  -122449.13  367.63
   5  -1  -121251.68  356.04
  -5   1   0 6227.63  158.30
   5  -1   0 6145.22  136.77
   5  -1   0 6230.41  148.35
  -5   1  -1  856.94   48.09
   5  -1   1  867.21   45.38
  -5   1  -2   40.95   27.52
  -5   1  -2   62.24   25.54
   5  -1   2   43.63   23.39
  -5   1  -3 3818.22  101.26
  -5   1  -3 3895.46  100.01
   5  -1   3 3654.22   91.49
   5  -1   3 3705.44   91.49
  -5   1  -4  484.29   41.98
  -5   1  -4  409.80   37.80
   5  -1   4  454.33   37.88
   5  -1   4  452.39   36.59
  -5   1  -5  931.21   48.67
  -5   1  -5  991.82   50.64
   5  -1   5  903.89   53.30
   5  -1   5  959.41   48.02
   5  -1   5  927.42   44.56
  -5   1  -6    3.67   21.60
  -5   1  -6   31.51   18.92
   5  -1   6    3.45   22.87
   5  -1   6   -0.40   23.35
   5  -1   6  -14.71   23.67
   5  -1   6   35.50   16.70
  -5   1  -7 2207.00   85.60
   5  -1   7 2230.25   78.68
   5  -1   7 2254.66   69.59
   5  -1   7 2236.61   81.09
  -5   1  -8 1126.52   56.80
  -5   1  -8 1182.84   70.93
   5  -1   8 1152.17   48.73
   5  -1   8 1139.83   53.30
   5  -1   8 1178.34   50.41
  -5   1  -9 4212.64  115.64
   5  -1   9 3807.50   94.96
   5  -1   9 3882.00   98.17
   5  -1   9 4077.74   89.09
   5  -1  10   30.44   25.38
   5  -1  10   31.23   25.64
   5  -1  10   43.98   29.48
   5  -1  10   23.69   24.39
   5  -1  11  421.13   42.55
   5  -1  11  437.31   39.08
   5  -1  11  458.23   40.55
   5  -1  11  415.29   37.40
   5  -1  12  858.14   49.31
   5  -1  12  733.72   48.29
   5  -1  12  741.41   46.32
   5  -1  12  836.49   46.91
   5  -1  1311675.51  188.18
   5  -1  1311868.35  187.40
   5  -1  1311816.18  188.36
   5  -1  1311615.32  179.19
   5  -1  14 5656.87  112.70
   5  -1  14 5266.13  130.43
   5  -1  14 5557.20  111.96
   5  -1  14 5475.19  108.60
   5  -1  15 1429.61   57.49
   5  -1  15 1409.61   67.59
   5  -1  15 1481.43   60.99
   5  -1  15 1545.72   61.67
   5  -1  16  -19.72   32.98
   5  -1  16    4.65   33.69
   5  -1  16   26.02   30.15
   5  -1  16   20.45   30.24
   5  -1  17  904.48   44.69
   5  -1  17  860.33   63.84
   5  -1  17  854.18   51.54
   5  -1  18 1996.90   63.96
   5  -1  18 2011.59   85.45
   5  -1  19  161.83   31.67
   5   0 -16  241.63   41.53
   5   0 -16  211.16   42.81
   5   0 -16  256.80   48.22
   5   0 -15 1379.96   71.71
   5   0 -15 1314.66   74.92
   5   0 -15 1362.69   59.03
   5   0 -14  728.16   52.77
   5   0 -14  678.39   46.36
   5   0 -14  779.01   50.09
   5   0 -13   -0.42   35.45
   5   0 -13   55.43   33.78
   5   0 -13    4.89   27.27
   5   0 -13  -13.13   34.59
   5   0 -12  259.01   34.16
   5   0 -12  273.83   39.37
   5   0 -11 2550.54   82.73
   5   0 -11 2354.20   80.33
   5   0 -10  387.15   41.92
   5   0 -10  347.04   36.59
   5   0  -9  421.40   44.03
   5   0  -9  356.27   39.46
   5   0  -8 9676.69  181.17
   5   0  -8 9533.43  167.74
   5   0  -8 9465.57  173.76
   5   0  -7  829.69   53.53
   5   0  -7  903.08   53.63
   5   0  -7  841.99   50.58
   5   0  -6   12.80   21.41
   5   0  -6    3.58   35.94
   5   0  -5  548.51   45.98
   5   0  -5  568.47   48.34
   5   0  -5  553.85   45.36
   5   0  -4   -3.13   22.12
   5   0  -4    5.26   19.17
   5   0  -4   15.88   25.53
  -5   0   3  495.35   48.53
   5   0  -3  536.05   37.76
   5   0  -3  559.87   40.99
   5   0  -3  485.63   39.32
  -5   0   2 7284.39  177.01
   5   0  -2 6863.95  149.09
   5   0  -2 6970.64  166.45
   5   0  -2 6342.02  172.40
  -5   0   1 6372.96  149.78
   5   0  -1 6102.85  119.82
  -5   0   1 6054.29  187.93
   5   0  -1 6121.47  126.80
   5   0  -1 5439.29  133.55
  -5   0   0  116.45   29.40
  -5   0   0  144.01   28.76
   5   0   0  109.25   28.75
  -5   0  -1 1999.19   87.50
  -5   0  -1 2072.77   72.69
  -5   0  -1 2065.58   82.45
  -5   0  -211197.94  207.96
  -5   0  -211259.88  195.63
  -5   0  -211063.64  208.62
  -5   0  -3 1234.77   54.07
  -5   0  -3 1274.98   69.80
  -5   0  -4  211.74   28.23
  -5   0  -4  175.19   31.88
   5   0   4  189.75   26.01
   5   0   4  192.76   28.40
   5   0   4  166.95   26.04
  -5   0  -5   -3.54   15.24
  -5   0  -5  -16.34   24.99
   5   0   5   10.08   20.97
   5   0   5    0.53   19.22
   5   0   5    3.54   19.86
  -5   0  -6   78.54   23.90
  -5   0  -6   78.81   21.06
   5   0   6   66.07   24.82
   5   0   6   50.13   23.52
   5   0   6   91.93   17.88
  -5   0  -7  137.80   26.31
  -5   0  -7  172.96   30.97
   5   0   7  162.62   26.79
   5   0   7  137.97   24.97
   5   0   7  113.59   26.80
   5   0   7  159.09   26.72
   5   0   7  154.98   26.28
   5   0   8   69.92   25.90
   5   0   8   72.42   26.47
   5   0   8   37.33   26.51
   5   0   8   61.11   25.00
   5   0   9  926.30   55.24
   5   0   9 1018.93   47.59
   5   0   9  958.96   49.55
   5   0   9  968.86   47.32
  -5   0 -10 3568.66  133.67
   5   0  10 4126.64   93.11
   5   0  10 3819.32  105.38
   5   0  10 3771.68  106.94
   5   0  10 4022.89   93.20
   5   0  11  584.89   37.13
   5   0  11  647.17   47.27
   5   0  11  648.14   38.42
   5   0  11  621.44   42.34
   5   0  11  710.37   43.47
   5   0  12  170.51   32.18
   5   0  12  126.84   33.90
   5   0  12  104.49   31.26
   5   0  12  139.27   33.31
   5   0  12  184.36   33.25
   5   0  13 1327.55   52.19
   5   0  13 1269.34   61.48
   5   0  13 1300.18   56.34
   5   0  13 1282.87   50.28
   5   0  13 1382.69   56.92
   5   0  14  119.71   31.52
   5   0  14  141.75   29.03
   5   0  14  131.81   31.31
   5   0  14  125.17   31.35
   5   0  15  627.19   45.55
   5   0  15  632.55   48.32
   5   0  15  647.25   44.38
   5   0  15  633.98   44.38
   5   0  16  102.06   33.94
   5   0  16   78.85   33.19
   5   0  16  110.37   32.65
   5   0  16  118.05   30.72
   5   0  16  127.16   30.46
   5   0  17 1564.48   56.57
   5   0  17 1511.15   75.70
   5   0  17 1532.96   60.06
   5   0  17 1512.10   85.80
  -5   0 -18 1729.39   61.94
   5   0  18 1595.64   69.19
  -5   0 -19  628.50   43.53
   5   0  19  595.09   50.42
   5   0  19  648.23   42.86
   5   0  20   41.47   47.70
   5   0  20   56.23   28.92
   5   1 -16  128.67   42.57
   5   1 -16   98.45   39.67
   5   1 -16  166.37   39.43
   5   1 -15  275.56   39.57
   5   1 -15  328.22   42.10
   5   1 -15  314.00   38.59
   5   1 -14  425.78   44.66
   5   1 -14  449.21   39.16
   5   1 -13  178.13   41.80
   5   1 -13  163.00   37.57
   5   1 -12  712.20   49.85
   5   1 -12  653.47   40.95
   5   1 -11 6106.85  122.61
   5   1 -11 6467.78  131.64
   5   1 -11 6346.53  118.88
   5   1 -10 6163.38  127.51
   5   1 -10 6598.50  135.56
   5   1 -10 6165.94  122.14
   5   1  -9   51.74   26.20
   5   1  -9   76.17   30.62
   5   1  -9   62.29   27.94
   5   1  -8 6999.10  145.88
   5   1  -8 7028.17  137.77
   5   1  -8 7551.83  144.65
   5   1  -7   89.84   32.42
   5   1  -7   93.89   34.54
   5   1  -7   76.09   34.68
   5   1  -7   89.55   29.88
   5   1  -6  126.02   38.10
   5   1  -6  154.12   34.91
   5   1  -6   83.52   33.23
   5   1  -5  276.13   38.51
  -5  -1   5  315.56   39.15
   5   1  -5  268.17   40.83
   5   1  -5  261.73   43.10
   5   1  -4 2652.12  100.86
  -5  -1   4 2674.83  103.31
   5   1  -4 2846.19   89.78
   5   1  -4 2599.06   93.35
   5   1  -3 2704.90   85.81
   5   1  -3 2595.80   75.88
  -5  -1   3 2840.81   93.43
   5   1  -3 2697.52   89.05
   5   1  -3 2638.60   98.97
  -5  -1   2   33.69   21.05
   5   1  -2   21.29   17.99
  -5  -1   2   40.23   24.84
   5   1  -2   31.39   24.57
   5   1  -2   26.85   29.30
  -5  -1   116466.02  266.44
  -5  -1   116895.15  284.07
  -5  -1   116230.56  247.93
  -5  -1   116826.63  273.87
  -5  -1   0  430.84   42.39
  -5  -1   0  420.69   34.70
  -5  -1   0  431.15   35.45
  -5  -1   0  450.44   39.34
  -5  -1  -1 6459.58  140.96
  -5  -1  -1 6229.27  129.90
  -5  -1  -1 6474.65  126.90
  -5  -1  -1 6497.15  156.24
  -5  -1  -2  143.97   25.89
  -5  -1  -2  138.00   26.80
  -5  -1  -2  136.88   23.91
  -5  -1  -3 9926.84  185.91
  -5  -1  -310082.33  171.55
   5   1   3 9692.31  201.25
  -5  -1  -4   87.08   25.22
  -5  -1  -4  152.08   24.99
   5   1   4   94.07   24.32
   5   1   4  112.07   24.05
   5   1   4  108.60   18.11
  -5  -1  -5    6.34   19.54
  -5  -1  -5    0.17   25.40
   5   1   5   17.12   18.37
   5   1   5    7.11   22.17
   5   1   5   12.91   19.19
  -5  -1  -6 2670.62   82.40
  -5  -1  -6 2947.36   83.67
   5   1   6 2643.33   90.96
   5   1   6 2550.43   73.61
   5   1   6 2656.69   71.28
  -5  -1  -7 2929.66   95.87
   5   1   7 2699.01   97.99
   5   1   7 2533.01   84.36
   5   1   7 2703.19   89.06
   5   1   7 2692.51   81.40
   5   1   7 2647.99   82.65
   5   1   7 2532.50   81.03
  -5  -1  -8 2088.11   73.73
   5   1   8 1841.32   80.65
   5   1   8 1957.12   68.29
   5   1   8 1891.14   77.12
   5   1   8 1867.75   62.32
   5   1   8 1940.60   68.41
  -5  -1  -9  207.80   34.59
   5   1   9  208.44   32.85
   5   1   9  209.48   26.81
   5   1   9  217.47   34.18
   5   1   9  231.77   30.89
   5   1   9  201.29   30.97
   5   1   9  172.19   24.72
   5   1  10 6966.10  170.37
   5   1  10 7210.20  157.14
   5   1  10 7453.01  178.32
   5   1  10 7441.59  158.36
   5   1  10 7453.10  159.66
   5   1  1113878.25  233.05
   5   1  1113339.21  250.96
   5   1  1114125.28  234.00
   5   1  1114107.72  231.35
   5   1  12 7972.97  146.47
   5   1  12 7831.66  143.58
   5   1  12 7977.76  142.45
   5   1  12 7696.98  136.62
   5   1  13 1603.20   61.19
   5   1  13 1605.32   58.90
   5   1  13 1505.77   64.63
   5   1  13 1617.13   59.96
   5   1  13 1614.88   58.59
   5   1  14  934.90   49.28
   5   1  14  938.64   49.39
   5   1  14  919.73   52.42
   5   1  14  892.67   51.56
   5   1  14  936.36   47.98
   5   1  15   50.73   31.35
   5   1  15   84.19   31.66
   5   1  15   27.00   31.74
   5   1  15   54.17   31.54
   5   1  15   57.87   29.66
   5   1  15   46.83   31.21
   5   1  16  422.83   40.26
   5   1  16  492.88   42.07
   5   1  16  413.89   40.89
   5   1  16  514.35   40.25
   5   1  16  484.77   40.63
   5   1  17   72.82   37.91
   5   1  17   24.44   41.57
   5   1  17   22.35   30.44
   5   1  18  834.60   47.81
  -5  -1 -18  936.58   44.73
   5   1  18  917.39   54.32
   5   1  18  911.54   50.21
   5   1  18  866.43   66.85
   5   1  19  568.74   49.41
  -5  -1 -19  629.32   41.95
   5   1  19  591.22   53.39
   5   1  19  625.84   42.18
  -5  -1 -20   31.07   30.06
   5   1  20    4.98   38.57
   5   1  20   38.17   28.34
   5   2 -16  228.78   36.14
   5   2 -15 1414.34   60.87
   5   2 -15 1314.25   61.47
   5   2 -14 1305.51   60.37
   5   2 -14 1256.61   55.87
   5   2 -13  601.78   52.17
   5   2 -13  709.16   49.85
   5   2 -13  653.77   43.76
   5   2 -12 6801.03  160.55
   5   2 -12 6834.11  156.17
   5   2 -12 6764.95  150.83
   5   2 -11  604.34   55.09
   5   2 -11  588.40   50.35
   5   2 -11  633.27   48.10
   5   2 -10 1093.54   66.53
   5   2 -10 1071.46   55.64
   5   2 -10 1077.69   57.46
   5   2 -10 1084.06   53.49
   5   2  -9 1922.54   76.85
   5   2  -9 1884.22   65.08
   5   2  -9 1863.46   73.36
   5   2  -9 1855.40   61.80
   5   2  -8 4529.68  114.74
   5   2  -8 4420.70  101.36
   5   2  -8 4640.41  102.83
   5   2  -7  237.71   37.71
   5   2  -7  239.41   32.31
   5   2  -7  239.60   33.52
   5   2  -6   35.44   34.79
  -5  -2   6   47.68   30.58
   5   2  -6   29.55   28.91
   5   2  -6   42.45   22.71
   5   2  -6   48.35   31.63
   5   2  -6   30.57   23.56
   5   2  -5 3235.98  111.68
  -5  -2   5 3411.95  125.13
   5   2  -5 3435.05   98.02
   5   2  -5 3316.52   88.46
   5   2  -5 3290.28   99.71
   5   2  -4  288.35   36.92
  -5  -2   4  242.32   30.42
   5   2  -4  327.72   36.32
   5   2  -4  260.41   26.52
   5   2  -4  263.71   42.29
   5   2  -316100.17  282.61
  -5  -2   316062.31  328.15
   5   2  -316148.81  308.66
   5   2  -315544.05  277.92
   5   2  -315437.37  288.55
   5   2  -2  834.56   49.43
  -5  -2   2  737.14   44.62
  -5  -2   2  767.74   43.93
  -5  -2   2  812.24   56.87
   5   2  -2  801.73   71.36
  -5  -2   1  789.32   51.25
  -5  -2   1  887.82   49.89
  -5  -2   1  852.32   46.73
  -5  -2   1  838.88   54.15
  -5  -2   0   44.32   20.02
  -5  -2   0   45.15   18.35
  -5  -2   0   38.97   19.69
  -5  -2   0   57.43   25.95
  -5  -2  -1  960.25   53.70
  -5  -2  -1 1015.42   51.17
  -5  -2  -1  915.73   45.04
  -5  -2  -1 1012.69   63.72
  -5  -2  -2 3499.54  130.86
  -5  -2  -2 3410.91  119.04
  -5  -2  -2 3496.23  130.39
  -5  -2  -3  352.34   36.51
  -5  -2  -3  342.32   35.73
  -5  -2  -3  312.77   32.11
   5   2   3  391.22   38.01
  -5  -2  -4   39.01   20.65
  -5  -2  -4   13.83   27.07
   5   2   4   56.74   21.11
   5   2   4   34.99   22.53
  -5  -2  -5 1599.06   65.65
  -5  -2  -5 1852.31   71.50
   5   2   5 1767.98   79.63
   5   2   5 1640.55   65.69
   5   2   5 1616.40   74.37
  -5  -2  -610470.21  188.14
   5   2   610401.37  211.91
   5   2   610186.02  184.29
   5   2   6 9387.21  177.90
   5   2   6 9476.25  174.63
  -5  -2  -7 1636.29   61.63
   5   2   7 1402.60   61.11
   5   2   7 1396.36   59.67
   5   2   7 1431.75   51.59
   5   2   7 1336.72   60.85
  -5  -2  -8 4208.17   99.31
   5   2   8 3971.10   99.34
   5   2   8 3954.95   96.44
   5   2   8 4012.56  101.76
   5   2   8 4044.69   99.70
   5   2   8 4009.92   89.72
   5   2   8 3752.49   90.59
  -5  -2  -9 1050.06   54.42
   5   2   9  986.34   50.55
   5   2   9  995.73   47.65
   5   2   9 1025.11   49.72
   5   2   9 1131.23   49.50
   5   2   9  985.07   45.67
   5   2   9  992.08   50.51
  -5  -2 -10 3597.63   95.60
   5   2  10 3528.81  103.78
   5   2  10 3599.29   85.74
   5   2  10 3622.51   98.00
   5   2  10 3480.29   84.22
   5   2  10 3677.34   94.72
   5   2  10 3584.22   83.14
   5   2  11 4923.51  106.43
   5   2  11 5055.59  100.11
   5   2  11 5183.34  116.84
   5   2  11 5085.75  101.28
   5   2  11 4828.19   97.41
   5   2  11 5253.57  102.85
   5   2  12 1524.73   64.56
   5   2  12 1554.27   56.04
   5   2  12 1546.09   67.61
   5   2  12 1649.11   59.05
   5   2  12 1689.87   59.86
   5   2  13  -20.18   27.06
   5   2  13   39.10   25.08
   5   2  13   11.85   26.47
   5   2  13   13.81   27.72
   5   2  13   49.86   26.18
   5   2  14  541.38   42.71
   5   2  14  566.80   36.58
   5   2  14  599.44   49.07
   5   2  14  552.05   38.52
   5   2  14  579.69   41.21
   5   2  15 3655.62   90.70
   5   2  15 3549.11   87.39
   5   2  15 3483.48  102.56
   5   2  15 3391.09   84.33
   5   2  15 3323.71   85.46
   5   2  15 3564.81   97.54
   5   2  16  434.75   39.72
   5   2  16  431.74   43.60
   5   2  16  438.03   42.59
   5   2  16  405.82   42.03
   5   2  17  876.11   50.68
  -5  -2 -17  884.24   48.08
   5   2  17  835.65   55.40
   5   2  17  851.90   56.40
   5   2  18 4092.20  110.02
  -5  -2 -18 4121.54   89.66
   5   2  18 3992.94  103.61
   5   2  18 4118.80   94.07
   5   2  18 3820.70  112.78
   5   2  19 1071.64   54.37
  -5  -2 -19 1097.70   53.26
   5   2  19 1017.74   58.99
   5   2  19 1059.73   52.79
   5   2  20   93.58   38.63
  -5  -2 -20  144.48   30.21
   5   2  20  113.28   38.92
   5   2  20  136.19   29.79
   5   3 -16   80.47   30.63
   5   3 -15  320.72   44.60
   5   3 -15  306.59   47.75
   5   3 -15  261.18   37.25
   5   3 -14   41.49   41.09
   5   3 -14   32.12   34.35
   5   3 -14   51.30   28.94
   5   3 -13  223.48   46.77
   5   3 -13  305.92   40.90
   5   3 -13  277.59   37.70
   5   3 -12  573.00   50.59
   5   3 -12  528.91   46.51
   5   3 -12  501.71   41.45
   5   3 -11 4173.27  107.28
   5   3 -11 4328.55   91.97
   5   3 -11 4265.21  110.35
   5   3 -11 4277.53  102.50
   5   3 -10 3247.65   92.99
   5   3 -10 3177.02   81.66
   5   3 -10 3312.22  100.18
   5   3 -10 3341.43   85.30
   5   3  -9 1322.86   61.96
   5   3  -9 1338.48   58.07
   5   3  -9 1547.01   69.42
   5   3  -9 1435.75   57.38
   5   3  -8  188.65   39.60
   5   3  -8  191.11   31.89
   5   3  -8  179.49   40.98
   5   3  -8  180.34   29.59
   5   3  -7 1049.09   59.12
   5   3  -7 1042.91   50.22
   5   3  -7  974.66   55.60
   5   3  -6 3276.29  101.21
  -5  -3   6 3675.79  114.55
   5   3  -6 3505.13   98.73
   5   3  -6 3441.91   82.15
   5   3  -6 3573.03  100.48
   5   3  -6 3451.11   90.45
   5   3  -5  164.23   35.27
  -5  -3   5  157.00   32.64
   5   3  -5  157.86   30.75
   5   3  -5  162.81   30.57
   5   3  -5  137.20   37.58
   5   3  -4 4739.53  129.11
  -5  -3   4 5016.22  130.21
   5   3  -4 4885.60  121.55
   5   3  -4 4627.57  101.47
   5   3  -4 4539.05  118.56
   5   3  -3 5174.75  120.75
  -5  -3   3 5662.93  149.34
   5   3  -3 5475.59  148.88
   5   3  -3 5229.40  117.48
   5   3  -3 5310.74  128.97
   5   3  -2  881.77   51.25
  -5  -3   2  883.66   56.01
  -5  -3   2  945.38   51.39
   5   3  -2  874.81   48.72
   5   3  -2  842.86   52.62
   5   3  -1 3265.16   96.00
  -5  -3   1 3234.14   89.62
  -5  -3   1 2931.15   81.59
  -5  -3   1 3225.43   93.45
  -5  -3   0  311.55   37.53
  -5  -3   0  298.99   30.11
  -5  -3   0  266.42   30.09
  -5  -3   0  289.81   31.91
  -5  -3  -1 4759.32  175.88
  -5  -3  -1 5207.85  141.34
  -5  -3  -1 5011.38  105.74
  -5  -3  -1 5371.14  138.93
  -5  -3  -2  492.60   44.42
  -5  -3  -2  519.81   39.50
  -5  -3  -2  514.29   36.46
   5   3   2  480.81   37.51
  -5  -3  -3  471.87   43.03
  -5  -3  -3  516.51   37.97
  -5  -3  -3  491.86   37.26
   5   3   3  436.26   36.30
  -5  -3  -4  495.07   38.70
  -5  -3  -4  507.33   34.79
   5   3   4  509.56   40.41
   5   3   4  490.77   41.57
  -5  -3  -5 4916.28  112.93
  -5  -3  -5 5032.40  109.09
   5   3   5 4818.01  136.80
   5   3   5 4705.63  121.66
   5   3   5 4758.61  104.62
  -5  -3  -6 1520.88   58.42
   5   3   6 1595.11   62.87
   5   3   6 1558.32   64.10
   5   3   6 1493.49   56.59
   5   3   6 1466.29   55.36
  -5  -3  -7  525.71   43.33
  -5  -3  -7  583.58   42.77
   5   3   7  577.62   40.76
   5   3   7  602.37   42.52
   5   3   7  556.91   36.34
   5   3   7  579.33   37.62
  -5  -3  -8 1626.31   79.41
  -5  -3  -8 1616.30   61.86
   5   3   8 1654.00   76.92
   5   3   8 1669.94   67.22
   5   3   8 1650.45   60.41
   5   3   8 1559.82   62.52
   5   3   8 1613.15   59.25
  -5  -3  -9  516.66   43.96
  -5  -3  -9  610.49   42.94
   5   3   9  607.92   45.44
   5   3   9  562.28   38.55
   5   3   9  529.85   38.98
   5   3   9  586.14   43.49
   5   3   9  555.77   40.17
   5   3   9  547.87   38.57
   5   3   9  550.81   37.99
  -5  -3 -10  143.92   26.91
  -5  -3 -10  186.72   35.59
   5   3  10  216.32   36.75
   5   3  10  178.61   30.21
   5   3  10  167.09   28.32
   5   3  10  199.96   36.09
   5   3  10  179.39   24.24
   5   3  10  184.74   30.34
   5   3  10  168.33   27.62
   5   3  11   90.14   22.88
   5   3  11  108.64   27.86
   5   3  11   95.43   32.17
   5   3  11  144.99   27.86
   5   3  11  170.36   28.20
   5   3  12 5093.19  113.34
   5   3  12 5438.82   99.99
   5   3  12 5054.41  115.47
   5   3  12 5355.58  100.51
   5   3  12 5505.28  105.16
   5   3  13 2273.45   76.50
   5   3  13 2250.54   70.16
   5   3  13 2317.57   78.93
   5   3  13 2380.89   71.16
   5   3  13 2410.20   69.35
   5   3  14 2928.89   79.12
   5   3  14 2750.33   81.39
   5   3  14 2814.46   84.79
   5   3  14 2706.70   74.32
   5   3  14 2922.81   76.85
   5   3  14 2769.24   86.79
   5   3  15 4453.65  101.43
  -5  -3 -15 4467.17  100.78
   5   3  15 4337.16  112.74
   5   3  15 4277.41   92.15
   5   3  15 4295.81   95.71
   5   3  1622918.64  417.83
  -5  -3 -1624522.65  221.71
   5   3  1623136.77  426.55
   5   3  1622963.27  445.36
   5   3  17  230.52   34.44
  -5  -3 -17  251.15   33.85
   5   3  17  156.58   39.44
   5   3  17  225.44   33.24
   5   3  17  194.58   37.82
   5   3  18  739.80   46.33
  -5  -3 -18  754.26   46.08
   5   3  18  798.35   47.06
   5   3  18  761.01   48.27
   5   3  18  784.15   48.32
   5   3  19  220.31   37.86
  -5  -3 -19  202.18   33.85
   5   3  19  242.30   35.57
   5   3  19  238.11   37.32
   5   3  19  203.88   40.55
   5   3  20   64.85   36.33
  -5  -3 -20   55.36   28.03
   5   3  20   31.63   41.50
   5   3  20   59.91   31.86
   5   4 -16   51.10   36.45
   5   4 -16   19.38   30.29
   5   4 -15   28.15   39.46
   5   4 -15   43.29   35.93
   5   4 -15    0.43   32.32
   5   4 -14  634.43   48.22
   5   4 -14  622.72   46.64
   5   4 -14  638.26   44.32
   5   4 -13 8920.35  150.59
   5   4 -13 8764.82  151.87
   5   4 -13 8707.53  138.43
   5   4 -12  737.01   56.43
   5   4 -12  741.45   54.45
   5   4 -12  806.30   49.87
   5   4 -11 3079.18   91.04
   5   4 -11 3216.75   81.57
   5   4 -11 3268.93  100.17
   5   4 -11 3067.43   83.42
   5   4 -10 1837.75   71.23
   5   4 -10 1758.34   60.95
   5   4 -10 1930.68   74.79
   5   4 -10 1839.75   65.62
   5   4  -9   33.70   31.60
   5   4  -9   -9.68   33.38
   5   4  -9   -4.90   28.12
   5   4  -9   25.06   27.48
   5   4  -8  -23.57   22.99
   5   4  -8   47.72   31.09
   5   4  -8   25.14   26.72
   5   4  -8    8.24   27.01
   5   4  -7  877.04   56.21
   5   4  -7  960.75   47.24
   5   4  -7  915.97   48.79
   5   4  -6  797.30   59.18
  -5  -4   6  816.86   54.26
   5   4  -6  817.41   50.50
   5   4  -6  730.91   43.74
   5   4  -6  748.49   45.33
   5   4  -5 4532.95  122.80
  -5  -4   5 4698.05  120.47
   5   4  -5 4502.05  119.49
   5   4  -5 4417.70  102.60
   5   4  -5 4834.04  126.37
   5   4  -5 4614.44  108.47
   5   4  -4  285.97   35.53
  -5  -4   4  228.31   36.94
   5   4  -4  240.29   39.34
   5   4  -4  267.13   33.20
   5   4  -4  239.90   44.40
   5   4  -3 4155.24  163.51
  -5  -4   3 4440.53  129.00
   5   4  -3 4178.75  116.14
   5   4  -3 4379.78  120.83
   5   4  -217013.94  263.63
  -5  -4   216997.56  266.33
  -5  -4   217225.68  270.10
   5   4  -216440.28  241.79
   5   4  -217062.32  279.00
   5   4  -1  865.45   49.29
  -5  -4   1  873.86   44.65
  -5  -4   1  919.49   56.89
   5   4  -1  850.31   52.29
   5   4  -1  877.65   59.57
  -5  -4   0 4168.06   98.83
  -5  -4   0 4148.19  116.60
   5   4   0 3817.11  102.74
  -5  -4  -1    7.92   25.70
  -5  -4  -1    6.54   20.11
  -5  -4  -1   13.10   18.39
  -5  -4  -1   -4.65   26.33
   5   4   1   20.60   23.04
  -5  -4  -2  130.62   26.64
  -5  -4  -2   97.88   24.64
   5   4   2  118.04   21.07
  -5  -4  -3  381.28   35.48
  -5  -4  -3  375.96   33.83
   5   4   3  436.73   33.66
   5   4   3  396.55   34.24
   5   4   3  384.40   31.92
  -5  -4  -4 7832.71  151.25
  -5  -4  -4 6958.18  127.05
   5   4   4 7556.27  154.08
   5   4   4 7322.83  161.96
   5   4   4 7007.19  129.93
  -5  -4  -5  102.44   28.50
  -5  -4  -5   75.01   27.15
   5   4   5   99.92   27.42
   5   4   5  124.88   28.57
   5   4   5  104.73   22.19
  -5  -4  -6 4006.80   93.06
   5   4   6 3931.55  109.42
   5   4   6 4019.52  102.02
   5   4   6 3520.80   81.22
   5   4   6 3855.96  107.47
  -5  -4  -7   45.55   22.51
  -5  -4  -7   41.73   26.28
   5   4   7   30.76   24.01
   5   4   7   65.70   21.59
   5   4   7   39.15   26.66
   5   4   7   51.64   18.57
   5   4   7   50.54   16.57
   5   4   7   43.19   17.42
  -5  -4  -819855.04  280.45
  -5  -4  -821052.87  258.98
   5   4   820864.23  275.52
   5   4   820954.79  257.83
   5   4   821041.08  265.24
   5   4   820977.82  254.97
   5   4   821156.20  241.52
   5   4   820359.81  272.96
  -5  -4  -9 6956.27  143.88
  -5  -4  -9 7209.57  133.07
   5   4   9 6895.68  140.71
   5   4   9 7090.84  124.21
   5   4   9 7147.88  122.04
   5   4   9 7485.73  138.72
   5   4   9 7279.24  129.70
   5   4   9 7096.12  120.34
  -5  -4 -10  223.27   37.51
  -5  -4 -10  254.42   34.02
   5   4  10  209.36   36.66
   5   4  10  242.60   31.82
   5   4  10  233.33   28.78
   5   4  10  284.31   37.06
   5   4  10  214.82   30.01
   5   4  10  261.22   26.24
   5   4  11    2.94   28.43
   5   4  11    6.84   22.41
   5   4  11  -21.52   29.42
   5   4  11   14.77   24.31
   5   4  11   -2.26   26.47
   5   4  12  469.20   38.03
   5   4  12  454.46   47.62
   5   4  12  522.28   38.25
   5   4  12  528.37   38.03
   5   4  13 2233.34   71.15
  -5  -4 -13 2337.26   70.80
   5   4  13 2248.71   78.48
   5   4  13 2263.28   64.55
   5   4  13 2325.39   69.87
   5   4  14  259.47   35.84
  -5  -4 -14  247.25   27.77
   5   4  14  243.31   38.84
   5   4  14  223.04   31.27
   5   4  14  245.09   31.88
   5   4  14  226.38   38.83
   5   4  15  900.90   51.95
  -5  -4 -15  923.05   46.54
   5   4  15  908.04   55.16
   5   4  15  850.14   48.35
   5   4  15  911.39   50.56
   5   4  16 2479.17   71.80
  -5  -4 -16 2523.18   73.51
   5   4  16 2446.93   77.95
   5   4  16 2492.86   81.53
   5   4  17  240.69   33.41
  -5  -4 -17  224.02   27.51
   5   4  17  183.94   38.36
   5   4  17  250.88   38.66
   5   4  17  205.20   37.74
   5   4  18   57.51   32.11
  -5  -4 -18   87.05   31.01
   5   4  18   77.26   38.83
   5   4  18   52.52   22.13
   5   4  18   65.19   36.75
   5   4  19  203.70   34.00
  -5  -4 -19  233.61   34.98
   5   4  19  209.72   42.11
   5   4  19  211.26   36.04
   5   4  19  197.73   41.79
   5   4  20 1766.95   73.42
  -5  -4 -20 1833.33   76.38
   5   4  20 1763.15   73.68
   5   4  20 1801.98   83.71
   5   5 -16  699.35   56.83
   5   5 -16  718.86   51.82
   5   5 -15  805.84   57.48
   5   5 -15  867.27   56.31
   5   5 -15  896.85   55.36
   5   5 -14  823.91   51.39
   5   5 -14  829.23   51.04
   5   5 -14  839.90   49.33
   5   5 -13 1734.13   71.24
   5   5 -13 1619.55   67.73
   5   5 -13 1779.39   64.41
  -5  -5  12 3045.81   86.50
   5   5 -12 3156.95  106.24
   5   5 -12 3187.89   97.04
   5   5 -12 3146.53  107.43
   5   5 -12 3031.78   81.75
  -5  -5  11   58.93   31.30
   5   5 -11   37.47   36.35
   5   5 -11   67.75   33.86
   5   5 -11   63.78   36.99
   5   5 -11   49.61   35.60
  -5  -5  10 3406.14   85.26
   5   5 -10 3460.63  100.04
   5   5 -10 3389.61   84.85
   5   5 -10 3457.05  100.33
   5   5 -10 3462.92   88.66
   5   5  -9  695.04   46.49
   5   5  -9  707.12   54.09
   5   5  -9  833.22   50.18
   5   5  -9  729.29   49.37
   5   5  -9  750.18   43.20
   5   5  -8  919.71   50.18
   5   5  -8  899.72   57.51
   5   5  -8  950.51   50.53
   5   5  -8 1035.41   62.35
   5   5  -8  974.89   51.33
   5   5  -7  213.25   33.61
   5   5  -7  283.05   29.39
   5   5  -7  247.80   42.92
   5   5  -7  248.88   36.91
   5   5  -6   40.07   35.12
  -5  -5   6   52.07   37.52
   5   5  -6   43.19   23.26
   5   5  -6   62.80   26.67
   5   5  -6   38.22   26.02
   5   5  -5 3221.45  106.13
  -5  -5   5 3383.75  105.40
   5   5  -5 3317.59   99.44
   5   5  -5 3495.74   83.80
   5   5  -5 3520.55  102.33
   5   5  -5 3348.04   91.75
   5   5  -4  566.53   46.64
  -5  -5   4  625.13   43.46
   5   5  -4  592.68   36.42
   5   5  -4  628.54   53.90
   5   5  -4  587.78   45.11
   5   5  -3  195.77   34.46
  -5  -5   3  157.25   23.42
  -5  -5   3  185.99   34.46
   5   5  -3  183.45   28.85
   5   5  -3  236.94   41.80
   5   5  -2  399.12   39.64
  -5  -5   2  393.27   30.85
  -5  -5   2  415.22   37.13
   5   5  -2  372.73   31.05
   5   5  -2  364.68   42.96
  -5  -5   110406.10  178.36
  -5  -5   1 9996.21  196.20
   5   5  -110029.28  178.85
   5   5  -1 9976.32  211.45
  -5  -5   0  105.44   24.69
  -5  -5   0  129.37   34.47
   5   5   0  108.45   27.53
   5   5   0  104.76   22.02
   5   5   0  145.67   29.15
  -5  -5  -1 1473.04   55.61
  -5  -5  -1 1515.93   69.53
   5   5   1 1445.05   66.10
   5   5   1 1419.16   52.88
  -5  -5  -2    1.12   20.84
  -5  -5  -2    9.54   17.20
   5   5   2   15.07   21.80
   5   5   2   12.05   24.57
   5   5   2   35.43   20.34
  -5  -5  -3  966.17   48.58
  -5  -5  -3  878.40   49.35
   5   5   3  973.39   51.05
   5   5   3  927.54   51.32
   5   5   3  892.39   42.01
  -5  -5  -4   -0.81   22.63
  -5  -5  -4    3.63   22.33
   5   5   4   12.22   18.76
   5   5   4   -8.44   14.98
   5   5   4    4.92   19.92
  -5  -5  -5 4486.87   99.85
   5   5   5 4383.78  104.19
   5   5   5 4400.01  102.74
   5   5   5 4545.34  112.50
   5   5   5 4346.15   97.16
   5   5   5 4322.31  107.77
  -5  -5  -6 1657.05   67.47
  -5  -5  -6 1732.68   65.41
   5   5   6 1766.07   78.25
   5   5   6 1786.13   70.40
   5   5   6 1700.33   67.17
   5   5   6 1738.08   61.37
  -5  -5  -7 3921.96  112.57
  -5  -5  -7 4348.62  104.61
   5   5   7 4117.53  104.45
   5   5   7 4296.07   97.37
   5   5   7 4367.40  104.68
   5   5   7 4016.06   89.60
   5   5   7 4093.29   94.80
  -5  -5  -8   11.32   21.37
  -5  -5  -8   24.29   22.69
   5   5   8    9.06   18.51
   5   5   8   13.19   21.41
   5   5   8   21.30   22.76
   5   5   8   12.85   21.23
   5   5   8   27.63   27.70
  -5  -5  -9 4973.89  126.98
  -5  -5  -9 5244.07  126.78
   5   5   9 5009.16  128.66
   5   5   9 5059.35  107.46
  -5  -5  -9 4759.03  105.06
   5   5   9 5240.15  112.91
   5   5   9 5102.02  100.96
   5   5   9 5067.59  108.12
   5   5  10  181.83   30.87
  -5  -5 -10  163.51   22.40
   5   5  10  158.22   27.22
   5   5  10  194.93   29.71
   5   5  10  183.27   30.33
   5   5  11    5.10   24.98
  -5  -5 -11   14.96   19.60
   5   5  11   22.56   24.92
   5   5  11    1.38   20.73
   5   5  11   25.83   26.61
   5   5  12   14.74   26.27
  -5  -5 -12   15.52   22.87
   5   5  12    4.78   34.20
   5   5  12    5.56   26.18
   5   5  12   20.52   20.34
   5   5  13  463.81   38.35
  -5  -5 -13  353.20   29.55
   5   5  13  361.30   41.91
   5   5  13  390.86   34.02
   5   5  13  398.96   33.28
   5   5  13  360.26   38.62
   5   5  14  624.04   39.46
  -5  -5 -14  607.84   37.19
   5   5  14  585.14   50.43
   5   5  14  555.90   37.70
   5   5  14  627.16   45.34
   5   5  15 4863.79  113.44
  -5  -5 -15 4828.82  115.47
   5   5  15 4426.34  105.24
   5   5  15 4489.66  101.07
   5   5  16 1487.83   67.68
  -5  -5 -16 1616.69   58.27
   5   5  16 1590.34   58.56
   5   5  16 1468.61   61.96
   5   5  17 2145.03   75.41
  -5  -5 -17 2271.09   71.29
   5   5  17 2149.21   68.06
   5   5  17 2150.92   68.82
   5   5  18 1985.47   68.53
  -5  -5 -18 2017.39   65.81
   5   5  18 2119.01   64.49
   5   5  18 1935.79   77.20
   5   5  19  906.82   54.40
  -5  -5 -19  915.51   50.24
   5   5  19  983.68   53.25
   5   5  19  850.30   59.80
   5   6 -15  679.47   57.03
   5   6 -15  718.02   54.72
   5   6 -15  711.54   46.16
   5   6 -14  815.55   59.39
   5   6 -14  856.33   53.93
   5   6 -14  922.41   51.45
  -5  -6  13   69.73   38.70
   5   6 -13   94.36   38.67
   5   6 -13   38.11   40.40
   5   6 -13   65.63   30.55
  -5  -6  12 3868.27  110.73
   5   6 -12 3836.00  124.51
   5   6 -12 3815.02  110.72
   5   6 -12 3739.95  123.25
   5   6 -12 3822.16  117.17
  -5  -6  11  777.23   46.02
   5   6 -11  686.31   54.65
   5   6 -11  792.10   50.85
   5   6 -11  775.11   58.25
   5   6 -11  715.13   42.81
   5   6 -10 1761.35   62.70
   5   6 -10 1684.63   75.67
   5   6 -10 1625.93   63.13
   5   6 -10 1770.80   78.15
   5   6 -10 1729.40   63.13
   5   6  -9  982.18   51.39
   5   6  -9 1004.46   59.64
   5   6  -9  966.58   53.47
   5   6  -9  981.58   67.84
   5   6  -9 1020.43   49.12
   5   6  -8 1688.85   67.46
   5   6  -8 1637.19   67.48
   5   6  -8 1780.53   64.37
   5   6  -8 1731.43   76.72
   5   6  -8 1808.65   62.49
   5   6  -7 3099.10   83.27
   5   6  -7 2875.27   89.82
   5   6  -7 3104.56   78.38
   5   6  -7 3146.63   93.60
   5   6  -7 3098.26   92.72
   5   6  -6  203.50   25.93
   5   6  -6  189.82   39.04
   5   6  -6  177.94   32.75
   5   6  -6  188.40   34.79
  -5  -6   5 8469.34  227.75
   5   6  -5 8328.62  175.07
   5   6  -5 8441.76  197.23
   5   6  -5 7996.75  177.15
  -5  -6   4 2581.42   93.97
   5   6  -4 2518.60   76.99
   5   6  -4 2444.40   77.85
   5   6  -4 2661.93   89.34
   5   6  -4 2553.34   81.62
  -5  -6   3 1664.44   68.33
   5   6  -3 1519.19   64.13
   5   6  -3 1591.19   58.05
   5   6  -3 1540.93   72.21
   5   6  -3 1468.70   66.88
  -5  -6   2  662.41   46.93
  -5  -6   2  648.01   43.80
   5   6  -2  692.73   40.33
   5   6  -2  674.87   39.64
   5   6  -2  742.84   56.23
  -5  -6   1   68.90   23.05
  -5  -6   1   26.72   31.07
   5   6  -1   64.68   21.25
   5   6  -1   65.74   26.30
   5   6  -1   90.45   25.29
   5   6  -1   53.30   33.84
  -5  -6   0   54.12   20.06
  -5  -6   0   40.41   29.91
   5   6   0   52.64   16.90
   5   6   0   34.56   24.96
   5   6   0   32.53   19.22
   5   6   0   55.99   33.61
  -5  -6  -1   47.35   25.59
   5   6   1   54.49   22.10
   5   6   1   55.50   25.83
   5   6   1   67.68   20.87
   5   6   1   73.44   31.15
  -5  -6  -2 1769.36   73.31
   5   6   2 1799.18   65.73
   5   6   2 1789.85   66.00
   5   6   2 1790.92   63.38
   5   6   2 1836.75   81.39
  -5  -6  -3    1.85   25.32
   5   6   3   63.11   19.35
   5   6   3   13.48   21.85
   5   6   3   43.80   21.76
   5   6   3   -3.02   22.06
   5   6   3   12.24   32.18
   5   6   3    5.48   20.82
  -5  -6  -4 2777.37   75.25
  -5  -6  -4 2534.43   71.65
   5   6   4 2666.83   82.20
   5   6   4 2655.90   79.78
   5   6   4 2807.19   81.88
   5   6   4 2693.53   76.58
   5   6   4 2733.09   81.21
  -5  -6  -5 8488.65  172.24
   5   6   5 8927.65  184.37
   5   6   5 8586.73  180.08
  -5  -6  -6 2934.86   88.58
  -5  -6  -6 2914.04   77.72
   5   6   6 2764.26   83.13
   5   6   6 2747.71   71.42
   5   6   6 2854.42   75.58
  -5  -6  -7 2717.94   83.95
  -5  -6  -7 2867.94   89.93
   5   6   7 2946.47   82.89
   5   6   7 2807.69   84.56
   5   6   7 2912.59   78.05
  -5  -6  -8  977.13   57.19
  -5  -6  -8 1071.63   51.86
   5   6   8 1130.30   51.91
   5   6   8 1032.12   46.28
   5   6   8 1045.14   46.15
  -5  -6  -9   -1.62   32.29
  -5  -6  -9   31.90   23.67
   5   6   9   28.85   22.06
  -5  -6  -9    5.03   21.64
   5   6   9   16.31   21.39
   5   6   9    3.36   18.43
   5   6  10  176.14   31.57
  -5  -6 -10  145.00   22.40
   5   6  10  160.56   28.42
   5   6  10  103.88   30.89
   5   6  11   27.81   25.77
  -5  -6 -11   -2.06   21.58
   5   6  11   49.21   24.36
   5   6  11   33.46   25.06
   5   6  12 4409.06   98.14
  -5  -6 -12 4380.66   93.08
   5   6  12 4505.11   92.56
   5   6  12 4300.65  105.75
   5   6  12 4124.34   98.03
   5   6  1312685.57  178.04
  -5  -6 -1312685.04  166.38
   5   6  1312428.73  161.26
   5   6  1312184.00  175.50
   5   6  14 5901.42  113.45
  -5  -6 -14 6031.80  115.74
   5   6  14 5880.99  112.71
   5   6  14 5790.35  111.64
   5   6  15  317.11   35.29
  -5  -6 -15  262.74   34.74
   5   6  15  249.05   28.27
   5   6  15  289.72   37.20
   5   6  16  173.65   32.39
  -5  -6 -16  194.02   27.89
   5   6  16  203.46   33.43
   5   6  16  164.51   38.64
   5   6  17  888.26   50.45
  -5  -6 -17  989.57   50.19
   5   6  17  842.00   54.73
   5   6  17  980.17   45.25
   5   6  17  907.65   57.93
   5   6  18   23.56   30.13
  -5  -6 -18    5.19   29.67
   5   6  18   18.20   31.28
   5   6  18   -0.55   33.50
   5   6  19  590.16   44.17
  -5  -6 -19  561.89   43.11
   5   6  19  621.83   48.57
   5   6  19  577.55   45.84
   5   7 -15  736.82   55.17
   5   7 -15  772.43   46.71
  -5  -7  14  222.27   38.88
   5   7 -14  214.29   47.27
   5   7 -14  216.19   41.12
   5   7 -14  274.30   37.79
  -5  -7  13  139.83   32.89
   5   7 -13  128.90   43.65
   5   7 -13  141.20   35.53
   5   7 -13  130.87   35.67
  -5  -7  12 1861.43   64.45
   5   7 -12 2020.89   83.52
   5   7 -12 2005.24   70.75
   5   7 -12 1931.62   79.76
   5   7 -12 1839.90   69.09
  -5  -7  11 1061.39   51.12
   5   7 -11 1137.90   65.95
   5   7 -11  994.83   54.54
   5   7 -11 1120.67   62.71
   5   7 -11 1129.76   54.01
   5   7 -10  308.69   37.53
   5   7 -10  229.92   47.27
   5   7 -10  224.30   41.49
   5   7 -10  283.34   38.93
   5   7 -10  331.53   38.10
   5   7  -9  855.57   46.45
   5   7  -9  836.02   59.61
   5   7  -9  913.66   54.01
   5   7  -9  930.90   55.03
   5   7  -9  926.13   52.56
   5   7  -8   93.72   30.61
   5   7  -8   52.93   37.94
   5   7  -8   91.99   41.47
   5   7  -8   71.23   31.73
   5   7  -7 1984.31   68.31
   5   7  -7 1793.53   74.32
   5   7  -7 2059.16   79.17
   5   7  -7 1925.97   68.89
   5   7  -6 2620.61   72.65
   5   7  -6 2696.95   94.95
   5   7  -6 2470.04   76.80
   5   7  -5 8243.03  181.71
   5   7  -5 8208.87  183.36
   5   7  -4   36.66   25.06
   5   7  -4   -8.63   34.07
   5   7  -4   26.28   25.67
   5   7  -3  245.38   31.69
   5   7  -3  261.15   44.83
   5   7  -3  231.30   30.59
   5   7  -2  118.40   28.06
   5   7  -2  128.98   29.53
   5   7  -2  139.98   29.00
  -5  -7   1 3597.54  103.46
  -5  -7   1 3286.18  116.84
   5   7  -1 3525.20   91.01
   5   7  -1 3381.48  103.30
  -5  -7   0  748.48   44.20
  -5  -7   0  814.32   55.76
   5   7   0  712.41   44.23
   5   7   0  755.13   40.83
   5   7   0  769.17   51.93
  -5  -7  -1 5167.67  110.49
  -5  -7  -1 5251.63  138.33
   5   7   1 4994.89  108.58
   5   7   1 5234.61  109.15
   5   7   1 5128.16  121.48
  -5  -7  -2  952.89   45.98
  -5  -7  -2  925.93   62.56
   5   7   2  913.53   45.97
   5   7   2  931.46   42.32
   5   7   2  842.05   55.32
   5   7   2  864.61   42.19
  -5  -7  -3 8535.24  153.61
   5   7   3 8178.03  164.93
   5   7   3 8337.54  149.62
   5   7   3 7984.93  145.73
   5   7   3 8078.53  140.84
   5   7   3 8383.04  174.26
   5   7   3 8154.82  148.70
   5   7   4    8.48   26.32
   5   7   4   26.37   22.26
   5   7   4   -2.09   25.19
   5   7   4   -9.47   12.90
   5   7   4   13.92   30.52
   5   7   4   12.94   20.55
  -5  -7  -5  284.31   31.26
   5   7   5  286.46   30.38
   5   7   5  290.47   29.61
   5   7   5  357.43   32.84
   5   7   5  322.05   32.29
  -5  -7  -6 7172.58  187.58
  -5  -7  -6 6807.93  128.68
   5   7   6 7106.11  135.27
   5   7   6 7461.70  123.88
   5   7   6 7476.12  136.65
   5   7   6 7221.53  118.14
   5   7   6 7365.89  126.07
  -5  -7  -7  821.32   46.91
  -5  -7  -7  895.35   51.27
   5   7   7  866.06   50.85
   5   7   7  879.82   46.30
   5   7   7  924.30   51.12
   5   7   7  840.26   43.29
   5   7   7  914.71   47.00
  -5  -7  -8 1183.78   73.99
  -5  -7  -8 1246.97   61.61
   5   7   8 1293.93   58.32
   5   7   8 1395.77   61.98
   5   7   8 1330.19   51.69
   5   7   8 1313.45   56.69
   5   7   9   59.78   23.91
  -5  -7  -9   60.69   23.28
   5   7   9   49.10   29.87
   5   7   9   92.42   24.50
   5   7   9   70.50   26.00
   5   7  10 2840.63   76.97
  -5  -7 -10 2716.30   73.31
   5   7  10 2949.31   83.02
   5   7  10 2926.96   71.78
   5   7  10 2893.10   75.41
   5   7  11   24.62   31.55
  -5  -7 -11   17.59   23.85
   5   7  11   42.76   25.93
   5   7  11   12.11   24.37
   5   7  11   50.96   26.41
   5   7  11   -4.23   28.76
   5   7  12 2645.07   79.83
  -5  -7 -12 2650.24   73.95
   5   7  12 2755.32   87.27
   5   7  12 2758.14   71.08
   5   7  12 2760.48   72.20
   5   7  12 2700.60   80.93
   5   7  13 8208.81  131.48
  -5  -7 -13 8075.17  130.32
   5   7  13 8149.90  140.17
   5   7  13 8115.14  128.96
   5   7  13 8102.45  143.64
   5   7  14 6275.83  137.25
  -5  -7 -14 6316.66  127.12
   5   7  14 6305.30  142.03
   5   7  14 6257.08  145.87
   5   7  15   -0.78   27.62
  -5  -7 -15   30.57   27.89
   5   7  15   10.92   36.68
   5   7  15   16.79   28.87
   5   7  15    0.51   33.74
   5   7  16  613.18   45.83
  -5  -7 -16  660.10   46.45
   5   7  16  723.92   55.70
   5   7  16  679.80   39.92
   5   7  16  672.60   47.08
   5   7  17  433.31   42.07
  -5  -7 -17  466.23   37.70
   5   7  17  459.52   48.52
   5   7  17  397.53   35.89
   5   7  17  456.96   42.35
   5   7  18   48.86   30.22
  -5  -7 -18   43.80   28.17
   5   7  18   45.96   33.41
   5   7  18   42.72   31.74
   5   7  18   52.01   35.83
   5   7  19  302.25   38.19
  -5  -7 -19  294.69   43.01
   5   7  19  339.34   44.34
   5   7  19  308.97   36.45
  -5  -8  15  371.88   47.73
   5   8 -15  381.09   48.72
   5   8 -15  385.50   42.17
  -5  -8  14 2266.06   74.53
   5   8 -14 2208.76   90.79
   5   8 -14 2213.28   90.57
   5   8 -14 2193.72   81.66
  -5  -8  13 1276.60   57.26
   5   8 -13 1251.21   69.76
   5   8 -13 1219.82   68.44
   5   8 -13 1208.28   57.01
  -5  -8  12 1070.34   56.89
   5   8 -12 1044.37   67.75
   5   8 -12 1003.10   64.01
   5   8 -12 1032.92   55.24
   5   8 -11  210.27   34.38
   5   8 -11  200.88   41.80
   5   8 -11  223.45   43.82
   5   8 -11  185.37   28.86
   5   8 -10 1414.96   59.06
   5   8 -10 1442.87   72.64
   5   8 -10 1469.09   71.16
   5   8 -10 1387.74   63.99
   5   8  -9  729.44   44.72
   5   8  -9  847.84   55.58
   5   8  -9  786.86   53.39
   5   8  -9  868.29   50.33
   5   8  -8 1687.71   66.19
   5   8  -8 1533.03   71.74
   5   8  -8 1589.67   61.63
   5   8  -8 1733.53   76.49
   5   8  -8 1677.07   64.01
   5   8  -7 2847.27   76.62
   5   8  -7 2885.34   81.91
   5   8  -7 3173.31  100.55
   5   8  -7 2771.65   86.81
   5   8  -6 1815.45   65.20
   5   8  -6 1736.33   63.53
   5   8  -6 1834.89   81.02
   5   8  -6 1804.93   69.40
   5   8  -511251.98  201.70
   5   8  -511034.20  203.05
   5   8  -510135.81  211.31
   5   8  -510912.93  202.95
   5   8  -4  685.37   41.44
   5   8  -4  634.28   44.25
   5   8  -4  692.63   44.38
   5   8  -3   34.78   26.05
   5   8  -3   74.08   21.06
   5   8  -3   44.46   27.75
   5   8  -3   93.04   26.08
  -5  -8   2   49.70   36.51
   5   8  -2    7.40   25.67
   5   8  -2   28.06   27.64
   5   8  -2   -2.73   40.13
   5   8  -2   -2.44   24.58
  -5  -8   1   43.27   36.85
   5   8  -1   25.77   17.11
   5   8  -1   -6.02   27.89
   5   8  -1   20.90   36.98
   5   8  -1   22.06   24.48
  -5  -8   0  445.91   40.61
  -5  -8   0  478.74   46.79
   5   8   0  484.47   35.54
   5   8   0  498.30   40.18
   5   8   0  489.59   49.72
   5   8   0  475.42   38.69
  -5  -8  -1  648.22   47.59
  -5  -8  -1  675.77   53.45
   5   8   1  654.09   37.31
   5   8   1  695.32   45.99
   5   8   1  654.89   51.75
   5   8   1  643.02   38.29
  -5  -8  -2  785.64   44.19
  -5  -8  -2  810.72   58.02
   5   8   2  821.36   44.19
   5   8   2  785.24   47.12
   5   8   2  779.73   40.36
   5   8   2  871.91   59.92
   5   8   2  789.06   42.77
  -5  -8  -310930.45  151.58
  -5  -8  -311052.84  189.63
   5   8   311164.26  153.68
   5   8   311336.27  163.66
   5   8   311169.01  142.59
   5   8   310790.01  173.30
   5   8   311016.10  149.67
   5   8   4 5051.19  126.67
   5   8   4 5173.76  109.52
   5   8   4 5141.64  115.49
   5   8   4 5087.49  137.57
   5   8   4 5203.86  100.37
  -5  -8  -5  118.83   29.80
   5   8   5  115.14   30.59
   5   8   5  136.43   26.63
   5   8   5  127.55   29.38
   5   8   5  123.32   26.41
   5   8   5  169.10   37.72
   5   8   5  134.37   24.96
  -5  -8  -6 1565.07   91.03
   5   8   6 1700.21   75.12
   5   8   6 1690.89   66.02
   5   8   6 1736.94   67.68
   5   8   6 1645.73   59.16
   5   8   6 1658.00   75.20
   5   8   6 1766.65   65.36
   5   8   7 4420.75  101.03
   5   8   7 4823.64  109.31
   5   8   7 4433.25   88.17
   5   8   7 4406.20   98.20
   5   8   8   79.25   20.29
   5   8   8   35.01   21.57
   5   8   8   47.74   19.49
   5   8   8   52.43   27.01
   5   8   9   11.85   26.14
   5   8   9   13.42   24.13
   5   8   9   -8.44   24.94
   5   8   9   44.66   25.59
   5   8  10  519.62   39.51
  -5  -8 -10  538.16   37.43
   5   8  10  548.61   50.46
   5   8  10  536.27   36.37
   5   8  10  560.58   36.08
   5   8  10  494.00   41.03
   5   8  11 3083.18   82.52
  -5  -8 -11 2942.18   78.10
   5   8  11 3072.44   91.07
   5   8  11 3202.10   74.68
   5   8  11 3264.71   79.74
   5   8  11 3028.11   83.74
   5   8  12  106.26   31.94
  -5  -8 -12  114.47   26.34
   5   8  12  134.53   37.51
   5   8  12  145.32   33.90
   5   8  12  111.16   28.70
   5   8  13  775.96   47.83
  -5  -8 -13  850.39   45.05
   5   8  13  847.65   54.00
   5   8  13  899.07   46.79
   5   8  13  810.07   46.92
   5   8  14  375.84   34.13
  -5  -8 -14  388.40   35.37
   5   8  14  327.23   36.36
   5   8  14  319.51   31.04
   5   8  14  351.00   37.65
   5   8  15  173.71   32.47
  -5  -8 -15  217.96   33.45
   5   8  15  215.00   37.77
   5   8  15  246.82   33.49
   5   8  15  233.39   34.79
   5   8  16  157.30   33.01
  -5  -8 -16  146.35   29.01
   5   8  16  101.67   41.27
   5   8  16  138.19   25.40
   5   8  16  174.39   34.42
   5   8  17  206.05   36.81
  -5  -8 -17  230.14   36.08
   5   8  17  199.94   41.88
   5   8  17  229.84   30.54
   5   8  17  210.87   36.25
   5   8  18   38.06   29.39
  -5  -8 -18   31.67   32.18
   5   8  18   73.53   38.69
   5   8  18   35.17   35.71
   5   8  18   44.19   38.95
  -5  -9  14 3941.79  114.21
   5   9 -14 3863.02  145.60
   5   9 -14 3756.55  134.31
  -5  -9  13   39.90   34.25
   5   9 -13    5.87   38.73
   5   9 -13   23.82   45.41
   5   9 -13  -11.80   33.15
  -5  -9  12  778.20   49.27
   5   9 -12  777.71   71.49
   5   9 -12  835.26   46.97
   5   9 -12  742.40   56.11
   5   9 -12  764.32   53.91
   5   9 -11    2.68   33.75
   5   9 -11   -1.77   42.46
   5   9 -11    8.38   37.62
   5   9 -11    0.82   45.07
   5   9 -11   16.88   35.41
   5   9 -10  125.33   35.48
   5   9 -10  139.71   43.31
   5   9 -10   86.46   41.86
   5   9 -10  143.09   33.90
   5   9 -10  141.03   37.15
   5   9  -9 2375.96   79.88
   5   9  -9 2338.90  109.28
   5   9  -9 2424.61   75.15
   5   9  -9 2413.73   90.83
   5   9  -9 2451.26   83.15
   5   9  -813019.16  169.48
   5   9  -813372.32  173.15
   5   9  -812734.70  201.08
   5   9  -812564.83  163.87
   5   9  -7 2927.99   86.90
   5   9  -7 3103.73   84.90
   5   9  -7 3106.06   97.92
   5   9  -7 2850.98   84.96
   5   9  -6  757.33   46.56
   5   9  -6  813.03   47.26
   5   9  -6  713.08   59.72
   5   9  -6  725.37   47.32
   5   9  -5 2006.36   66.17
   5   9  -5 2018.02   65.36
   5   9  -5 2175.36   85.83
   5   9  -5 2021.77   67.17
   5   9  -4 6802.05  134.60
   5   9  -4 6802.60  137.53
   5   9  -4 6865.42  135.13
   5   9  -3 4919.98  108.48
   5   9  -3 4911.69  105.87
   5   9  -3 4899.07  109.46
   5   9  -2  207.02   30.40
   5   9  -2  162.28   31.44
   5   9  -2  186.71   42.50
   5   9  -2  222.40   35.94
   5   9  -1  237.89   26.54
   5   9  -1  167.14   30.46
   5   9  -1  216.82   34.08
   5   9  -1  210.46   26.34
   5   9   014822.03  270.15
   5   9   015123.39  288.37
   5   9   015091.51  303.31
   5   9   014304.91  268.22
   5   9   014697.46  267.17
  -5  -9  -1 4557.81  145.84
   5   9   1 4763.74  108.04
   5   9   1 4576.05  140.52
   5   9   1 4608.19  179.66
   5   9   1 4674.77   99.70
   5   9   1 4791.65   98.43
  -5  -9  -2   -0.85   31.43
   5   9   2   15.05   29.26
   5   9   2   13.21   19.76
   5   9   2   17.51   26.20
   5   9   2   -6.40   27.06
   5   9   2   -1.08   25.31
   5   9   3 5151.63  102.05
   5   9   3 5145.99  112.78
   5   9   3 5192.49  126.46
   5   9   3 5181.18   97.83
   5   9   412246.38  234.68
   5   9   412520.07  246.94
   5   9   412521.53  262.73
   5   9   412240.61  226.14
   5   9   5   60.58   25.54
   5   9   5   -9.23   33.55
   5   9   5   35.23   23.85
   5   9   5   20.56   30.03
   5   9   5    9.69   24.48
   5   9   6 1002.52   49.91
   5   9   6 1019.62   55.00
   5   9   6 1038.72   45.84
   5   9   6 1020.06   63.61
   5   9   6 1020.59   44.04
   5   9   7 6926.99  145.07
   5   9   7 7087.78  151.85
   5   9   7 6746.96  131.92
   5   9   7 6305.36  162.89
   5   9   7 6813.62  137.32
   5   9   8 1068.90   53.86
   5   9   8 1097.92   56.99
   5   9   8 1077.52   46.43
   5   9   8 1084.05   49.73
   5   9   9 1762.50   62.62
   5   9   9 1685.75   69.52
   5   9   9 1770.17   58.72
   5   9   9 1695.22   60.31
   5   9   9 1749.84   64.41
   5   9  10   48.04   23.71
  -5  -9 -10   67.21   27.54
   5   9  10   91.68   39.42
   5   9  10   83.14   26.54
   5   9  10   16.95   27.36
   5   9  10   49.43   27.98
   5   9  11 6029.99  109.19
  -5  -9 -11 5606.13  107.52
   5   9  11 6128.48  130.08
   5   9  11 5637.57  105.11
   5   9  11 5998.46  114.03
   5   9  12 2227.33   70.56
  -5  -9 -12 2190.49   70.89
   5   9  12 2300.34   78.77
   5   9  12 2232.33   70.83
   5   9  13  381.07   40.83
  -5  -9 -13  372.01   36.17
   5   9  13  321.95   40.30
   5   9  13  345.25   37.94
   5   9  14 2924.87   76.98
  -5  -9 -14 2973.16   83.20
   5   9  14 3028.50   88.94
   5   9  14 3153.31   82.03
   5   9  14 2909.97   78.93
   5   9  15 5986.93  110.72
  -5  -9 -15 5633.97  118.53
   5   9  15 5911.19  126.13
   5   9  15 6046.10  110.51
   5   9  15 6001.96  119.11
   5   9  16  931.20   53.69
  -5  -9 -16  916.88   48.06
   5   9  16  950.36   55.35
   5   9  16  973.48   52.90
   5   9  16  939.93   51.29
   5   9  17  102.15   31.37
  -5  -9 -17   96.36   30.56
   5   9  17  113.92   46.91
   5   9  17  107.29   29.39
   5   9  17  117.73   39.90
  -5 -10  13   42.29   35.00
   5  10 -13   51.61   36.47
  -5 -10  12  604.61   45.00
   5  10 -12  620.22   58.25
   5  10 -12  624.71   43.14
   5  10 -11  230.76   37.70
   5  10 -11  203.11   37.69
   5  10 -11  257.26   48.07
   5  10 -11  208.48   38.06
   5  10 -10   64.06   32.84
   5  10 -10   19.19   38.09
   5  10 -10   49.77   48.58
   5  10 -10   45.13   26.47
   5  10  -9 2374.93   79.07
   5  10  -9 2375.50   77.44
   5  10  -9 2487.55   93.15
   5  10  -9 2337.90   83.41
   5  10  -8  177.14   27.87
   5  10  -8  191.09   41.23
   5  10  -8  166.37   37.11
   5  10  -8  142.21   35.20
   5  10  -7 3577.39   86.15
   5  10  -7 3399.03   85.56
   5  10  -7 3592.27  103.62
   5  10  -7 3266.81   89.49
   5  10  -6 2280.30   73.02
   5  10  -6 2393.24   71.59
   5  10  -6 2433.60   93.56
   5  10  -6 2404.39   77.43
   5  10  -5  338.15   36.63
   5  10  -5  316.55   38.23
   5  10  -5  320.46   52.53
   5  10  -5  313.21   36.57
   5  10  -4 3570.75   91.10
   5  10  -4 3475.93   91.34
   5  10  -4 3407.91  117.86
   5  10  -4 3354.42   86.63
   5  10  -3   42.12   26.98
   5  10  -3   81.41   22.54
   5  10  -3   97.16   29.79
   5  10  -2 4627.08  100.78
   5  10  -2 4646.79  103.22
   5  10  -2 4763.23  120.38
   5  10  -2 4683.51  110.15
  -5 -10   2 4670.04   96.41
   5  10  -1 4598.32  100.28
   5  10  -1 4666.60  103.12
   5  10  -1 4848.14  121.11
   5  10  -1 4327.92  101.37
  -5 -10   1 4455.57   95.36
   5  10   0  139.33   31.96
   5  10   0  134.80   23.86
   5  10   0  146.59   43.03
   5  10   0  128.34   30.94
  -5 -10   0  157.69   28.61
   5  10   1  543.35   41.00
   5  10   1  585.43   45.33
   5  10   1  619.81   53.27
   5  10   1  578.82   39.42
   5  10   1  542.54   34.32
   5  10   2   25.46   21.32
   5  10   2   25.75   27.55
   5  10   2   79.55   40.28
   5  10   2   75.41   25.69
   5  10   2   47.27   27.10
   5  10   3 1206.93   49.39
   5  10   3 1184.59   55.29
   5  10   3 1216.45   67.14
   5  10   3 1207.21   55.34
   5  10   3 1241.79   49.98
   5  10   4 1325.29   54.69
   5  10   4 1362.01   59.09
   5  10   4 1402.45   79.37
   5  10   4 1251.53   57.45
   5  10   4 1383.20   54.32
   5  10   5   -8.21   23.80
   5  10   5   30.61   22.04
   5  10   5   12.18   35.85
   5  10   5   -1.00   25.51
   5  10   6 3070.16   80.04
   5  10   6 2940.61   81.36
   5  10   6 2725.01   95.35
   5  10   6 2866.53   72.68
   5  10   7  272.82   34.83
   5  10   7  251.03   39.79
   5  10   7  279.31   44.14
   5  10   7  295.31   28.66
   5  10   8  269.64   29.40
   5  10   8  257.40   33.26
   5  10   8  249.15   44.83
   5  10   8  314.98   33.98
   5  10   8  263.96   37.21
   5  10   9 1903.31   69.90
   5  10   9 1964.97   72.25
   5  10   9 2017.59   64.91
   5  10   9 1972.39   64.91
   5  10  10  413.89   33.78
   5  10  10  421.00   41.56
   5  10  10  353.75   39.43
   5  10  10  443.56   40.10
   5  10  11 1057.50   51.35
  -5 -10 -11  936.90   51.26
   5  10  11 1019.46   52.78
   5  10  11  959.81   52.01
   5  10  12 1077.12   53.95
  -5 -10 -12 1070.11   51.30
   5  10  12 1019.48   58.03
   5  10  12  935.86   50.35
   5  10  13  366.98   39.38
  -5 -10 -13  344.84   35.26
   5  10  13  347.50   45.70
   5  10  13  365.44   37.47
   5  10  13  356.45   40.44
   5  10  14   -8.79   29.63
  -5 -10 -14   11.33   28.73
   5  10  14   16.33   37.61
   5  10  14   37.93   28.48
   5  10  14   46.68   29.93
   5  10  15 4665.43  110.98
  -5 -10 -15 4574.73  106.22
   5  10  15 4676.97  115.05
   5  10  15 4631.37   94.62
   5  10  15 4598.63  105.32
   5  10  16 1241.06   58.69
  -5 -10 -16 1287.14   59.06
   5  10  16 1253.24   64.25
   5  10  16 1292.99   62.50
   5  10  16 1231.50   61.14
   5  10  17   69.97   31.98
  -5 -10 -17   65.10   35.07
   5  10  17   62.70   48.63
   5  10  17   60.17   33.09
  -5 -11  12   20.51   31.21
   5  11 -12  -11.11   32.11
   5  11 -11  229.87   34.81
   5  11 -11  281.42   47.20
   5  11 -11  272.92   32.06
   5  11 -10   58.61   36.43
   5  11 -10   39.90   37.14
   5  11 -10   54.75   44.51
   5  11 -10   31.04   27.57
   5  11  -9  486.54   37.74
   5  11  -9  463.17   47.51
   5  11  -9  476.60   60.60
   5  11  -9  468.35   45.28
   5  11  -8  166.14   38.44
   5  11  -8  115.24   39.59
   5  11  -8  122.35   49.15
   5  11  -8  107.12   38.46
   5  11  -7 3652.69  110.00
   5  11  -7 3816.49  124.87
   5  11  -7 3564.33  107.65
   5  11  -6 5797.55  132.34
   5  11  -6 5945.75  129.26
   5  11  -6 6002.31  166.05
   5  11  -6 5667.48  128.47
   5  11  -5  615.76   43.73
   5  11  -5  614.87   40.58
   5  11  -5  695.11   60.18
   5  11  -5  624.52   47.77
   5  11  -4 1237.26   55.96
   5  11  -4 1171.55   54.83
   5  11  -4 1231.55   70.32
   5  11  -4 1187.49   56.79
   5  11  -3 1291.06   51.91
   5  11  -3 1232.22   56.02
   5  11  -3 1241.70   58.77
  -5 -11   3 1249.08   52.30
   5  11  -2 2960.48   83.04
   5  11  -2 3003.04   81.44
   5  11  -2 2923.40   81.75
  -5 -11   2 2802.49   78.79
   5  11  -1 1530.53   71.17
   5  11  -1 1678.46   65.14
   5  11  -1 1486.36  105.86
   5  11  -1 1615.43   61.28
  -5 -11   1 1713.57   62.04
   5  11   0 7587.08  151.93
   5  11   0 7632.01  151.29
   5  11   0 7749.14  176.75
   5  11   0 7463.47  144.85
  -5 -11   0 7520.97  133.96
   5  11   114603.16  215.65
   5  11   114260.95  216.69
   5  11   114478.21  243.19
   5  11   113834.62  207.92
  -5 -11  -114183.84  202.17
   5  11   2 1643.01   61.87
   5  11   2 1702.29   61.14
   5  11   2 1600.67   70.71
   5  11   2 1690.45   64.18
   5  11   2 1724.60   58.90
   5  11   3 3238.19   83.60
   5  11   3 3128.24   85.00
   5  11   3 3226.78   98.26
   5  11   3 3233.78   86.80
   5  11   3 3169.57   76.98
   5  11   4 3578.48   85.75
   5  11   4 3474.00   91.43
   5  11   4 3678.39  104.14
   5  11   4 3529.95   91.66
   5  11   4 3516.31   80.85
   5  11   5  -10.98   19.34
   5  11   5  -13.39   31.53
   5  11   5   18.19   43.68
   5  11   5  -18.88   27.54
   5  11   5   17.30   27.85
   5  11   6 6743.00  123.92
   5  11   6 6700.75  131.44
   5  11   6 6383.68  147.55
   5  11   6 6646.67  130.46
   5  11   6 6740.10  117.18
   5  11   6 6438.05  130.91
   5  11   7  540.12   43.20
   5  11   7  573.01   43.73
   5  11   7  527.37   53.01
   5  11   7  533.78   43.91
   5  11   7  509.78   33.89
   5  11   7  520.45   40.33
   5  11   8 2586.20   81.24
   5  11   8 2625.94   79.95
   5  11   8 2656.11   93.68
   5  11   8 2620.30   72.23
   5  11   8 2726.86   74.44
   5  11   9 2200.20   70.43
   5  11   9 2207.78   76.27
   5  11   9 2332.74   90.13
   5  11   9 2191.31   67.12
   5  11   9 2247.37   69.78
   5  11  10 2661.08   75.32
   5  11  10 2686.75   86.71
   5  11  10 2420.96   68.37
   5  11  10 2635.89   79.12
   5  11  11 5496.69  141.04
   5  11  11 5478.21  148.66
   5  11  11 5623.16  140.04
  -5 -11 -12   58.90   34.45
   5  11  12   91.33   40.28
   5  11  12   62.10   29.40
  -5 -11 -13  159.42   34.72
   5  11  13  161.92   42.35
   5  11  13  185.74   30.01
   5  11  13  192.39   34.28
  -5 -11 -14  444.55   50.56
   5  11  14  448.77   43.07
   5  11  14  488.40   38.36
   5  11  14  448.53   46.42
  -5 -11 -15 1204.53   60.16
   5  11  15 1132.38   64.29
   5  11  15 1173.41   52.57
   5  11  15 1164.13   60.36
  -5 -11 -16  907.67   56.19
   5  11  16  932.38   60.35
   5  12 -11  367.07   53.58
   5  12 -11  324.28   39.27
   5  12 -10  144.66   28.07
   5  12 -10  157.31   38.36
   5  12 -10  137.45   47.65
   5  12 -10   94.44   36.08
   5  12  -9 1396.70   63.96
   5  12  -9 1434.21   65.17
   5  12  -9 1399.26   77.48
   5  12  -9 1462.40   61.02
   5  12  -8    3.31   33.62
   5  12  -8    2.40   34.69
   5  12  -8  -15.50   37.66
   5  12  -8   45.93   34.08
   5  12  -7 1529.98   62.06
   5  12  -7 1433.78   64.69
   5  12  -7 1620.40   72.67
   5  12  -7 1337.89   68.76
   5  12  -6 4627.77  129.26
   5  12  -6 4550.74  124.56
   5  12  -6 4787.33  149.53
   5  12  -6 4620.82  127.53
   5  12  -5 4245.25  118.20
   5  12  -5 4160.00  122.41
   5  12  -5 4745.26  145.89
   5  12  -5 4219.09  119.50
   5  12  -4   34.84   30.65
   5  12  -4  -32.30   29.25
   5  12  -4   -9.77   40.10
   5  12  -4   -3.24   23.67
   5  12  -3 2717.11   75.30
   5  12  -3 2702.67   77.82
   5  12  -3 2906.91   95.64
   5  12  -3 2774.07   76.16
  -5 -12   3 2782.74   74.81
   5  12  -2 2285.20   69.50
   5  12  -2 2173.65   69.78
   5  12  -2 2280.64   75.13
  -5 -12   2 2211.71   71.84
   5  12  -1  427.48   40.25
   5  12  -1  441.89   40.79
   5  12  -1  397.53   52.72
   5  12  -1  474.35   42.62
  -5 -12   1  507.16   39.13
   5  12   0  454.33   41.10
   5  12   0  502.32   41.64
   5  12   0  541.48   56.09
   5  12   0  507.31   40.81
  -5 -12   0  506.83   38.22
   5  12   1 2975.96   80.39
   5  12   1 3092.70   84.73
   5  12   1 3074.38  109.16
   5  12   1 2925.56   85.13
  -5 -12  -1 3168.97   75.34
   5  12   2 2594.65   76.33
   5  12   2 2425.81   76.95
   5  12   2 2604.16   93.19
   5  12   2 2332.07   73.55
  -5 -12  -2 2684.70   71.12
   5  12   3  235.20   34.44
   5  12   3  241.39   40.38
   5  12   3  279.30   49.08
   5  12   3  264.32   36.35
   5  12   3  296.91   31.68
   5  12   4 2003.55   66.63
   5  12   4 1940.32   69.52
   5  12   4 1991.30   83.59
   5  12   4 1887.10   65.80
   5  12   4 1877.92   63.27
   5  12   4 1903.39   71.26
   5  12   5  379.49   38.93
   5  12   5  422.80   41.99
   5  12   5  426.39   53.37
   5  12   5  414.67   39.65
   5  12   5  393.67   32.35
   5  12   5  348.63   36.29
   5  12   6  470.88   37.91
   5  12   6  450.91   41.90
   5  12   6  479.29   50.37
   5  12   6  464.19   42.39
   5  12   6  495.58   37.46
   5  12   6  484.34   39.29
   5  12   7  129.46   38.18
   5  12   7   89.99   51.66
   5  12   7  114.34   33.48
   5  12   7   95.48   27.05
   5  12   7  125.79   28.18
   5  12   8 5754.34  147.70
   5  12   8 6215.80  171.89
   5  12   8 5440.24  144.12
   5  12   8 5841.31  150.09
   5  12   8 5932.27  143.18
   5  12   9    6.79   34.60
   5  12   9   42.82   46.30
   5  12   9    1.53   20.18
   5  12   9   14.94   29.99
   5  12  10   15.70   33.27
   5  12  10   12.89   32.91
   5  12  11  112.22   40.46
   5  12  11  142.51   31.95
   5  12  12 3223.48   95.66
   5  12  12 3395.55   82.79
   5  12  12 3400.11   87.58
   5  12  13  844.01   46.99
   5  12  13  811.73   52.16
   5  12  14  230.27   32.48
   5  12  14  225.56   40.41
   5  12  15   35.27   28.16
   5  12  15   48.98   29.39
   5  13 -10 1494.18   70.89
   5  13 -10 1521.23   98.45
   5  13 -10 1563.40   70.92
   5  13  -9 5525.22  104.53
   5  13  -9 5570.23  170.46
   5  13  -9 5727.62  153.57
   5  13  -8  315.21   40.02
   5  13  -8  268.79   44.47
   5  13  -8  319.06   52.22
   5  13  -8  319.67   46.39
   5  13  -7  128.78   37.07
   5  13  -7  165.28   42.11
   5  13  -7  154.68   48.09
   5  13  -7  134.63   35.72
   5  13  -6 2778.32   88.99
   5  13  -6 2552.59   91.04
   5  13  -6 2770.05   99.71
   5  13  -6 2742.23   85.05
   5  13  -5 2294.81   71.25
   5  13  -5 2292.53   73.19
   5  13  -5 2366.64   91.88
   5  13  -5 2282.74   89.10
   5  13  -4  256.96   38.28
   5  13  -4  254.74   40.13
   5  13  -4  250.82   52.25
   5  13  -4  314.99   40.26
  -5 -13   4  279.41   38.63
   5  13  -3  100.44   34.19
   5  13  -3   58.96   33.87
   5  13  -3   61.96   51.07
   5  13  -3   53.97   38.16
  -5 -13   3   61.10   34.90
   5  13  -2 1554.29   56.33
   5  13  -2 1456.12   65.74
   5  13  -2 1521.52   60.91
  -5 -13   2 1673.46   62.25
   5  13  -1  -12.17   23.02
   5  13  -1   24.06   32.08
   5  13  -1   63.04   34.78
  -5 -13   1    2.29   26.16
   5  13   0 1363.03   55.87
   5  13   0 1302.30   60.46
   5  13   0 1282.01   73.85
   5  13   0 1362.40   55.87
  -5 -13   0 1450.37   51.91
   5  13   1 1899.80   66.75
   5  13   1 2202.54   76.46
   5  13   1 2387.06   91.18
   5  13   1 2004.74   67.54
  -5 -13  -1 2152.91   61.97
   5  13   2 1771.64   69.07
   5  13   2 1838.89   76.08
   5  13   2 1803.65   69.18
  -5 -13  -2 1894.11   63.49
   5  13   3  145.94   38.01
   5  13   3  186.07   46.70
   5  13   3  174.05   30.64
  -5 -13  -3  132.00   29.77
   5  13   3  151.45   37.88
   5  13   4    4.03   34.91
   5  13   4   16.57   42.99
   5  13   4   10.92   35.49
  -5 -13  -4   -2.22   27.19
   5  13   4   -6.20   28.99
   5  13   5  248.50   39.60
   5  13   5  232.57   48.85
   5  13   5  260.26   41.02
   5  13   5  229.72   26.81
   5  13   5  238.01   36.56
   5  13   6   88.17   39.39
   5  13   6   80.28   46.16
   5  13   6   67.74   30.38
   5  13   6   95.59   22.41
   5  13   6  111.34   32.65
   5  13   7 1978.53   88.22
   5  13   7 1814.38   74.63
   5  13   7 1917.35   62.13
   5  13   7 1826.70   65.33
   5  13   8 1615.37   80.48
   5  13   8 1478.42   65.27
   5  13   8 1569.60   60.72
   5  13   8 1577.90   62.35
   5  13   9 2063.96   89.60
   5  13   9 1908.08   70.22
   5  13  10  131.36   32.71
   5  13  10  116.46   39.20
   5  13  11   44.93   32.20
   5  13  11   12.43   25.37
   5  13  11  -14.82   34.05
   5  13  12 1696.05   62.46
   5  13  12 1678.37   68.33
   5  13  12 1690.06   68.23
   5  13  13  673.27   45.50
   5  13  13  691.94   43.67
   5  13  13  736.72   55.95
   5  14  -9 1416.31   68.47
   5  14  -9 1341.42   81.74
   5  14  -8  334.69   39.57
   5  14  -8  325.06   62.36
   5  14  -8  317.71   46.07
   5  14  -7  156.62   29.49
   5  14  -7  103.47   48.70
   5  14  -7  148.94   38.93
   5  14  -6  861.75   50.11
   5  14  -6  883.64   68.20
   5  14  -6  786.77   46.69
   5  14  -5   35.04   34.20
   5  14  -5   67.79   44.45
   5  14  -5   74.71   33.29
   5  14  -4  142.37   52.28
   5  14  -4  149.77   34.78
  -5 -14   4  151.33   41.61
   5  14  -3 3379.36  107.28
   5  14  -3 3277.16   83.14
  -5 -14   3 3329.75   88.48
   5  14  -2 4009.03  119.79
   5  14  -2 3886.46  110.15
  -5 -14   2 3916.48   91.69
   5  14  -1 2109.61   68.80
  -5 -14   1 2194.72   66.98
   5  14   0  241.35   39.87
  -5 -14   0  303.76   33.87
   5  14   1 1111.76   69.80
   5  14   1 1037.82   53.62
  -5 -14  -1 1056.30   50.39
   5  14   2 1428.47   78.34
   5  14   2 1315.55   91.21
  -5 -14  -2 1412.42   54.92
   5  14   3  646.17   58.94
   5  14   3  623.20   49.27
  -5 -14  -3  642.63   40.07
   5  14   3  582.08   45.32
   5  14   4   11.95   47.05
   5  14   4    5.66   31.60
  -5 -14  -4   27.77   28.37
   5  14   4    6.42   32.51
   5  14   5  753.71   45.49
   5  14   5  824.33   67.62
   5  14   5  789.99   51.11
  -5 -14  -5  845.11   44.05
   5  14   5  799.57   50.75
   5  14   6   37.39   30.03
   5  14   6   47.64   44.69
   5  14   6   19.91   32.68
  -5 -14  -6   82.78   29.31
   5  14   6   47.94   33.01
   5  14   7    7.34   32.31
   5  14   7  -23.64   42.95
   5  14   7   -4.99   34.96
  -5 -14  -7   -8.24   26.11
   5  14   7  -12.34   34.27
   5  14   8  147.91   32.40
   5  14   8  128.89   50.59
   5  14   8  123.73   41.26
   5  14   8  137.49   40.26
   5  14   9 3249.51   86.88
   5  14   9 3363.42  126.30
   5  14   9 3127.11   94.39
   5  14  10  921.60   55.34
  -5 -14 -10  949.91   46.92
   5  14  10  948.34   58.17
   5  14  11   55.33   30.27
  -5 -14 -11   78.63   31.85
   5  14  11   58.38   38.74
  -5 -14 -12  423.68   38.61
  -5 -15   6   14.07   39.09
   5  15  -6   -3.36   45.52
   5  15  -6   22.51   33.25
   5  15  -5  367.29   59.15
   5  15  -5  316.92   42.91
   5  15  -4  144.99   46.32
   5  15  -4  108.44   34.50
  -5 -15   4  136.37   39.34
   5  15  -3  272.15   50.21
   5  15  -3  250.05   42.28
  -5 -15   3  243.38   37.61
   5  15  -2 4990.98  132.33
   5  15  -2 4771.12  105.95
  -5 -15   2 4922.85  100.96
   5  15  -1  607.31   44.01
   5  15  -1  650.93   63.73
   5  15  -1  635.22   53.00
  -5 -15   1  662.80   46.26
   5  15   0   52.14   31.95
   5  15   0   33.56   34.72
  -5 -15   0   36.33   30.02
   5  15   1  858.11   48.18
   5  15   1  926.06   65.31
   5  15   1  779.44   55.67
  -5 -15  -1  852.10   44.78
   5  15   2 1816.16   67.21
   5  15   2 1813.23   81.16
   5  15   2 1721.79   71.14
  -5 -15  -2 1773.83   61.45
   5  15   3   26.97   29.97
   5  15   3   44.70   53.40
  -5 -15  -3    8.42   25.56
   5  15   4   28.11   29.17
   5  15   4   65.22   42.93
   5  15   4   13.09   33.00
  -5 -15  -4   32.13   25.08
   5  15   5   53.21   32.66
   5  15   5   11.23   47.05
   5  15   5   71.61   38.50
  -5 -15  -5   75.89   26.86
   5  15   5   45.47   65.89
   5  15   6  565.98   46.51
   5  15   6  617.47   66.16
   5  15   6  527.97   49.90
  -5 -15  -6  602.38   41.84
   5  15   6  544.44   47.08
   5  15   7  440.88   37.47
   5  15   7  476.99   57.45
   5  15   7  446.89   47.74
  -5 -15  -7  394.28   38.05
   5  15   8  364.05   41.20
   5  15   8  331.73   63.57
   5  15   9  845.72   48.44
   5  15   9  900.68   76.05
   5  16  -3   -6.90   33.57
   5  16  -3   22.58   49.49
   5  16  -3    0.63   38.52
  -5 -16   3   -6.12   43.06
   5  16  -2  443.12   47.32
   5  16  -2  439.27   59.61
   5  16  -2  421.23   45.44
  -5 -16   2  452.36   47.60
   5  16  -1  263.85   34.98
   5  16  -1  262.69   49.71
   5  16  -1  239.10   40.98
  -5 -16   1  266.03   37.69
   5  16   0  186.28   36.57
   5  16   0  154.32   39.15
  -5 -16   0  183.96   34.83
   5  16   1   23.55   34.13
   5  16   1   61.15   37.76
  -5 -16  -1   60.55   27.37
   5  16   2   51.66   31.74
   5  16   2   62.67   44.12
   5  16   2   59.68   34.85
  -5 -16  -2   49.32   27.98
   5  16   3   27.96   36.73
   5  16   3   62.05   44.39
   5  16   3   28.34   36.52
  -5 -16  -3   33.52   29.17
   5  16   4   41.26   37.27
   5  16   4   48.00   45.92
   5  16   4   19.86   42.89
  -5 -16  -4    1.22   27.73
   5  16   5  851.81   54.14
   5  16   5  806.14   68.17
   5  16   5  835.82   56.18
  -5 -16  -5  903.95   51.96
   5  16   6  136.99   35.96
   5  16   6  182.81   59.54
   5  16   6  141.50   51.40
  -5 -16  -6  137.14   33.38
   6 -10  -1   11.15   30.62
   6 -10   0   19.40   29.98
   6 -10   1  303.59   47.84
   6 -10   1  295.09   42.98
   6 -10   2   17.66   40.28
   6 -10   2   23.92   33.51
   6 -10   3   90.70   43.35
   6 -10   3   88.49   32.39
   6 -10   4 2122.57   71.00
   6 -10   4 2083.88   70.92
   6 -10   5  705.97   54.67
   6 -10   5  733.31   48.90
   6 -10   6 1886.16   77.77
   6 -10   6 1916.49   68.90
   6 -10   7  758.09   55.39
   6 -10   7  708.41   51.17
   6  -9  -5 1334.06   67.93
   6  -9  -4  984.07   51.10
   6  -9  -3 1779.09   76.32
   6  -9  -2  870.38   49.65
   6  -9  -1  303.07   35.46
   6  -9   0  -13.14   39.65
   6  -9   0   35.13   29.64
   6  -9   1 1105.87   57.05
   6  -9   1 1098.58   51.00
   6  -9   2 1952.48   69.34
   6  -9   2 1870.67   61.40
   6  -9   3   91.09   38.09
   6  -9   3   43.74   29.74
   6  -9   4 1366.86   60.86
   6  -9   4 1397.23   57.61
   6  -9   5 2438.48   74.08
   6  -9   5 2405.77   69.25
   6  -9   6  215.58   34.41
   6  -9   6  218.21   43.77
   6  -9   6  229.48   33.89
   6  -9   7  441.92   42.92
   6  -9   7  373.34   39.86
   6  -9   7  426.04   37.03
   6  -9   8   51.54   33.89
   6  -9   8   -6.31   31.69
   6  -9   8   25.83   30.50
   6  -9   9 1265.48   62.91
   6  -9   9 1302.24   58.72
   6  -9   9 1203.33   56.46
   6  -9  10   53.13   37.04
   6  -9  10    8.67   36.43
   6  -8  -7 1243.45   75.33
  -6   8   7 1208.43   71.71
   6  -8  -6 1333.64   65.34
  -6   8   6 1329.63   67.91
   6  -8  -5  178.00   33.71
  -6   8   5  157.28   43.85
   6  -8  -4  106.77   32.03
   6  -8  -3  297.57   35.92
   6  -8  -2  430.25   35.05
   6  -8  -1  883.58   55.74
   6  -8   0   72.31   33.69
   6  -8   0   56.98   33.93
   6  -8   1  458.98   47.34
   6  -8   2  181.13   36.62
   6  -8   3   26.18   30.06
   6  -8   3   21.51   31.30
   6  -8   4  986.48   52.04
   6  -8   4  963.29   50.23
   6  -8   5 1538.88   63.09
   6  -8   5 1482.80   62.49
   6  -8   5 1550.57   55.35
   6  -8   6  124.12   35.84
   6  -8   6  151.51   37.06
   6  -8   6   97.01   31.46
   6  -8   7  133.14   38.13
   6  -8   7  134.01   32.71
   6  -8   7  109.73   26.71
   6  -8   8   11.50   29.88
   6  -8   8  -22.23   31.55
   6  -8   8    6.97   32.83
   6  -8   9 3437.66   94.24
   6  -8   9 3496.00   94.57
   6  -8   9 3425.07   83.36
   6  -8  10  483.95   45.78
   6  -8  10  456.45   46.24
   6  -8  10  461.37   42.47
   6  -8  11  403.61   40.76
   6  -8  11  448.86   43.39
   6  -8  11  354.13   41.58
   6  -8  12  436.26   46.73
   6  -8  12  389.04   46.65
   6  -7  -9 1129.04   67.67
   6  -7  -8  417.80   39.19
  -6   7   8  383.38   45.95
   6  -7  -7  690.04   46.96
  -6   7   7  827.18   53.98
   6  -7  -6  787.76   55.69
  -6   7   6  932.25   54.12
   6  -7  -5 3507.96   92.63
  -6   7   5 3237.70   94.32
   6  -7  -4  168.89   34.12
  -6   7   4  128.83   39.64
   6  -7  -3   60.17   32.81
   6  -7  -2 4105.79   96.83
   6  -7   0 4099.30  121.78
   6  -7   1 1216.73   59.87
   6  -7   2 4455.83  121.41
   6  -7   2 4300.81  114.27
   6  -7   3   79.24   31.72
   6  -7   3  121.63   32.47
   6  -7   4  337.35   38.28
   6  -7   4  360.61   39.33
   6  -7   4  345.70   37.10
   6  -7   5   60.44   32.61
   6  -7   5   42.05   36.28
   6  -7   5   48.50   31.07
   6  -7   6  214.54   35.17
   6  -7   6  237.48   36.95
   6  -7   6  213.82   33.44
   6  -7   7   15.45   32.83
   6  -7   7  -22.89   28.32
   6  -7   7   12.48   30.30
   6  -7   8  223.87   36.55
   6  -7   8  204.83   37.67
   6  -7   8  230.98   36.63
   6  -7   9  128.01   33.36
   6  -7   9  160.36   38.71
   6  -7   9   74.97   35.99
   6  -7  10  198.57   35.07
   6  -7  10  183.56   31.26
   6  -7  10  193.01   36.80
   6  -7  11 5017.95  106.61
   6  -7  11 5040.05  106.26
   6  -7  11 4651.56   95.20
   6  -7  12 2543.21   76.88
   6  -7  12 2511.76   76.04
   6  -7  12 2422.29   71.38
   6  -7  12 2425.37   84.44
   6  -7  13 4503.13  104.02
   6  -7  13 4341.01  105.43
   6  -7  14  172.09   36.94
   6  -7  14  174.76   34.85
   6  -7  14  199.51   40.35
   6  -6 -10   11.46   38.64
  -6   6  10   14.42   40.05
   6  -6  -9 1370.61   68.89
  -6   6   9 1464.07   63.91
   6  -6  -8 1640.33   75.33
  -6   6   8 1901.07   73.39
   6  -6  -7   -0.19   29.49
  -6   6   7  -28.52   34.23
   6  -6  -6 3109.08   87.84
   6  -6  -5 3181.34   86.57
   6  -6  -4 3368.32  106.30
  -6   6   4 3256.08  103.86
  -6   6   3 1371.45   70.38
   6  -6   0 2760.22   76.12
   6  -6   1 2780.36   78.45
   6  -6   1 2700.86   82.39
   6  -6   2 3060.78   83.29
   6  -6   2 3131.00   85.68
   6  -6   3  910.70   49.25
   6  -6   3  952.83   49.00
   6  -6   4  331.17   35.36
   6  -6   4  393.73   40.09
   6  -6   4  381.19   40.61
   6  -6   4  372.77   32.08
   6  -6   5 1318.87   60.04
   6  -6   5 1229.69   54.25
   6  -6   5 1107.18   58.83
   6  -6   5 1230.02   55.36
   6  -6   6  237.14   39.03
   6  -6   6  238.30   29.00
   6  -6   6  249.41   36.90
   6  -6   7 2116.31   64.75
   6  -6   7 1923.93   63.88
   6  -6   7 2143.02   66.11
   6  -6   8  -29.89   31.77
   6  -6   8   81.27   37.11
   6  -6   8   -9.21   33.66
   6  -6   9 5057.92  136.29
   6  -6   9 4814.99  127.98
   6  -6   9 5022.60  126.75
   6  -6  10    8.25   23.72
   6  -6  10   -5.60   32.69
   6  -6  10   12.50   30.80
   6  -6  10    9.12   30.17
   6  -6  11   57.69   27.56
   6  -6  11   70.46   33.60
   6  -6  11   88.34   35.15
   6  -6  11   76.28   33.71
   6  -6  12  -19.46   32.67
   6  -6  12  -41.97   31.43
   6  -6  12   26.33   29.04
   6  -6  12   23.82   31.73
   6  -6  13  795.53   51.86
   6  -6  13  752.97   47.64
   6  -6  13  734.00   46.45
   6  -6  14   54.60   38.44
   6  -6  14   79.68   32.79
   6  -6  14   35.41   34.78
   6  -6  15 1036.20   59.09
   6  -6  15  999.18   56.77
   6  -6  15 1010.80   57.78
   6  -5 -11  144.99   36.82
  -6   5  11  119.88   43.20
   6  -5 -10   73.35   33.19
   6  -5  -9  -16.40   34.41
   6  -5  -8 5131.09  122.75
   6  -5  -7  322.68   41.76
   6  -5  -6 2856.02   85.07
   6  -5  -2 5252.50  103.42
   6  -5  -1 1961.36   62.90
   6  -5   0 8362.36  142.87
   6  -5   1 3744.99   90.87
   6  -5   2 3262.21   90.52
   6  -5   2 3434.45   85.59
   6  -5   3 1131.01   52.93
   6  -5   3 1134.79   54.47
   6  -5   4 2007.54   71.76
   6  -5   4 1992.79   66.22
   6  -5   4 2010.53   69.46
   6  -5   5  504.18   40.68
   6  -5   5  481.43   34.94
   6  -5   5  426.86   42.43
   6  -5   6 1719.58   62.59
   6  -5   6 1515.94   59.83
   6  -5   6 1766.29   61.50
   6  -5   7 1503.69   57.12
   6  -5   7 1302.17   56.84
   6  -5   7 1504.84   59.90
   6  -5   8 1928.82   70.11
   6  -5   8 2005.85   71.47
   6  -5   8 2033.50   64.01
   6  -5   9 2107.11   69.19
   6  -5   9 2087.46   71.63
   6  -5   9 2179.15   67.44
   6  -5  10  745.85   46.91
   6  -5  10  680.09   46.37
   6  -5  10  805.28   43.04
   6  -5  10  739.09   47.14
   6  -5  11  108.49   27.27
   6  -5  11  118.55   36.51
   6  -5  11  119.64   33.58
   6  -5  11   76.56   29.28
   6  -5  12    8.99   31.69
   6  -5  12  -11.72   34.22
   6  -5  12   19.77   25.86
   6  -5  13  515.50   45.75
   6  -5  13  463.17   40.03
   6  -5  13  438.71   39.03
   6  -5  14   94.79   31.37
   6  -5  14   50.64   31.84
   6  -5  14   61.43   34.89
   6  -5  15  455.39   42.38
   6  -5  15  478.99   48.59
   6  -5  15  429.79   38.33
   6  -5  16  260.06   35.85
   6  -5  16  298.86   39.47
   6  -5  16  258.77   36.90
   6  -4 -12   26.12   33.30
   6  -4 -11  275.75   39.89
   6  -4 -10  938.58   61.64
   6  -4 -10  843.87   50.67
   6  -4  -9  422.72   48.05
   6  -4  -9  335.93   37.37
   6  -4  -810088.61  164.45
   6  -4  -810381.75  159.75
   6  -4  -7  229.64   39.54
   6  -4  -6  955.64   61.31
   6  -4  -4  263.15   31.17
   6  -4  -3  148.84   41.45
   6  -4  -2  520.68   43.34
   6  -4  -126371.25  324.97
   6  -4   0 4428.54   99.71
   6  -4   1 3057.63   81.80
   6  -4   2  283.83   33.09
   6  -4   3 1075.51   49.69
   6  -4   3 1061.77   50.50
   6  -4   4  203.79   34.15
   6  -4   4  196.67   34.50
   6  -4   4  216.92   33.88
   6  -4   5 1779.17   62.65
   6  -4   5 1729.98   57.81
   6  -4   5 1741.41   61.62
   6  -4   613934.49  206.38
   6  -4   613500.58  216.85
   6  -4   612799.08  201.78
   6  -4   7 6530.98  126.00
   6  -4   7 6481.72  129.48
   6  -4   7 6816.97  124.78
   6  -4   8 4775.31  102.06
   6  -4   8 5032.24  101.88
   6  -4   8 5010.46   96.94
   6  -4   9 3582.85   88.68
   6  -4   9 3864.10   86.95
   6  -4   9 3871.98   84.91
   6  -4   9 3552.99   93.79
   6  -4  10  197.91   30.32
   6  -4  10  181.20   37.86
   6  -4  10  281.98   35.39
   6  -4  10  174.35   37.71
   6  -4  11  262.23   38.67
   6  -4  11  261.68   36.92
   6  -4  11  278.36   39.35
   6  -4  11  316.68   35.67
   6  -4  12 1304.47   57.54
   6  -4  12 1335.78   55.40
   6  -4  12 1310.17   54.25
   6  -4  13  388.28   40.06
   6  -4  13  400.79   35.16
   6  -4  13  341.16   36.93
   6  -4  13  342.93   36.98
   6  -4  14   39.57   38.56
   6  -4  14   44.75   31.88
   6  -4  14   79.46   29.94
   6  -4  14   40.97   35.29
   6  -4  15   18.66   25.70
   6  -4  15   -8.92   30.47
   6  -4  15   42.44   32.47
   6  -4  16 2470.04   70.04
   6  -4  16 2615.22   88.15
   6  -4  16 2558.16   77.24
   6  -4  17 1526.73   63.41
   6  -4  17 1607.97   62.50
   6  -4  17 1713.71   71.67
   6  -3 -12  -27.49   36.11
   6  -3 -11  138.14   40.28
   6  -3 -11  145.18   38.84
   6  -3 -10 2498.70   84.52
   6  -3 -10 2352.06   82.56
   6  -3  -9 1178.51   57.46
   6  -3  -8  752.35   48.01
   6  -3  -7 5258.06  145.02
   6  -3  -6  678.57   48.53
   6  -3  -6  634.11   43.96
   6  -3  -5  381.11   41.98
   6  -3  -4  172.29   33.25
   6  -3  -3 1158.62   55.93
   6  -3  -2 2217.03   69.11
   6  -3  -1 2800.22   79.34
   6  -3   0 5915.28  134.13
   6  -3   1  561.45   40.10
   6  -3   2  196.67   33.06
   6  -3   3  714.12   44.13
   6  -3   3  706.73   43.50
   6  -3   4 2992.56   82.26
   6  -3   4 3039.89   82.08
   6  -3   4 2855.52   72.00
   6  -3   5  292.43   34.73
   6  -3   5  299.59   32.15
   6  -3   5  310.86   37.58
   6  -3   5  283.22   30.91
   6  -3   6 1267.81   53.60
   6  -3   6 1424.72   54.75
   6  -3   6 1284.51   53.60
   6  -3   7 6835.69  130.31
   6  -3   7 7005.01  132.38
   6  -3   8  154.29   34.71
   6  -3   8  157.98   35.12
   6  -3   8  149.33   35.51
   6  -3   9 6279.15  129.49
   6  -3   9 6245.32  111.82
   6  -3   9 6362.82  120.43
   6  -3   9 6106.91  115.30
   6  -3  10   54.39   30.94
   6  -3  10   24.42   33.61
   6  -3  10   87.04   36.42
   6  -3  10   34.51   26.36
   6  -3  11  143.24   34.35
   6  -3  11  180.14   28.48
   6  -3  11  157.70   31.77
   6  -3  12 2941.17   86.23
   6  -3  12 2766.96   70.11
   6  -3  12 2838.72   83.38
   6  -3  13 1323.31   58.32
   6  -3  13 1285.55   56.14
   6  -3  13 1295.35   53.90
   6  -3  13 1265.38   55.22
   6  -3  14 2931.48   82.48
   6  -3  14 2992.53   80.12
   6  -3  14 2908.39   76.55
   6  -3  14 2865.17   80.00
   6  -3  15  863.55   48.49
   6  -3  15  899.70   48.75
   6  -3  15  917.95   50.99
   6  -3  16  210.70   36.42
   6  -3  16  213.53   33.30
   6  -3  16  251.98   37.81
   6  -3  17 1073.92   50.42
   6  -3  17 1066.40   56.44
   6  -3  17 1123.26   55.89
   6  -3  18  624.63   44.23
   6  -3  18  616.03   52.80
   6  -3  18  626.50   43.76
   6  -2 -13   10.17   36.98
   6  -2 -12  178.16   36.56
   6  -2 -10 1512.14   63.63
   6  -2  -9  394.84   37.12
   6  -2  -9  305.10   38.84
   6  -2  -8 2975.12   83.67
   6  -2  -7 1025.44   51.75
   6  -2  -7 1147.16   54.00
   6  -2  -6   62.37   34.26
   6  -2  -6   12.08   34.76
   6  -2  -5  570.10   46.57
   6  -2  -5  542.33   44.24
   6  -2  -4  778.99   44.73
   6  -2  -4  809.53   45.42
   6  -2  -3 2961.96   80.26
   6  -2  -3 2889.75   88.00
   6  -2  -2 1809.25   67.12
   6  -2  -2 1941.75   70.12
   6  -2  -1  348.44   37.36
   6  -2   0 4770.30   99.73
   6  -2   1  991.61   49.31
  -6   2  -2   28.26   30.99
   6  -2   2    8.32   23.57
  -6   2  -3  344.44   34.92
   6  -2   3  304.15   28.75
   6  -2   3  340.97   33.81
  -6   2  -4 3887.21  135.09
   6  -2   4 3985.70  105.30
   6  -2   4 4011.99   95.16
   6  -2   4 3992.76   86.11
   6  -2   5 3221.63   83.59
   6  -2   5 3203.96   81.42
   6  -2   5 3290.46   77.28
   6  -2   6  114.34   29.10
   6  -2   6  127.51   31.33
   6  -2   6  127.50   32.23
   6  -2   6   98.93   30.44
   6  -2   7 6655.12  143.06
   6  -2   7 6573.14  140.99
   6  -2   7 6346.52  133.43
   6  -2   8 4636.60  101.02
   6  -2   8 4633.88  104.06
   6  -2   9 1430.81   55.93
   6  -2   9 1375.28   57.97
   6  -2   9 1419.20   59.59
   6  -2  10 1306.32   61.08
   6  -2  10 1259.48   55.25
   6  -2  10 1272.28   56.28
   6  -2  10 1228.99   53.11
   6  -2  11 1351.29   56.67
   6  -2  11 1349.85   57.68
   6  -2  11 1285.38   54.95
   6  -2  12 1545.99   62.54
   6  -2  12 1629.28   62.20
   6  -2  12 1519.48   54.10
   6  -2  12 1623.72   58.05
   6  -2  13 2401.46   72.61
   6  -2  13 2488.93   77.71
   6  -2  13 2390.07   66.35
   6  -2  13 2373.97   74.84
   6  -2  14 5728.04  141.81
   6  -2  14 6039.15  147.59
   6  -2  14 5813.16  138.80
   6  -2  14 5611.63  136.64
   6  -2  15 1722.59   61.87
   6  -2  15 1748.77   65.83
   6  -2  15 1722.49   61.12
   6  -2  16  184.91   35.23
   6  -2  16  127.88   34.27
   6  -2  16  140.54   33.01
   6  -2  17  813.98   45.78
   6  -2  17  786.41   48.85
   6  -2  17  915.56   49.86
   6  -2  18 1903.98   69.21
   6  -2  18 1858.86   71.67
   6  -2  18 1975.83   66.93
   6  -1 -14  981.81   63.34
   6  -1 -13  694.16   48.01
   6  -1 -10  156.85   45.45
   6  -1 -10  312.74   38.95
   6  -1  -9 2456.09   81.08
   6  -1  -9 2700.13   88.27
   6  -1  -8 5622.16  118.45
   6  -1  -8 5822.03  127.97
   6  -1  -7   43.53   35.01
   6  -1  -7   90.88   36.24
   6  -1  -6   52.26   30.10
   6  -1  -6   62.65   24.22
   6  -1  -5 2585.50   79.21
   6  -1  -5 2462.16   80.59
   6  -1  -410283.23  179.02
   6  -1  -410073.45  181.00
   6  -1  -3 4186.75  102.06
   6  -1  -3 3666.34   93.35
   6  -1  -2   76.66   34.13
   6  -1  -2   86.09   30.95
  -6   1   1  682.35   53.64
  -6   1   1  694.08   48.98
   6  -1  -1  682.98   52.29
   6  -1  -1  778.81   45.44
  -6   1   010431.59  231.08
  -6   1   0 9788.28  218.15
   6  -1   010753.07  216.14
  -6   1  -1  443.11   48.04
  -6   1  -1  437.13   42.11
   6  -1   1  454.69   40.61
  -6   1  -2  194.76   37.21
  -6   1  -2  173.90   35.04
   6  -1   2  183.63   30.60
  -6   1  -3 5722.59  136.95
  -6   1  -3 5662.77  121.52
   6  -1   3 5712.27  113.13
   6  -1   3 5602.07  113.05
   6  -1   3 5535.90  105.52
  -6   1  -4  242.46   35.01
  -6   1  -4  249.98   37.07
   6  -1   4  269.84   30.37
   6  -1   4  256.92   36.55
   6  -1   4  283.14   31.79
  -6   1  -5 4763.64  142.62
  -6   1  -5 4891.77  126.10
   6  -1   5 4767.67  105.50
   6  -1   5 4951.76   99.97
   6  -1   5 4782.70  106.93
   6  -1   6 1504.65   57.39
   6  -1   6 1415.09   65.92
   6  -1   6 1611.15   58.73
   6  -1   7 1786.45   64.63
   6  -1   7 1740.72   63.93
   6  -1   7 1929.82   62.46
   6  -1   8 7901.56  161.31
   6  -1   8 8323.60  168.41
   6  -1   8 8603.34  164.15
   6  -1   9 2119.37   71.01
   6  -1   9 2056.50   67.77
   6  -1   9 2063.96   67.84
   6  -1  10 1910.45   63.00
   6  -1  10 1897.37   63.70
   6  -1  1112236.50  192.58
   6  -1  1111966.09  181.98
   6  -1  1111585.73  179.24
   6  -1  12 1431.17   55.04
   6  -1  12 1460.29   59.78
   6  -1  12 1337.97   58.24
   6  -1  12 1475.83   57.18
   6  -1  13 1726.23   67.16
   6  -1  13 1828.33   63.08
   6  -1  13 1854.91   63.78
   6  -1  13 1776.77   65.31
   6  -1  14  890.99   52.59
   6  -1  14  899.55   49.67
   6  -1  14  980.98   46.13
   6  -1  15 4043.22   97.83
   6  -1  15 4035.24   91.21
   6  -1  15 3993.06   96.16
   6  -1  16 4468.01  104.82
   6  -1  16 4696.41  106.36
   6  -1  16 4635.99  101.10
   6  -1  17  314.68   38.29
   6  -1  17  339.26   40.22
   6  -1  17  370.37   33.06
  -6   1 -18  658.54   46.59
   6  -1  18  662.21   49.23
   6  -1  18  714.77   44.17
  -6   1 -19 2426.36   79.06
   6  -1  19 2393.20   75.91
   6   0 -13 3604.92  106.71
   6   0 -12 2269.89   81.40
   6   0 -12 2152.29   77.97
   6   0 -11 1302.13   64.73
   6   0 -11 1271.45   63.51
   6   0 -10 1822.05   71.86
   6   0 -10 1751.01   73.97
   6   0  -9  375.51   37.70
   6   0  -9  411.69   44.35
   6   0  -8  306.30   42.60
   6   0  -8  342.22   39.86
   6   0  -7 2503.63   83.32
   6   0  -7 2734.44   84.88
   6   0  -6 5624.81  121.03
   6   0  -6 5951.60  123.10
   6   0  -5 6193.49  126.89
   6   0  -5 6309.38  135.16
   6   0  -4  655.46   44.18
   6   0  -4  638.60   48.27
   6   0  -3 8584.54  198.15
   6   0  -3 8109.43  197.50
  -6   0   2  502.56   44.13
   6   0  -2  516.19   39.09
   6   0  -2  490.10   40.28
  -6   0   1  755.70   55.14
  -6   0   1  760.70   47.33
   6   0  -1  750.12   51.28
   6   0  -1  714.38   49.20
  -6   0   0   -6.70   28.42
  -6   0   0    7.66   18.73
   6   0   0   -2.01   25.03
  -6   0  -1   45.91   28.06
  -6   0  -1   18.56   23.36
   6   0   1   29.08   26.40
  -6   0  -2 1103.61   59.21
  -6   0  -2 1104.42   56.82
   6   0   2 1163.63   53.44
   6   0   2 1130.46   52.14
   6   0   2 1047.45   46.19
  -6   0  -3 1491.53   77.88
  -6   0  -3 1518.39   69.48
   6   0   3 1522.95   64.12
   6   0   3 1561.48   57.94
   6   0   3 1465.83   55.65
  -6   0  -4  752.80   60.07
  -6   0  -4  835.19   47.49
   6   0   4  798.23   44.70
   6   0   4  755.77   38.27
  -6   0  -5  499.69   41.80
   6   0   5  414.97   32.46
   6   0   5  458.14   35.47
  -6   0  -6 3309.05   97.74
   6   0   6 2993.55   80.57
   6   0   6 3128.86   75.74
  -6   0  -7  968.44   55.23
   6   0   7  951.56   48.23
   6   0   7  899.67   48.84
   6   0   8 1511.32   58.95
   6   0   8 1583.05   60.30
   6   0   8 1514.53   55.86
   6   0   8 1352.37   56.83
   6   0   9 3377.74   92.94
   6   0   9 3411.74   82.27
   6   0   9 3426.89   77.17
   6   0   9 3350.93   91.55
   6   0  10 2730.97   80.35
   6   0  10 2669.80   76.89
   6   0  11  338.47   37.36
   6   0  11  331.93   38.19
   6   0  11  311.33   36.54
   6   0  12  483.56   39.78
   6   0  12  541.92   42.30
   6   0  12  517.90   36.73
   6   0  13 1436.37   58.39
   6   0  13 1389.19   54.25
   6   0  13 1486.29   59.08
   6   0  13 1488.27   57.52
   6   0  14   33.11   29.14
   6   0  14   39.58   39.60
   6   0  14   -5.90   22.71
   6   0  14    8.12   27.41
   6   0  15 2295.91   68.75
   6   0  15 2101.47   95.52
   6   0  15 2333.53   72.44
   6   0  15 2352.85   70.02
   6   0  16 6874.69  132.40
   6   0  16 6560.29  159.41
   6   0  16 7044.10  124.37
   6   0  16 6885.99  117.27
   6   0  17  -12.72   20.55
   6   0  17   13.38   33.88
   6   0  17   20.27   34.31
  -6   0 -18    0.78   28.22
   6   0  18    4.40   31.51
  -6   0 -19  222.58   33.28
   6   0  19  209.85   31.60
   6   1 -14  207.27   41.93
   6   1 -13 1604.40   74.32
   6   1 -13 1613.22   74.64
   6   1 -13 1602.85   70.53
   6   1 -12 2080.18   74.48
   6   1 -12 2175.08   70.59
   6   1 -12 2028.65   74.56
   6   1 -11 1451.44   62.73
   6   1 -11 1373.47   57.51
   6   1 -11 1461.43   64.37
   6   1 -10 1597.91   69.47
   6   1 -10 1584.16   61.34
   6   1  -9   42.86   32.61
   6   1  -9   33.43   33.76
   6   1  -9   24.74   33.86
   6   1  -8 4302.97  109.87
   6   1  -8 4629.79  112.93
   6   1  -7 1841.23   72.57
   6   1  -7 1876.67   83.18
   6   1  -6  255.43   37.68
   6   1  -6  296.28   41.77
   6   1  -5 2148.40   77.04
   6   1  -5 2156.76   78.24
   6   1  -4  266.99   30.11
   6   1  -4  250.85   41.00
  -6  -1   3 1629.46   79.66
   6   1  -3 1708.75   68.42
   6   1  -3 1622.87   82.84
  -6  -1   2 2703.50   94.55
   6   1  -2 2822.24   84.48
   6   1  -2 2676.23   87.05
  -6  -1   1  850.25   54.22
   6   1  -1  923.89   48.84
   6   1  -1  732.68   50.99
  -6  -1   0  271.70   41.60
  -6  -1   0  278.56   33.32
   6   1   0  261.59   34.28
  -6  -1  -1 1743.85   80.84
  -6  -1  -1 1763.27   82.31
  -6  -1  -1 1739.22   66.08
   6   1   1 1733.94   66.67
   6   1   1 1670.29   59.70
  -6  -1  -2 4349.65  124.69
  -6  -1  -2 4134.49  102.80
  -6  -1  -2 4076.59  110.96
   6   1   2 4211.48   92.20
   6   1   2 4021.25   93.52
  -6  -1  -3  454.64   38.68
  -6  -1  -3  417.46   38.09
  -6  -1  -3  512.30   37.06
   6   1   3  455.08   36.06
   6   1   3  447.91   32.60
  -6  -1  -4 1920.84   75.40
   6   1   4 1824.37   62.25
   6   1   4 1813.74   60.53
  -6  -1  -5  422.88   35.32
   6   1   5  439.71   36.02
   6   1   5  446.67   34.61
  -6  -1  -6  469.78   40.18
   6   1   6  376.87   35.16
   6   1   6  370.56   34.11
  -6  -1  -7  -14.86   29.59
   6   1   7   10.18   27.47
   6   1   7   -5.69   24.01
   6   1   8 1100.96   51.51
   6   1   8 1053.15   49.18
   6   1   8 1000.46   50.99
   6   1   9 4585.19  107.75
   6   1   9 4657.86  115.31
   6   1   9 4630.54   94.11
   6   1   9 4449.51   97.34
   6   1  10 4740.85   98.17
   6   1  10 4649.25  115.64
   6   1  10 4737.65   93.09
   6   1  10 4778.85   98.86
   6   1  11 7073.10  135.10
   6   1  11 7103.51  150.40
   6   1  11 7269.67  139.18
   6   1  11 6961.27  127.37
   6   1  11 7148.77  138.23
   6   1  12 7579.65  147.82
   6   1  12 7666.54  142.81
   6   1  12 7743.35  146.49
   6   1  13  519.63   42.36
   6   1  13  482.05   43.36
   6   1  13  553.93   37.09
   6   1  13  497.88   41.80
   6   1  14 1737.32   61.21
   6   1  14 1683.72   68.13
   6   1  14 1756.68   62.88
   6   1  14 1840.94   62.33
   6   1  15 2309.20   74.20
   6   1  15 2411.89   86.19
   6   1  15 2446.93   72.87
   6   1  15 2492.14   73.08
   6   1  16 6470.74  117.42
   6   1  16 6562.70  133.91
   6   1  16 6576.40  116.86
   6   1  16 6932.12  117.64
  -6  -1 -17    4.28   27.32
   6   1  17   21.32   34.79
   6   1  17   -1.35   29.02
   6   1  17   18.27   27.55
  -6  -1 -18   16.99   31.39
   6   1  18    6.78   44.15
   6   1  18   23.28   28.49
  -6  -1 -19  510.77   40.59
   6   1  19  425.76   54.33
   6   1  19  449.64   37.89
   6   2 -14  430.83   45.05
   6   2 -14  431.72   43.88
   6   2 -13 4767.15  114.66
   6   2 -13 5095.99  128.86
   6   2 -13 4871.81  107.90
   6   2 -12  734.44   51.89
   6   2 -12  693.35   52.46
   6   2 -12  710.48   50.22
   6   2 -11 1926.36   76.04
   6   2 -11 1916.32   74.36
   6   2 -11 1865.19   68.98
   6   2 -10  316.84   36.11
   6   2 -10  292.76   39.67
   6   2  -9 3957.44  103.86
   6   2  -9 4165.17   93.41
   6   2  -9 4069.89  100.29
   6   2  -8  880.41   56.30
   6   2  -8  862.40   52.26
   6   2  -8  887.97   56.66
   6   2  -7  808.20   53.93
   6   2  -7  734.45   44.98
   6   2  -7  815.42   54.42
   6   2  -6 7814.19  169.43
   6   2  -6 7672.60  151.17
   6   2  -6 7994.61  167.96
   6   2  -5 9548.93  194.04
   6   2  -5 9497.11  197.32
  -6  -2   4  533.10   55.83
   6   2  -4  564.36   44.19
   6   2  -4  585.64   43.85
  -6  -2   3 2837.24  108.75
   6   2  -3 2999.16   92.36
   6   2  -3 3085.62   96.56
  -6  -2   2 5289.23  158.66
   6   2  -2 5741.38  119.91
   6   2  -2 5527.15  135.33
  -6  -2   1 3369.45  121.75
  -6  -2   1 3278.92  112.17
   6   2  -1 3395.37   97.25
   6   2  -1 3156.80   98.25
  -6  -2   0  328.64   41.10
  -6  -2   0  315.95   38.40
   6   2   0  309.48   40.17
  -6  -2  -1 5979.91  156.15
  -6  -2  -1 5997.77  135.39
  -6  -2  -1 5833.55  130.33
  -6  -2  -1 5935.07  145.06
  -6  -2  -2 4460.74  120.18
  -6  -2  -2 4431.92  107.73
  -6  -2  -2 4633.22  123.78
   6   2   2 4628.76  103.84
   6   2   2 4395.94   90.85
  -6  -2  -3  139.20   28.85
  -6  -2  -3  174.97   26.78
  -6  -2  -3  165.80   31.12
   6   2   3  147.48   26.01
   6   2   3  157.15   27.41
  -6  -2  -4   41.46   26.97
  -6  -2  -4   71.83   21.80
   6   2   4   47.51   25.34
   6   2   4   73.52   20.82
  -6  -2  -5 2898.09   86.27
  -6  -2  -5 3336.84   93.50
   6   2   5 3056.95   94.98
   6   2   5 3177.10   90.88
   6   2   5 3266.58   81.20
   6   2   5 3105.32   79.91
  -6  -2  -6 4649.42  107.15
   6   2   6 4913.36  119.28
   6   2   6 5108.72  121.06
   6   2   6 4986.06   98.40
   6   2   6 5052.05   94.73
  -6  -2  -7   16.63   29.78
  -6  -2  -7   24.13   29.70
   6   2   7   31.85   30.17
   6   2   7   43.11   31.31
   6   2   7   36.52   26.23
   6   2   7   38.21   24.36
  -6  -2  -8  914.32   66.14
  -6  -2  -8 1047.91   57.49
   6   2   8  985.86   51.55
   6   2   8 1150.22   55.45
   6   2   8 1150.10   51.80
   6   2   8 1089.01   48.49
   6   2   8 1054.51   48.90
   6   2   9 2919.79   95.62
   6   2   9 3217.23  101.56
   6   2   9 3271.93   77.63
   6   2   9 2987.52   90.24
   6   2  10  358.86   36.57
   6   2  10  327.40   38.14
   6   2  10  338.23   31.43
   6   2  10  318.64   36.36
   6   2  10  337.49   35.59
   6   2  11  194.73   30.92
   6   2  11  287.65   39.89
   6   2  11  212.37   33.54
   6   2  11  221.14   34.70
   6   2  11  214.53   25.90
   6   2  12  176.48   32.81
   6   2  12  173.39   37.15
   6   2  12  168.27   32.78
   6   2  12  198.45   34.67
   6   2  12  183.34   28.22
   6   2  13  393.73   39.08
   6   2  13  391.15   43.70
   6   2  13  358.65   38.59
   6   2  13  483.56   39.45
   6   2  14    3.00   26.67
   6   2  14   40.16   37.82
   6   2  14   43.36   32.88
   6   2  14   28.16   21.51
   6   2  15   16.45   27.86
   6   2  15   50.94   37.92
   6   2  15   16.08   27.54
   6   2  15   55.33   24.49
  -6  -2 -16 3539.73   93.08
   6   2  16 3202.61   99.36
   6   2  16 3318.69   81.43
   6   2  16 3635.76   88.97
  -6  -2 -17  842.09   47.13
   6   2  17  894.94   52.53
   6   2  17  780.06   47.53
   6   2  17  854.37   48.82
  -6  -2 -18   41.72   31.04
   6   2  18   -1.14   38.30
   6   2  18   15.05   27.84
  -6  -2 -19  -12.44   30.86
   6   2  19    5.44   41.53
   6   3 -14 2099.71   79.03
   6   3 -14 2107.14   82.81
   6   3 -14 2056.04   74.84
   6   3 -13   70.06   40.16
   6   3 -13   62.40   31.93
   6   3 -13   71.10   35.92
   6   3 -12 3920.05  100.40
   6   3 -12 4067.58  103.37
   6   3 -12 3802.39   98.18
   6   3 -11  764.74   56.89
   6   3 -11  817.39   55.03
   6   3 -11  852.99   51.03
   6   3 -10  126.13   38.20
   6   3 -10  176.11   37.48
   6   3 -10  194.80   47.26
   6   3 -10  215.58   36.72
   6   3  -9  203.28   41.67
   6   3  -9  223.70   37.15
   6   3  -9  218.31   35.43
   6   3  -8 1863.48   77.04
   6   3  -8 1876.54   69.89
   6   3  -8 1905.20   75.93
   6   3  -8 2011.36   67.70
   6   3  -7 2090.90   78.32
   6   3  -7 2128.67   68.63
   6   3  -7 2098.24   73.78
   6   3  -6  115.06   33.96
   6   3  -6  140.41   29.49
   6   3  -6  135.85   37.50
   6   3  -5 4900.47  110.55
   6   3  -5 4862.69  100.65
   6   3  -5 4912.32  136.26
   6   3  -4 9978.33  228.91
  -6  -3   410029.73  254.34
   6   3  -410231.31  220.76
   6   3  -410065.42  212.89
   6   3  -410436.19  227.39
  -6  -3   3  318.06   43.91
   6   3  -3  285.29   37.41
   6   3  -3  290.62   32.95
   6   3  -3  347.16   44.28
  -6  -3   2   53.52   29.45
  -6  -3   2   11.75   30.38
   6   3  -2   55.25   26.67
   6   3  -2   77.17   25.35
   6   3  -2   78.22   37.41
  -6  -3   1 1063.34   67.56
  -6  -3   1  989.96   74.02
   6   3  -1  987.88   53.28
   6   3  -1  956.41   59.72
  -6  -3   0 7084.47  146.44
  -6  -3   0 6836.30  161.11
   6   3   0 6656.58  129.54
   6   3   0 6725.61  168.44
  -6  -3  -1  251.91   30.26
  -6  -3  -1  258.94   37.68
   6   3   1  263.64   32.99
   6   3   1  235.77   27.21
  -6  -3  -214481.90  239.56
  -6  -3  -213754.41  211.14
  -6  -3  -214897.81  255.60
   6   3   214498.73  219.24
   6   3   214134.55  200.19
  -6  -3  -3 1186.21   58.66
  -6  -3  -3 1301.47   61.11
  -6  -3  -3 1337.99   65.32
   6   3   3 1176.06   57.23
   6   3   3 1218.35   54.72
  -6  -3  -4 1862.64   80.81
  -6  -3  -4 1992.68   70.20
   6   3   4 1865.73   77.79
   6   3   4 1913.24   72.96
   6   3   4 1983.28   65.58
   6   3   4 1860.83   70.09
  -6  -3  -5 4848.10  157.84
  -6  -3  -5 5172.63  116.06
   6   3   5 4847.30  153.37
   6   3   5 5028.59  120.61
   6   3   5 5062.72  106.21
   6   3   5 4797.67   99.53
  -6  -3  -6 5871.39  129.32
  -6  -3  -6 5897.73  122.51
   6   3   6 5982.89  135.90
   6   3   6 6185.48  125.21
   6   3   6 6006.30  110.57
   6   3   6 5993.78  115.84
  -6  -3  -7  215.73   28.23
  -6  -3  -7  275.57   38.09
   6   3   7  253.06   31.15
   6   3   7  249.42   30.09
   6   3   7  267.18   27.75
   6   3   7  231.89   30.43
   6   3   7  235.49   30.69
  -6  -3  -8 5751.06  148.68
   6   3   8 5366.81  127.64
   6   3   8 5922.54  146.43
   6   3   8 5565.01  132.67
   6   3   8 5765.00  138.80
   6   3   9  789.70   46.83
   6   3   9  758.00   42.46
   6   3   9  756.98   45.10
   6   3  10  801.44   45.96
   6   3  10  865.83   49.88
   6   3  10  847.07   45.17
   6   3  10  848.83   47.16
   6   3  10  785.14   43.77
   6   3  11  173.34   31.82
   6   3  11  234.30   40.99
   6   3  11  180.66   32.42
   6   3  11  179.87   31.71
   6   3  12 1960.40   63.24
   6   3  12 1989.22   84.23
   6   3  12 2016.20   77.59
   6   3  12 2147.96   68.52
   6   3  1313951.06  170.08
   6   3  1314129.37  173.39
   6   3  1314276.92  178.02
   6   3  14  686.69   49.86
   6   3  14  694.70   44.85
   6   3  14  738.48   44.41
   6   3  15 1023.79   53.80
  -6  -3 -15 1105.24   51.62
   6   3  15  918.19   56.33
   6   3  15 1049.97   50.47
   6   3  15 1084.72   50.88
   6   3  16  876.91   51.90
  -6  -3 -16  875.33   47.49
   6   3  16  859.23   54.17
   6   3  16  861.47   48.68
   6   3  16  829.28   48.45
   6   3  17  885.80   52.88
  -6  -3 -17  935.02   50.36
   6   3  17  958.34   60.18
   6   3  17  936.81   50.49
  -6  -3 -18  274.56   35.59
   6   3  18  266.78   41.89
  -6  -3 -19  152.35   36.92
   6   3  19  147.10   39.14
   6   4 -14   34.34   43.25
   6   4 -14   56.45   35.68
   6   4 -14   35.30   37.86
   6   4 -13  320.12   42.18
   6   4 -13  337.45   46.21
   6   4 -13  308.05   42.71
   6   4 -12  180.55   41.99
   6   4 -12  208.73   37.76
   6   4 -12  207.38   36.03
   6   4 -11  798.85   59.32
   6   4 -11  822.14   58.92
   6   4 -11  775.77   49.68
   6   4 -10   50.96   33.00
   6   4 -10    0.41   31.68
   6   4 -10  -11.34   38.89
   6   4 -10   18.54   28.99
   6   4  -9  387.90   45.94
   6   4  -9  462.61   42.69
   6   4  -9  458.00   40.95
   6   4  -8 1139.05   62.14
   6   4  -8 1267.45   56.74
   6   4  -8 1203.24   51.81
   6   4  -7  -11.68   36.06
   6   4  -7   20.49   21.94
   6   4  -7   31.23   39.04
   6   4  -7    2.58   27.32
   6   4  -6  699.15   46.85
   6   4  -6  669.50   43.99
   6   4  -6  689.48   53.82
   6   4  -5   14.59   25.31
   6   4  -5   24.28   20.74
   6   4  -5   21.04   34.43
   6   4  -410356.78  223.53
   6   4  -4 9988.54  207.51
   6   4  -410468.70  240.22
  -6  -4   3  530.48   48.37
   6   4  -3  503.70   39.89
   6   4  -3  518.76   52.90
  -6  -4   2  137.40   37.82
   6   4  -2  156.75   29.01
   6   4  -2  144.85   38.66
  -6  -4   1 2722.50  104.01
   6   4  -1 2708.47   78.80
   6   4  -1 2634.86   92.79
  -6  -4   0 4610.20  144.30
  -6  -4   0 4652.10  127.04
   6   4   0 4775.14  109.19
   6   4   0 4463.91  125.25
  -6  -4  -1  985.01   55.08
  -6  -4  -1 1019.47   60.57
   6   4   1 1001.15   53.02
   6   4   1  915.80   46.96
   6   4   1  883.87   60.30
  -6  -4  -222852.86  301.41
  -6  -4  -223786.93  283.71
   6   4   222368.96  279.53
   6   4   222594.45  255.05
  -6  -4  -3 8287.42  171.68
  -6  -4  -3 7551.12  168.63
  -6  -4  -3 8709.03  184.82
   6   4   3 8166.59  151.02
   6   4   3 8217.41  152.60
  -6  -4  -4 4514.32  134.80
  -6  -4  -4 4453.07  127.55
   6   4   4 4414.15  110.19
   6   4   4 4662.17  113.54
   6   4   4 4650.50  101.72
  -6  -4  -5 6476.68  148.28
  -6  -4  -5 6038.44  132.40
   6   4   5 6215.76  148.81
   6   4   5 6356.96  143.21
   6   4   5 6302.12  126.91
   6   4   5 5842.52  147.74
  -6  -4  -6 6422.83  154.52
  -6  -4  -6 5973.05  143.06
   6   4   6 6290.28  133.37
   6   4   6 6863.30  127.44
   6   4   6 6398.15  125.17
   6   4   6 6258.83  112.93
  -6  -4  -7    7.75   27.73
  -6  -4  -7    2.76   18.23
   6   4   7   17.03   35.22
   6   4   7   19.91   23.81
   6   4   7   23.54   17.84
   6   4   7    1.16   16.09
   6   4   7   27.16   21.93
  -6  -4  -8  575.49   46.41
   6   4   8  640.51   46.05
   6   4   8  640.08   47.32
   6   4   8  561.72   41.10
   6   4   8  582.48   40.28
   6   4   9 7842.88  170.92
   6   4   9 7935.24  157.07
   6   4   9 7533.32  143.11
   6   4   9 7595.75  153.69
   6   4  10  155.76   28.78
   6   4  10  120.65   28.42
   6   4  10  122.04   27.19
   6   4  11  916.62   54.62
   6   4  11 1063.09   47.10
   6   4  11 1014.23   45.77
   6   4  12  106.41   30.67
  -6  -4 -12   92.27   25.64
   6   4  12   84.92   41.00
   6   4  12  121.34   29.53
   6   4  12  108.68   31.68
   6   4  1328630.11  287.60
  -6  -4 -1329278.05  246.23
   6   4  1330816.44  233.55
   6   4  14 5221.68  124.14
  -6  -4 -14 5372.90  122.88
   6   4  14 5271.69  137.45
   6   4  14 5262.77  116.60
   6   4  14 5220.22  117.33
   6   4  15   63.54   33.43
  -6  -4 -15   69.23   26.31
   6   4  15  115.79   35.91
   6   4  15   61.47   29.09
   6   4  15   67.30   30.65
   6   4  16 1836.10   72.28
  -6  -4 -16 1959.38   65.33
   6   4  16 1871.03   68.68
   6   4  16 1915.59   65.78
   6   4  16 1867.32   63.72
   6   4  17  580.97   46.78
  -6  -4 -17  544.18   42.80
   6   4  17  584.98   49.36
   6   4  17  600.40   42.97
   6   4  18  222.17   41.33
  -6  -4 -18  167.47   34.21
   6   4  18  159.09   37.52
  -6  -4 -19 1074.74   56.41
   6   4  19 1019.50   60.47
   6   5 -14    1.39   37.27
   6   5 -14   -1.14   34.21
   6   5 -14   13.24   36.77
   6   5 -13 1560.36   73.36
   6   5 -13 1641.14   66.34
   6   5 -13 1655.92   67.22
   6   5 -12  377.14   49.05
   6   5 -12  372.70   41.26
   6   5 -12  397.20   42.06
   6   5 -11  728.63   54.44
   6   5 -11  771.68   49.47
   6   5 -11  751.63   58.24
   6   5 -11  761.57   48.49
   6   5 -10   51.93   26.72
   6   5 -10   87.89   35.59
   6   5 -10   92.07   41.66
   6   5 -10  109.16   37.28
   6   5  -9 1120.01   59.62
   6   5  -9 1085.52   54.50
   6   5  -9 1097.19   64.29
   6   5  -9 1161.17   52.03
   6   5  -8  547.77   48.47
   6   5  -8  604.48   40.41
   6   5  -8  601.15   45.73
   6   5  -7 5092.78  119.99
   6   5  -7 4948.84  130.15
   6   5  -7 4833.01  110.94
   6   5  -6 1825.28   74.98
   6   5  -6 1808.58   63.45
   6   5  -6 1904.02   79.64
   6   5  -6 1794.36   67.14
   6   5  -5   11.57   36.51
   6   5  -5   42.04   27.85
   6   5  -5   63.34   39.83
   6   5  -414032.71  235.71
   6   5  -414104.72  263.16
   6   5  -3  616.41   41.03
   6   5  -3  575.03   53.95
  -6  -5   2 2303.26   92.21
   6   5  -2 2300.55   74.62
   6   5  -2 2261.51   91.34
  -6  -5   1 2471.51   91.77
   6   5  -1 2532.67   77.20
   6   5  -1 2576.79   91.85
  -6  -5   0  237.80   29.38
  -6  -5   0  269.54   40.28
   6   5   0  270.19   31.65
   6   5   0  245.05   31.09
   6   5   0  209.10   38.98
  -6  -5  -1 3501.64   97.06
  -6  -5  -1 3409.42  104.40
   6   5   1 3411.49   97.90
   6   5   1 3404.15   86.78
   6   5   1 3485.93  114.85
  -6  -5  -2 7199.39  145.88
  -6  -5  -2 7538.54  167.70
   6   5   2 7034.32  137.49
   6   5   2 7078.64  122.84
   6   5   2 6509.10  161.19
  -6  -5  -314965.64  224.39
  -6  -5  -315967.54  251.84
   6   5   315274.90  211.45
   6   5   315062.09  210.49
  -6  -5  -423238.35  286.30
   6   5   422945.94  335.50
   6   5   424290.47  246.02
   6   5   423613.54  204.88
  -6  -5  -5 1013.73   55.70
  -6  -5  -5  988.74   58.93
   6   5   5 1051.91   53.12
   6   5   5 1170.04   54.21
   6   5   5 1057.00   45.87
  -6  -5  -6 1547.22   74.55
  -6  -5  -6 1562.82   68.96
   6   5   6 1522.31   75.74
   6   5   6 1676.80   62.93
   6   5   6 1590.86   55.52
   6   5   6 1663.17   63.50
   6   5   6 1659.04   61.87
  -6  -5  -7   12.46   29.02
   6   5   7   18.39   29.08
   6   5   7   -6.69   26.53
   6   5   7   -6.30   21.65
  -6  -5  -8  251.18   39.48
   6   5   8  245.24   35.14
   6   5   8  246.91   30.55
   6   5   9    8.59   28.84
   6   5   9   12.32   30.28
   6   5   9   -9.08   23.43
   6   5   9   -2.69   26.52
   6   5  10 1279.77   55.12
   6   5  10 1352.52   62.37
   6   5  10 1292.43   51.78
   6   5  10 1290.39   54.64
   6   5  11 2509.57   77.95
  -6  -5 -11 2444.57   70.60
   6   5  11 2621.75   83.42
   6   5  11 2546.83   68.39
   6   5  11 2573.64   74.88
   6   5  12  138.38   34.85
  -6  -5 -12  192.13   29.22
   6   5  12  161.88   44.12
   6   5  12  179.12   29.95
   6   5  12  196.34   32.06
   6   5  13  390.55   37.84
  -6  -5 -13  395.82   37.18
   6   5  13  365.50   38.35
   6   5  13  400.74   32.01
   6   5  13  481.92   41.32
   6   5  14 1568.90   63.02
  -6  -5 -14 1498.85   58.28
   6   5  14 1611.98   68.11
   6   5  14 1512.63   53.93
   6   5  14 1467.66   57.26
   6   5  15  275.51   35.40
  -6  -5 -15  278.85   33.71
   6   5  15  219.52   40.30
   6   5  15  255.86   34.31
   6   5  15  261.04   36.94
   6   5  16  259.03   37.37
  -6  -5 -16  247.81   33.46
   6   5  16  210.86   42.66
   6   5  16  225.56   37.00
   6   5  16  275.99   36.52
   6   5  17  147.25   36.83
  -6  -5 -17  174.98   32.18
   6   5  17  149.15   39.20
   6   5  18  132.16   33.75
  -6  -5 -18  121.21   31.04
   6   5  18  121.25   37.23
   6   5  19  124.13   43.72
  -6  -5 -19  137.04   35.51
   6   5  19  143.28   46.85
   6   5  19  148.09   32.00
   6   6 -14 1668.59   76.35
   6   6 -14 1626.27   74.31
   6   6 -14 1614.39   73.92
   6   6 -13  558.61   50.26
   6   6 -13  575.40   49.87
   6   6 -13  592.14   50.88
   6   6 -12    7.60   36.18
   6   6 -12   15.39   36.37
   6   6 -12    7.07   30.54
   6   6 -11    7.85   34.83
   6   6 -11   27.93   38.28
   6   6 -11   14.07   43.13
   6   6 -11   31.14   30.84
   6   6 -10   72.62   42.30
   6   6 -10   60.14   36.53
   6   6 -10  104.62   38.20
   6   6 -10   68.45   31.42
   6   6  -9  464.47   46.78
   6   6  -9  525.00   44.07
   6   6  -9  533.80   53.62
   6   6  -9  504.65   44.69
   6   6  -8  707.20   55.02
   6   6  -8  820.73   51.83
   6   6  -8  858.12   59.98
   6   6  -8  805.82   49.73
   6   6  -7 7181.19  151.03
   6   6  -7 7934.72  139.08
   6   6  -7 7600.28  135.30
   6   6  -6    1.84   36.06
   6   6  -6    4.90   22.71
   6   6  -6   22.38   40.60
   6   6  -6    7.42   27.00
   6   6  -5  337.21   37.84
   6   6  -5  292.26   49.98
   6   6  -411435.04  206.86
   6   6  -411460.73  239.39
   6   6  -3  639.28   40.54
   6   6  -3  688.75   49.58
  -6  -6   2   80.26   38.71
   6   6  -2   82.59   33.62
   6   6  -2   69.22   30.76
  -6  -6   1 9486.98  246.71
  -6  -6   1 9900.80  233.69
   6   6  -1 9978.25  216.20
   6   6  -110131.92  200.40
   6   6  -110203.63  233.66
  -6  -6   0  573.83   38.98
  -6  -6   0  544.38   46.14
   6   6   0  548.66   41.61
   6   6   0  538.54   31.92
   6   6   0  585.09   57.65
  -6  -6  -1  770.07   58.48
  -6  -6  -1  800.51   58.24
   6   6   1  765.05   47.71
   6   6   1  757.94   43.49
   6   6   1  795.77   57.23
  -6  -6  -2 7962.05  165.63
  -6  -6  -2 8263.39  168.15
   6   6   2 8156.08  147.33
   6   6   2 7977.31  117.51
   6   6   2 7910.84  160.65
  -6  -6  -3 4932.66  117.72
  -6  -6  -3 5179.24  137.20
   6   6   3 4863.15  112.68
   6   6   3 4843.58   93.00
  -6  -6  -4 9890.65  195.52
   6   6   4 9147.38  164.22
   6   6   410200.00  155.48
   6   6   4 9729.69  137.80
  -6  -6  -5 1995.03   82.36
   6   6   5 1975.77   73.64
   6   6   5 2054.46   72.62
   6   6   5 2020.52   64.57
   6   6   5 2108.64   73.17
  -6  -6  -6  113.03   29.36
   6   6   6  103.16   34.85
   6   6   6   99.38   26.59
   6   6   6  132.79   29.20
   6   6   6  120.81   25.93
   6   6   6  105.92   21.99
   6   6   7   -2.21   23.39
   6   6   7  -19.69   32.12
   6   6   7   -7.38   23.96
   6   6   8   -6.22   25.23
   6   6   8   22.37   21.93
   6   6   8    7.37   24.44
   6   6   8  -14.47   25.28
   6   6   9  366.63   35.04
   6   6   9  363.68   40.72
   6   6   9  396.32   34.89
   6   6   9  333.41   29.95
   6   6  10 3101.11   81.73
   6   6  10 2981.01   86.30
   6   6  10 2978.52   73.21
   6   6  10 2875.43   77.79
   6   6  11 3145.60   88.93
   6   6  11 3104.48   92.19
   6   6  11 3191.02   78.53
   6   6  11 3231.26   82.53
   6   6  12  433.42   39.82
  -6  -6 -12  422.72   35.12
   6   6  12  431.21   47.37
   6   6  12  443.59   32.34
   6   6  12  485.24   39.39
   6   6  13  -10.23   28.63
  -6  -6 -13   14.10   25.76
   6   6  13    7.86   41.44
   6   6  13   25.41   26.03
   6   6  13   -7.32   26.95
   6   6  14  143.99   31.84
  -6  -6 -14  102.18   27.71
   6   6  14   41.19   38.89
   6   6  14   93.27   32.37
   6   6  14  108.44   24.17
   6   6  15 1049.92   53.57
  -6  -6 -15 1037.68   49.12
   6   6  15  984.34   56.25
   6   6  15 1010.57   46.65
   6   6  15 1035.54   51.01
   6   6  16  682.38   48.69
  -6  -6 -16  659.51   44.13
   6   6  16  720.95   55.37
   6   6  16  628.73   46.58
   6   6  17 3676.70  100.20
  -6  -6 -17 3943.76  100.04
   6   6  17 3611.79   99.37
   6   6  18 1922.19   72.00
  -6  -6 -18 2120.00   76.81
   6   6  18 2012.05   83.33
   6   7 -14 1699.32   81.81
   6   7 -14 1783.03   75.22
   6   7 -14 1693.95   71.43
   6   7 -13 1158.47   63.21
   6   7 -13 1260.75   61.48
   6   7 -13 1204.43   58.41
   6   7 -12  459.02   46.88
   6   7 -12  403.14   44.59
   6   7 -12  419.33   39.85
   6   7 -11  175.52   39.49
   6   7 -11  180.92   38.58
   6   7 -11   92.94   43.20
   6   7 -11  161.77   37.52
   6   7 -10  177.77   43.71
   6   7 -10  207.54   40.80
   6   7 -10  199.90   47.60
   6   7 -10  222.04   36.11
   6   7  -9   34.50   43.71
   6   7  -9  -22.77   34.30
   6   7  -9  -14.51   40.30
   6   7  -9   12.09   39.54
   6   7  -8 4280.50  112.66
   6   7  -8 4710.05   97.53
   6   7  -8 4753.98  116.37
   6   7  -8 4473.98  111.09
   6   7  -7 8322.69  132.13
   6   7  -7 8229.27  144.20
   6   7  -6  963.99   49.79
   6   7  -6 1005.78   51.82
   6   7  -6  967.31   52.88
   6   7  -5  311.64   38.56
   6   7  -5  317.05   38.02
   6   7  -5  301.75   39.92
   6   7  -5  359.58   40.82
   6   7  -4 1595.91   63.48
   6   7  -4 1547.40   59.79
   6   7  -4 1687.50   77.00
   6   7  -3 1755.58   64.09
   6   7  -3 1852.97   62.27
   6   7  -3 1917.52   82.98
   6   7  -2 1505.43   61.32
   6   7  -2 1647.65   58.78
   6   7  -2 1676.27   85.97
  -6  -7   1  384.97   40.21
   6   7  -1  411.23   34.12
   6   7  -1  395.10   40.00
   6   7  -1  405.27   49.09
  -6  -7   033333.99  580.37
   6   7   034006.73  551.04
   6   7   033626.46  554.86
   6   7   035729.24  255.68
   6   7   034820.60  336.47
  -6  -7  -1 1998.07   81.55
  -6  -7  -1 2023.29   83.85
   6   7   1 1987.92   68.17
   6   7   1 2049.10   74.82
   6   7   1 2053.32   60.22
   6   7   1 2045.23   89.93
  -6  -7  -2 3155.41   88.11
  -6  -7  -2 3040.59  106.77
   6   7   2 3142.52   84.85
   6   7   2 3031.09   86.37
   6   7   2 3182.26   72.69
   6   7   2 3165.97  106.63
  -6  -7  -3 5267.57  111.64
  -6  -7  -3 5185.59  144.08
   6   7   3 5328.54  110.98
   6   7   3 5345.61  117.37
   6   7   3 5402.09   95.09
   6   7   3 5207.20  137.14
  -6  -7  -4 5800.62  145.70
   6   7   4 6201.04  148.76
   6   7   4 6116.37  160.16
   6   7   4 6048.98  137.06
   6   7   5  833.99   46.27
   6   7   5  840.67   53.33
   6   7   5  839.64   39.05
   6   7   5  842.57   45.49
   6   7   6  220.68   32.19
   6   7   6  190.65   34.55
   6   7   6  184.19   24.34
   6   7   7  137.17   29.50
   6   7   7  148.77   31.43
   6   7   7  125.78   27.16
   6   7   8 5678.58  114.31
   6   7   8 5056.05  113.66
   6   7   8 5561.14  101.07
   6   7   8 5722.18  108.67
   6   7   9 1079.06   50.79
   6   7   9 1096.31   45.17
   6   7   9 1084.08   49.40
   6   7  1014171.59  215.81
   6   7  1014685.21  205.39
   6   7  1014370.09  205.33
   6   7  11  648.70   42.27
   6   7  11  715.64   39.96
   6   7  11  673.23   44.43
   6   7  12  724.28   43.59
  -6  -7 -12  733.70   47.19
   6   7  12  798.87   43.31
   6   7  12  728.83   45.12
   6   7  13 3495.22   90.71
  -6  -7 -13 3375.50   87.14
   6   7  13 3572.73   78.33
   6   7  13 3631.00   86.98
   6   7  14  190.25   33.24
  -6  -7 -14  210.35   30.94
   6   7  14  209.10   29.76
   6   7  14  252.97   34.39
   6   7  15  371.51   38.65
  -6  -7 -15  320.69   37.92
   6   7  15  354.49   36.95
   6   7  15  329.97   35.63
   6   7  16  141.09   33.94
  -6  -7 -16  113.35   28.78
   6   7  17  558.70   44.17
  -6  -7 -17  557.41   40.60
   6   7  18 1187.22   59.66
  -6  -7 -18 1215.02   58.11
   6   7  18 1167.39   52.42
   6   8 -13  117.01   44.92
   6   8 -13  133.21   43.19
   6   8 -13  114.52   38.45
   6   8 -12   83.40   45.17
   6   8 -12   83.56   38.07
   6   8 -12   83.72   31.29
  -6  -8  11  841.96   54.44
   6   8 -11  879.90   61.29
   6   8 -11  848.23   51.84
   6   8 -11  888.57   60.36
   6   8 -11  875.77   48.64
  -6  -8  10  816.82   53.57
   6   8 -10  836.98   62.33
   6   8 -10  875.37   54.51
   6   8 -10  802.00   63.71
   6   8 -10  809.17   50.04
   6   8  -9 4498.87  127.89
   6   8  -9 4316.75  141.67
   6   8  -9 4536.50  131.28
   6   8  -9 4820.15  141.14
   6   8  -9 4429.41  131.57
   6   8  -8   56.55   31.51
   6   8  -8   84.14   37.82
   6   8  -8   14.90   49.09
   6   8  -8   22.82   31.79
   6   8  -7 2338.15   73.34
   6   8  -7 2423.28   70.99
   6   8  -7 2396.10   95.68
   6   8  -7 2345.95   78.70
   6   8  -6 1573.74   60.70
   6   8  -6 1526.73   55.67
   6   8  -6 1649.15   66.82
   6   8  -5  559.40   42.71
   6   8  -5  528.85   38.59
   6   8  -5  496.60   55.75
   6   8  -5  523.02   41.62
   6   8  -4   15.12   30.80
   6   8  -4   17.79   42.35
   6   8  -4   -3.68   30.18
   6   8  -3  265.14   35.77
   6   8  -3  292.25   52.00
   6   8  -3  229.19   35.36
   6   8  -2   40.13   18.13
   6   8  -2   88.00   43.02
   6   8  -1 2004.18   68.90
   6   8  -1 2169.04   85.94
   6   8   0 1982.55   65.94
   6   8   0 2108.46   84.76
   6   8   127191.39  401.57
   6   8   128448.22  285.91
   6   8   2 6116.35  138.10
   6   8   2 6319.98  126.30
   6   8   2 6269.41  159.82
   6   8   3   24.86   24.24
   6   8   3   35.30   23.13
   6   8   3   28.29   35.50
   6   8   4  891.58   46.83
   6   8   4  864.75   40.18
   6   8   4  839.50   75.23
   6   8   4  817.67   46.16
   6   8   5 1198.94   56.68
   6   8   5 1235.92   49.09
   6   8   5 1244.56   49.48
   6   8   6  633.06   40.23
   6   8   6  638.34   40.18
   6   8   7 2544.44   72.87
   6   8   7 2307.06   69.61
   6   8   7 2571.37   71.65
   6   8   8 1665.09   60.58
   6   8   8 1644.22   66.81
   6   8   8 1638.34   59.63
   6   8   8 1678.91   58.96
   6   8   910418.27  173.82
   6   8   9 9352.64  171.02
   6   8   910173.26  166.17
   6   8   910025.23  164.27
   6   8  10 2538.49   77.32
   6   8  10 2464.48   80.84
   6   8  10 2566.95   69.78
   6   8  10 2529.56   73.28
   6   8  11  546.77   42.89
   6   8  11  563.01   46.93
   6   8  11  517.56   39.12
   6   8  11  485.63   41.10
   6   8  12 1093.96   52.88
   6   8  12 1027.77   59.36
   6   8  12 1093.82   48.54
   6   8  12 1132.95   53.00
   6   8  13 1462.70   63.62
  -6  -8 -13 1388.00   54.52
   6   8  13 1525.79   67.38
   6   8  13 1473.35   52.94
   6   8  13 1515.10   55.78
   6   8  14    6.50   27.43
  -6  -8 -14   -2.71   32.55
   6   8  14    5.30   35.49
   6   8  14    9.69   30.55
   6   8  14   -1.14   21.77
   6   8  15  591.62   44.21
  -6  -8 -15  525.81   40.95
   6   8  15  485.91   48.46
   6   8  15  545.27   42.93
   6   8  16  279.22   36.93
  -6  -8 -16  289.30   39.24
   6   8  16  314.97   46.75
   6   8  17   25.10   31.31
  -6  -8 -17   25.24   37.06
   6   8  17   22.41   34.55
   6   8  18 1998.45   86.59
  -6  -8 -18 2066.98   83.53
   6   8  18 1996.43   79.02
   6   8  18 2101.67   79.40
   6   9 -13   30.86   44.10
   6   9 -13   39.32   31.73
   6   9 -12  134.92   42.22
   6   9 -12  107.29   30.58
  -6  -9  11    8.50   34.61
   6   9 -11  -16.30   36.58
   6   9 -11   15.59   31.08
   6   9 -10 2753.71  101.22
   6   9 -10 2692.52   85.90
   6   9  -9 1510.56   58.66
   6   9  -9 1548.33   73.48
   6   9  -9 1522.91   63.75
   6   9  -8 1943.66   66.11
   6   9  -8 2019.84   80.47
   6   9  -8 1881.85   80.10
   6   9  -7 5031.15  118.51
   6   9  -7 4984.55  150.20
   6   9  -7 4944.90  131.61
   6   9  -6 6279.63  115.06
   6   9  -6 6306.75  126.57
   6   9  -5  164.87   33.12
   6   9  -5  206.98   39.05
   6   9  -4   -1.54   29.67
   6   9  -4   18.24   31.90
   6   9  -4    9.92   41.64
   6   9  -4    6.73   29.23
   6   9  -3   38.20   20.52
   6   9  -3   29.34   30.88
   6   9  -3   25.10   42.07
   6   9  -3   35.44   30.14
   6   9  -2 2506.89   75.49
   6   9  -2 2559.52   74.32
   6   9  -2 2488.95   91.45
   6   9  -2 2570.53   83.28
   6   9  -1   11.13   29.71
   6   9  -1   26.95   27.60
   6   9  -1    7.04   38.64
   6   9   0   13.21   26.32
   6   9   0    4.73   30.17
   6   9   0   23.58   39.16
   6   9   1   55.81   26.72
   6   9   1   28.30   28.43
   6   9   1   70.01   39.73
   6   9   2  700.43   43.87
   6   9   2  706.01   48.00
   6   9   2  736.98   58.50
   6   9   3  278.21   34.49
   6   9   3  271.75   35.18
   6   9   3  263.23   45.43
   6   9   3  306.68   32.05
   6   9   4 2485.73   71.95
   6   9   4 2463.99   79.39
   6   9   4 2485.51   72.59
   6   9   4 2423.01   96.28
   6   9   4 2431.18   68.54
   6   9   5  186.50   30.51
   6   9   5  159.51   35.78
   6   9   5  163.00   51.41
   6   9   5  156.75   28.13
   6   9   6  806.82   46.00
   6   9   6  846.70   52.76
   6   9   6  766.77   44.08
   6   9   7  614.13   37.61
   6   9   7  683.91   43.69
   6   9   7  661.31   39.91
   6   9   7  671.27   41.20
   6   9   8   86.91   30.71
   6   9   8  136.95   37.12
   6   9   8   93.79   22.42
   6   9   8  103.67   21.54
   6   9   9 1740.91   65.33
   6   9   9 1910.03   70.38
   6   9   9 1905.60   61.92
   6   9   9 1784.87   63.44
   6   9  10  281.05   36.14
   6   9  10  321.32   48.26
   6   9  10  315.25   32.50
   6   9  10  311.56   35.17
   6   9  11  305.23   38.31
   6   9  11  301.93   43.54
   6   9  11  359.04   36.10
   6   9  11  340.14   36.55
   6   9  12 2572.90   74.55
   6   9  12 2592.50   89.93
   6   9  12 2766.70   73.98
   6   9  12 2879.53   76.60
   6   9  13    6.66   29.33
   6   9  13  -19.10   41.19
   6   9  13   32.97   28.74
   6   9  14 1445.74   58.84
   6   9  14 1421.51   62.09
   6   9  14 1439.32   54.50
   6   9  15 1962.04   68.11
  -6  -9 -15 1918.40   73.41
   6   9  15 2044.96   74.28
   6   9  16  719.38   50.33
  -6  -9 -16  734.86   45.62
   6   9  16  775.66   58.60
   6   9  17    1.35   32.17
   6   9  17  -15.97   47.59
   6   9  17   -6.14   29.10
  -6 -10  12   36.99   41.72
   6  10 -12    3.46   42.09
   6  10 -12   25.88   31.26
  -6 -10  11   11.24   33.42
   6  10 -11    8.81   35.61
   6  10 -11   30.50   39.06
   6  10 -11   16.18   38.20
   6  10 -10 2965.65  105.23
   6  10 -10 3083.83   96.89
   6  10 -10 2883.03   94.97
   6  10  -9 5020.91  103.70
   6  10  -9 4852.53  107.15
   6  10  -9 5272.60  134.11
   6  10  -9 5163.40  125.79
   6  10  -8  740.16   52.75
   6  10  -8  900.25   53.26
   6  10  -8  896.44   55.85
   6  10  -8  870.91   51.59
   6  10  -7 1686.52   62.26
   6  10  -7 1663.29   62.76
   6  10  -7 1708.76   80.46
   6  10  -7 1550.32   69.44
   6  10  -6 7365.73  154.60
   6  10  -6 7724.23  150.20
   6  10  -6 7476.92  193.98
   6  10  -6 7199.38  160.18
   6  10  -5   46.29   31.91
   6  10  -5   66.40   33.52
   6  10  -5   39.72   32.34
   6  10  -4   57.70   27.14
   6  10  -4   -3.77   35.17
   6  10  -4   44.18   32.26
   6  10  -3 1848.65   62.02
   6  10  -3 1824.03   64.28
   6  10  -3 1755.91   82.78
   6  10  -3 1724.61   66.88
   6  10  -2 3850.09   87.46
   6  10  -2 4003.74  102.22
   6  10  -2 4056.70  111.23
   6  10  -2 3910.01  103.56
   6  10  -1 4402.10  102.58
   6  10  -1 4392.12   96.25
   6  10  -1 4321.39  116.39
   6  10  -1 4200.45  103.82
   6  10   0 1996.47   73.11
   6  10   0 1963.60   68.17
   6  10   0 2199.97   87.57
   6  10   1 7472.86  140.54
   6  10   1 7612.45  152.82
   6  10   1 7505.11  165.16
  -6 -10  -1 7242.18  140.38
   6  10   2 2886.18   83.24
   6  10   2 2852.97   80.75
   6  10   2 2872.34  112.62
   6  10   2 2820.04   73.26
   6  10   3 2804.79   80.77
   6  10   3 2770.16   82.48
   6  10   3 2717.37   93.62
   6  10   3 2856.48   73.22
   6  10   4 2515.97   75.28
   6  10   4 2350.20   74.66
   6  10   4 2271.35   87.29
   6  10   4 2397.13   70.38
   6  10   5  816.92   47.07
   6  10   5  824.57   53.12
   6  10   5  785.20   61.80
   6  10   5  758.28   41.81
   6  10   6 1612.41   62.80
   6  10   6 1590.83   66.22
   6  10   6 1465.60   76.34
   6  10   6 1534.71   53.84
   6  10   7    0.23   27.25
   6  10   7   20.54   34.06
   6  10   7   -4.87   27.51
   6  10   8 1986.07   68.73
   6  10   8 1941.20   71.40
   6  10   8 1903.30   61.69
   6  10   9 2750.09   81.79
   6  10   9 2708.53   84.12
   6  10   9 2785.38   74.38
   6  10  10  210.69   29.15
   6  10  10  229.93   33.92
   6  10  10  189.94   39.13
   6  10  11  737.40   42.08
   6  10  11  775.98   56.67
   6  10  11  792.66   46.71
   6  10  12 5365.19  118.03
   6  10  12 5153.25  116.68
   6  10  12 5634.36  109.35
   6  10  13 1027.67   53.36
   6  10  13 1040.37   57.88
   6  10  13 1073.28   46.92
   6  10  14 1211.26   52.43
   6  10  14 1243.71   69.49
   6  10  15   38.56   31.04
   6  10  15   60.23   45.60
   6  10  16    0.54   35.51
   6  10  16   14.28   39.06
   6  10  16    8.88   30.31
  -6 -11  11 1075.86   60.77
   6  11 -11 1064.63   65.00
   6  11 -11 1088.86   57.01
   6  11 -10  365.36   49.11
   6  11 -10  336.87   48.41
   6  11 -10  383.64   40.57
   6  11  -9 1863.52   67.34
   6  11  -9 1925.22   80.80
   6  11  -9 1873.44   89.17
   6  11  -9 1854.74   70.10
   6  11  -8 1593.14   64.83
   6  11  -8 1594.73   67.94
   6  11  -8 1548.85   70.30
   6  11  -8 1638.16   67.70
   6  11  -7    4.41   31.58
   6  11  -7   49.80   36.97
   6  11  -7    7.06   53.16
   6  11  -7    5.89   33.10
   6  11  -6  604.87   38.96
   6  11  -6  569.73   45.11
   6  11  -6  644.05   51.36
   6  11  -6  548.10   43.42
   6  11  -5  298.47   36.12
   6  11  -5  289.03   32.15
   6  11  -5  234.03   38.34
   6  11  -4  622.43   39.73
   6  11  -4  709.00   49.43
   6  11  -4  647.50   46.70
   6  11  -3  605.12   44.58
   6  11  -3  595.62   40.05
   6  11  -3  589.10   58.97
   6  11  -3  589.20   44.80
   6  11  -2 3848.08   95.79
   6  11  -2 3820.62   99.28
   6  11  -2 3822.00  116.33
   6  11  -2 3739.81   94.52
   6  11  -1 4748.74  102.37
   6  11  -1 4686.06  109.80
   6  11  -1 4739.91  125.43
   6  11  -1 4576.31  105.97
   6  11   0   10.85   28.69
   6  11   0   26.56   26.71
   6  11   0   17.64   43.52
   6  11   0  -18.54   28.87
   6  11   1  180.92   30.86
   6  11   1  123.67   27.80
   6  11   1  247.69   51.20
   6  11   1  159.49   35.93
  -6 -11  -1  192.42   30.34
   6  11   2  920.29   48.75
   6  11   2  921.26   52.91
   6  11   2 1002.38   59.58
  -6 -11  -2  958.71   47.51
   6  11   3  483.91   40.30
   6  11   3  476.74   45.29
   6  11   3  526.81   56.12
   6  11   3  499.59   38.06
   6  11   4 1783.15   61.06
   6  11   4 1746.87   66.65
   6  11   4 1708.36   81.58
   6  11   4 1810.60   61.57
   6  11   5 4976.21  103.67
   6  11   5 4775.00  109.31
   6  11   5 4384.69  130.48
   6  11   5 4843.60   99.88
   6  11   6 3725.68   87.57
   6  11   6 3549.36   96.34
   6  11   6 3292.48  109.35
   6  11   6 3646.15   87.37
   6  11   7  -30.67   31.99
   6  11   7   13.00   35.61
   6  11   7   36.20   49.00
   6  11   7  -28.23   25.45
   6  11   8  680.14   47.89
   6  11   8  741.09   54.58
   6  11   8  714.71   43.29
   6  11   9   46.87   31.88
   6  11   9    3.26   29.65
   6  11  10   34.81   36.31
   6  11  10   25.13   35.85
   6  11  10   37.19   27.33
   6  11  11   -2.61   32.57
   6  11  11    3.71   31.39
   6  11  11    0.90   30.04
   6  11  12  118.86   34.83
   6  11  12   88.74   38.55
   6  11  12   93.90   30.14
   6  11  13   38.80   31.14
   6  11  13  -10.04   34.96
   6  11  13    7.32   29.35
   6  11  14   -5.03   31.40
   6  11  14   16.13   34.06
   6  11  15  604.51   43.21
   6  11  15  638.42   54.70
  -6 -12  10  140.54   34.71
   6  12 -10  144.76   41.45
   6  12 -10  107.79   39.08
   6  12  -9 3584.27   99.65
   6  12  -9 3782.29  107.14
   6  12  -9 3555.26  119.84
   6  12  -9 3594.31   99.43
   6  12  -8 2731.13   82.57
   6  12  -8 2711.05   89.83
   6  12  -8 2817.00   94.97
   6  12  -8 2854.51   90.66
   6  12  -7    3.08   35.10
   6  12  -7   29.60   36.37
   6  12  -7   13.23   37.27
   6  12  -7    5.52   32.43
   6  12  -6  778.39   48.20
   6  12  -6  769.30   50.41
   6  12  -6  766.72   65.61
   6  12  -6  704.45   53.28
   6  12  -5  996.24   56.08
   6  12  -5  978.82   50.85
   6  12  -5 1020.02   71.41
   6  12  -5  863.23   51.79
   6  12  -4  852.38   49.83
   6  12  -4  852.01   48.98
   6  12  -4  739.28   52.17
   6  12  -3  419.11   39.60
   6  12  -3  413.34   41.57
   6  12  -3  424.40   42.88
   6  12  -2 4940.58  131.90
   6  12  -2 4796.38  128.57
   6  12  -2 4956.73  151.76
   6  12  -2 4573.21  143.12
   6  12  -110645.00  189.95
   6  12  -110299.09  202.83
   6  12  -110345.24  220.65
   6  12  -110033.21  202.88
   6  12   0 1063.29   51.31
   6  12   0 1007.86   54.08
   6  12   0 1046.46   62.64
   6  12   0  992.81   53.12
  -6 -12   0 1025.66   49.82
   6  12   1  432.39   33.83
   6  12   1  402.31   44.79
   6  12   1  455.08   57.74
  -6 -12  -1  392.31   36.48
   6  12   2  875.54   53.39
   6  12   2  838.87   48.80
   6  12   2  966.54   69.36
   6  12   2  835.51   57.12
  -6 -12  -2  860.65   46.05
   6  12   3 1386.70   57.51
   6  12   3 1364.84   59.64
   6  12   3 1370.24   74.89
  -6 -12  -3 1380.08   58.79
   6  12   4 2935.76   80.74
   6  12   4 2956.87   87.64
   6  12   4 2880.98  109.19
   6  12   4 2767.02   70.89
   6  12   5 1838.41   66.02
   6  12   5 1800.96   67.12
   6  12   5 1763.38   83.35
   6  12   5 1761.99   58.17
   6  12   6 2080.11   71.93
   6  12   6 2123.77   74.84
   6  12   6 1957.21   91.37
   6  12   6 2195.78   64.54
   6  12   7  773.96   43.36
   6  12   7  810.46   52.03
   6  12   7  798.33   68.04
   6  12   7  895.07   48.50
   6  12   8 1957.98   69.46
   6  12   8 1903.36   73.30
   6  12   8 1861.99   60.50
   6  12   9  695.09   48.32
   6  12   9  782.21   51.47
   6  12   9  765.60   43.72
   6  12  10  950.04   51.08
   6  12  10  889.31   52.26
   6  12  10  952.60   47.84
   6  12  11  569.44   39.86
   6  12  11  577.12   50.70
   6  12  11  569.26   36.90
   6  12  12   39.72   30.16
   6  12  12   35.64   38.95
   6  12  12    8.28   29.84
   6  12  13 2010.49   77.21
   6  12  13 1928.08   75.52
   6  12  14   20.04   34.56
   6  12  14   27.29   46.33
   6  13  -9  417.05   43.89
   6  13  -9  437.83   53.04
   6  13  -9  356.84   41.69
   6  13  -8 1286.91   61.76
   6  13  -8 1249.80   67.33
   6  13  -8 1341.21   85.09
   6  13  -8 1277.82   73.56
   6  13  -7 1072.44   60.66
   6  13  -7 1058.89   68.72
   6  13  -7 1063.59   70.71
   6  13  -7 1140.17   58.16
   6  13  -6  219.16   38.43
   6  13  -6  250.67   41.88
   6  13  -6  247.15   47.72
   6  13  -6  238.41   39.20
   6  13  -5  661.41   46.65
   6  13  -5  615.99   44.32
   6  13  -5  584.70   63.86
   6  13  -5  549.39   46.94
   6  13  -4 6409.08  125.55
   6  13  -4 6277.23  130.69
   6  13  -4 6276.66  158.27
   6  13  -4 6142.07  134.96
   6  13  -3  495.58   45.61
   6  13  -3  485.78   43.62
   6  13  -3  508.20   43.28
   6  13  -2  940.11   47.76
   6  13  -2  989.17   52.03
   6  13  -2  963.20   69.12
   6  13  -2  957.42   52.98
   6  13  -1 4634.64   99.83
   6  13  -1 4392.92  107.67
   6  13  -1 4838.03  121.33
   6  13  -1 4511.15  110.61
   6  13   0  334.00   32.28
   6  13   0  318.55   41.48
   6  13   0  418.98   55.09
   6  13   0  307.63   42.75
  -6 -13   0  301.99   34.43
   6  13   1  537.73   43.62
   6  13   1  504.26   44.24
   6  13   1  569.33   59.83
   6  13   1  484.07   46.11
  -6 -13  -1  553.51   38.93
   6  13   2   11.44   27.90
   6  13   2   20.28   29.99
   6  13   2  -23.72   43.35
   6  13   2    2.16   35.12
  -6 -13  -2    8.57   31.77
   6  13   3  323.27   41.73
   6  13   3  277.77   39.22
   6  13   3  308.29   53.54
   6  13   3  310.87   45.39
  -6 -13  -3  377.18   35.41
   6  13   4 1064.39   52.45
   6  13   4 1084.54   54.50
   6  13   4 1076.01   67.86
  -6 -13  -4 1080.30   51.32
   6  13   5   10.81   32.80
   6  13   5    1.60   41.79
  -6 -13  -5    8.30   27.74
   6  13   6 1539.87   59.51
   6  13   6 1583.19   64.53
   6  13   6 1624.81   86.27
   6  13   6 1573.79   59.99
   6  13   7  703.70   46.55
   6  13   7  646.42   46.42
   6  13   7  741.56   67.13
   6  13   7  654.65   48.01
   6  13   8 1059.76   52.30
   6  13   8 1079.46   57.41
   6  13   8 1120.79   75.09
   6  13   8 1095.62   53.51
   6  13   9  101.95   26.95
   6  13   9   82.22   40.89
   6  13   9  115.84   30.85
   6  13  10  688.00   48.13
   6  13  10  701.43   56.45
   6  13  10  689.18   42.84
   6  13  11   16.80   28.35
   6  13  11   14.37   38.05
   6  13  11  -28.87   23.89
   6  13  12  196.55   35.68
   6  13  12  237.57   30.75
   6  13  13 1223.55   58.48
   6  14  -7  125.97   37.38
   6  14  -7  117.60   47.61
   6  14  -7   61.82   46.11
   6  14  -7  152.84   40.41
   6  14  -6    9.33   35.55
   6  14  -6    7.03   40.50
   6  14  -6   33.26   46.22
   6  14  -6  -11.06   36.42
   6  14  -5  873.56   49.21
   6  14  -5  772.16   54.38
   6  14  -5  828.90   65.24
   6  14  -5  791.26   61.59
   6  14  -4 5770.27  121.92
   6  14  -4 5411.47  120.23
   6  14  -4 5846.91  143.97
   6  14  -4 5178.91  144.66
   6  14  -3 5098.16  120.66
   6  14  -3 4918.00  137.71
   6  14  -3 4940.74  117.02
   6  14  -2  139.68   37.33
   6  14  -2  124.80   37.91
   6  14  -2  185.46   38.97
   6  14  -1 4215.14  108.69
   6  14  -1 4016.91   97.82
   6  14  -1 4291.99  121.39
   6  14  -1 4215.55  115.39
  -6 -14   1 4240.86  104.01
   6  14   0 1570.50   60.44
   6  14   0 1544.54   64.01
   6  14   0 1597.47   78.99
   6  14   0 1465.95   69.91
  -6 -14   0 1551.52   58.07
   6  14   1   25.37   32.72
   6  14   1   25.65   38.32
   6  14   1   45.83   39.43
  -6 -14  -1   50.15   28.46
   6  14   2  374.92   37.88
   6  14   2  339.89   84.84
   6  14   2  381.93   45.54
   6  14   2  368.47   41.03
  -6 -14  -2  386.76   38.50
   6  14   3 2159.89   70.03
   6  14   3 2054.53  109.05
   6  14   3 2200.25   95.83
   6  14   3 2096.47   76.12
  -6 -14  -3 2277.99   70.24
   6  14   4  588.34   46.11
   6  14   4  537.17  169.51
   6  14   4  534.87   56.85
  -6 -14  -4  580.23   43.66
   6  14   5   27.38   40.32
   6  14   5   49.13   49.40
  -6 -14  -5   13.70   27.42
   6  14   6 1187.32   50.77
   6  14   6 1175.89   62.47
   6  14   6 1194.21   74.38
  -6 -14  -6 1217.15   49.34
   6  14   7  403.52   38.90
   6  14   7  451.01   66.22
  -6 -14  -7  374.36   36.55
   6  14   8  354.74   39.71
   6  14   8  377.35   67.04
  -6 -14  -8  345.53   30.05
   6  14   9  271.35   33.90
  -6 -14  -9  327.49   37.57
   6  14  10  350.84   40.36
  -6 -14 -10  386.84   37.38
  -6 -14 -11   57.24   26.04
   6  15  -5  515.21   46.85
   6  15  -5  586.89   57.22
   6  15  -5  553.55   50.01
   6  15  -4 1760.61   98.40
   6  15  -4 1939.41   98.82
   6  15  -4 1674.33   85.92
   6  15  -3  487.03   41.75
   6  15  -3  474.76   61.52
   6  15  -3  413.31   56.49
   6  15  -2 1261.97   54.70
   6  15  -2 1230.71   64.59
   6  15  -1   57.84   31.78
   6  15  -1   89.33   37.75
   6  15   0  646.87   47.12
   6  15   0  619.22   65.05
   6  15   0  648.32   51.05
  -6 -15   0  607.88   46.09
   6  15   1   39.56   29.17
   6  15   1   81.66   37.51
   6  15   1   25.85   43.47
  -6 -15  -1   59.41   29.13
   6  15   2    7.06   28.96
   6  15   2   10.52   46.74
   6  15   2   -8.67   58.27
  -6 -15  -2   26.75   31.37
   6  15   3  352.48   39.38
   6  15   3  283.75   55.34
  -6 -15  -3  285.37   34.42
   6  15   4  521.83   66.41
  -6 -15  -4  589.61   41.39
   6  15   5 3276.50   88.65
   6  15   5 3551.80  119.30
  -6 -15  -5 3803.36   94.73
   6  15   6  207.53   54.05
  -6 -15  -6  222.37   32.69
   6  15   7  201.95   61.67
  -6 -15  -7  227.92   34.74
  -6 -15  -8  730.87   46.77
   6  16  -1   89.72   31.92
   6  16   0  880.43   74.76
   6  16   0  809.50   91.84
   6  16   1  597.01   67.98
  -6 -16  -1  645.14   50.13
   6  16   2  429.72   60.17
  -6 -16  -2  420.48   41.19
   6  16   3  328.86   59.17
  -6 -16  -3  306.78   38.07
   6  16   4   -9.00   55.64
  -6 -16  -4   35.18   28.33
   7  -9   3    9.90   29.67
   7  -9   4  207.40   35.58
   7  -8  -3 2865.24   91.30
   7  -8  -3 2654.26   90.05
   7  -8  -2  319.74   39.20
   7  -8  -2  310.40   38.00
   7  -8  -1  222.14   34.17
   7  -8   0 3178.66   83.48
   7  -8   3 1061.15   47.71
   7  -8   4  361.17   41.61
   7  -8   5   27.05   31.15
   7  -8   6 2009.05   82.64
   7  -8   6 2077.54   69.95
   7  -8   7  355.47   38.19
   7  -8   8  557.77   51.10
   7  -8   8  454.62   48.17
   7  -8   8  441.62   43.64
   7  -8   9 2282.11   78.75
   7  -8   9 2190.28   84.58
   7  -8   9 2127.73   75.17
   7  -7  -5   22.45   30.55
   7  -7  -5   37.16   34.73
   7  -7  -4  193.94   35.83
   7  -7  -1  225.52   35.45
   7  -7   0 3653.23   89.63
   7  -7   0 3764.33   90.55
   7  -7   1  173.89   35.71
   7  -7   1  185.07   34.19
   7  -7   2  -12.90   27.66
   7  -7   2    3.93   30.43
   7  -7   5   45.75   36.63
   7  -7   6 2250.73   78.16
   7  -7   6 2223.07   67.09
   7  -7   7 3284.23   94.59
   7  -7   7 3058.89   88.39
   7  -7   7 3541.68   85.91
   7  -7   8 2961.49   85.10
   7  -7   8 2918.29   84.79
   7  -7   8 3108.04   81.65
   7  -7   9  310.81   43.38
   7  -7   9  249.58   41.64
   7  -7   9  297.95   37.99
   7  -7  10  336.78   44.05
   7  -7  10  357.95   48.40
   7  -7  10  278.19   36.34
   7  -7  11 1246.98   61.03
   7  -7  11 1200.80   65.47
   7  -7  11 1214.91   54.13
   7  -6  -7   44.61   34.38
  -7   6   7   75.28   47.00
   7  -6  -6  132.79   32.69
  -7   6   6  124.60   52.31
   7  -6  -2 1069.07   48.04
   7  -6  -1   85.27   34.36
   7  -6   0 1681.00   63.11
   7  -6   1  129.95   32.25
   7  -6   1  139.05   33.00
   7  -6   2   32.05   28.85
   7  -6   2    8.06   30.32
   7  -6   3  227.69   34.03
   7  -6   3  215.61   37.82
   7  -6   6 5555.20  118.40
   7  -6   6 5248.91  109.76
   7  -6   6 5708.76  108.01
   7  -6   7 2101.56   77.26
   7  -6   7 1911.97   67.28
   7  -6   7 2197.59   65.09
   7  -6   8  976.89   57.03
   7  -6   8  973.09   53.08
   7  -6   8 1057.71   48.48
   7  -6   9  701.15   50.63
   7  -6   9  728.85   50.58
   7  -6   9  739.11   47.08
   7  -6  10 3788.23   97.63
   7  -6  10 3625.44   96.30
   7  -6  10 3785.04   86.18
   7  -6  11   72.61   32.16
   7  -6  11   38.76   30.55
   7  -6  11   72.76   31.03
   7  -6  12  774.15   54.41
   7  -6  12  750.09   47.06
   7  -6  12  738.00   49.11
   7  -6  13  521.74   50.10
   7  -6  13  516.06   44.23
   7  -5  -8  457.15   47.74
  -7   5   8  414.09   47.75
  -7   5   7  649.46   51.06
  -7   5   6  228.85   44.22
  -7   5   5  275.58   44.92
   7  -5  -4  178.60   34.68
  -7   5   4  194.99   42.76
   7  -5  -3 6317.55  123.06
   7  -5  -2  447.45   42.86
   7  -5  -1   31.22   30.36
   7  -5   0   93.39   30.55
   7  -5   1  421.11   40.08
   7  -5   2   73.77   30.87
   7  -5   2   32.88   33.17
   7  -5   3  674.17   44.97
   7  -5   3  671.56   43.02
   7  -5   4  711.04   47.56
   7  -5   4  696.05   45.28
   7  -5   5 3402.36   99.77
   7  -5   6  464.21   43.11
   7  -5   6  437.26   43.46
   7  -5   7 6471.61  120.61
   7  -5   7 5982.87  113.20
   7  -5   8 2925.60   80.07
   7  -5   8 2924.72   78.56
   7  -5   8 3084.59   79.19
   7  -5   9 1304.80   63.50
   7  -5   9 1284.39   59.52
   7  -5   9 1345.67   57.95
   7  -5  10   18.34   31.92
   7  -5  10   -7.94   36.39
   7  -5  10   14.86   25.22
   7  -5  11  523.40   44.30
   7  -5  11  532.62   43.25
   7  -5  11  501.10   44.59
   7  -5  12   -4.22   35.08
   7  -5  12   24.47   34.98
   7  -5  12  -25.76   31.04
   7  -5  13 1421.94   64.31
   7  -5  13 1381.06   58.60
   7  -5  13 1405.06   56.86
   7  -5  14 1472.67   67.11
   7  -4  -6   72.20   33.32
   7  -4  -5   50.25   32.00
   7  -4  -4 5375.28  117.26
   7  -4  -310335.77  215.05
   7  -4  -2   66.78   31.65
   7  -4  -1  626.26   44.27
   7  -4   0  664.71   46.10
   7  -4   1  568.32   43.69
   7  -4   2    7.00   29.54
   7  -4   2    3.37   29.61
   7  -4   3 5160.96  103.34
   7  -4   3 4890.73   94.30
   7  -4   4 4179.97   91.08
   7  -4   4 4051.42   85.06
   7  -4   5  472.13   42.54
   7  -4   5  413.41   43.38
   7  -4   5  407.40   38.76
   7  -4   6 3334.71   87.80
   7  -4   6 3495.54   87.79
   7  -4   7   54.65   34.17
   7  -4   7   31.42   29.22
   7  -4   8 1183.21   58.56
   7  -4   8 1238.89   55.61
   7  -4   9  124.84   36.14
   7  -4   9  143.65   36.85
   7  -4   9  146.52   37.44
   7  -4  10   -2.39   30.89
   7  -4  10   22.92   31.65
   7  -4  10   51.17   31.91
   7  -4  11   90.00   34.57
   7  -4  11  128.27   36.12
   7  -4  11   55.66   36.74
   7  -4  12  362.63   38.43
   7  -4  12  282.00   41.50
   7  -4  12  232.61   41.08
   7  -4  13  802.11   50.43
   7  -4  13  839.32   49.00
   7  -4  14 1625.87   61.95
   7  -4  14 1609.09   70.18
   7  -4  15   80.30   33.67
   7  -4  15   83.22   33.20
   7  -4  15   97.35   42.87
   7  -3  -8   -3.48   37.08
   7  -3  -7   24.43   35.76
   7  -3  -6 1872.27   70.59
   7  -3  -5 5695.55  114.83
   7  -3  -4  653.05   46.08
   7  -3  -3 3195.30   91.84
   7  -3  -2 2636.73   82.64
   7  -3  -1 6195.16  114.63
   7  -3   0  104.43   33.00
   7  -3   1 2911.95   81.50
   7  -3   2 3581.96   83.00
   7  -3   2 3358.92   79.60
   7  -3   3  337.51   36.76
   7  -3   3  287.65   35.48
   7  -3   413863.35  179.26
   7  -3   414169.16  184.76
   7  -3   413976.68  169.15
   7  -3   5  236.59   33.34
   7  -3   5  180.73   35.72
   7  -3   5  197.63   36.82
   7  -3   6  570.40   41.98
   7  -3   6  498.71   40.57
   7  -3   6  604.36   43.39
   7  -3   7   84.80   40.43
   7  -3   7   86.29   36.17
   7  -3   8  390.23   41.38
   7  -3   8  423.48   43.90
   7  -3   9  264.94   40.50
   7  -3   9  310.03   32.08
   7  -3  10   12.41   33.35
   7  -3  10   42.92   30.13
   7  -3  10   31.84   32.43
   7  -3  11 1246.24   56.58
   7  -3  11 1121.41   56.15
   7  -3  11 1262.12   55.13
   7  -3  12  658.49   46.26
   7  -3  12  637.08   40.87
   7  -3  12  662.31   47.44
   7  -3  12  642.99   48.54
   7  -3  13  394.67   40.06
   7  -3  13  386.48   40.14
   7  -3  13  356.63   42.43
   7  -3  14 1250.54   62.37
   7  -3  14 1206.07   54.70
   7  -3  14 1195.92   57.80
   7  -3  15  107.22   34.57
   7  -3  15  100.38   36.57
   7  -3  15   80.27   32.86
   7  -3  16 2396.49   77.44
   7  -3  16 2478.72   76.49
   7  -3  16 2389.36   83.71
   7  -2 -10  709.46   47.72
   7  -2  -9  487.05   46.07
   7  -2  -8 1190.11   60.87
   7  -2  -7    1.81   32.13
   7  -2  -6 3805.16  112.52
   7  -2  -5 1115.30   59.35
   7  -2  -4  251.22   37.89
   7  -2  -3 3925.21   91.06
   7  -2  -2 4969.08  102.16
   7  -2  -1 2008.64   68.23
   7  -2   0 1080.69   54.80
   7  -2   1 1779.87   60.02
   7  -2   2 2784.92   84.11
   7  -2   2 2504.24   71.78
   7  -2   3  104.21   23.83
   7  -2   3   81.88   28.27
   7  -2   411788.07  188.67
   7  -2   412462.03  195.85
   7  -2   412088.08  185.25
   7  -2   5 6575.51  129.22
   7  -2   5 6736.99  132.55
   7  -2   5 6674.48  127.48
   7  -2   6   12.97   26.01
   7  -2   6   36.54   32.44
   7  -2   6    5.50   32.13
   7  -2   7  117.82   31.98
   7  -2   7   97.69   35.66
   7  -2   8  209.52   29.55
   7  -2   8  176.29   28.99
   7  -2   9  668.77   46.50
   7  -2   9  705.22   50.86
   7  -2  10   -9.09   28.68
   7  -2  10   30.77   34.53
   7  -2  11 4040.92  110.10
   7  -2  11 3984.13  113.40
   7  -2  11 3935.08  113.87
   7  -2  12  156.83   36.61
   7  -2  12  175.60   35.65
   7  -2  12  176.08   35.55
   7  -2  13 2099.57   69.99
   7  -2  13 2118.39   70.33
   7  -2  13 2089.47   72.27
   7  -2  14  807.36   46.91
   7  -2  14  816.06   49.23
   7  -2  14  815.48   48.56
   7  -2  15  443.48   39.92
   7  -2  15  585.39   45.39
   7  -2  15  514.65   43.90
   7  -2  16   65.95   34.15
   7  -2  16   47.36   33.97
   7  -2  16   49.63   33.30
   7  -2  17   81.73   35.01
   7  -2  17   87.58   32.14
   7  -1 -11  108.91   35.51
   7  -1 -10 1060.01   57.05
   7  -1  -9   53.03   35.50
   7  -1  -8  383.92   42.22
   7  -1  -8  306.46   34.93
   7  -1  -7 2997.67   87.81
   7  -1  -7 3213.91   83.92
   7  -1  -6 5744.47  150.59
   7  -1  -6 5994.39  165.72
   7  -1  -5 5071.77  126.72
   7  -1  -5 5215.41  130.30
   7  -1  -4 2604.97   80.10
   7  -1  -4 2608.58   82.61
   7  -1  -3 5053.19  107.84
   7  -1  -3 4933.51  111.29
   7  -1  -2 2766.41   79.89
   7  -1  -2 2741.78   82.15
   7  -1  -1 5444.53  106.57
   7  -1   0 2077.64   68.40
   7  -1   1  922.33   48.37
   7  -1   1  892.60   45.97
   7  -1   2 9134.81  162.28
   7  -1   2 8635.81  147.47
   7  -1   310628.91  174.94
   7  -1   310461.80  161.71
   7  -1   4 1337.43   54.75
   7  -1   4 1287.52   58.68
   7  -1   4 1371.61   53.23
   7  -1   5 2236.58   72.52
   7  -1   5 2340.09   73.65
   7  -1   5 2394.96   68.14
   7  -1   6 3390.57   82.99
   7  -1   6 3540.68   84.02
   7  -1   7   11.88   29.52
   7  -1   7   37.80   23.88
   7  -1   8   44.33   32.63
   7  -1   8   70.80   33.60
   7  -1   9 3654.33   93.31
   7  -1   9 3530.95   83.63
   7  -1  10 6592.66  120.01
   7  -1  10 6608.81  122.58
   7  -1  10 6544.48  109.49
   7  -1  11 1980.07   66.65
   7  -1  11 2103.19   69.25
   7  -1  11 2078.92   74.01
   7  -1  12 2417.31   74.91
   7  -1  12 2459.06   76.34
   7  -1  13  163.71   35.00
   7  -1  13  229.61   39.30
   7  -1  13  214.76   38.79
   7  -1  13  229.21   36.06
   7  -1  14  152.43   36.07
   7  -1  14  188.28   34.28
   7  -1  14  155.11   31.94
   7  -1  15  547.22   47.84
   7  -1  15  613.66   45.24
   7  -1  15  639.22   44.45
   7  -1  16   -4.56   27.97
   7  -1  16   -2.43   32.69
   7  -1  16    9.49   27.32
  -7   1 -17   46.56   30.99
   7  -1  17   37.32   32.83
   7  -1  17   50.45   30.29
   7   0 -12  161.11   37.32
   7   0 -11  788.49   50.80
   7   0 -10  -35.72   35.32
   7   0 -10   15.77   26.43
   7   0  -9 1832.50   72.80
   7   0  -9 1926.22   73.14
   7   0  -8  284.56   46.78
   7   0  -8  362.29   44.62
   7   0  -7  545.81   48.39
   7   0  -7  560.92   42.68
   7   0  -6 1396.20   59.96
   7   0  -6 1434.98   58.92
   7   0  -5 1623.62   66.57
   7   0  -5 1583.05   66.40
   7   0  -4 2066.70   72.67
   7   0  -4 2021.27   73.85
   7   0  -3   49.26   29.30
   7   0  -3   67.34   31.25
   7   0  -2 4002.04  102.34
   7   0  -2 3916.95  103.68
   7   0  -1   -4.65   29.59
   7   0  -1   27.52   26.60
   7   0   0 3414.67   88.43
   7   0   0 3206.66   81.24
   7   0   1  494.87   41.47
   7   0   1  480.49   38.43
   7   0   2   90.49   27.37
   7   0   2   73.00   25.22
   7   0   3 8592.61  152.25
   7   0   3 8793.02  158.38
   7   0   3 8682.65  143.30
   7   0   4  886.44   47.89
   7   0   4  795.07   45.25
   7   0   5 1487.43   60.70
   7   0   5 1477.69   52.90
   7   0   6 6660.25  128.22
   7   0   6 6879.24  127.24
   7   0   7    0.34   30.51
   7   0   7    6.38   30.92
   7   0   8   14.53   27.73
   7   0   8   19.36   32.71
   7   0   9  770.57   49.92
   7   0   9  754.26   41.36
   7   0  10 6337.35  120.25
   7   0  10 6361.75  108.63
   7   0  10 5906.78  130.70
   7   0  11 5150.62  106.40
   7   0  11 5079.48   95.74
   7   0  11 5281.07  110.24
   7   0  12  795.37   48.20
   7   0  12  819.25   51.87
   7   0  13 8257.31  185.50
   7   0  13 8808.34  189.13
   7   0  13 8513.56  187.92
   7   0  14  214.38   34.14
   7   0  14  248.01   37.18
   7   0  14  246.09   32.61
   7   0  15  404.77   38.02
   7   0  15  434.45   39.18
   7   0  15  458.84   39.36
   7   0  16   -4.65   29.22
   7   0  16   21.14   27.30
   7   0  16   19.15   29.81
  -7   0 -17   54.03   33.02
   7   0  17   72.84   32.84
   7   0  17   83.46   32.34
  -7   0 -18   -0.02   33.09
   7   0  18   18.30   27.41
   7   1 -12   47.82   41.32
   7   1 -11  -10.11   36.05
   7   1 -10  351.06   47.15
   7   1 -10  273.83   39.96
   7   1  -9 1467.31   68.42
   7   1  -9 1696.71   69.94
   7   1  -8  644.26   49.68
   7   1  -8  696.87   51.63
   7   1  -7  728.94   51.47
   7   1  -7  826.56   50.36
   7   1  -6  101.64   38.87
   7   1  -6  186.14   41.27
   7   1  -5  321.41   40.89
   7   1  -5  429.23   46.37
   7   1  -4 2681.88   80.35
   7   1  -4 2689.43   84.19
   7   1  -3 7382.03  144.33
   7   1  -3 7131.28  145.52
   7   1  -2 2319.73   79.94
   7   1  -2 2069.02   76.10
   7   1  -1   10.93   29.42
   7   1  -1   17.36   34.85
   7   1   0  106.60   28.51
   7   1   1 1363.27   60.12
   7   1   1 1194.59   50.93
   7   1   2 2610.48   71.63
   7   1   3 4394.07   99.55
   7   1   3 4248.40   86.98
   7   1   4 4609.12   95.26
   7   1   4 4732.78   95.42
   7   1   5 2000.15   62.68
   7   1   5 1978.65   64.03
   7   1   6  309.24   35.58
   7   1   6  359.83   35.65
   7   1   7 2222.94   72.11
   7   1   7 2293.60   64.53
   7   1   8 1678.30   62.64
   7   1   8 1684.33   60.10
   7   1   9   76.99   29.40
   7   1   9   73.66   31.37
   7   1  10 4844.40  101.21
   7   1  10 4742.61   91.54
   7   1  10 4707.03  104.43
   7   1  11    4.84   35.23
   7   1  11   -0.93   30.02
   7   1  12    7.82   28.60
   7   1  12    7.60   31.91
   7   1  12    8.51   36.73
   7   1  12   15.42   28.37
   7   1  13 2687.72   74.22
   7   1  13 2744.05   79.65
   7   1  13 2693.48   79.06
   7   1  14  606.77   42.48
   7   1  14  596.07   42.84
   7   1  14  560.13   43.04
   7   1  15  316.27   35.55
   7   1  15  377.97   32.90
   7   1  15  404.21   40.20
  -7  -1 -16   74.74   34.85
   7   1  16   73.06   31.32
   7   1  16  108.38   28.91
  -7  -1 -17 2309.33   76.59
   7   1  17 2258.81   70.43
   7   1  17 2242.42   76.82
  -7  -1 -18 1232.25   57.78
   7   1  18 1171.54   60.33
   7   1  18 1229.28   55.46
   7   2 -13  106.45   37.18
   7   2 -12  -10.77   34.86
   7   2 -11  493.51   45.57
   7   2 -10  990.10   56.69
   7   2 -10 1024.26   55.74
   7   2  -9  112.69   41.18
   7   2  -9   97.20   38.19
   7   2  -8  193.67   42.58
   7   2  -8  200.60   40.91
   7   2  -7  399.09   47.80
   7   2  -7  348.61   41.91
   7   2  -6  437.94   39.76
   7   2  -6  450.97   51.55
   7   2  -5   11.37   26.52
   7   2  -5   35.70   40.20
   7   2  -4  838.60   52.17
   7   2  -4  831.22   57.41
   7   2  -3 3468.26   94.67
   7   2  -3 3324.52   98.94
   7   2  -2 2270.84   82.75
   7   2  -2 2161.46   76.85
   7   2  -1  947.66   53.18
   7   2  -1  864.99   58.35
   7   2   2 1817.10   63.71
   7   2   3 4780.47   97.36
   7   2   3 4630.15   94.29
   7   2   4   60.62   28.16
   7   2   4   23.13   28.36
   7   2   5  504.17   37.90
   7   2   5  545.08   40.82
   7   2   6  260.61   32.84
   7   2   6  218.71   33.65
   7   2   7  884.99   44.39
   7   2   7  830.30   46.06
   7   2   8 1801.44   65.23
   7   2   8 1874.63   61.45
   7   2   9   -2.75   30.46
   7   2   9   11.16   28.69
   7   2   9   45.48   24.13
   7   2  1018310.79  243.59
   7   2  1018561.81  197.15
   7   2  1017525.43  200.13
   7   2  11 3877.31  106.75
   7   2  11 4249.61   87.11
   7   2  11 4227.08   97.09
   7   2  12  785.69   46.33
   7   2  12  735.96   57.01
   7   2  12  840.75   43.20
   7   2  12  833.07   43.06
   7   2  12  751.82   46.65
   7   2  13 7144.81  151.44
   7   2  13 6245.47  150.12
   7   2  13 7132.85  143.17
   7   2  13 6608.26  137.71
   7   2  14   42.74   33.56
   7   2  14   18.85   44.49
   7   2  14   17.43   32.95
   7   2  14   -7.86   27.65
  -7  -2 -15 1152.69   53.53
   7   2  15 1170.03   63.22
   7   2  15 1197.24   56.88
   7   2  15 1181.38   53.28
  -7  -2 -16  668.16   44.89
   7   2  16  581.19   55.49
   7   2  16  591.22   43.20
   7   2  16  650.50   43.96
  -7  -2 -17  664.97   47.81
   7   2  17  673.88   61.38
   7   2  17  646.68   46.54
   7   2  17  686.34   42.66
  -7  -2 -18  249.52   39.63
   7   2  18  267.25   35.09
   7   3 -13  206.81   39.57
   7   3 -13  169.68   39.02
   7   3 -12  135.54   40.48
   7   3 -12  150.21   39.00
   7   3 -11 1255.02   60.92
   7   3 -10 1078.63   59.35
   7   3  -9  559.13   52.22
   7   3  -9  574.86   48.77
   7   3  -8 3396.76  116.27
   7   3  -8 3691.38  113.39
   7   3  -7  800.49   57.11
   7   3  -7  879.15   55.82
   7   3  -6  237.86   37.76
   7   3  -6  232.22   43.80
   7   3  -6  221.88   43.72
   7   3  -5 1590.09   67.86
   7   3  -5 1511.22   59.00
   7   3  -5 1603.01   70.86
   7   3  -4  459.85   44.98
   7   3  -4  408.59   38.08
   7   3  -4  411.51   47.35
   7   3  -3 2113.93   80.89
   7   3  -3 1995.76   67.64
   7   3  -3 2032.30   75.39
   7   3  -2   70.50   30.24
   7   3  -2   39.87   35.42
   7   3  -1 2384.29   79.78
   7   3  -1 2398.01   84.55
   7   3   0 2161.22   73.79
   7   3   0 1948.42   77.13
   7   3   1 1848.11   69.04
   7   3   2  735.25   46.19
   7   3   2  740.66   42.08
   7   3   3 1475.27   64.08
   7   3   3 1518.11   58.44
   7   3   4 4798.34  113.54
   7   3   4 4859.09   93.79
   7   3   4 4827.35  100.10
   7   3   5   25.19   27.74
   7   3   5   29.03   23.38
   7   3   5   56.14   26.14
   7   3   6    3.39   28.44
   7   3   6   41.93   27.11
   7   3   6   20.70   30.47
   7   3   7 3854.57  110.87
   7   3   7 3660.09   91.59
   7   3   7 3812.99   82.21
   7   3   8 1411.65   64.66
   7   3   8 1383.07   56.08
   7   3   8 1404.75   55.42
   7   3   9 7640.85  162.99
   7   3   9 7642.04  143.10
   7   3   9 7209.02  132.92
   7   3   9 7213.71  139.11
   7   3  10 1993.89   81.44
   7   3  10 1913.82   61.88
   7   3  10 1896.44   67.03
   7   3  11 9221.09  168.02
   7   3  11 9580.89  148.84
   7   3  11 9132.04  149.74
   7   3  12 3572.94  105.50
   7   3  12 3774.52   84.76
   7   3  12 3971.85   93.63
  -7  -3 -13 2477.52   79.70
   7   3  13 2242.67   83.71
   7   3  13 2495.01   71.20
   7   3  13 2601.83   76.85
  -7  -3 -14  367.68   36.70
   7   3  14  310.69   42.19
   7   3  14  421.26   37.10
   7   3  14  397.51   37.71
  -7  -3 -15  471.37   40.77
   7   3  15  409.65   48.71
   7   3  15  490.70   41.44
   7   3  15  501.58   38.83
  -7  -3 -16  130.17   30.84
   7   3  16   80.07   42.17
   7   3  16  123.37   27.52
   7   3  16  128.70   32.52
  -7  -3 -17  808.61   48.66
   7   3  17  743.42   56.64
   7   3  17  777.52   46.14
   7   3  17  755.65   45.47
  -7  -3 -18 3086.77   90.24
   7   3  18 2931.19  117.25
   7   3  18 3096.65   87.49
   7   4 -13  163.96   41.87
   7   4 -13  214.77   41.36
   7   4 -12 2200.61   83.32
   7   4 -12 2383.98   78.47
   7   4 -11   16.07   36.43
   7   4 -11   15.76   33.43
   7   4 -10   57.97   35.22
   7   4  -9   67.95   39.56
   7   4  -9   68.51   35.86
   7   4  -9   74.32   30.09
   7   4  -8 2382.20   97.43
   7   4  -8 2590.57   80.26
   7   4  -8 2840.15   88.36
   7   4  -7 3503.86   97.99
   7   4  -7 3472.61   86.89
   7   4  -7 3749.16  105.99
   7   4  -6   14.61   30.91
   7   4  -6   48.95   29.78
   7   4  -6   16.12   39.71
   7   4  -5  140.14   35.70
   7   4  -5  162.09   32.39
   7   4  -5  126.32   42.43
   7   4  -4  975.81   58.16
   7   4  -4  913.13   49.31
   7   4  -4  911.48   58.21
   7   4  -3 3060.71   80.97
   7   4  -3 3068.05   94.08
   7   4  -2 2516.08   71.63
   7   4  -2 2563.30   88.18
   7   4  -1 6122.71  137.56
   7   4  -1 6273.10  153.76
   7   4   015743.79  264.43
   7   4   015051.47  277.96
   7   4   113191.50  233.48
   7   4   112981.07  221.06
   7   4   2 3200.05   89.94
   7   4   2 3166.84   82.85
   7   4   3 1047.03   56.46
   7   4   3 1047.68   48.12
   7   4   4 1184.19   57.06
   7   4   4 1197.02   47.49
   7   4   5  925.46   53.75
   7   4   5  908.81   43.06
   7   4   5  838.46   43.14
   7   4   6   44.28   30.33
   7   4   6   26.23   26.49
   7   4   6   15.39   23.50
   7   4   7 2793.79   82.10
   7   4   7 2833.16   76.82
   7   4   7 2725.73   76.71
   7   4   8   69.68   26.80
   7   4   8   51.53   26.42
   7   4   8   86.58   27.38
   7   4   910660.52  192.15
   7   4   910366.64  156.87
   7   4   910089.42  178.31
   7   4  10  920.04   57.58
   7   4  10  880.05   47.60
   7   4  11 3095.09   90.17
   7   4  11 3212.52   84.81
   7   4  11 3063.09   79.96
   7   4  12   -5.78   35.23
   7   4  12  -20.66   25.56
   7   4  12   32.96   28.08
   7   4  13 1359.99   66.59
   7   4  13 1528.26   54.20
   7   4  13 1496.05   58.06
  -7  -4 -14 3418.24   88.67
   7   4  14 3380.81   99.96
   7   4  14 3458.91   83.39
   7   4  14 3535.84   91.32
  -7  -4 -15    2.88   33.28
   7   4  15   19.06   39.21
   7   4  15   15.01   28.43
   7   4  15   23.59   33.74
  -7  -4 -16 5319.32  110.07
   7   4  16 5190.34  124.37
   7   4  16 5192.10  106.53
   7   4  16 5348.97  110.72
  -7  -4 -17  182.26   35.49
   7   4  17  184.31   50.42
   7   4  17  194.23   34.31
   7   4  17  211.96   30.60
  -7  -4 -18  626.88   48.81
   7   4  18  625.90   52.49
   7   4  18  609.98   44.58
   7   5 -13   84.44   43.63
   7   5 -13   35.56   34.23
   7   5 -12   -0.74   41.14
   7   5 -12  -11.08   32.18
   7   5 -11  477.73   48.29
   7   5 -11  521.65   40.40
   7   5 -10  425.35   52.94
   7   5 -10  561.73   43.46
   7   5  -9  410.58   48.23
   7   5  -9  510.24   42.61
   7   5  -8  160.19   45.58
   7   5  -8  122.86   35.03
   7   5  -8  162.73   44.90
   7   5  -7 2244.61   83.35
   7   5  -7 2418.57   73.81
   7   5  -7 2497.73   90.56
   7   5  -6 1297.57   64.04
   7   5  -6 1367.56   57.36
   7   5  -6 1318.27   66.51
   7   5  -5   59.49   32.82
   7   5  -5  147.33   41.79
   7   5  -4 2103.20   68.42
   7   5  -4 2043.18   81.70
   7   5  -3 3330.47   82.58
   7   5  -3 3353.70  100.54
   7   5  -2  455.62   39.94
   7   5  -2  440.05   51.29
   7   5  -1  942.02   50.04
   7   5  -1  896.30   61.57
   7   5   0 5630.42  121.63
   7   5   0 5273.88  127.04
   7   5   1 6089.05  136.64
   7   5   1 6270.49  130.56
   7   5   1 5720.47  139.88
   7   5   2 3765.83   98.29
   7   5   2 3755.03   85.89
   7   5   3 3158.62   86.36
   7   5   3 3107.78   72.39
   7   5   4 1195.21   57.99
   7   5   4 1272.20   50.85
   7   5   5 2638.41   85.87
   7   5   5 2683.21   71.46
   7   5   6   15.27   29.71
   7   5   6  -26.05   22.80
   7   5   7   -7.89   29.87
   7   5   7   -2.94   25.62
   7   5   8 2876.91   90.63
   7   5   8 2706.14   79.04
   7   5   8 2745.58   76.21
   7   5   9 2450.01   77.60
   7   5   9 2413.18   73.84
   7   5  10  565.46   42.50
   7   5  10  528.82   35.00
   7   5  10  512.77   35.78
   7   5  11  343.95   44.91
   7   5  11  395.29   36.24
   7   5  11  360.03   35.05
   7   5  12 5240.95  130.84
   7   5  12 5703.61  123.29
   7   5  12 5556.12  125.83
   7   5  13  762.62   54.11
   7   5  13  874.85   45.30
   7   5  13  814.43   42.18
   7   5  14  805.08   55.33
   7   5  14  874.18   43.45
   7   5  14  845.85   44.56
  -7  -5 -15 1123.13   51.98
   7   5  15 1158.48   62.55
   7   5  15 1180.80   51.55
   7   5  15 1199.26   54.70
  -7  -5 -16 2247.45   73.31
   7   5  16 2249.29   80.36
   7   5  16 2216.18   66.00
   7   5  16 2188.17   71.99
  -7  -5 -17   30.36   34.07
   7   5  17   26.68   40.26
   7   5  17   42.01   28.75
   7   5  18  668.76   52.68
   7   5  18  671.83   50.67
   7   6 -12 4362.84  123.82
   7   6 -12 4368.01  110.69
   7   6 -11   41.20   39.22
   7   6 -11   69.63   38.00
   7   6 -10 2393.20   89.46
   7   6 -10 2578.06   82.20
   7   6 -10 2451.75   86.58
   7   6  -9  910.73   60.86
   7   6  -9 1000.89   52.20
   7   6  -8 1532.91   72.52
   7   6  -8 1660.63   67.07
   7   6  -8 1584.25   71.37
   7   6  -7  952.41   52.67
   7   6  -7 1013.46   62.62
   7   6  -6 6098.97  111.11
   7   6  -6 6123.72  137.05
   7   6  -5  133.69   31.81
   7   6  -5   67.25   44.06
   7   6  -4 2903.47   78.79
   7   6  -4 2912.34   95.64
   7   6  -3 8413.66  152.99
   7   6  -3 8570.58  174.12
   7   6  -2 1919.89   65.27
   7   6  -2 1984.86   86.67
   7   6  -127542.08  247.27
   7   6  -126243.27  358.39
   7   6   0  699.73   47.00
   7   6   0  686.21   43.06
   7   6   0  693.63   60.94
   7   6   1 7151.16  151.97
   7   6   1 7554.25  152.91
   7   6   1 7216.24  170.85
   7   6   2  354.25   32.89
   7   6   2  327.35   33.24
   7   6   2  308.02   43.30
   7   6   3   78.68   33.57
   7   6   3   73.83   26.55
   7   6   4 2867.80   84.30
   7   6   4 2794.23   74.27
   7   6   5  675.71   47.69
   7   6   5  642.78   40.21
   7   6   6  266.98   38.88
   7   6   6  254.18   34.94
   7   6   7   37.03   34.03
   7   6   7   48.36   27.50
   7   6   7   21.94   23.47
   7   6   8 5235.88  126.30
   7   6   8 5233.25  102.70
   7   6   9   66.87   36.54
   7   6   9   50.16   29.00
   7   6  10 3692.76  101.16
   7   6  10 3930.62   90.01
   7   6  10 3696.95   85.79
   7   6  11  124.73   38.05
   7   6  11   86.87   32.41
   7   6  11   70.22   30.72
   7   6  12  529.68   48.73
   7   6  12  636.63   40.08
   7   6  12  605.94   44.00
   7   6  13   61.84   34.89
   7   6  13   69.31   26.79
   7   6  13   53.47   26.28
   7   6  14 1312.72   62.38
   7   6  14 1315.49   63.49
   7   6  14 1367.33   52.77
   7   6  14 1309.43   54.22
   7   6  15 6640.11  141.02
   7   6  15 6896.75  116.50
   7   6  15 6987.72  122.57
   7   6  16   -3.99   38.59
   7   6  16   33.47   31.26
   7   6  16   41.74   27.87
   7   6  17  125.23   40.91
   7   6  17  114.88   31.85
   7   6  18   15.79   36.21
   7   6  18   -1.15   28.77
   7   7 -12 1203.77   62.95
   7   7 -11  389.70   46.37
   7   7 -10  -46.84   36.99
   7   7 -10    1.72   36.60
   7   7  -9  543.40   44.67
   7   7  -8 1429.38   62.40
   7   7  -7  623.31   50.53
   7   7  -7  736.08   55.78
   7   7  -6  111.53   36.11
   7   7  -6  105.66   46.36
   7   7  -5   44.63   24.37
   7   7  -5  -13.17   31.27
   7   7  -4 3136.75   79.16
   7   7  -4 3072.58   96.56
   7   7  -3 4499.31  104.01
   7   7  -3 4354.89  114.72
   7   7  -2  255.95   35.36
   7   7  -2  310.73   49.58
   7   7  -121879.41  291.94
   7   7  -121473.02  315.11
   7   7   0  543.28   43.54
   7   7   0  493.94   52.74
   7   7   1 4777.80  105.16
   7   7   1 4823.04   93.50
   7   7   1 4583.16  119.93
   7   7   2 1141.36   59.53
   7   7   2 1150.91   47.34
   7   7   2 1163.75   67.67
   7   7   3  100.96   34.10
   7   7   3  128.74   21.33
   7   7   4  546.98   44.77
   7   7   4  510.00   36.46
   7   7   5 7271.06  141.49
   7   7   5 7025.38  128.34
   7   7   610843.42  185.67
   7   7   611000.79  176.62
   7   7   7  577.19   44.82
   7   7   7  557.38   38.07
   7   7   7  558.77   39.09
   7   7   8 1456.98   63.89
   7   7   8 1373.96   58.54
   7   7   9  459.10   44.20
   7   7   9  494.31   46.08
   7   7   9  467.32   35.87
   7   7   9  441.96   36.72
   7   7  10  230.43   37.69
   7   7  10  199.77   40.66
   7   7  10  225.16   32.25
   7   7  10  266.33   35.77
   7   7  11   -8.41   36.72
   7   7  11   15.77   25.52
   7   7  11   28.27   28.10
   7   7  12  672.41   48.13
   7   7  12  593.19   51.94
   7   7  12  702.06   41.88
   7   7  12  673.28   45.47
   7   7  13 2603.00   83.71
   7   7  13 2821.69   90.78
   7   7  13 2940.79   75.60
   7   7  13 3008.36   78.72
   7   7  14  117.77   33.33
   7   7  14   82.12   40.52
   7   7  14  138.72   32.71
   7   7  14  134.06   30.13
   7   7  15 3535.11   94.36
   7   7  15 3662.80  105.14
   7   7  15 3842.39   90.46
   7   7  15 3821.28   86.85
   7   7  16 1993.58   76.25
   7   7  16 2042.05   77.65
   7   7  16 2046.84   65.98
   7   7  16 2007.56   67.82
   7   7  17   -8.20   33.29
   7   7  17   -5.44   27.97
   7   8 -12  219.81   42.91
   7   8 -11  329.22   43.71
   7   8 -10   74.83   34.60
   7   8 -10   92.90   45.80
   7   8 -10   96.55   38.88
   7   8  -9  481.98   47.76
   7   8  -9  601.14   53.01
   7   8  -9  576.76   48.98
   7   8  -8  769.66   53.47
   7   8  -7  536.74   44.62
   7   8  -6   13.58   32.33
   7   8  -6   -0.55   38.91
   7   8  -5  433.37   41.67
   7   8  -5  471.99   57.82
   7   8  -4 2626.43   74.69
   7   8  -4 2686.69   91.30
   7   8  -3 1505.97   60.30
   7   8  -3 1522.43   76.25
   7   8  -2 4169.14   95.45
   7   8  -2 4041.69  127.37
   7   8  -1 3129.75   80.47
   7   8  -1 3263.12  104.45
   7   8   0 3745.51   96.18
   7   8   0 3830.66  129.43
   7   8   112648.57  202.06
   7   8   112069.09  214.57
   7   8   2  291.62   32.62
   7   8   2  376.94   33.59
   7   8   2  343.81   52.55
   7   8   3 2517.22   75.77
   7   8   3 2517.39   67.07
   7   8   3 2421.35   95.28
   7   8   4 2193.25   71.35
   7   8   4 2319.59   79.22
   7   8   4 2260.28   63.18
   7   8   5 4914.06  107.13
   7   8   5 4845.56  103.38
   7   8   5 4952.63   93.22
   7   8   617407.04  255.50
   7   8   617861.47  258.40
   7   8   617472.75  227.51
   7   8   617498.60  238.09
   7   8   7  266.44   34.34
   7   8   7  267.64   39.12
   7   8   7  283.49   32.28
   7   8   8 4991.58  104.42
   7   8   8 4903.58  113.17
   7   8   8 4894.97   99.95
   7   8   9  361.61   39.42
   7   8   9  359.72   42.19
   7   8   9  397.85   35.70
   7   8   9  325.32   35.24
   7   8  10 4058.58   99.17
   7   8  10 4127.04  109.22
   7   8  10 4214.16   94.88
   7   8  10 4040.42   92.06
   7   8  11 1486.65   61.79
   7   8  11 1484.69   65.06
   7   8  11 1627.92   60.59
   7   8  11 1651.01   58.82
   7   8  12   81.98   32.83
   7   8  12   93.00   27.25
   7   8  12   66.61   27.52
   7   8  13 4485.25  104.14
   7   8  13 4861.31   93.93
   7   8  13 4860.89   99.48
   7   8  14 1345.65   63.66
   7   8  14 1351.29   55.74
   7   8  14 1354.32   55.99
   7   8  15   22.59   33.16
   7   8  15   35.81   31.02
   7   8  16 1576.76   67.71
   7   8  16 1617.06   65.60
   7   8  17  846.45   59.31
   7   8  17  882.92   49.77
   7   9 -11  418.19   49.80
   7   9 -10  181.10   37.21
   7   9 -10  223.43   44.51
   7   9 -10  151.88   48.09
   7   9  -9  226.01   40.48
   7   9  -9  244.98   51.59
   7   9  -9  252.23   47.50
   7   9  -8 2774.31   80.53
   7   9  -8 2599.23   85.75
   7   9  -8 2739.83   92.31
   7   9  -7 1862.28   73.42
   7   9  -6  528.84   44.44
   7   9  -6  509.54   48.13
   7   9  -5  770.02   43.71
   7   9  -5  654.13   59.39
   7   9  -4 4417.95   94.50
   7   9  -4 4655.32  134.28
   7   9  -3  338.08   37.68
   7   9  -3  284.80   38.29
   7   9  -3  322.13   44.69
   7   9  -2  377.06   39.58
   7   9  -2  388.83   35.06
   7   9  -2  435.64   52.15
   7   9  -1 5616.81  122.09
   7   9  -1 5193.33  112.31
   7   9  -1 5766.07  137.94
   7   9   013853.90  191.52
   7   9   013443.77  222.85
   7   9   1 2005.64   69.74
   7   9   1 2069.27   92.75
   7   9   2 2561.72   73.96
   7   9   2 2561.92   95.36
   7   9   312394.52  190.51
   7   9   311487.75  218.81
   7   9   4 9218.21  147.63
   7   9   4 9049.88  125.39
   7   9   4 8265.15  178.61
   7   9   5   29.28   24.79
   7   9   5   50.04   26.26
   7   9   5   75.47   25.68
   7   9   6 4656.37  102.73
   7   9   6 4674.13   87.97
   7   9   6 4568.64   99.79
   7   9   7 5850.70  122.68
   7   9   7 5875.42  111.48
   7   9   8  -10.52   29.25
   7   9   8    5.46   25.72
   7   9   8   13.65   27.39
   7   9   9 3937.87  101.36
   7   9   9 3970.92   82.41
   7   9   9 3836.53   89.99
   7   9  10  481.50   41.06
   7   9  10  517.94   38.42
   7   9  10  497.14   37.70
   7   9  11    9.43   30.69
   7   9  11    4.09   29.31
   7   9  11   20.63   31.40
   7   9  12   -6.88   30.86
   7   9  12   40.45   27.28
   7   9  12  -17.66   27.16
   7   9  13 4483.73  107.14
   7   9  13 4547.27  115.40
   7   9  13 4869.09  101.33
   7   9  14 1825.89   73.81
   7   9  14 1955.82   77.37
   7   9  14 2016.84   65.19
   7   9  15  128.30   34.74
   7   9  15  116.80   35.40
   7   9  15  143.69   30.46
   7   9  16 1606.69   78.80
   7   9  16 1647.74   72.85
   7   9  16 1652.85   71.06
   7  10 -10  184.03   43.65
   7  10 -10  109.84   41.01
   7  10  -9  438.27   44.16
   7  10  -9  405.09   44.73
   7  10  -8  617.84   57.26
   7  10  -8  624.77   49.01
   7  10  -7   28.80   34.00
   7  10  -6   87.32   38.05
   7  10  -5  494.42   39.84
   7  10  -5  523.96   56.09
   7  10  -4 3560.21  112.43
   7  10  -4 3640.22  127.88
   7  10  -3 1022.31   50.56
   7  10  -3 1081.48   69.12
   7  10  -2  124.53   33.83
   7  10  -2  117.18   47.78
   7  10  -1  200.62   35.14
   7  10  -1  242.33   38.70
   7  10   0  200.08   36.40
   7  10   0  184.50   35.79
   7  10   0  212.96   48.35
   7  10   1  137.61   32.06
   7  10   1  120.93   36.15
   7  10   1  114.35   44.18
   7  10   2  885.42   48.63
   7  10   2  823.76   51.95
   7  10   2  902.57   67.50
   7  10   3  309.33   40.16
   7  10   3  311.71   39.36
   7  10   3  275.01   52.79
   7  10   4 2974.24   82.86
   7  10   4 2957.34   83.52
   7  10   4 2793.34   98.52
   7  10   5  190.53   30.53
   7  10   5  229.41   39.62
   7  10   5  228.48   47.25
   7  10   5  193.10   31.51
   7  10   6  144.58   32.65
   7  10   6  132.88   29.30
   7  10   6  170.31   30.50
   7  10   7  959.44   50.88
   7  10   7  951.51   55.80
   7  10   7  955.76   46.29
   7  10   8 2363.59   80.84
   7  10   8 2384.26   79.59
   7  10   8 2345.79   89.06
   7  10   9   12.24   33.30
   7  10   9    3.63   36.77
   7  10   9   32.43   26.68
   7  10  10  570.46   42.30
   7  10  10  624.39   49.91
   7  10  10  576.85   40.60
   7  10  11  203.49   35.63
   7  10  11  160.19   44.70
   7  10  11  233.66   32.53
   7  10  12 1228.98   59.43
   7  10  12 1312.98   62.52
   7  10  12 1399.49   57.37
   7  10  13 1333.57   64.42
   7  10  13 1362.33   65.34
   7  10  13 1364.61   59.32
   7  10  14  261.87   37.97
   7  10  14  262.81   39.92
   7  10  14  249.46   32.42
   7  10  15   12.21   31.16
   7  10  15   39.87   34.07
   7  10  15   15.91   30.78
   7  11  -9  926.54   60.22
   7  11  -9  870.72   63.89
   7  11  -9  896.55   59.39
   7  11  -8  565.29   46.12
   7  11  -8  628.63   53.22
   7  11  -8  624.34   52.44
   7  11  -7 5402.12  121.94
   7  11  -7 5860.24  134.86
   7  11  -7 5614.82  146.59
   7  11  -7 5604.66  136.86
   7  11  -6   57.40   34.59
   7  11  -6   79.78   39.54
   7  11  -6   18.11   37.05
   7  11  -5  861.30   49.33
   7  11  -5  813.09   45.20
   7  11  -5  729.98   63.82
   7  11  -4 3553.57   99.32
   7  11  -4 3768.12  105.51
   7  11  -4 3654.99  113.59
   7  11  -3 1435.07   58.60
   7  11  -3 1436.68   58.63
   7  11  -3 1506.14   77.03
   7  11  -2  481.79   39.76
   7  11  -2  460.29   45.30
   7  11  -2  488.55   60.61
   7  11  -1   93.69   30.40
   7  11  -1  113.43   36.00
   7  11  -1  153.09   46.76
   7  11   0  143.73   32.31
   7  11   0  115.10   35.56
   7  11   0  150.39   46.22
   7  11   1 1608.47   65.25
   7  11   1 1627.23   64.83
   7  11   1 1658.55   80.05
   7  11   2  497.68   43.23
   7  11   2  501.34   40.36
   7  11   2  507.28   49.33
   7  11   3 2171.01   71.95
   7  11   3 2400.22   76.89
   7  11   3 2084.54   88.18
   7  11   4 4121.62   90.99
   7  11   4 4187.78   99.70
   7  11   4 3941.10  124.66
   7  11   4 4260.00  113.17
   7  11   5  512.03   42.75
   7  11   5  431.15   44.39
   7  11   5  489.74   63.38
   7  11   5  536.89   37.25
   7  11   6   61.10   29.07
   7  11   6   47.08   26.05
   7  11   6   21.98   28.15
   7  11   7  168.54   38.62
   7  11   7   97.76   38.37
   7  11   7  104.42   29.83
   7  11   8 1693.27   63.41
   7  11   8 1687.86   67.45
   7  11   8 1716.02   64.05
   7  11   9   96.15   39.86
   7  11   9  158.98   40.44
   7  11   9  132.07   32.98
   7  11  10  115.30   32.40
   7  11  10  182.41   39.31
   7  11  10  127.89   29.87
   7  11  11  210.41   37.02
   7  11  11  190.65   42.15
   7  11  11  214.87   31.88
   7  11  12  476.57   43.03
   7  11  12  479.52   43.79
   7  11  12  467.24   40.95
   7  11  13   73.27   38.28
   7  11  13  100.46   40.88
   7  11  13   79.05   27.04
   7  11  14  942.84   55.23
   7  11  14  929.84   56.12
   7  11  14  928.74   47.52
   7  12  -8   13.30   37.24
   7  12  -8  -11.13   39.95
   7  12  -7 1165.67   57.39
   7  12  -7 1198.03   64.52
   7  12  -7 1223.48   68.49
   7  12  -7 1168.73   61.30
   7  12  -6 1064.47   57.70
   7  12  -6 1134.12   55.85
   7  12  -6 1063.60   67.69
   7  12  -5  684.37   46.22
   7  12  -5  575.43   48.91
   7  12  -4 5877.94  119.79
   7  12  -4 5791.88  124.60
   7  12  -4 5779.05  144.69
   7  12  -3  555.37   40.75
   7  12  -3  598.48   48.03
   7  12  -3  584.03   51.23
   7  12  -2    4.47   31.66
   7  12  -2    8.34   30.65
   7  12  -2   12.67   32.99
   7  12  -1 2307.49   71.14
   7  12  -1 2385.09   74.16
   7  12  -1 2377.08   90.31
   7  12   0 2079.53   68.18
   7  12   0 2031.56   73.59
   7  12   0 2203.09   86.97
   7  12   1 4866.94  110.59
   7  12   1 5026.58  121.69
   7  12   1 5040.30  137.39
   7  12   2  396.18   39.03
   7  12   2  376.26   40.10
   7  12   2  435.38   49.03
   7  12   3 5749.53  142.14
   7  12   3 5818.64  147.70
   7  12   3 5458.84  161.13
  -7 -12  -3 5616.86  135.43
   7  12   4 1786.61   62.55
   7  12   4 1756.07   63.87
   7  12   4 1568.09   84.36
  -7 -12  -4 1770.99   60.50
   7  12   5  110.32   26.99
   7  12   5   87.13   35.37
   7  12   5   73.50   50.87
   7  12   6  426.09   39.72
   7  12   6  411.28   42.75
   7  12   6  444.28   57.58
   7  12   6  430.58   42.24
   7  12   7   91.00   30.37
   7  12   7   53.15   34.03
   7  12   7   87.03   24.94
   7  12   8    9.56   27.95
   7  12   8  -15.94   25.11
   7  12   8   12.64   23.85
   7  12   9  366.35   38.15
   7  12   9  366.82   44.32
   7  12   9  365.39   37.21
   7  12  10  712.16   49.29
   7  12  10  755.22   54.88
   7  12  10  755.52   43.35
   7  12  11  189.42   33.97
   7  12  11  179.04   43.85
   7  12  11  191.85   33.83
   7  12  12  188.07   37.18
   7  12  12  141.30   41.77
   7  12  12  209.32   36.33
   7  12  13  550.12   44.17
   7  12  13  580.80   53.76
   7  12  13  577.91   43.30
   7  13  -7 1968.71   79.58
   7  13  -7 1961.86   83.28
   7  13  -7 2078.59   92.59
   7  13  -6 4306.33  116.11
   7  13  -6 4338.63  118.05
   7  13  -6 4560.59  138.13
   7  13  -5  429.85   43.20
   7  13  -5  464.16   44.38
   7  13  -4 2135.63   72.26
   7  13  -4 2294.46   85.51
   7  13  -3  111.58   36.38
   7  13  -3  108.17   34.29
   7  13  -3  115.36   46.81
   7  13  -2  503.00   43.73
   7  13  -2  458.39   47.85
   7  13  -2  527.67   57.27
   7  13  -1  424.14   39.75
   7  13  -1  441.10   41.40
   7  13  -1  469.49   54.84
   7  13   0  375.91   39.42
   7  13   0  362.41   40.38
   7  13   0  446.97   56.93
   7  13   1 2954.78   89.38
   7  13   1 2721.82   86.78
   7  13   1 2934.54  107.05
   7  13   2  571.50   42.50
   7  13   2  515.82   43.26
   7  13   2  498.54   56.87
   7  13   3 3986.55   99.02
   7  13   3 3839.44   96.13
   7  13   3 3882.62  125.68
  -7 -13  -3 3911.60   97.43
   7  13   4 3326.98   94.60
   7  13   4 3208.68   91.78
   7  13   4 3118.72  107.58
  -7 -13  -4 3326.44   88.67
   7  13   5  846.81   47.16
   7  13   5  806.79  185.99
   7  13   5  940.01   73.14
  -7 -13  -5  840.79   45.53
   7  13   6   -2.11   30.02
   7  13   6   70.81   35.01
   7  13   6   48.72   53.58
  -7 -13  -6   41.03   27.07
   7  13   7  377.15   41.04
   7  13   7  405.49   42.92
  -7 -13  -7  419.29   35.17
   7  13   8   77.97   31.41
   7  13   8   88.51   36.31
   7  13   8  120.13   30.85
   7  13   9   35.38   33.59
   7  13   9   33.93   38.46
   7  13   9   38.85   32.52
   7  13  10  148.31   31.04
   7  13  10  129.24   42.31
   7  13  10  149.55   29.73
   7  13  11  630.29   50.49
   7  13  11  683.89   54.92
   7  13  11  643.80   41.45
   7  13  12 2132.85   85.38
   7  13  12 2043.54   81.19
   7  13  12 2123.24   77.88
   7  14  -5 2137.96   88.49
   7  14  -5 2070.88   93.87
   7  14  -5 2069.90   90.02
   7  14  -4  138.99   36.92
   7  14  -4  135.69   39.78
   7  14  -3  321.05   38.24
   7  14  -3  318.33   39.16
   7  14  -3  258.70   50.21
   7  14  -2   49.98   30.82
   7  14  -2   18.32   36.47
   7  14  -2    6.94   45.67
   7  14  -1   45.54   34.27
   7  14  -1   60.77   35.02
   7  14  -1   34.59   43.81
   7  14   0  638.32   44.12
   7  14   0  602.69   45.71
   7  14   0  614.41   62.79
   7  14   1 1266.29   56.69
   7  14   1 1255.20   57.73
   7  14   1 1378.00   87.89
   7  14   2 1897.04   75.09
   7  14   2 1966.72   73.20
   7  14   2 1906.85   89.03
   7  14   3  318.00   40.44
   7  14   3  333.60  150.64
   7  14   3  351.62   59.20
  -7 -14  -3  356.07   38.49
   7  14   4   -1.33   34.75
   7  14   4   -2.58   48.68
  -7 -14  -4   22.73   33.74
   7  14   5 1737.58   66.79
   7  14   5 1594.31   71.73
   7  14   5 1694.63   87.27
  -7 -14  -5 1672.45   63.54
   7  14   6 1119.08   57.30
   7  14   6 1076.71   57.06
   7  14   6 1125.38   77.54
  -7 -14  -6 1090.82   51.83
   7  14   7   55.88   34.53
   7  14   7  101.49   38.16
  -7 -14  -7   64.59   28.27
   7  14   8  -11.20   36.07
   7  14   8   23.55   39.56
  -7 -14  -8   22.33   28.73
   7  14   9  249.90   41.49
   7  14   9  268.48   48.44
  -7 -14  -9  271.79   36.40
   7  14  10  109.93   33.88
  -7 -14 -10  121.82   33.64
   7  15  -2  -18.81   33.29
   7  15  -2   14.51   42.99
   7  15  -1  412.80   40.14
   7  15  -1  406.03   66.77
   7  15   0  727.07   50.81
   7  15   0  704.65   68.83
   7  15   1 1927.61   71.89
   7  15   1 2033.79   88.86
   7  15   2 3040.79  100.51
   7  15   2 2934.91  104.22
   7  15   3  520.14   41.98
   7  15   3  490.96   60.57
   7  15   4   20.40   35.38
   7  15   4    4.11   56.24
  -7 -15  -4   27.11   37.32
   7  15   5  576.46   45.72
   7  15   5  549.77   70.75
  -7 -15  -5  596.33   48.01
   7  15   6    9.91   34.60
  -7 -15  -6   17.74   36.32
  -7 -15  -7   66.37   39.66
   8  -7   2   53.65   35.43
   8  -7   3 1167.81   53.59
   8  -7   6  150.08   34.71
   8  -6  -2   56.54   31.74
   8  -6  -2   48.92   30.63
   8  -6  -1   57.29   32.60
   8  -6  -1   49.41   33.77
   8  -6   0   43.12   35.21
   8  -6   1 2960.99   84.95
   8  -6   1 3016.43   88.31
   8  -6   2  407.76   39.37
   8  -6   3   40.55   33.61
   8  -6   4 1162.57   50.34
   8  -6   5 3790.93   92.33
   8  -6   8   13.54   36.65
   8  -6   9  260.17   43.91
   8  -6   9  269.94   39.95
   8  -5  -4  202.27   38.16
   8  -5  -4  158.33   38.75
   8  -5  -3  337.02   37.03
   8  -5  -3  326.95   43.85
   8  -5  -2  279.89   39.31
   8  -5  -2  267.08   39.67
   8  -5  -1 2262.71   71.59
   8  -5  -1 2126.65   70.85
   8  -5   0   27.02   25.66
   8  -5   0   26.96   30.16
   8  -5   1 2354.22   74.94
   8  -5   1 2202.10   71.53
   8  -5   2  724.26   49.07
   8  -5   2  708.58   45.74
   8  -5   3  468.98   39.69
   8  -5   3  468.35   39.26
   8  -5   4  113.61   27.22
   8  -5   5 2305.32   71.37
   8  -5   6   18.10   34.78
   8  -5   7   93.83   38.71
   8  -5   8  138.21   43.12
   8  -5   9  123.42   37.88
   8  -5   9  166.27   30.17
   8  -5  10  451.30   43.28
   8  -5  10  438.20   40.47
   8  -5  11  311.44   39.39
   8  -5  11  263.40   37.36
   8  -4  -6  319.21   42.50
   8  -4  -5   -5.35   27.96
   8  -4  -4  438.50   46.00
   8  -4  -3  163.20   34.65
   8  -4  -3  139.63   40.44
   8  -4  -2 4364.25   99.42
   8  -4  -2 4210.54   95.83
   8  -4  -1   75.03   29.11
   8  -4  -1   61.31   28.32
   8  -4   0  929.62   51.94
   8  -4   0  834.77   46.72
   8  -4   1  928.96   52.48
   8  -4   1  914.33   47.43
   8  -4   2 1793.08   64.83
   8  -4   2 1801.37   62.49
   8  -4   3 1610.14   60.84
   8  -4   3 1455.17   60.04
   8  -4   4  330.45   41.19
   8  -4   4  326.27   37.89
   8  -4   5   15.53   35.80
   8  -4   6  437.16   43.44
   8  -4   7 2826.77   85.80
   8  -4   7 3077.83   83.52
   8  -4   8   12.48   32.85
   8  -4   9 1073.53   54.27
   8  -4  10 1769.36   66.63
   8  -4  11   14.63   29.85
   8  -4  11   18.11   26.59
   8  -4  12  336.28   38.53
   8  -4  12  290.78   38.74
   8  -4  13  304.70   38.04
   8  -3  -7   71.72   34.39
   8  -3  -6 1867.45   65.82
   8  -3  -5  978.04   50.92
   8  -3  -4   75.19   33.71
   8  -3  -3  515.69   45.45
   8  -3  -3  436.02   43.84
   8  -3  -2  691.81   41.80
   8  -3  -2  638.45   50.44
   8  -3  -1  113.46   33.34
   8  -3  -1   83.83   38.51
   8  -3   0  110.35   33.83
   8  -3   0   99.83   38.54
   8  -3   1  155.97   31.81
   8  -3   1  161.32   30.75
   8  -3   2 1106.97   51.71
   8  -3   2 1034.84   50.43
   8  -3   3  833.52   47.56
   8  -3   3  780.71   46.68
   8  -3   4 1218.53   54.91
   8  -3   4 1303.63   56.03
   8  -3   5 2878.92   78.42
   8  -3   6 1009.42   53.63
   8  -3   6  943.05   49.06
   8  -3   7 1497.22   61.49
   8  -3   7 1713.98   63.40
   8  -3   8 2269.54   78.39
   8  -3   8 2654.81   76.44
   8  -3   9  933.00   50.89
   8  -3   9 1049.74   51.82
   8  -3  10 1248.04   59.46
   8  -3  11    0.83   29.85
   8  -3  12   37.92   30.89
   8  -3  12   18.66   31.85
   8  -3  13  693.77   50.78
   8  -3  13  685.31   48.50
   8  -2  -8 1224.13   63.74
   8  -2  -7  832.08   50.89
   8  -2  -6   10.97   24.76
   8  -2  -5  284.95   39.15
   8  -2  -4  607.85   41.52
   8  -2  -3  476.62   41.29
   8  -2  -2   98.10   24.86
   8  -2  -2   88.30   37.29
   8  -2  -1 8073.22  180.13
   8  -2  -1 7385.48  173.08
   8  -2   0 3007.91   82.25
   8  -2   0 2758.27   77.05
   8  -2   1  610.99   46.12
   8  -2   1  628.76   45.36
   8  -2   2 2867.49   83.65
   8  -2   2 2743.24   72.07
   8  -2   3   -1.53   27.80
   8  -2   3   41.34   30.32
   8  -2   4 5128.74  126.20
   8  -2   4 4742.13  112.36
   8  -2   5   21.83   31.47
   8  -2   5   26.00   34.89
   8  -2   5   52.22   25.70
   8  -2   6  319.06   39.27
   8  -2   6  307.22   38.68
   8  -2   7 9990.95  214.21
   8  -2   710656.38  214.92
   8  -2   8 1536.41   61.29
   8  -2   8 1608.99   61.79
   8  -2   9 1548.84   60.93
   8  -2   9 1550.88   60.11
   8  -2  10  849.52   51.00
   8  -2  10  859.06   51.21
   8  -2  11 1602.77   62.93
   8  -2  12  390.15   38.27
   8  -2  13  279.92   37.16
   8  -2  15 1580.67   61.06
   8  -1  -9  166.35   38.15
   8  -1  -8  565.35   50.59
   8  -1  -7   24.02   33.92
   8  -1  -6  145.64   39.67
   8  -1  -5  850.90   52.43
   8  -1  -4 1132.27   52.08
   8  -1  -3 2898.57   81.28
   8  -1  -2  327.36   38.58
   8  -1  -1  399.88   41.84
   8  -1  -1  396.05   40.68
   8  -1   0 3338.53   92.16
   8  -1   0 3077.50   87.29
   8  -1   1   89.99   29.00
   8  -1   1   86.24   27.61
   8  -1   2  281.76   36.26
   8  -1   2  264.57   37.44
   8  -1   3   82.06   31.20
   8  -1   3  115.92   31.52
   8  -1   4  919.06   51.18
   8  -1   4  876.98   46.59
   8  -1   5   52.83   30.37
   8  -1   5   53.78   31.88
   8  -1   6    8.55   27.94
   8  -1   6  -14.03   30.83
   8  -1   7 3122.14   81.69
   8  -1   7 3211.32   77.91
   8  -1   8 5233.61  137.24
   8  -1   8 5583.06  135.06
   8  -1   9   23.33   31.21
   8  -1   9   84.41   34.64
   8  -1  10  588.58   46.05
   8  -1  10  641.94   45.15
   8  -1  11 7718.84  132.26
   8  -1  11 7232.54  122.39
   8  -1  12   29.81   24.11
   8  -1  12   54.01   36.81
   8  -1  15  844.91   49.73
   8  -1  16  414.48   37.62
   8   0  -9  257.87   42.40
   8   0  -8 1353.69   61.43
   8   0  -7    5.29   31.47
   8   0  -6  393.74   41.90
   8   0  -6  321.84   46.17
   8   0  -5 2941.51   86.36
   8   0  -5 2920.54   90.61
   8   0  -4  676.67   48.89
   8   0  -4  648.25   49.17
   8   0  -3 1550.59   63.91
   8   0  -3 1611.45   66.51
   8   0  -2  126.41   33.42
   8   0  -1    2.13   29.96
   8   0   0  485.86   41.56
   8   0   1  581.16   45.64
   8   0   1  570.93   43.03
   8   0   2  604.19   45.25
   8   0   2  625.39   45.48
   8   0   3   33.86   26.28
   8   0   4  256.66   37.58
   8   0   4  276.56   39.18
   8   0   5  572.05   40.15
   8   0   5  559.60   42.36
   8   0   6   62.93   29.99
   8   0   6   65.16   33.95
   8   0   7  646.18   45.26
   8   0   7  564.64   44.61
   8   0   8 2276.28   72.67
   8   0   8 2346.72   69.72
   8   0   9 2446.04   74.53
   8   0   9 2461.53   75.00
   8   0  10   51.69   33.62
   8   0  10   54.99   36.11
   8   0  11 1440.26   63.92
   8   0  11 1419.94   53.01
   8   0  12 2208.40   69.02
   8   0  12 2162.44   63.16
   8   0  14  117.80   32.97
   8   0  15  452.34   40.28
   8   0  15  412.91   43.98
   8   0  16  388.36   36.95
   8   0  16  402.55   46.59
   8   1 -10 1124.22   63.49
   8   1  -9  514.51   47.29
   8   1  -8  345.17   41.71
   8   1  -8  430.92   45.06
   8   1  -7   26.39   31.82
   8   1  -7  -12.06   36.92
   8   1  -6 1243.28   62.02
   8   1  -6 1299.38   63.33
   8   1  -5   19.91   32.49
   8   1  -5   -9.09   31.82
   8   1  -4   51.34   32.56
   8   1  -4   49.40   36.33
   8   1  -3 3447.94   91.24
   8   1  -3 3154.32   85.98
   8   1  -2   52.96   30.09
   8   1  -2   57.92   32.13
   8   1  -1  877.29   53.25
   8   1   0  903.15   50.37
   8   1   2  895.61   45.72
   8   1   3  -20.45   29.62
   8   1   4   23.00   26.24
   8   1   4   26.94   30.69
   8   1   5 1048.79   51.43
   8   1   5 1015.66   45.23
   8   1   6  506.28   38.72
   8   1   6  463.98   40.34
   8   1   7  172.23   34.38
   8   1   7  191.19   35.00
   8   1   8 2337.51   74.79
   8   1   8 2506.89   73.89
   8   1   9 3204.12   82.22
   8   1   9 3180.30   81.96
   8   1  10  675.00   49.12
   8   1  10  705.49   45.47
   8   1  11 1912.35   66.33
   8   1  11 1958.50   64.36
   8   1  12  549.44   43.48
   8   1  14  174.66   35.32
   8   1  14  166.65   35.90
   8   1  15 2928.30   83.06
   8   1  15 2754.87   86.81
   8   1  16 1094.63   55.11
   8   1  16 1112.16   60.86
   8   2 -10   21.64   39.26
   8   2 -10   -9.74   35.72
   8   2  -9   32.04   33.05
   8   2  -9   30.00   35.91
   8   2  -8  196.75   41.62
   8   2  -8  262.51   37.95
   8   2  -7  131.55   38.49
   8   2  -7  136.51   36.59
   8   2  -6  143.76   43.05
   8   2  -6  130.41   38.56
   8   2  -5   -0.17   38.88
   8   2  -5    1.79   32.66
   8   2  -4   23.30   31.65
   8   2  -4   62.91   35.12
   8   2  -3 1274.57   59.49
   8   2  -3 1279.40   65.22
   8   2  -2  920.71   54.49
   8   2  -2  862.59   53.62
   8   2   3 1275.52   54.90
   8   2   4 2564.72   75.10
   8   2   4 2600.03   71.02
   8   2   5 5929.89  111.64
   8   2   5 5893.82  109.00
   8   2   6 1800.13   59.64
   8   2   6 1837.55   62.97
   8   2   7 1698.43   60.92
   8   2   7 1674.24   58.51
   8   2   8 3135.03   80.37
   8   2   8 3353.45   79.36
   8   2   9 2231.86   69.86
   8   2   9 2350.26   68.12
   8   2  10  770.78   48.68
   8   2  10  722.68   46.60
   8   2  11 3414.93   97.86
   8   2  11 3602.11  102.70
   8   2  13   43.35   29.29
   8   2  13   41.37   28.85
   8   2  14  369.73   38.96
   8   2  14  321.43   42.63
   8   2  15 2208.74   77.14
   8   2  15 2172.88   78.93
   8   2  16  686.06   45.18
   8   2  16  713.29   47.47
   8   2  17   24.93   32.43
   8   2  17   38.46   39.67
   8   3 -10  263.15   43.19
   8   3 -10  280.06   41.23
   8   3  -9   67.69   37.06
   8   3  -9   69.44   38.57
   8   3  -8  199.22   42.82
   8   3  -8  264.39   42.41
   8   3  -7   37.90   35.03
   8   3  -7   94.28   38.31
   8   3  -6  341.52   46.11
   8   3  -6  401.61   47.17
   8   3  -5  -19.68   35.84
   8   3  -5   60.33   38.42
   8   3  -4  -16.54   32.25
   8   3  -4    0.85   34.53
   8   3  -3   40.28   33.66
   8   3  -2 9539.25  155.59
   8   3  -1 1316.51   65.09
   8   3   3 1559.13   58.38
   8   3   4  336.29   35.85
   8   3   513672.64  172.81
   8   3   512989.95  168.11
   8   3   611416.10  156.72
   8   3   610982.03  155.86
   8   3   7  244.51   37.34
   8   3   7  287.74   36.07
   8   3   8 1176.61   49.51
   8   3   8 1183.80   53.42
   8   3   9  697.02   43.32
   8   3   9  676.52   42.41
   8   3  10 1655.97   73.01
   8   3  10 1811.52   59.58
   8   3  10 1773.85   61.66
   8   3  11 1249.53   65.01
   8   3  12 2848.94   92.05
   8   3  12 3093.51   87.15
   8   3  13 3127.34  103.04
   8   3  13 3548.30   82.70
   8   3  13 3486.21   92.68
   8   3  14  129.26   42.52
   8   3  14  135.61   30.62
   8   3  14  107.50   32.61
   8   3  15 1594.50   56.52
   8   3  15 1522.60   60.87
   8   3  16  419.39   40.63
   8   3  16  366.64   37.48
   8   3  17  499.28   41.27
   8   3  17  501.71   44.11
   8   4 -10   27.94   41.49
   8   4 -10   25.91   37.61
   8   4  -9    5.70   42.97
   8   4  -9   -1.66   35.26
   8   4  -8   57.60   38.17
   8   4  -8   49.37   34.52
   8   4  -7  315.63   45.33
   8   4  -7  310.84   44.74
   8   4  -6   12.13   33.50
   8   4  -6    7.59   27.98
   8   4  -5 3304.22  111.38
   8   4  -4  663.35   51.93
   8   4  -3   48.46   37.92
   8   4  -2 9876.14  146.60
   8   4  -2 9877.92  171.67
   8   4  -1 4648.41  101.23
   8   4  -1 4255.85  110.75
   8   4   0 7461.67  132.61
   8   4   1 3618.06   88.26
   8   4   2  431.15   40.72
   8   4   3  165.62   35.27
   8   4   3  139.15   29.45
   8   4   4  590.99   44.39
   8   4   4  618.36   40.90
   8   4   5  278.43   37.54
   8   4   5  235.80   32.27
   8   4   614266.78  200.05
   8   4   613748.90  167.13
   8   4   613891.50  176.09
   8   4   7 2631.14   82.82
   8   4   7 2650.78   75.60
   8   4   7 2821.52   74.00
   8   4   8 1964.89   74.40
   8   4   8 1909.61   64.02
   8   4   8 2046.46   64.96
   8   4   9  100.04   34.44
   8   4   9  116.06   30.35
   8   4  10  702.68   49.70
   8   4  10  758.82   45.87
   8   4  11   42.00   37.91
   8   4  11   57.02   32.62
   8   4  12   49.05   39.14
   8   4  12   13.54   27.09
   8   4  12   -4.79   26.50
   8   4  13 3706.26  105.09
   8   4  13 4052.01   90.39
   8   4  13 3982.01  100.84
   8   4  14  139.14   42.20
   8   4  14  132.38   30.34
   8   4  14  107.12   33.67
   8   4  15 1892.16   76.37
   8   4  15 1968.53   62.71
   8   4  15 1967.62   67.22
   8   4  16  718.83   60.60
   8   4  16  779.64   48.54
   8   4  16  731.14   52.22
   8   4  17  614.74   59.59
   8   4  17  637.73   46.29
   8   4  17  659.26   46.62
   8   5 -10   25.36   25.21
   8   5  -9   34.98   33.98
   8   5  -8  -16.44   37.03
   8   5  -8   35.66   27.03
   8   5  -7   52.29   31.17
   8   5  -7   26.01   39.03
   8   5  -6   37.57   30.92
   8   5  -6  -28.01   43.06
   8   5  -5 1394.90   59.49
   8   5  -5 1403.76   66.43
   8   5  -4 1384.91   56.77
   8   5  -4 1365.18   66.71
   8   5  -3 4546.70  108.58
   8   5  -3 4595.41  123.80
   8   5  -2 2235.05   67.77
   8   5  -2 2180.80   80.90
   8   5  -1 2483.57   74.04
   8   5  -1 2486.55   86.64
   8   5   0 1195.38   57.36
   8   5   0 1067.52   60.00
   8   5   1 3210.85   89.04
   8   5   2 2494.58   81.43
   8   5   2 2626.51   71.11
   8   5   3  106.66   32.80
   8   5   3  114.25   28.11
   8   5   4  151.92   31.12
   8   5   4  184.28   29.52
   8   5   5  805.39   52.91
   8   5   5  866.16   43.33
   8   5   614695.74  195.97
   8   5   614996.38  180.17
   8   5   7 3866.26  101.55
   8   5   7 3914.91   86.09
   8   5   8   30.02   31.40
   8   5   8   49.14   28.81
   8   5   9   70.47   36.63
   8   5   9   39.04   32.19
   8   5  10   24.86   37.06
   8   5  11   55.52   42.77
   8   5  11   61.53   29.20
   8   5  12   -1.22   37.89
   8   5  12   -9.15   29.86
   8   5  12  -10.46   29.84
   8   5  13 4195.30  118.56
   8   5  13 4547.79   94.76
   8   5  13 4717.95  102.04
   8   5  14  821.60   55.31
   8   5  14  942.29   49.09
   8   5  14  880.76   47.54
   8   5  15 4994.20  131.11
   8   5  15 5170.08  102.02
   8   5  15 5016.85  119.29
   8   5  16  164.39   37.45
   8   5  16  143.40   33.20
   8   5  16  144.03   38.13
   8   5  17 1857.45   84.06
   8   5  17 1919.12   68.99
   8   5  17 1882.48   68.46
   8   6  -9  384.54   52.11
   8   6  -8  797.66   50.18
   8   6  -8  931.83   59.11
   8   6  -7 1720.94   64.69
   8   6  -7 1816.93   72.22
   8   6  -6 2636.04   81.26
   8   6  -6 2617.14   87.56
   8   6  -5   79.58   34.51
   8   6  -5   69.57   44.30
   8   6  -4  104.99   32.92
   8   6  -4  108.76   42.85
   8   6  -3 6952.34  141.45
   8   6  -3 6956.86  162.23
   8   6  -2  110.12   26.95
   8   6  -2  121.35   43.90
   8   6  -1  289.45   34.77
   8   6  -1  238.47   43.18
   8   6   0    0.21   31.84
   8   6   0   21.23   36.18
   8   6   1 2350.41   71.56
   8   6   1 2226.63   68.67
   8   6   210348.38  164.93
   8   6   210442.53  146.28
   8   6   3 6179.37  125.88
   8   6   3 6097.32  111.08
   8   6   410638.51  167.97
   8   6   410618.62  148.89
   8   6   5   29.46   34.55
   8   6   5   19.04   19.05
   8   6   6 1808.39   72.27
   8   6   6 1868.93   64.39
   8   6   7 2528.90   79.55
   8   6   7 2406.10   73.48
   8   6   8  -13.74   25.47
   8   6   8   -1.95   28.99
   8   6   9  132.48   33.98
   8   6   9  149.75   31.12
   8   6  10   29.35   31.32
   8   6  10   10.41   27.74
   8   6  11 1805.47   72.61
   8   6  11 1725.91   66.18
   8   6  11 1774.66   65.70
   8   6  12   58.93   33.28
   8   6  12   24.55   30.65
   8   6  12   -4.83   29.94
   8   6  13  926.77   58.51
   8   6  13 1042.69   49.07
   8   6  13  967.32   51.66
   8   6  14 4489.11  126.34
   8   6  14 4674.99   92.68
   8   6  14 4690.00  104.38
   8   6  15  456.33   50.44
   8   6  15  460.23   37.21
   8   6  15  488.02   39.66
   8   6  16   47.19   38.32
   8   6  16   20.34   30.74
   8   6  16   24.34   28.47
   8   7  -9 1662.00   64.86
   8   7  -9 1494.02   71.96
   8   7  -8  207.28   36.36
   8   7  -8  228.16   35.89
   8   7  -7 1459.93   60.72
   8   7  -7 1524.22   74.61
   8   7  -6 1521.49   61.87
   8   7  -6 1592.96   68.95
   8   7  -5  694.54   46.92
   8   7  -5  718.43   49.80
   8   7  -4 5776.39  144.92
   8   7  -4 5767.45  156.26
   8   7  -3 1720.37   61.83
   8   7  -3 1624.87   74.52
   8   7  -2 3001.31   77.22
   8   7  -2 2910.02   95.49
   8   7  -1 1222.96   56.39
   8   7  -1 1134.43   65.27
   8   7   0  643.83   45.05
   8   7   0  516.43   59.99
   8   7   1 5566.06  110.22
   8   7   1 5088.27  130.03
   8   7   2  437.65   43.09
   8   7   2  372.93   35.41
   8   7   3 4639.10  111.77
   8   7   3 5016.10   93.90
   8   7   4  445.48   43.90
   8   7   4  496.62   36.00
   8   7   5 7071.72  144.80
   8   7   5 6712.88  108.42
   8   7   6 3558.84   92.71
   8   7   6 3415.68   80.87
   8   7   7  -16.37   34.12
   8   7   7   25.64   27.37
   8   7   8  317.82   37.48
   8   7   8  315.46   34.55
   8   7   9   68.38   27.45
   8   7   9   81.80   30.34
   8   7  10 1057.88   59.89
   8   7  10  986.47   55.85
   8   7  11 4694.97  116.19
   8   7  11 4673.58   92.56
   8   7  11 4569.76  102.77
   8   7  12  585.41   54.61
   8   7  12  707.10   42.12
   8   7  12  591.35   39.30
   8   7  13   59.88   32.36
   8   7  13  102.76   30.14
   8   7  13   89.22   30.41
   8   7  14 2475.02   95.81
   8   7  14 2510.81   71.08
   8   7  14 2615.29   82.54
   8   7  15  247.78   40.47
   8   7  15  273.57   34.27
   8   7  15  294.17   40.49
   8   7  16   84.15   40.93
   8   7  16   66.93   30.70
   8   8  -9   22.73   40.18
   8   8  -8 3311.86   87.68
   8   8  -8 3512.83  101.09
   8   8  -7 2910.16   93.19
   8   8  -7 2850.76   90.74
   8   8  -6 2004.99   69.51
   8   8  -6 2093.69   81.62
   8   8  -5  -26.62   33.38
   8   8  -5   -0.18   41.74
   8   8  -4 7271.40  125.51
   8   8  -4 7073.97  142.57
   8   8  -3  984.04   54.54
   8   8  -3 1029.94   66.33
   8   8  -2 3359.69   82.94
   8   8  -2 3252.55  104.41
   8   8  -1  790.50   49.33
   8   8  -1  674.66   57.88
   8   8   0 6290.98  135.16
   8   8   0 6091.09  156.26
   8   8   1   74.55   26.46
   8   8   1   92.69   49.69
   8   8   2   63.73   25.68
   8   8   2   56.42   46.63
   8   8   3 9551.65  164.33
   8   8   310034.79  136.24
   8   8   4 8572.20  151.11
   8   8   4 8629.31  123.99
   8   8   5  172.91   38.67
   8   8   5  147.92   29.39
   8   8   6  104.75   36.35
   8   8   6  130.84   30.78
   8   8   7  331.34   35.57
   8   8   7  296.58   35.42
   8   8   8  429.99   47.49
   8   8   8  392.75   31.15
   8   8   9    6.54   32.84
   8   8   9   15.64   28.34
   8   8  10  395.66   50.69
   8   8  10  437.95   36.07
   8   8  10  444.86   39.71
   8   8  11 3206.21   96.23
   8   8  11 3521.24   81.19
   8   8  11 3116.04   88.37
   8   8  12   -9.94   38.50
   8   8  12   -8.73   29.10
   8   8  12   11.34   28.81
   8   8  13  137.07   41.20
   8   8  13  145.39   35.82
   8   8  13  123.01   32.31
   8   8  14 1806.09   76.75
   8   8  14 1881.16   63.46
   8   8  14 1813.61   71.35
   8   8  15  129.41   41.25
   8   8  15   75.54   33.36
   8   9  -9  242.80   39.94
   8   9  -8  606.20   50.66
   8   9  -7 2434.40   81.74
   8   9  -7 2582.48   90.50
   8   9  -6 2962.55   90.85
   8   9  -6 3002.81  103.28
   8   9  -5  265.83   42.08
   8   9  -5  304.77   54.48
   8   9  -4 3488.96   87.01
   8   9  -4 3445.02  102.44
   8   9  -3 1842.66   67.13
   8   9  -3 1864.28   83.77
   8   9  -2    6.77   33.65
   8   9  -2   15.65   31.26
   8   9  -1 3209.19  109.07
   8   9  -1 3171.73  111.34
   8   9   0 9606.55  185.30
   8   9   0 8975.24  195.40
   8   9   125773.59  247.95
   8   9   2 1080.80   57.28
   8   9   2 1026.41   71.45
   8   9   3  958.36   53.21
   8   9   4 3292.34   89.70
   8   9   5   20.44   35.04
   8   9   5   29.29   27.92
   8   9   6  848.46   52.81
   8   9   6  819.80   43.41
   8   9   7   86.74   34.77
   8   9   7   76.59   29.71
   8   9   8  990.51   52.22
   8   9   8  975.43   47.88
   8   9   9 3029.25   90.58
   8   9   9 2968.69   79.16
   8   9  10   66.69   42.46
   8   9  10   56.37   24.06
   8   9  10  106.81   32.04
   8   9  11 1029.85   59.53
   8   9  11 1178.71   46.62
   8   9  11 1006.86   53.56
   8   9  12   36.42   36.52
   8   9  12   36.41   29.20
   8   9  12   31.87   31.27
   8   9  13   76.90   39.08
   8   9  13   15.52   31.75
   8   9  14  865.13   53.76
   8   9  14  920.59   49.93
   8   9  15  359.86   45.54
   8   9  15  378.12   37.63
   8  10  -8  115.03   40.14
   8  10  -7  489.87   44.84
   8  10  -7  470.22   52.90
   8  10  -6 2629.49   75.60
   8  10  -6 2698.97  104.09
   8  10  -5  218.60   39.65
   8  10  -5  253.58   40.53
   8  10  -4   11.76   32.94
   8  10  -4   17.50   40.83
   8  10  -3  692.97   48.97
   8  10  -3  681.12   53.91
   8  10  -2  975.28   51.98
   8  10  -2  892.31   67.21
   8  10  -1  136.25   28.33
   8  10  -1  177.55   44.73
   8  10   0  981.05   48.60
   8  10   0 1023.08   70.10
   8  10   1 1548.72   65.62
   8  10   1 1505.40   82.15
   8  10   2 1152.51   57.80
   8  10   2 1070.62   70.75
   8  10   3  378.01   36.35
   8  10   3  424.73   55.87
   8  10   7  282.67   36.49
   8  10   8   20.37   35.52
   8  10   8   -5.00   30.01
   8  10   9  285.31   41.06
   8  10   9  241.54   35.96
   8  10  10    1.58   40.22
   8  10  10   18.62   33.82
   8  10  11 2644.06   88.30
   8  10  11 2678.71   74.95
   8  10  12  337.70   45.98
   8  10  12  336.94   38.28
   8  10  13  124.93   32.57
   8  10  14  276.59   36.76
   8  11  -6 2968.75  108.63
   8  11  -5    6.81   43.75
   8  11  -4   25.93   42.43
   8  11  -3  349.71   48.26
   8  11  -2  343.60   57.14
   8  11  -1   36.67   44.44
   8  11   0   14.61   43.00
   8  11   1   48.47   47.31
   8  11   2   99.07   36.70
   8  11   2  102.64   48.80
   8  11   3  929.53   54.40
   8  11   3  858.01   68.14
   8  11   4   -8.94   28.25
   8  11   4  -20.27   23.87
   8  11   5  -15.78   28.35
   8  11   5   15.62   33.27
   8  11   6   13.91   33.35
   8  11   6   12.47   33.94
   8  11   7  172.41   37.88
   8  11   7  116.65   39.57
   8  11   8 2636.75   81.83
   8  11   8 2629.10   80.62
   8  11   8 2683.34   77.14
   8  11   9  287.25   40.26
   8  11   9  314.02   44.75
   8  11   9  295.55   35.39
   8  11  10  134.71   38.88
   8  11  10  209.53   41.23
   8  11  10  110.99   30.02
   8  11  11  905.02   54.64
   8  11  11 1021.55   55.43
   8  11  11  920.02   46.96
   8  11  12 1380.93   67.67
   8  11  12 1390.78   67.82
   8  11  12 1403.29   55.72
   8  11  13   26.72   40.18
   8  11  13   47.35   35.82
   8  12  -6 3176.13  103.90
   8  12  -6 3204.50  116.78
   8  12  -5   49.38   34.64
   8  12  -5   59.33   33.78
   8  12  -4  699.66   48.76
   8  12  -4  613.13   60.65
   8  12  -3  412.93   41.39
   8  12  -3  438.41   55.12
   8  12  -2 1249.38   59.46
   8  12  -2 1161.71   75.03
   8  12  -1 1935.75   75.13
   8  12  -1 2080.83   72.76
   8  12  -1 2015.76   88.15
   8  12   0   15.28   34.03
   8  12   0   -0.70   32.92
   8  12   0   33.91   44.83
   8  12   1 6669.39  126.24
   8  12   1 6764.62  129.40
   8  12   1 6870.09  162.71
   8  12   2 2412.88   75.40
   8  12   2 2473.84   78.69
   8  12   2 2387.54   95.49
   8  12   3 4018.17  107.07
   8  12   3 4127.66  104.75
   8  12   3 3645.52  113.64
   8  12   4  442.09   44.28
   8  12   4  453.63   80.12
   8  12   4  416.60   63.54
   8  12   5  128.83   45.11
   8  12   5  156.28   38.26
   8  12   6  179.60   41.01
   8  12   6  169.32   30.26
   8  12   7  295.74   40.57
   8  12   7  295.45   40.63
   8  12   8  738.24   53.35
   8  12   8  765.69   53.90
   8  12   9 1168.52   58.41
   8  12   9 1191.16   60.84
   8  12   9 1185.24   53.40
   8  12  10  176.85   42.10
   8  12  10  235.43   48.13
   8  12  10  198.30   37.76
   8  12  11  408.32   50.20
   8  12  11  418.43   47.21
   8  12  11  377.12   43.83
   8  13  -4   46.94   33.79
   8  13  -4   41.49   43.36
   8  13  -3  302.34   42.33
   8  13  -3  259.98   53.35
   8  13  -2  630.30   53.00
   8  13  -2  651.12   45.65
   8  13  -2  634.19   60.18
   8  13  -1  457.05   45.65
   8  13  -1  500.49   44.37
   8  13  -1  447.34   52.22
   8  13   0  584.93   48.91
   8  13   0  629.62   46.27
   8  13   0  568.28   56.29
   8  13   1  699.54   48.08
   8  13   1  767.82   48.92
   8  13   1  745.76   69.15
   8  13   2  442.57   44.75
   8  13   2  422.64   43.47
   8  13   2  398.64   55.59
   8  13   3  822.72   51.12
   8  13   3  820.03   53.07
   8  13   3  686.32   75.32
   8  13   4  742.86   51.23
   8  13   4  790.68   49.71
   8  13   4  786.47   80.61
   8  13   5   41.07   38.00
   8  13   5   47.05   35.33
   8  13   6  595.17  100.44
   8  13   6  556.32   47.67
   8  13   7  598.63   51.05
   8  13   7  576.19   50.55
   8  13   8  184.70   40.15
   8  13   8  226.92   40.80
  -8 -13  -8  198.43   39.89
   8  13   9 1528.93   66.37
   8  13   9 1642.84   78.37
  -8 -13  -9 1525.92   62.10
   8  13  10 2284.06   92.32
   8  13  10 2333.84   85.73
  -8 -13 -10 2110.59   73.90
   8  14  -2 1072.08   55.00
   8  14  -2 1157.06   89.01
   8  14  -1 2943.20  104.73
   8  14  -1 2993.09   87.25
   8  14  -1 2860.43  103.86
   8  14   0  376.80   45.16
   8  14   0  398.06   41.70
   8  14   0  370.66   55.79
   8  14   1  117.00   39.09
   8  14   1  167.63   39.84
   8  14   1  127.66   57.44
   8  14   2  547.94   48.78
   8  14   2  535.79   46.21
   8  14   2  511.53   61.39
   8  14   3   14.87   38.13
   8  14   3    8.71   52.84
   8  14   4 1638.28   83.00
   8  14   4 1662.11   71.58
   8  14   5  578.30   87.19
   8  14   5  569.75  134.70
   8  14   6  211.37   97.58
   8  14   6  208.38   40.18
   8  14   7 1120.91   66.68
   8  14   7 1065.18   58.89
   9  -4  -1  980.22   71.63
   9  -4   0  702.96  110.70
   9  -4   0  625.39   56.55
   9  -4   1 1760.13   70.73
   9  -4   2  201.73   39.02
   9  -4   3 1335.35   57.77
   9  -4   4   72.74   35.79
   9  -4   5 1838.01   67.76
   9  -4   6 2156.73   67.29
   9  -4   7 2743.85   83.84
   9  -4   8  609.52   44.93
   9  -3  -3 1296.13   63.76
   9  -3  -2  611.52   50.40
   9  -3  -1   46.52   36.49
   9  -3   0  268.92   40.95
   9  -3   1   35.76   36.61
   9  -3   1   27.44   35.75
   9  -3   2  206.97   43.03
   9  -3   2  202.80   35.78
   9  -3   3 5370.07  108.83
   9  -3   4  775.59   51.12
   9  -3   5  102.89   36.83
   9  -3   6  -31.98   30.70
   9  -3   7 2240.58   74.26
   9  -3   8 1899.80   69.18
   9  -3   9    6.49   38.18
   9  -3   9   -2.65   31.17
   9  -3  10  176.81   38.49
   9  -3  10  225.70   35.94
   9  -2  -4 1747.79   72.23
   9  -2  -3  780.85   54.62
   9  -2  -2   62.14   36.56
   9  -2  -1 2583.71   78.17
   9  -2   0  206.97   40.37
   9  -2   1  101.52   35.48
   9  -2   1  121.25   35.00
   9  -2   2  385.22   41.46
   9  -2   2  388.21   42.77
   9  -2   3  449.86   43.98
   9  -2   4 4980.87  105.11
   9  -2   5  266.46   39.76
   9  -2   6  665.58   44.97
   9  -2   7   15.30   35.17
   9  -2   8 2325.49   74.08
   9  -2   8 2450.63   74.74
   9  -2   9   74.95   32.93
   9  -2   9   43.27   35.54
   9  -2  10   28.66   38.01
   9  -2  10   11.25   31.92
   9  -2  11  217.06   37.18
   9  -2  11  232.46   37.37
   9  -2  12  549.00   47.39
   9  -1  -5 1956.73   90.87
   9  -1  -4    1.87   39.43
   9  -1  -3 2678.14   85.30
   9  -1  -2 5286.80  114.04
   9  -1  -1  711.34   45.84
   9  -1   0  790.89   51.21
   9  -1   1  394.29   44.77
   9  -1   2  130.81   32.52
   9  -1   3  470.33   40.35
   9  -1   4 6635.22  121.38
   9  -1   511104.92  152.21
   9  -1   6   17.66   31.87
   9  -1   7   13.44   32.78
   9  -1   7   22.67   34.79
   9  -1   8 2443.22   77.16
   9  -1   8 2577.42   70.70
   9  -1   9  254.30   33.14
   9  -1   9  315.60   38.14
   9  -1  10  192.62   36.25
   9  -1  10  174.38   38.69
   9  -1  11   20.28   32.95
   9  -1  11   30.78   34.17
   9  -1  12  180.92   31.20
   9  -1  13  260.86   34.22
   9   0  -6  614.12   54.12
   9   0  -5  777.81   55.47
   9   0  -4   58.12   34.06
   9   0  -3   19.80   35.65
   9   0  -2  998.94   54.94
   9   0  -1 4049.01  110.88
   9   0   3 1631.25   65.09
   9   0   4   86.46   31.67
   9   0   5 1443.00   58.34
   9   0   6 2733.79   78.65
   9   0   6 2827.12   77.72
   9   0   7   75.66   36.97
   9   0   7   98.79   31.38
   9   0   8 3203.19   85.73
   9   0   8 3364.51   81.24
   9   0   9  115.01   31.27
   9   0   9   70.06   31.69
   9   0  10   60.17   32.45
   9   0  10   57.81   26.57
   9   0  11  455.82   42.77
   9   0  11  490.80   43.88
   9   0  12  702.97   46.24
   9   0  13   32.39   32.18
   9   0  14  654.15   41.45
   9   1  -7   55.71   40.88
   9   1  -6  144.10   40.30
   9   1  -5 1399.50   64.13
   9   1  -4   30.68   38.31
   9   1  -3   20.91   33.03
   9   1   4    0.90   30.77
   9   1   5   75.39   34.62
   9   1   6 5627.54  105.97
   9   1   6 5524.08  105.49
   9   1   7 1438.26   60.08
   9   1   7 1407.90   58.58
   9   1   8  -27.00   28.96
   9   1   8   -8.79   33.04
   9   1   9  910.83   51.02
   9   1   9  885.27   47.65
   9   1  10 1794.19   63.48
   9   1  10 1816.54   65.58
   9   1  11 1070.90   58.40
   9   1  12 5557.59  120.56
   9   1  13 2478.38   75.30
   9   2  -6 1363.16   67.49
   9   2  -5 1149.00   62.81
   9   2  -4   29.36   42.93
   9   2   5   18.10   27.95
   9   2   5   21.32   29.52
   9   2   6 2837.45   79.25
   9   2   6 2787.54   72.66
   9   2   7  885.65   50.23
   9   2   7  770.79   45.89
   9   2   8   73.38   33.15
   9   2   8   74.95   32.01
   9   2   9 1023.99   47.11
   9   2   9 1181.27   51.61
   9   2  10  124.04   31.76
   9   2  11 3003.68   83.51
   9   2  12  403.03   39.40
   9   2  13 3154.19   85.12
   9   3  -8 2222.79   83.33
   9   3  -7  390.34   47.45
   9   3  -6  913.26   62.87
   9   3  -5 1160.01   65.78
   9   3  -4   36.33   36.26
   9   3  -3  -11.23   39.89
   9   3   4    9.52   27.25
   9   3   5   12.40   29.09
   9   3   6    6.71   25.91
   9   3   7   86.42   33.49
   9   3   7   69.18   31.80
   9   3   8 2292.48   68.71
   9   3   8 2357.68   69.65
   9   3   9   59.62   23.06
   9   3  10 1869.49   64.96
   9   3  11  754.34   46.87
   9   3  12 1008.80   53.43
   9   3  14  414.98   38.33
   9   3  15  318.84   34.24
   9   4  -8  525.70   50.18
   9   4  -7 1522.20   70.74
   9   4  -6  130.80   37.14
   9   4  -5  513.30   53.90
   9   4  -4    4.23   35.57
   9   4  -3   23.62   35.96
   9   4   4 1748.09   65.39
   9   4   5  194.35   31.04
   9   4   6    5.22   27.88
   9   4   7  146.52   33.25
   9   4   8    4.92   25.40
   9   4   9   53.48   31.01
   9   4  10 2990.09   82.52
   9   4  11 8281.24  123.17
   9   4  12   81.59   29.88
   9   4  14 3569.01   86.90
   9   4  15  811.12   45.25
   9   5  -8   59.21   32.57
   9   5  -7 3544.31  110.98
   9   5  -6  521.98   47.12
   9   5  -5   18.38   31.53
   9   5  -4  121.83   40.97
   9   5  -3  228.29   41.27
   9   5  -2 4772.86  112.50
   9   5   2  151.60   38.98
   9   5   3   12.85   33.39
   9   5   3   -1.23   26.96
   9   5   4 2722.84   86.15
   9   5   4 2664.10   71.60
   9   5   5   18.02   34.79
   9   5   5    7.07   26.68
   9   5   6  281.10   42.36
   9   5   6  323.68   32.97
   9   5   7 1286.00   63.82
   9   5   7 1280.36   53.71
   9   5   8   15.25   34.41
   9   5   8    3.17   31.82
   9   5   9   39.99   35.13
   9   5   9   58.27   28.19
   9   5  10  112.24   40.79
   9   5  10  105.74   34.25
   9   5  11  365.59   47.09
   9   5  11  326.10   34.90
   9   5  12 1116.06   64.11
   9   5  13  623.13   56.05
   9   5  13  623.97   42.12
   9   5  14 1143.76   51.56
   9   5  15  293.16   40.32
   9   6  -8   26.48   35.42
   9   6  -7  242.93   41.11
   9   6  -6  646.01   54.99
   9   6  -5  -26.51   37.03
   9   6  -4 1707.67   65.84
   9   6  -4 1672.67   76.82
   9   6  -3  363.76   41.96
   9   6  -3  401.93   47.90
   9   6  -2 1351.71   57.93
   9   6  -2 1253.56   66.98
   9   6  -1 4201.30   98.21
   9   6  -1 3943.26  120.12
   9   6   0 1093.95   55.67
   9   6   1 7835.36  180.21
   9   6   2  102.87   32.15
   9   6   3 2550.48   80.09
   9   6   3 2757.17   75.96
   9   6   4  508.25   41.42
   9   6   4  511.76   36.93
   9   6   5   49.82   34.05
   9   6   5   46.78   27.57
   9   6   6   -6.62   35.65
   9   6   6  -13.59   25.42
   9   6   7  612.51   47.29
   9   6   7  566.00   38.44
   9   6   8  213.74   42.66
   9   6   8  174.02   30.25
   9   6   9   32.23   35.49
   9   6   9   20.92   29.51
   9   6  10  463.13   46.07
   9   6  10  489.26   39.48
   9   6  11   45.33   38.65
   9   6  11   15.38   26.76
   9   6  12 1326.83   66.99
   9   6  13   28.43   33.88
   9   6  13   53.16   24.90
   9   6  14    8.24   47.35
   9   6  14  -10.16   29.46
   9   7  -7  127.41   44.21
   9   7  -7  151.85   39.75
   9   7  -6 1708.29   69.02
   9   7  -6 1704.57   80.21
   9   7  -5  323.42   43.55
   9   7  -5  318.83   49.99
   9   7  -4   11.63   33.10
   9   7  -4   51.98   38.86
   9   7  -3 4042.49  100.14
   9   7  -3 3918.81  103.30
   9   7  -2 1472.37   58.67
   9   7  -2 1366.91   71.05
   9   7  -1   40.23   37.66
   9   7  -1  -21.56   42.38
   9   7   0  957.42   51.47
   9   7   112475.67  164.87
   9   7   2  107.16   31.28
   9   7   3  361.26   33.56
   9   7   4  173.37   38.26
   9   7   4  190.78   31.14
   9   7   5  330.47   40.24
   9   7   5  319.21   33.34
   9   7   6  629.87   45.72
   9   7   6  580.56   42.86
   9   7   7  532.23   45.40
   9   7   7  531.64   38.63
   9   7   8 5474.53  128.98
   9   7   8 5269.45  107.81
   9   7   9 1403.02   69.56
   9   7   9 1336.45   50.01
   9   7  10  286.61   41.72
   9   7  10  254.27   33.57
   9   7  11  716.13   54.10
   9   7  12   58.10   38.32
   9   7  13    8.88   39.06
   9   7  13    9.61   25.59
   9   7  14 1610.85   75.51
   9   7  14 1666.17   66.02
   9   8  -7   -7.94   34.48
   9   8  -7   26.66   39.84
   9   8  -6  379.84   44.00
   9   8  -6  407.88   45.61
   9   8  -5  644.01   48.20
   9   8  -5  608.28   50.12
   9   8  -4  276.08   37.12
   9   8  -4  267.39   45.18
   9   8  -3  516.18   42.76
   9   8  -3  558.39   50.37
   9   8  -2   61.42   35.20
   9   8  -2   56.75   37.52
   9   8  -1 4489.02  103.59
   9   8  -1 4149.40  116.12
   9   8   0 1269.89   58.71
   9   8   0 1159.44   71.80
   9   8   1 4234.45  103.97
   9   8   2 1048.87   54.60
   9   8   3 2051.23   67.43
   9   8   4  112.05   35.50
   9   8   5  460.63   44.53
   9   8   5  520.09   37.20
   9   8   6 1059.37   58.71
   9   8   6 1104.39   50.86
   9   8   7   70.59   32.44
   9   8   7   67.09   21.90
   9   8   8  776.57   52.53
   9   8   8  742.40   43.13
   9   8   9 1810.83   79.39
   9   8   9 1766.55   56.77
   9   8  10   27.16   27.81
   9   8  10    5.21   26.00
   9   8  11  755.54   53.17
   9   8  12   -9.09   36.11
   9   8  12   14.41   28.08
   9   8  13  309.51   44.52
   9   8  13  312.49   35.94
   9   9  -6   37.01   37.34
   9   9  -6    2.34   38.38
   9   9  -5   60.76   32.95
   9   9  -5   56.40   36.59
   9   9  -4  135.49   35.65
   9   9  -4  148.34   44.98
   9   9  -3   57.27   33.43
   9   9  -3   36.57   40.07
   9   9  -2  532.81   46.01
   9   9  -2  533.99   55.99
   9   9  -1  921.37   50.93
   9   9  -1  790.62   58.22
   9   9   0  783.38   44.98
   9   9   0  639.98   60.09
   9   9   1 1038.24   53.56
   9   9   2 3880.02   99.63
   9   9   3  223.43   32.97
   9   9   4  919.62   55.36
   9   9   5  -17.13   33.40
   9   9   6 3270.68  129.09
   9   9   7  410.37   44.06
   9   9   8  112.89   37.63
   9   9   9  255.82   38.55
   9   9  10  -14.62   31.58
   9   9  11    5.40   35.12
   9   9  12    8.53   31.58
   9   9  13  344.34   50.48
   9  10  -5   67.80   39.98
   9  10  -5   37.59   39.84
   9  10  -4  316.56   39.05
   9  10  -4  310.91   52.72
   9  10  -3   38.42   33.50
   9  10  -3   61.49   50.97
   9  10  -2  280.38   41.87
   9  10  -2  271.24   49.06
   9  10  -1  206.70   38.94
   9  10  -1  209.41   51.87
   9  10   0   31.81   36.31
   9  10   0   11.06   48.64
   9  10   1  509.91   46.54
   9  10   1  379.35   59.19
   9  10   2 1928.04   64.11
   9  10   3   39.17   35.84
   9  10   4  120.09   39.68
   9  10   5  836.49   52.49
   9  10   6  662.25   47.80
   9  10   7 2666.00   84.16
   9  10   8  234.07   39.89
   9  10   9 2679.97   86.58
   9  10  10  580.16   48.38
   9  10  11  769.75   52.89
   9  10  12   53.16   39.64
   9  11  -4   86.68   34.89
   9  11  -4   80.37   46.23
   9  11  -3   59.64   33.99
   9  11  -3   61.58   41.94
   9  11  -2   59.79   37.18
   9  11  -2   62.35   44.71
   9  11  -1  229.29   40.97
   9  11  -1  212.03   46.35
   9  11   0   88.63   36.91
   9  11   0   94.22   53.32
   9  11   1 2657.95   82.21
   9  11   1 2470.60  100.62
   9  11   2 1587.34   65.88
   9  11   3  430.94   41.53
   9  11   4  108.73   36.10
   9  11   5   85.13   36.92
   9  11   6  661.43   47.43
   9  11   7  884.97   53.02
   9  12  -2 1364.34   86.43
   9  12  -1  120.80   50.08
   9  12   0  787.44   72.02
   9  12   1    7.19   51.90
   9  12   8  990.49   55.36
   9  12   9   84.81   40.50
   9  13   1  759.00   52.53
   9  13   2 1295.39   62.82
   9  13   3  414.53   42.92
   9  13   4  927.18   53.02
   9  13   5  257.37   48.22
   9  13   6  180.92   40.69
  10  -1   5  505.76   46.89
  10  -1   6  209.41   41.92
  10  -1   7  672.85   45.91
  10  -1   8 1544.87   60.21
  10   0   6  356.28   45.02
  10   0   7  708.28   50.40
  10   0   8  366.91   40.17
  10   0   9  812.46   54.11
  10   1   7 1076.35   57.38
  10   1   8  237.08   39.92
  10   1   9   32.45   36.12
  10   1  10  351.83   45.40
  10   2   7 2835.34   81.61
  10   2   8  392.24   39.53
  10   2   9   35.78   30.58
  10   2  10 1810.09   64.34
  10   2  11 1483.52   69.45
  10   3   7 3233.04   85.33
  10   3   8 5371.72  107.04
  10   3   9  664.57   43.67
  10   3  10   16.59   26.84
  10   3  11  616.53   40.59
  10   3  12  711.95   47.40
  10   4   6 7771.17  134.24
  10   4   7   63.86   31.40
  10   4   8 2163.73   72.18
  10   4   9  412.06   39.03
  10   4  10   15.10   31.01
  10   4  11  421.55   36.32
  10   4  12  138.60   33.46
  10   5   6  234.11   37.80
  10   5   7  686.02   44.40
  10   5   8 3747.72   91.88
  10   5   9 2567.51   76.35
  10   5  10 4029.17   94.09
  10   5  11  925.34   51.76
  10   5  12  157.03   30.01
  10   6   6  423.43   37.23
  10   6   7 2483.78   71.97
  10   6   8  826.12   46.27
  10   6   9   60.47   26.70
  10   6  10  595.15   40.92
  10   6  11  257.25   33.55
  10   6  12    8.28   31.47
  10   7   1  339.00   43.96
  10   7   2 1928.84   70.52
  10   7   3  740.08   54.62
  10   7   4  584.52   64.87
  10   7   5 2346.54   87.09
  10   7   6  259.34  140.48
  10   7   7  560.19   87.63
  10   7   7  630.17   40.28
  10   7   8   92.03   48.56
  10   7   8   71.05   28.76
  10   7   9  438.35   51.06
  10   7   9  403.24   37.79
  10   7  10  426.81   52.89
  10   7  10  511.46   40.16
  10   7  11  421.31   54.52
  10   7  11  481.52   41.85
  10   8  -2 2004.28   74.30
  10   8  -1   86.05   38.16
  10   8   0 1422.15   65.14
  10   8   1   67.83   35.58
  10   8   2  341.52   44.41
  10   8   3  588.98   46.47
  10   8   4  144.12   38.92
  10   8   5 5267.55  117.10
  10   8   6 3463.89  105.87
  10   8   7   66.88   36.32
  10   8   8   67.31   39.39
  10   8   9   15.59   40.08
  10   8  10  -13.81   42.36
  10   9  -2 2332.47   94.89
  10   9  -1 1296.82   61.23
  10   9   0  521.15   44.54
  10   9   1  752.68   49.11
  10   9   2  607.71   44.03
  10   9   3 1550.74   61.73
  10   9   4  599.33   47.62
  10   9   5  508.87  106.69
  10   9   6 2371.01   80.87
  10   9   8  113.94   35.66
  10   9   9  175.27   44.35
  10  10  -1  857.16   55.49
  10  10   0 2875.31   90.10
  10  10   1  153.34   40.75
  10  10   2  102.12   33.20
  10  10   3  628.40   47.74
  10  10   4 2417.77   81.92
  10  10   6 1975.72   74.51
  10  10   8  599.55   47.62
  10  11   2 1099.60   57.45
  10  11   3  260.67   97.25
  10  11   4 1858.75   69.84
  10  11   5  493.75   77.20
   0   0   0    0.00    0.00
;
_shelx_hkl_checksum              53766
loop_
_space_group_symop_operation_xyz
'x, y, z'
'-x, -y, -z'
loop_
_atom_site_label
_atom_site_type_symbol
_atom_site_fract_x
_atom_site_fract_y
_atom_site_fract_z
_atom_site_U_iso_or_equiv
_atom_site_adp_type
_atom_site_occupancy
_atom_site_site_symmetry_order
_atom_site_calc_flag
_atom_site_refinement_flags_posn
_atom_site_refinement_flags_adp
C1 C -0.42406(16) -0.19243(10) 0.86354(8) 0.0204(3) Uani 1 1 d . .
C2 C -0.38129(16) -0.23537(10) 0.78802(8) 0.0193(3) Uani 1 1 d . .
C3 C -0.28169(18) -0.33344(11) 0.77218(8) 0.0258(3) Uani 1 1 d . .
H3 H -0.2536 -0.3596 0.7213 0.031 Uiso 1 1 calc R U
C4 C -0.2234(2) -0.39304(12) 0.83126(9) 0.0340(4) Uani 1 1 d . .
C5 C -0.2654(2) -0.35030(12) 0.90624(9) 0.0349(4) Uani 1 1 d . .
H4 H -0.2268 -0.3884 0.9465 0.042 Uiso 1 1 calc R U
C6 C -0.36305(19) -0.25260(11) 0.92224(8) 0.0280(3) Uani 1 1 d . .
H5 H -0.3887 -0.2263 0.9730 0.034 Uiso 1 1 calc R U
C7 C -0.1169(3) -0.50009(14) 0.81412(11) 0.0585(6) Uani 1 1 d . .
H6 H -0.0088 -0.5004 0.8006 0.088 Uiso 1 1 calc R U
H7 H -0.1434 -0.5284 0.7714 0.088 Uiso 1 1 calc R U
H8 H -0.1309 -0.5394 0.8595 0.088 Uiso 1 1 calc R U
C8 C -0.52444(16) -0.08600(10) 0.88217(7) 0.0191(3) Uani 1 1 d . .
C9 C -0.48032(17) -0.01225(10) 0.84180(7) 0.0196(3) Uani 1 1 d . .
H1 H -0.3842 -0.0319 0.8066 0.024 Uiso 1 1 calc R U
C10 C -0.66164(16) -0.07036(10) 0.94856(7) 0.0194(3) Uani 1 1 d . .
C11 C -0.70639(17) 0.01083(10) 1.00204(7) 0.0214(3) Uani 1 1 d . .
H9 H -0.6534 0.0590 0.9946 0.026 Uiso 1 1 calc R U
C12 C -0.82857(18) 0.02033(12) 1.06593(8) 0.0262(3) Uani 1 1 d . .
H10 H -0.8571 0.0748 1.1008 0.031 Uiso 1 1 calc R U
C13 C -0.90848(18) -0.05082(12) 1.07817(8) 0.0294(3) Uani 1 1 d . .
H11 H -0.9902 -0.0443 1.1212 0.035 Uiso 1 1 calc R U
C14 C -0.86576(18) -0.13166(12) 1.02589(9) 0.0288(3) Uani 1 1 d . .
H12 H -0.9194 -0.1794 1.0337 0.035 Uiso 1 1 calc R U
C15 C -0.74324(17) -0.14154(11) 0.96199(8) 0.0242(3) Uani 1 1 d . .
H13 H -0.7149 -0.1964 0.9275 0.029 Uiso 1 1 calc R U
C16 C -0.56793(17) 0.09675(10) 0.84718(7) 0.0194(3) Uani 1 1 d . .
C17 C -0.72114(18) 0.13207(11) 0.83320(8) 0.0258(3) Uani 1 1 d . .
H14 H -0.7700 0.0867 0.8207 0.031 Uiso 1 1 calc R U
C18 C -0.8012(2) 0.23441(12) 0.83780(9) 0.0326(4) Uani 1 1 d . .
H15 H -0.9032 0.2571 0.8282 0.039 Uiso 1 1 calc R U
C19 C -0.7300(2) 0.30302(11) 0.85663(9) 0.0320(4) Uani 1 1 d . .
H16 H -0.7843 0.3715 0.8605 0.038 Uiso 1 1 calc R U
C20 C -0.5776(2) 0.26868(11) 0.86953(8) 0.0284(3) Uani 1 1 d . .
H17 H -0.5293 0.3144 0.8820 0.034 Uiso 1 1 calc R U
C21 C -0.49589(18) 0.16663(11) 0.86402(7) 0.0229(3) Uani 1 1 d . .
H18 H -0.3924 0.1446 0.8716 0.028 Uiso 1 1 calc R U
C22 C -0.47542(19) 0.02725(10) 0.62617(8) 0.0246(3) Uani 1 1 d . .
H37 H -0.4006 0.0489 0.6473 0.037 Uiso 1 1 calc R U
H38 H -0.5119 0.0725 0.5868 0.037 Uiso 1 1 calc R U
H39 H -0.5635 0.0270 0.6670 0.037 Uiso 1 1 calc R U
O3 O -0.23453(12) -0.10088(8) 0.53673(5) 0.0264(2) Uani 1 1 d . .
O4 O -0.49613(12) -0.12640(7) 0.55351(5) 0.0241(2) Uani 1 1 d . .
C25 C -0.44967(16) -0.17653(9) 0.72336(7) 0.0169(3) Uani 1 1 d . .
N1 N -0.33929(13) -0.16542(8) 0.66041(6) 0.0169(2) Uani 1 1 d . .
H35 H -0.2414 -0.1967 0.6598 0.020 Uiso 1 1 calc R U
O1 O -0.59114(11) -0.14132(7) 0.72592(5) 0.0228(2) Uani 1 1 d . .
S1 S -0.38458(4) -0.09449(2) 0.58492(2) 0.01773(9) Uani 1 1 d . .
C26 C -0.29194(16) 0.38981(10) 0.31872(8) 0.0193(3) Uani 1 1 d . .
C27 C -0.19736(16) 0.31442(10) 0.26359(8) 0.0186(3) Uani 1 1 d . .
C28 C -0.20721(18) 0.32293(10) 0.18500(8) 0.0232(3) Uani 1 1 d . .
H19 H -0.1429 0.2719 0.1494 0.028 Uiso 1 1 calc R U
C29 C -0.3118(2) 0.40667(11) 0.15927(8) 0.0275(3) Uani 1 1 d . .
C30 C -0.40717(19) 0.48107(11) 0.21452(9) 0.0289(3) Uani 1 1 d . .
H20 H -0.4797 0.5370 0.1987 0.035 Uiso 1 1 calc R U
C31 C -0.39649(18) 0.47379(10) 0.29213(8) 0.0254(3) Uani 1 1 d . .
H21 H -0.4599 0.5256 0.3273 0.030 Uiso 1 1 calc R U
C32 C -0.3230(2) 0.41740(13) 0.07430(9) 0.0413(4) Uani 1 1 d . .
H22 H -0.4102 0.3967 0.0658 0.062 Uiso 1 1 calc R U
H23 H -0.2269 0.3759 0.0426 0.062 Uiso 1 1 calc R U
H24 H -0.3390 0.4864 0.0605 0.062 Uiso 1 1 calc R U
C33 C -0.28478(16) 0.38123(10) 0.40324(8) 0.0183(3) Uani 1 1 d . .
C34 C -0.32516(16) 0.30606(10) 0.44315(8) 0.0188(3) Uani 1 1 d . .
H2 H -0.3653 0.2658 0.4171 0.023 Uiso 1 1 calc R U
C35 C -0.23940(16) 0.46207(10) 0.43726(8) 0.0201(3) Uani 1 1 d . .
C36 C -0.12750(18) 0.50223(11) 0.39281(9) 0.0274(3) Uani 1 1 d . .
H25 H -0.0781 0.4762 0.3427 0.033 Uiso 1 1 calc R U
C37 C -0.0894(2) 0.58047(12) 0.42249(10) 0.0336(4) Uani 1 1 d . .
H26 H -0.0133 0.6057 0.3926 0.040 Uiso 1 1 calc R U
C38 C -0.16386(19) 0.62134(11) 0.49638(10) 0.0328(4) Uani 1 1 d . .
H27 H -0.1391 0.6744 0.5159 0.039 Uiso 1 1 calc R U
C39 C -0.27546(18) 0.58260(11) 0.54093(9) 0.0278(3) Uani 1 1 d . .
H28 H -0.3257 0.6097 0.5906 0.033 Uiso 1 1 calc R U
C40 C -0.31270(17) 0.50367(10) 0.51187(8) 0.0216(3) Uani 1 1 d . .
H29 H -0.3875 0.4780 0.5425 0.026 Uiso 1 1 calc R U
C41 C -0.31145(17) 0.28156(9) 0.52489(8) 0.0192(3) Uani 1 1 d . .
C42 C -0.44247(17) 0.27742(10) 0.58099(8) 0.0213(3) Uani 1 1 d . .
H30 H -0.5399 0.2887 0.5670 0.026 Uiso 1 1 calc R U
C43 C -0.42758(19) 0.25638(10) 0.65783(8) 0.0250(3) Uani 1 1 d . .
H31 H -0.5158 0.2554 0.6952 0.030 Uiso 1 1 calc R U
C44 C -0.28256(19) 0.23688(10) 0.67898(8) 0.0267(3) Uani 1 1 d . .
H32 H -0.2733 0.2229 0.7304 0.032 Uiso 1 1 calc R U
C45 C -0.15106(19) 0.23826(10) 0.62311(9) 0.0269(3) Uani 1 1 d . .
H33 H -0.0530 0.2242 0.6369 0.032 Uiso 1 1 calc R U
C46 C -0.16560(18) 0.26065(10) 0.54671(8) 0.0229(3) Uani 1 1 d . .
H34 H -0.0770 0.2617 0.5096 0.027 Uiso 1 1 calc R U
C47 C -0.07979(16) 0.22518(10) 0.28931(7) 0.0177(3) Uani 1 1 d . .
C48 C -0.07127(18) 0.03772(11) 0.40763(8) 0.0235(3) Uani 1 1 d . .
H40 H -0.1824 0.0457 0.4203 0.035 Uiso 1 1 calc R U
H41 H -0.0153 -0.0211 0.4318 0.035 Uiso 1 1 calc R U
H42 H -0.0522 0.0959 0.4263 0.035 Uiso 1 1 calc R U
O5 O 0.15987(11) 0.01247(7) 0.28720(5) 0.0226(2) Uani 1 1 d . .
O6 O -0.06584(12) -0.04653(7) 0.27599(5) 0.0226(2) Uani 1 1 d . .
N2 N -0.10015(13) 0.13445(8) 0.27267(6) 0.0179(2) Uani 1 1 d . .
H36 H -0.1657 0.1347 0.2433 0.021 Uiso 1 1 calc R U
O2 O 0.02303(11) 0.23237(7) 0.32212(6) 0.0223(2) Uani 1 1 d . .
S2 S -0.00523(4) 0.02432(2) 0.30616(2) 0.01618(9) Uani 1 1 d . .
loop_
_atom_site_aniso_label
_atom_site_aniso_U_11
_atom_site_aniso_U_22
_atom_site_aniso_U_33
_atom_site_aniso_U_23
_atom_site_aniso_U_13
_atom_site_aniso_U_12
C1 0.0179(7) 0.0247(7) 0.0184(6) 0.0056(5) -0.0019(5) -0.0077(6)
C2 0.0165(7) 0.0227(7) 0.0182(6) 0.0058(5) -0.0017(5) -0.0071(5)
C3 0.0256(8) 0.0258(7) 0.0203(7) 0.0046(5) 0.0002(6) -0.0030(6)
C4 0.0329(9) 0.0287(8) 0.0276(8) 0.0094(6) 0.0012(7) 0.0039(7)
C5 0.0347(10) 0.0368(9) 0.0241(7) 0.0156(6) -0.0054(7) 0.0005(7)
C6 0.0305(9) 0.0322(8) 0.0175(7) 0.0063(6) -0.0033(6) -0.0057(7)
C7 0.0696(15) 0.0379(10) 0.0353(10) 0.0141(8) 0.0034(9) 0.0209(10)
C8 0.0186(7) 0.0241(7) 0.0155(6) 0.0023(5) -0.0057(5) -0.0068(6)
C9 0.0184(7) 0.0263(7) 0.0150(6) 0.0012(5) -0.0027(5) -0.0087(6)
C10 0.0174(7) 0.0244(7) 0.0161(6) 0.0060(5) -0.0056(5) -0.0051(5)
C11 0.0201(8) 0.0273(7) 0.0171(6) 0.0041(5) -0.0058(5) -0.0069(6)
C12 0.0220(8) 0.0363(8) 0.0171(6) 0.0009(6) -0.0049(6) -0.0035(6)
C13 0.0184(8) 0.0485(9) 0.0189(7) 0.0084(6) -0.0019(6) -0.0088(7)
C14 0.0234(8) 0.0401(9) 0.0273(7) 0.0120(6) -0.0066(6) -0.0162(7)
C15 0.0244(8) 0.0282(7) 0.0220(7) 0.0051(6) -0.0065(6) -0.0100(6)
C16 0.0217(8) 0.0244(7) 0.0124(6) 0.0041(5) -0.0012(5) -0.0092(6)
C17 0.0228(8) 0.0304(8) 0.0262(7) 0.0051(6) -0.0045(6) -0.0118(6)
C18 0.0234(8) 0.0344(8) 0.0356(8) 0.0097(7) -0.0044(7) -0.0041(7)
C19 0.0387(10) 0.0234(7) 0.0279(8) 0.0058(6) -0.0020(7) -0.0041(7)
C20 0.0442(10) 0.0257(7) 0.0201(7) 0.0064(5) -0.0090(6) -0.0166(7)
C21 0.0269(8) 0.0284(7) 0.0169(6) 0.0077(5) -0.0074(6) -0.0123(6)
C22 0.0347(9) 0.0196(7) 0.0233(7) 0.0043(5) -0.0130(6) -0.0094(6)
O3 0.0286(6) 0.0352(6) 0.0173(5) 0.0060(4) -0.0017(4) -0.0150(5)
O4 0.0307(6) 0.0263(5) 0.0219(5) 0.0042(4) -0.0133(4) -0.0137(4)
C25 0.0177(7) 0.0166(6) 0.0174(6) 0.0006(5) -0.0032(5) -0.0066(5)
N1 0.0144(6) 0.0199(5) 0.0160(5) 0.0036(4) -0.0041(4) -0.0042(4)
O1 0.0146(5) 0.0287(5) 0.0255(5) 0.0044(4) -0.0047(4) -0.0073(4)
S1 0.02236(19) 0.01993(16) 0.01405(15) 0.00374(11) -0.00656(12) -0.00948(13)
C26 0.0193(7) 0.0179(6) 0.0222(7) 0.0034(5) -0.0025(5) -0.0093(5)
C27 0.0176(7) 0.0180(6) 0.0227(7) 0.0028(5) -0.0041(5) -0.0091(5)
C28 0.0280(8) 0.0208(7) 0.0220(7) 0.0008(5) -0.0046(6) -0.0095(6)
C29 0.0378(9) 0.0241(7) 0.0253(7) 0.0075(6) -0.0109(6) -0.0139(6)
C30 0.0352(9) 0.0186(7) 0.0328(8) 0.0102(6) -0.0116(7) -0.0061(6)
C31 0.0293(8) 0.0170(6) 0.0274(7) 0.0033(5) -0.0032(6) -0.0055(6)
C32 0.0652(13) 0.0313(8) 0.0295(8) 0.0098(7) -0.0195(8) -0.0123(8)
C33 0.0146(7) 0.0170(6) 0.0211(6) 0.0004(5) -0.0012(5) -0.0033(5)
C34 0.0174(7) 0.0170(6) 0.0209(6) -0.0018(5) -0.0015(5) -0.0049(5)
C35 0.0182(7) 0.0162(6) 0.0257(7) 0.0034(5) -0.0063(5) -0.0042(5)
C36 0.0245(8) 0.0255(7) 0.0323(8) 0.0032(6) -0.0023(6) -0.0104(6)
C37 0.0276(9) 0.0283(8) 0.0498(10) 0.0056(7) -0.0071(7) -0.0168(7)
C38 0.0275(9) 0.0229(7) 0.0525(10) -0.0038(7) -0.0145(7) -0.0096(6)
C39 0.0241(8) 0.0238(7) 0.0356(8) -0.0051(6) -0.0106(6) -0.0040(6)
C40 0.0182(7) 0.0193(7) 0.0273(7) 0.0014(5) -0.0063(6) -0.0049(5)
C41 0.0238(8) 0.0127(6) 0.0209(6) -0.0002(5) -0.0025(5) -0.0066(5)
C42 0.0233(8) 0.0164(6) 0.0239(7) 0.0010(5) -0.0024(6) -0.0071(5)
C43 0.0325(9) 0.0185(7) 0.0213(7) 0.0008(5) 0.0019(6) -0.0087(6)
C44 0.0410(10) 0.0193(7) 0.0218(7) 0.0039(5) -0.0092(6) -0.0106(6)
C45 0.0311(9) 0.0208(7) 0.0328(8) 0.0044(6) -0.0135(6) -0.0095(6)
C46 0.0227(8) 0.0196(7) 0.0266(7) 0.0027(5) -0.0026(6) -0.0085(6)
C47 0.0147(7) 0.0213(6) 0.0158(6) 0.0002(5) 0.0011(5) -0.0064(5)
C48 0.0284(8) 0.0266(7) 0.0165(6) 0.0017(5) -0.0012(6) -0.0122(6)
O5 0.0156(5) 0.0255(5) 0.0243(5) 0.0037(4) -0.0025(4) -0.0038(4)
O6 0.0266(6) 0.0193(5) 0.0242(5) -0.0003(4) -0.0086(4) -0.0078(4)
N2 0.0161(6) 0.0185(5) 0.0201(5) 0.0013(4) -0.0071(4) -0.0047(4)
O2 0.0168(5) 0.0238(5) 0.0281(5) -0.0011(4) -0.0061(4) -0.0074(4)
S2 0.01581(18) 0.01727(16) 0.01518(15) 0.00097(11) -0.00274(12) -0.00490(12)
loop_
_atom_type_symbol
_atom_type_description
_atom_type_scat_dispersion_real
_atom_type_scat_dispersion_imag
_atom_type_scat_source
C C 0.0181 0.0091 'International Tables Vol C Tables 4.2.6.8 and 6.1.1.4'
H H 0.0000 0.0000 'International Tables Vol C Tables 4.2.6.8 and 6.1.1.4'
N N 0.0311 0.0180 'International Tables Vol C Tables 4.2.6.8 and 6.1.1.4'
O O 0.0492 0.0322 'International Tables Vol C Tables 4.2.6.8 and 6.1.1.4'
S S 0.3331 0.5567 'International Tables Vol C Tables 4.2.6.8 and 6.1.1.4'
loop_
_geom_angle_atom_site_label_1
_geom_angle_atom_site_label_2
_geom_angle_atom_site_label_3
_geom_angle
C6 C1 C2 117.12(13)
C6 C1 C8 119.98(12)
C2 C1 C8 122.85(12)
C3 C2 C1 121.28(12)
C3 C2 C25 119.05(12)
C1 C2 C25 119.62(12)
C2 C3 C4 121.08(13)
C2 C3 H3 119.5
C4 C3 H3 119.5
C5 C4 C3 117.67(14)
C5 C4 C7 121.31(14)
C3 C4 C7 121.01(15)
C6 C5 C4 121.53(14)
C6 C5 H4 119.2
C4 C5 H4 119.2
C5 C6 C1 121.31(14)
C5 C6 H5 119.3
C1 C6 H5 119.3
C4 C7 H6 109.5
C4 C7 H7 109.5
H6 C7 H7 109.5
C4 C7 H8 109.5
H6 C7 H8 109.5
H7 C7 H8 109.5
C9 C8 C10 125.23(13)
C9 C8 C1 118.62(12)
C10 C8 C1 116.03(11)
C8 C9 C16 127.24(13)
C8 C9 H1 116.4
C16 C9 H1 116.4
C15 C10 C11 117.95(13)
C15 C10 C8 119.93(12)
C11 C10 C8 121.98(12)
C12 C11 C10 120.81(14)
C12 C11 H9 119.6
C10 C11 H9 119.6
C13 C12 C11 120.44(14)
C13 C12 H10 119.8
C11 C12 H10 119.8
C14 C13 C12 119.55(14)
C14 C13 H11 120.2
C12 C13 H11 120.2
C13 C14 C15 120.17(14)
C13 C14 H12 119.9
C15 C14 H12 119.9
C14 C15 C10 121.09(14)
C14 C15 H13 119.5
C10 C15 H13 119.5
C17 C16 C21 118.59(13)
C17 C16 C9 121.16(13)
C21 C16 C9 120.22(13)
C18 C17 C16 120.53(14)
C18 C17 H14 119.7
C16 C17 H14 119.7
C17 C18 C19 120.37(15)
C17 C18 H15 119.8
C19 C18 H15 119.8
C20 C19 C18 119.39(14)
C20 C19 H16 120.3
C18 C19 H16 120.3
C19 C20 C21 120.64(14)
C19 C20 H17 119.7
C21 C20 H17 119.7
C20 C21 C16 120.44(14)
C20 C21 H18 119.8
C16 C21 H18 119.8
S1 C22 H37 109.5
S1 C22 H38 109.5
H37 C22 H38 109.5
S1 C22 H39 109.5
H37 C22 H39 109.5
H38 C22 H39 109.5
O1 C25 N1 122.26(12)
O1 C25 C2 123.32(12)
N1 C25 C2 114.42(11)
C25 N1 S1 123.59(9)
C25 N1 H35 118.2
S1 N1 H35 118.2
O4 S1 O3 119.21(6)
O4 S1 N1 108.82(6)
O3 S1 N1 103.96(6)
O4 S1 C22 109.32(7)
O3 S1 C22 110.22(7)
N1 S1 C22 104.14(6)
C31 C26 C27 117.49(12)
C31 C26 C33 120.65(12)
C27 C26 C33 121.86(12)
C28 C27 C26 121.13(13)
C28 C27 C47 119.79(12)
C26 C27 C47 119.04(12)
C29 C28 C27 120.88(13)
C29 C28 H19 119.6
C27 C28 H19 119.6
C28 C29 C30 117.82(13)
C28 C29 C32 121.52(14)
C30 C29 C32 120.65(14)
C31 C30 C29 121.59(14)
C31 C30 H20 119.2
C29 C30 H20 119.2
C30 C31 C26 121.07(14)
C30 C31 H21 119.5
C26 C31 H21 119.5
C29 C32 H22 109.5
C29 C32 H23 109.5
H22 C32 H23 109.5
C29 C32 H24 109.5
H22 C32 H24 109.5
H23 C32 H24 109.5
C34 C33 C35 125.23(12)
C34 C33 C26 119.11(12)
C35 C33 C26 115.60(11)
C33 C34 C41 125.91(12)
C33 C34 H2 117.0
C41 C34 H2 117.0
C40 C35 C36 118.17(13)
C40 C35 C33 121.60(12)
C36 C35 C33 120.13(13)
C37 C36 C35 120.73(14)
C37 C36 H25 119.6
C35 C36 H25 119.6
C38 C37 C36 120.39(15)
C38 C37 H26 119.8
C36 C37 H26 119.8
C39 C38 C37 119.50(14)
C39 C38 H27 120.3
C37 C38 H27 120.3
C38 C39 C40 120.33(14)
C38 C39 H28 119.8
C40 C39 H28 119.8
C39 C40 C35 120.87(14)
C39 C40 H29 119.6
C35 C40 H29 119.6
C46 C41 C42 118.78(13)
C46 C41 C34 120.09(12)
C42 C41 C34 121.12(13)
C43 C42 C41 120.14(14)
C43 C42 H30 119.9
C41 C42 H30 119.9
C44 C43 C42 120.53(14)
C44 C43 H31 119.7
C42 C43 H31 119.7
C43 C44 C45 119.63(13)
C43 C44 H32 120.2
C45 C44 H32 120.2
C44 C45 C46 120.12(14)
C44 C45 H33 119.9
C46 C45 H33 119.9
C45 C46 C41 120.77(14)
C45 C46 H34 119.6
C41 C46 H34 119.6
O2 C47 N2 123.59(12)
O2 C47 C27 123.00(12)
N2 C47 C27 113.41(11)
S2 C48 H40 109.5
S2 C48 H41 109.5
H40 C48 H41 109.5
S2 C48 H42 109.5
H40 C48 H42 109.5
H41 C48 H42 109.5
C47 N2 S2 123.97(9)
C47 N2 H36 118.0
S2 N2 H36 118.0
O5 S2 O6 119.96(6)
O5 S2 N2 108.02(6)
O6 S2 N2 104.22(6)
O5 S2 C48 109.59(7)
O6 S2 C48 109.52(6)
N2 S2 C48 104.29(7)
loop_
_geom_bond_atom_site_label_1
_geom_bond_atom_site_label_2
_geom_bond_distance
C1 C6 1.3998(19)
C1 C2 1.4006(19)
C1 C8 1.4929(19)
C2 C3 1.391(2)
C2 C25 1.5017(18)
C3 C4 1.393(2)
C3 H3 0.9300
C4 C5 1.391(2)
C4 C7 1.512(2)
C5 C6 1.382(2)
C5 H4 0.9300
C6 H5 0.9300
C7 H6 0.9600
C7 H7 0.9600
C7 H8 0.9600
C8 C9 1.3456(19)
C8 C10 1.4890(19)
C9 C16 1.4822(19)
C9 H1 0.9300
C10 C15 1.398(2)
C10 C11 1.4000(19)
C11 C12 1.385(2)
C11 H9 0.9300
C12 C13 1.386(2)
C12 H10 0.9300
C13 C14 1.385(2)
C13 H11 0.9300
C14 C15 1.387(2)
C14 H12 0.9300
C15 H13 0.9300
C16 C17 1.395(2)
C16 C21 1.396(2)
C17 C18 1.388(2)
C17 H14 0.9300
C18 C19 1.388(2)
C18 H15 0.9300
C19 C20 1.380(2)
C19 H16 0.9300
C20 C21 1.387(2)
C20 H17 0.9300
C21 H18 0.9300
C22 S1 1.7529(14)
C22 H37 0.9600
C22 H38 0.9600
C22 H39 0.9600
O3 S1 1.4288(11)
O4 S1 1.4277(10)
C25 O1 1.2181(17)
C25 N1 1.3718(17)
N1 S1 1.6688(11)
N1 H35 0.8600
C26 C31 1.398(2)
C26 C27 1.3988(19)
C26 C33 1.4942(18)
C27 C28 1.3962(19)
C27 C47 1.4965(19)
C28 C29 1.390(2)
C28 H19 0.9300
C29 C30 1.394(2)
C29 C32 1.512(2)
C30 C31 1.381(2)
C30 H20 0.9300
C31 H21 0.9300
C32 H22 0.9600
C32 H23 0.9600
C32 H24 0.9600
C33 C34 1.3447(19)
C33 C35 1.4905(18)
C34 C41 1.4823(18)
C34 H2 0.9300
C35 C40 1.397(2)
C35 C36 1.397(2)
C36 C37 1.386(2)
C36 H25 0.9300
C37 C38 1.385(2)
C37 H26 0.9300
C38 C39 1.384(2)
C38 H27 0.9300
C39 C40 1.385(2)
C39 H28 0.9300
C40 H29 0.9300
C41 C46 1.394(2)
C41 C42 1.396(2)
C42 C43 1.393(2)
C42 H30 0.9300
C43 C44 1.383(2)
C43 H31 0.9300
C44 C45 1.387(2)
C44 H32 0.9300
C45 C46 1.388(2)
C45 H33 0.9300
C46 H34 0.9300
C47 O2 1.2190(16)
C47 N2 1.3821(17)
C48 S2 1.7543(14)
C48 H40 0.9600
C48 H41 0.9600
C48 H42 0.9600
O5 S2 1.4257(10)
O6 S2 1.4284(10)
N2 S2 1.6694(11)
N2 H36 0.8600
loop_
_geom_hbond_atom_site_label_D
_geom_hbond_atom_site_label_H
_geom_hbond_atom_site_label_A
_geom_hbond_distance_DH
_geom_hbond_distance_HA
_geom_hbond_distance_DA
_geom_hbond_angle_DHA
_geom_hbond_site_symmetry_A
N1 H35 O2 0.86 1.98 2.8100(15) 162.6 2_556
N2 H36 O1 0.86 2.14 2.7674(15) 129.8 2_456
C22 H39 O1 0.96 2.60 3.1931(18) 120.4 .
N1 H35 O2 0.86 1.98 2.8100(15) 162.6 2_556
N2 H36 O1 0.86 2.14 2.7674(15) 129.8 2_456
C22 H37 O5 0.96 2.57 3.3952(18) 143.7 2_556
C22 H38 O4 0.96 2.54 3.4235(17) 153.0 2_456
loop_
_geom_torsion_atom_site_label_1
_geom_torsion_atom_site_label_2
_geom_torsion_atom_site_label_3
_geom_torsion_atom_site_label_4
_geom_torsion
C6 C1 C2 C3 -0.4(2)
C8 C1 C2 C3 177.07(13)
C6 C1 C2 C25 176.82(13)
C8 C1 C2 C25 -5.8(2)
C1 C2 C3 C4 1.3(2)
C25 C2 C3 C4 -175.94(14)
C2 C3 C4 C5 -1.5(2)
C2 C3 C4 C7 179.19(17)
C3 C4 C5 C6 0.8(3)
C7 C4 C5 C6 -179.82(19)
C4 C5 C6 C1 0.0(3)
C2 C1 C6 C5 -0.3(2)
C8 C1 C6 C5 -177.78(15)
C6 C1 C8 C9 123.56(15)
C2 C1 C8 C9 -53.80(19)
C6 C1 C8 C10 -52.64(18)
C2 C1 C8 C10 130.00(14)
C10 C8 C9 C16 -8.7(2)
C1 C8 C9 C16 175.47(12)
C9 C8 C10 C15 149.14(14)
C1 C8 C10 C15 -34.94(18)
C9 C8 C10 C11 -35.3(2)
C1 C8 C10 C11 140.66(13)
C15 C10 C11 C12 -0.42(19)
C8 C10 C11 C12 -176.11(12)
C10 C11 C12 C13 0.2(2)
C11 C12 C13 C14 -0.2(2)
C12 C13 C14 C15 0.4(2)
C13 C14 C15 C10 -0.6(2)
C11 C10 C15 C14 0.6(2)
C8 C10 C15 C14 176.37(13)
C8 C9 C16 C17 -57.87(19)
C8 C9 C16 C21 124.23(15)
C21 C16 C17 C18 -1.5(2)
C9 C16 C17 C18 -179.44(13)
C16 C17 C18 C19 -0.2(2)
C17 C18 C19 C20 1.0(2)
C18 C19 C20 C21 -0.1(2)
C19 C20 C21 C16 -1.6(2)
C17 C16 C21 C20 2.38(19)
C9 C16 C21 C20 -179.66(12)
C3 C2 C25 O1 121.57(15)
C1 C2 C25 O1 -55.68(19)
C3 C2 C25 N1 -58.37(17)
C1 C2 C25 N1 124.38(13)
O1 C25 N1 S1 5.91(18)
C2 C25 N1 S1 -174.15(9)
C25 N1 S1 O4 -55.16(12)
C25 N1 S1 O3 176.81(10)
C25 N1 S1 C22 61.35(12)
C31 C26 C27 C28 0.0(2)
C33 C26 C27 C28 179.03(12)
C31 C26 C27 C47 177.77(12)
C33 C26 C27 C47 -3.22(19)
C26 C27 C28 C29 -0.2(2)
C47 C27 C28 C29 -177.90(13)
C27 C28 C29 C30 -0.6(2)
C27 C28 C29 C32 179.51(14)
C28 C29 C30 C31 1.5(2)
C32 C29 C30 C31 -178.59(15)
C29 C30 C31 C26 -1.7(2)
C27 C26 C31 C30 0.9(2)
C33 C26 C31 C30 -178.14(13)
C31 C26 C33 C34 116.33(15)
C27 C26 C33 C34 -62.66(18)
C31 C26 C33 C35 -60.85(17)
C27 C26 C33 C35 120.17(14)
C35 C33 C34 C41 -8.8(2)
C26 C33 C34 C41 174.33(12)
C34 C33 C35 C40 -37.0(2)
C26 C33 C35 C40 139.94(13)
C34 C33 C35 C36 146.66(15)
C26 C33 C35 C36 -36.36(18)
C40 C35 C36 C37 0.7(2)
C33 C35 C36 C37 177.12(14)
C35 C36 C37 C38 -1.1(2)
C36 C37 C38 C39 0.8(2)
C37 C38 C39 C40 -0.1(2)
C38 C39 C40 C35 -0.3(2)
C36 C35 C40 C39 0.0(2)
C33 C35 C40 C39 -176.33(13)
C33 C34 C41 C46 -57.07(19)
C33 C34 C41 C42 123.93(15)
C46 C41 C42 C43 2.36(19)
C34 C41 C42 C43 -178.62(12)
C41 C42 C43 C44 -1.7(2)
C42 C43 C44 C45 0.0(2)
C43 C44 C45 C46 1.0(2)
C44 C45 C46 C41 -0.3(2)
C42 C41 C46 C45 -1.41(19)
C34 C41 C46 C45 179.56(12)
C28 C27 C47 O2 121.19(15)
C26 C27 C47 O2 -56.59(18)
C28 C27 C47 N2 -59.22(16)
C26 C27 C47 N2 122.99(13)
O2 C47 N2 S2 9.24(18)
C27 C47 N2 S2 -170.34(9)
C47 N2 S2 O5 -52.78(12)
C47 N2 S2 O6 178.60(10)
C47 N2 S2 C48 63.75(12)
