#------------------------------------------------------------------------------
#$Date: 2017-09-12 05:52:42 +0300 (Tue, 12 Sep 2017) $
#$Revision: 200536 $
#$URL: file:///home/coder/svn-repositories/cod/cif/1/54/70/1547027.cif $
#------------------------------------------------------------------------------
#
# This file is available in the Crystallography Open Database (COD),
# http://www.crystallography.net/
#
# All data on this site have been placed in the public domain by the
# contributors.
#
data_1547027
loop_
_publ_author_name
'Ding, Hualong'
'Bai, Songlin'
'Lu, Ping'
'Wang, Yanguang'
_publ_section_title
;
 Preparation of 2-Amino-3-arylindoles via Pd-Catalyzed Coupling between
 3-Diazoindolin-2-imines and Arylboronic Acids as well as Their Extension
 to 3-Aryl-3-fluoroindolin-2-imines.
;
_journal_issue                   17
_journal_name_full               'Organic letters'
_journal_page_first              4604
_journal_page_last               4607
_journal_paper_doi               10.1021/acs.orglett.7b02211
_journal_volume                  19
_journal_year                    2017
_chemical_formula_moiety         'C16 H14 N2 O3 S'
_chemical_formula_sum            'C16 H14 N2 O3 S'
_chemical_formula_weight         314.35
_space_group_crystal_system      triclinic
_space_group_IT_number           2
_space_group_name_Hall           '-P 1'
_space_group_name_H-M_alt        'P -1'
_symmetry_space_group_name_Hall  '-P 1'
_symmetry_space_group_name_H-M   'P -1'
_atom_sites_solution_hydrogens   geom
_atom_sites_solution_primary     direct
_audit_creation_date             2017-03-20
_audit_creation_method
;
Olex2 1.2
(compiled 2017.03.02 svn.r3394 for OlexSys, GUI svn.r5324)
;
_cell_angle_alpha                85.058(9)
_cell_angle_beta                 80.243(9)
_cell_angle_gamma                68.404(10)
_cell_formula_units_Z            2
_cell_length_a                   6.8692(7)
_cell_length_b                   7.4511(9)
_cell_length_c                   15.6394(18)
_cell_measurement_reflns_used    1183
_cell_measurement_temperature    293(2)
_cell_measurement_theta_max      29.5566
_cell_measurement_theta_min      3.1871
_cell_volume                     733.27(15)
_computing_cell_refinement
;
CrysAlisPro, Agilent Technologies,
Version 1.171.35.11 (release 16-05-2011 CrysAlis171 .NET)
(compiled May 16 2011,17:55:39)
;
_computing_data_collection
;
CrysAlisPro, Agilent Technologies,
Version 1.171.35.11 (release 16-05-2011 CrysAlis171 .NET)
(compiled May 16 2011,17:55:39)
;
_computing_data_reduction
;
CrysAlisPro, Agilent Technologies,
Version 1.171.35.11 (release 16-05-2011 CrysAlis171 .NET)
(compiled May 16 2011,17:55:39)
;
_computing_molecular_graphics    'Olex2 (Dolomanov et al., 2009)'
_computing_publication_material  'Olex2 (Dolomanov et al., 2009)'
_computing_structure_refinement  'ShelXL (Sheldrick, 2015)'
_computing_structure_solution    'ShelXS (Sheldrick, 2008)'
_diffrn_ambient_temperature      293.15
_diffrn_detector_area_resol_mean 10.3592
_diffrn_measured_fraction_theta_full 0.994
_diffrn_measured_fraction_theta_max 0.994
_diffrn_measurement_details
;
#__ type_ start__ end____ width___ exp.time_
  1 omega  -22.00   69.00   1.0000   90.0000
omega____ theta____ kappa____ phi______ frames
    -       10.6871   77.0000    0.0000 91

#__ type_ start__ end____ width___ exp.time_
  2 omega  -81.00   13.00   1.0000   90.0000
omega____ theta____ kappa____ phi______ frames
    -      -12.5621  -38.0000   60.0000 94

#__ type_ start__ end____ width___ exp.time_
  3 omega  -39.00   56.00   1.0000   90.0000
omega____ theta____ kappa____ phi______ frames
    -      -12.5621   38.0000 -120.0000 95
;
_diffrn_measurement_device_type  'Xcalibur, Atlas, Gemini ultra'
_diffrn_measurement_method       '\w scans'
_diffrn_orient_matrix_UB_11      0.0561169000
_diffrn_orient_matrix_UB_12      0.0482673000
_diffrn_orient_matrix_UB_13      -0.0294237000
_diffrn_orient_matrix_UB_21      -0.0966379000
_diffrn_orient_matrix_UB_22      0.0634644000
_diffrn_orient_matrix_UB_23      -0.0129291000
_diffrn_orient_matrix_UB_31      -0.0111403000
_diffrn_orient_matrix_UB_32      0.0642772000
_diffrn_orient_matrix_UB_33      0.0329585000
_diffrn_radiation_monochromator  graphite
_diffrn_radiation_type           MoK\a
_diffrn_radiation_wavelength     0.71073
_diffrn_reflns_av_R_equivalents  0.0459
_diffrn_reflns_av_unetI/netI     0.0801
_diffrn_reflns_Laue_measured_fraction_full 0.994
_diffrn_reflns_Laue_measured_fraction_max 0.994
_diffrn_reflns_limit_h_max       8
_diffrn_reflns_limit_h_min       -8
_diffrn_reflns_limit_k_max       7
_diffrn_reflns_limit_k_min       -8
_diffrn_reflns_limit_l_max       18
_diffrn_reflns_limit_l_min       -18
_diffrn_reflns_number            4634
_diffrn_reflns_point_group_measured_fraction_full 0.994
_diffrn_reflns_point_group_measured_fraction_max 0.994
_diffrn_reflns_theta_full        25.242
_diffrn_reflns_theta_max         25.346
_diffrn_reflns_theta_min         3.193
_diffrn_source                   'Enhance (Mo) X-ray Source'
_exptl_absorpt_coefficient_mu    0.235
_exptl_absorpt_correction_T_max  1.00000
_exptl_absorpt_correction_T_min  0.79330
_exptl_absorpt_correction_type   multi-scan
_exptl_absorpt_process_details
;
CrysAlisPro, Agilent Technologies,
Version 1.171.35.11 (release 16-05-2011 CrysAlis171 .NET)
(compiled May 16 2011,17:55:39)
Empirical absorption correction using spherical harmonics,
 implemented in SCALE3 ABSPACK scaling algorithm.
;
_exptl_crystal_colour            yellow
_exptl_crystal_colour_primary    yellow
_exptl_crystal_density_diffrn    1.424
_exptl_crystal_description       plate
_exptl_crystal_F_000             328
_exptl_crystal_size_max          0.3
_exptl_crystal_size_mid          0.23
_exptl_crystal_size_min          0.1
_refine_diff_density_max         0.394
_refine_diff_density_min         -0.386
_refine_diff_density_rms         0.067
_refine_ls_extinction_method     none
_refine_ls_goodness_of_fit_ref   1.059
_refine_ls_hydrogen_treatment    constr
_refine_ls_matrix_type           full
_refine_ls_number_parameters     201
_refine_ls_number_reflns         2667
_refine_ls_number_restraints     0
_refine_ls_restrained_S_all      1.059
_refine_ls_R_factor_all          0.1054
_refine_ls_R_factor_gt           0.0688
_refine_ls_shift/su_max          0.001
_refine_ls_shift/su_mean         0.000
_refine_ls_structure_factor_coef Fsqd
_refine_ls_weighting_details
'w=1/[\s^2^(Fo^2^)+(0.0824P)^2^+0.1047P] where P=(Fo^2^+2Fc^2^)/3'
_refine_ls_weighting_scheme      calc
_refine_ls_wR_factor_gt          0.1627
_refine_ls_wR_factor_ref         0.1969
_reflns_Friedel_coverage         0.000
_reflns_number_gt                1740
_reflns_number_total             2667
_reflns_threshold_expression     'I > 2\s(I)'
_cod_data_source_file            ol7b02211_si_003.cif
_cod_data_source_block           170319_dhl08378a_2
_cod_original_cell_volume        733.26(15)
_cod_database_code               1547027
_shelx_shelxl_version_number     2016/6
_chemical_oxdiff_formula         'c10 h10 n2 o8 pd1 s1'
_shelx_space_group_comment
;
The symmetry employed for this shelxl refinement is uniquely defined
by the following loop, which should always be used as a source of
symmetry information in preference to the above space-group names.
They are only intended as comments.
;
_shelx_estimated_absorpt_t_max   0.977
_shelx_estimated_absorpt_t_min   0.933
_reflns_odcompleteness_completeness 99.47
_reflns_odcompleteness_iscentric 1
_reflns_odcompleteness_theta     26.32
_olex2_refinement_description
;
1. Fixed Uiso
 At 1.2 times of:
  All C(H) groups
 At 1.5 times of:
  All C(H,H,H) groups
2.a Aromatic/amide H refined with riding coordinates:
 C1(H1), C2(H2), C3(H3), C4(H4), C10(H10), C11(H11), C13(H13), C14(H14)
2.b Idealised Me refined as rotating group:
 C15(H15A,H15B,H15C), C16(H16A,H16B,H16C)
;
_shelx_res_file
;
TITL 170319_DHL08378A_2 in P-1 #2
    170319_dhl08378a_2.res
    created by SHELXL-2016/6 at 10:22:07 on 20-Mar-2017
REM reset to P-1 #2
CELL 0.71073 6.86916 7.45108 15.63942 85.0583 80.2425 68.4036
ZERR 2 0.00073 0.00085 0.00179 0.0093 0.0092 0.0102
LATT 1
SFAC C H N O S
UNIT 32 28 4 6 2

L.S. 4
PLAN  20
SIZE 0.3 0.23 0.1
TEMP 20
BOND $h
htab
fmap 2
acta
SHEL 999 0.83
OMIT 7 7 0
OMIT 1 1 0
OMIT -3 2 9
OMIT 1 -3 1
OMIT -4 2 0
OMIT 6 0 3
REM <olex2.extras>
REM <HklSrc "%.\\170319_DHL08378A_2.hkl">
REM </olex2.extras>

WGHT    0.082400    0.104700
FVAR       4.38625
S1    5    0.535952    0.648515    0.228452    11.00000    0.07844    0.03878 =
         0.04730   -0.00033   -0.00644   -0.02426
O1    4    0.374063    0.598337    0.424757    11.00000    0.06586    0.03540 =
         0.06159    0.00427   -0.00894   -0.02233
O2    4    0.361043    0.595569    0.219112    11.00000    0.10520    0.07493 =
         0.07361   -0.00465   -0.00903   -0.06148
O3    4    0.702401    0.516052    0.271744    11.00000    0.09447    0.04466 =
         0.05259    0.00402   -0.00393   -0.00545
N1    3    0.319723    1.077507    0.380886    11.00000    0.04502    0.03037 =
         0.04833   -0.00041   -0.00547   -0.01421
N2    3    0.449543    0.862717    0.268781    11.00000    0.06571    0.03733 =
         0.04569    0.00489   -0.00758   -0.01977
C1    1    0.212113    0.860283    0.588818    11.00000    0.04204    0.05648 =
         0.05019    0.00983   -0.01003   -0.02096
AFIX  43
H1    2    0.221474    0.737039    0.609556    11.00000   -1.20000
AFIX   0
C2    1    0.139622    1.012786    0.644573    11.00000    0.05190    0.07103 =
         0.04339   -0.00340   -0.00441   -0.02128
AFIX  43
H2    2    0.098347    0.993419    0.703342    11.00000   -1.20000
AFIX   0
C3    1    0.128791    1.194422    0.612481    11.00000    0.04368    0.06203 =
         0.05405   -0.01568   -0.01063   -0.01196
AFIX  43
H3    2    0.081175    1.295545    0.650858    11.00000   -1.20000
AFIX   0
C4    1    0.185881    1.231793    0.525652    11.00000    0.04578    0.04032 =
         0.06240   -0.00688   -0.00895   -0.01537
AFIX  43
H4    2    0.178248    1.354783    0.505172    11.00000   -1.20000
AFIX   0
C5    1    0.255009    1.077559    0.470528    11.00000    0.03215    0.03661 =
         0.05150   -0.00078   -0.00844   -0.01621
C6    1    0.269841    0.893397    0.502721    11.00000    0.03544    0.04123 =
         0.04383    0.00228   -0.00802   -0.01583
C7    1    0.345244    0.766548    0.428299    11.00000    0.03638    0.03724 =
         0.05106    0.00166   -0.01080   -0.01512
C8    1    0.382413    0.896738    0.349969    11.00000    0.04240    0.03492 =
         0.04628    0.00267   -0.00950   -0.01611
C9    1    0.650971    0.699335    0.125487    11.00000    0.07287    0.03704 =
         0.04717   -0.00496   -0.01244   -0.01950
C10   1    0.838994    0.730612    0.114177    11.00000    0.09087    0.08561 =
         0.05128    0.00510   -0.02056   -0.04837
AFIX  43
H10   2    0.905991    0.724615    0.161842    11.00000   -1.20000
AFIX   0
C11   1    0.928059    0.770466    0.033311    11.00000    0.07735    0.08303 =
         0.06496    0.00797   -0.01298   -0.03761
AFIX  43
H11   2    1.054051    0.793320    0.027250    11.00000   -1.20000
AFIX   0
C12   1    0.837197    0.777759   -0.039147    11.00000    0.07253    0.05235 =
         0.04659   -0.00196   -0.00285   -0.00669
C13   1    0.652811    0.744173   -0.027619    11.00000    0.08508    0.11373 =
         0.04407   -0.00113   -0.01875   -0.03508
AFIX  43
H13   2    0.588144    0.747594   -0.075697    11.00000   -1.20000
AFIX   0
C14   1    0.559210    0.705290    0.053096    11.00000    0.07629    0.09216 =
         0.05402   -0.00097   -0.01555   -0.03665
AFIX  43
H14   2    0.433035    0.682861    0.058816    11.00000   -1.20000
AFIX   0
C15   1    0.937704    0.823107   -0.127528    11.00000    0.10112    0.09224 =
         0.04992    0.00311    0.00607   -0.01791
AFIX 137
H15A  2    1.056104    0.857920   -0.121696    11.00000   -1.50000
H15B  2    0.835676    0.928673   -0.154265    11.00000   -1.50000
H15C  2    0.985383    0.711629   -0.162949    11.00000   -1.50000
AFIX   0
C16   1    0.313438    1.247101    0.327060    11.00000    0.06579    0.03973 =
         0.05982    0.00794   -0.01189   -0.02121
AFIX 137
H16A  2    0.169903    1.320670    0.318905    11.00000   -1.50000
H16B  2    0.398498    1.208210    0.271720    11.00000   -1.50000
H16C  2    0.367745    1.324873    0.354865    11.00000   -1.50000
AFIX   0
HKLF 4




REM  170319_DHL08378A_2 in P-1 #2
REM R1 =  0.0688 for    1740 Fo > 4sig(Fo)  and  0.1054 for all    2667 data
REM    201 parameters refined using      0 restraints

END

WGHT      0.0824      0.1047

REM Instructions for potential hydrogen bonds
EQIV $1 x, y+1, z
HTAB C16 O1_$1

REM Highest difference peak  0.394,  deepest hole -0.386,  1-sigma level  0.067
Q1    1   0.5443  0.7711  0.1828  11.00000  0.05    0.39
Q2    1   0.2874  0.9464  0.4574  11.00000  0.05    0.30
Q3    1   0.3531  0.9707  0.3633  11.00000  0.05    0.30
Q4    1   0.2926  0.8172  0.4789  11.00000  0.05    0.26
Q5    1   0.3234  0.6152  0.4935  11.00000  0.05    0.26
Q6    1   0.2565  0.9003  0.5312  11.00000  0.05    0.25
Q7    1   0.4542  0.7473  0.3019  11.00000  0.05    0.25
Q8    1   0.2323  1.1009  0.4944  11.00000  0.05    0.25
Q9    1   0.4260  0.6789  0.3669  11.00000  0.05    0.25
Q10   1   0.4876  0.5756  0.2910  11.00000  0.05    0.25
Q11   1   0.4742  0.7826  0.2660  11.00000  0.05    0.24
Q12   1   0.4532  0.9812  0.2464  11.00000  0.05    0.24
Q13   1   0.3548  0.8583  0.3890  11.00000  0.05    0.23
Q14   1   0.6440  0.4343  0.3385  11.00000  0.05    0.22
Q15   1   0.1564  0.8807  0.6385  11.00000  0.05    0.22
Q16   1   0.1597  1.0597  0.5890  11.00000  0.05    0.21
Q17   1   0.6106  0.4833  0.2111  11.00000  0.05    0.21
Q18   1   0.6370  0.5997  0.3437  11.00000  0.05    0.21
Q19   1   0.1671  1.3577  0.3826  11.00000  0.05    0.21
Q20   1   0.2907  0.6383  0.5665  11.00000  0.05    0.19
;
_shelx_res_checksum              55734
_shelx_hkl_file
;
   0   0   3 3372.87 193.606   3
   0   0   4 3598.25 233.637   3
   0   0   5 3426.83 258.141   3
   0   0   6 9841.45 472.832   3
   0   0   7 2430.62 258.439   3
   0   0  -7 2045.91 233.014   3
   0   0   8 16079.7 700.377   3
   0   0  -8 15366.3 681.809   3
   0   0   9 495.426 128.412   3
   0   0  -9 480.874 136.009   3
   0   0  10 1299.55 215.757   3
   0   0 -10 1060.70 201.668   3
   0   0 -11 5592.19 490.689   3
   0   0  11 7357.39 553.552   3
   0   0  12 1758.80 283.979   3
   0   0  13 1862.12 308.513   3
   0   0  14 107.427 80.4372   3
   0   0  15 538.591 173.892   3
   0   0  16 493.958 177.905   3
   0   0  17 197.324 125.325   3
   0   0  18 276.161 168.602   3
   0   0  19 99.6096 114.854   3
   0   0  20 1139.64 344.207   3
   0  -1  19 709.825 257.787   3
   0  -1  18 624.506 237.607   3
   0  -1  17 50.7299 77.3919   3
   0  -1  16 1665.98 335.954   3
   0  -1  15 69.4034 54.1238   3
   0  -1  14 520.890 182.163   3
   0  -1  13 214.110 127.954   3
   0  -1  12 97.5771 66.7662   3
   0  -1  11 3542.41 413.840   3
   0   1 -11 2957.55 357.111   3
   0   1 -10 1021.27 203.884   3
   0  -1  10 1119.53 214.213   3
   0  -1   9 7723.42 532.591   3
   0   1  -9 6598.92 496.543   3
   0  -1   8 12286.8 646.785   3
   0  -1   7 2436.08 265.085   3
   0  -1   6 11993.3 552.909   3
   0  -1   5 35859.9 883.705   3
   0  -1   4 2242.02 212.237   3
   0  -1   3 11183.0 403.954   3
   0   1  -2 17236.1 435.233   1
   0  -1   2 16649.8 427.029   3
   0  -1   1 126892. 1058.56   2
   0  -1  -1 2764.58 138.244   2
   0  -1  -2 43921.3 580.602   2
   0  -1  -2 43559.0 560.148   3
   0   1   3 2700.24 156.022   3
   0  -1  -3 2506.80 155.143   2
   0  -1  -3 2504.94 155.992   3
   0  -1  -4 58968.4 891.052   3
   0   1   4 58908.9 862.679   3
   0  -1  -5 7047.59 352.843   3
   0   1   5 6944.58 337.046   3
   0  -1  -6 22200.6 695.797   3
   0   1   6 22352.1 659.577   3
   0  -1  -7 12669.7 556.160   3
   0   1   7 13318.3 555.547   3
   0   1   8 61.3886 20.9604   3
   0  -1  -8 76.4643 65.7487   3
   0   1   9 2972.39 302.075   3
   0  -1  -9 2855.62 303.369   3
   0   1  10 1226.52 212.404   3
   0  -1 -10 1270.69 219.125   3
   0  -1 -11 563.388 161.579   3
   0   1  11 833.099 183.179   3
   0  -1 -12 187.671 99.5427   3
   0   1  12 409.243 125.022   3
   0   1  13 2722.65 359.763   3
   0   1  14 62.4553 47.7579   3
   0   1  15 766.078 214.195   3
   0   1  16 700.466 208.662   3
   0   1  17 314.437 159.313   3
   0   1  18-58.7070 80.8984   3
   0   1  19 353.317 159.526   3
   0   1  20 184.450 127.394   3
   0  -2  18 154.836 112.292   3
   0  -2  17-41.0116 33.6248   3
   0  -2  16 1332.45 341.077   3
   0  -2  15 615.189 210.314   3
   0  -2  14 3234.25 475.117   3
   0  -2  13-12.5238 52.9036   3
   0  -2  12 1943.73 344.037   3
   0  -2  11 9606.41 695.802   3
   0   2 -10 8520.31 596.008   3
   0  -2  10 9115.25 660.299   3
   0  -2   9 1677.83 268.121   3
   0  -2   8 660.130 151.164   3
   0  -2   7 6800.32 488.329   3
   0  -2   6 1057.01 182.427   3
   0   2  -6 1264.42 192.961   1
   0  -2   5 9426.37 501.994   3
   0   2  -5 9815.49 482.996   1
   0  -2   4 16492.4 619.331   3
   0   2  -4 15921.3 574.344   1
   0   2  -3 1191.78 143.583   1
   0  -2   3 938.385 135.782   3
   0  -2   2 6112.39 335.322   3
   0  -2   2 5817.55 334.720   2
   0   2  -2 6488.56 324.313   1
   0  -2   1 53.1365 40.8445   1
   0  -2   1 84.2899 38.1451   2
   0   2  -1 49.9403 40.7931   1
   0   2   0 53676.3 819.274   1
   0  -2   0 52613.8 844.036   1
   0  -2   0 53270.1 893.391   2
   0  -2  -1 120683. 1313.51   2
   0  -2  -1 119999. 1214.21   1
   0   2   1 121056. 1172.57   1
   0   2   2 52435.5 788.816   1
   0  -2  -2 50955.5 792.124   1
   0  -2  -2 52199.7 862.759   2
   0   2   2 50862.2 838.446   2
   0  -2  -3 2494.43 174.146   3
   0   2   3 2367.97 170.124   1
   0  -2  -3 2446.35 184.723   2
   0  -2  -3 2174.04 162.398   1
   0   2   3 2400.08 187.839   2
   0  -2  -4 28200.6 668.826   2
   0   2   4 27110.3 664.833   2
   0  -2  -4 27559.4 624.964   3
   0  -2  -4 28071.9 648.725   1
   0  -2  -5 12124.7 466.585   2
   0  -2  -5 12546.5 470.792   3
   0  -2  -5 12511.4 459.331   1
   0   2   6 2091.91 196.296   3
   0  -2  -6 1856.30 196.412   2
   0  -2  -6 1973.47 201.589   3
   0   2   7 1160.97 161.278   3
   0  -2  -7 1226.04 174.602   3
   0  -2  -7 1149.79 164.070   2
   0   2   8 4454.64 330.255   3
   0  -2  -8 3957.08 319.156   2
   0  -2  -8 4315.86 362.636   3
   0   2   9 1016.59 168.658   3
   0  -2  -9 1158.88 208.241   3
   0   2  10 6776.08 461.563   3
   0  -2 -10 6793.85 493.366   3
   0   2  11 2879.59 320.977   3
   0  -2 -11 2261.87 306.831   3
   0   2  12 8909.24 589.033   3
   0  -2 -12 6131.13 529.099   3
   0   2  13 630.008 156.192   3
   0   2  14 590.464 165.598   3
   0   2  15-29.2219 36.6069   3
   0   2  16 832.783 213.043   3
   0   2  17 17.2922 22.7973   3
   0   2  18 112.082 86.2879   3
   0   2  19 50.7987 56.8535   3
   0  -2 -20 164.288 111.866   2
   0   2  20 301.332 169.806   3
   0  -3  18 217.787 154.679   3
   0  -3  17 2306.73 485.347   3
   0  -3  16-82.6447 38.1369   3
   0  -3  15 3291.28 535.474   3
   0  -3  14 64.2604 74.0695   3
   0  -3  13 2876.83 442.747   3
   0  -3  12 628.206 180.562   3
   0  -3  11-14.4446 35.8258   3
   0  -3  10 4486.86 475.889   3
   0  -3   9 9304.64 685.503   3
   0   3  -8 20.5784 19.7412   2
   0  -3   8 106.606 70.6492   3
   0   3  -8 184.866 102.593   1
   0   3  -7 9524.04 575.569   1
   0  -3   7 9800.86 632.254   3
   0  -3   6 2381.88 293.731   3
   0   3  -6 2323.27 274.814   1
   0  -3   5 640.190 142.153   3
   0   3  -5 641.200 136.046   1
   0  -3   4 2239.22 252.725   3
   0   3  -4 2650.21 269.138   1
   0   3  -3 9513.62 486.551   1
   0  -3   3 9071.18 486.596   3
   0  -3   2 1422.20 224.596   1
   0   3  -2 1416.84 200.086   1
   0  -3   2 1285.67 218.507   2
   0  -3   1 822.968 141.974   2
   0   3  -1 760.855 116.547   1
   0  -3   1 734.451 122.157   1
   0   3   0 148.702 78.9205   1
   0  -3   0 342.306 145.622   1
   0  -3   0 109.706 115.208   2
   0   3   0 162.108 101.523   2
   0  -3  -1 16813.8 559.305   1
   0  -3  -1 16839.4 596.559   2
   0   3   1 17050.4 558.528   1
   0   3   1 17863.2 630.769   2
   0   3   2 3131.08 249.026   2
   0  -3  -2 2583.92 193.439   1
   0  -3  -2 3409.17 265.629   2
   0   3   2 3186.79 230.756   1
   0   3   3 33714.5 832.792   2
   0   3   3 34932.6 781.795   1
   0  -3  -3 34818.2 857.420   2
   0  -3  -3 34529.1 801.477   1
   0  -3  -4 1837.88 202.148   2
   0   3   4 1597.66 171.886   1
   0  -3  -4 1685.61 173.584   3
   0  -3  -4 1624.77 182.269   1
   0   3   4 1610.71 180.959   2
   0  -3  -5 5317.65 328.839   1
   0   3   5 5016.76 333.556   2
   0  -3  -5 5496.99 353.273   2
   0  -3  -5 4952.52 308.455   3
   0  -3  -6 3086.94 272.431   2
   0  -3  -6 2949.38 253.173   3
   0  -3  -6 3047.55 249.832   1
   0  -3  -7 7454.73 416.558   1
   0  -3  -7 7119.01 429.729   3
   0  -3  -7 6761.76 420.671   2
   0  -3  -8 119.350 57.2668   2
   0  -3  -8 165.477 68.9929   3
   0  -3  -8 102.633 51.1771   1
   0  -3  -9 5699.67 433.315   3
   0  -3  -9 5723.01 403.087   1
   0  -3  -9 5689.10 411.906   2
   0  -3 -10 1283.52 214.763   2
   0   3  10 1661.98 230.262   3
   0  -3 -10 1421.33 215.569   1
   0  -3 -10 1131.82 207.828   3
   0  -3 -11 7439.05 533.941   2
   0   3  11 8321.32 540.916   3
   0  -3 -12 103.004 56.3137   3
   0   3  12 73.1188 48.2535   3
   0  -3 -12 137.359 59.4937   2
   0  -3 -13 1083.34 211.320   2
   0   3  13 1155.67 222.136   3
   0  -3 -14 580.880 150.405   2
   0   3  14 767.508 179.589   3
   0   3  15 179.230 100.763   3
   0  -3 -15 19.4729 40.5519   2
   0  -3 -16 59.5505 15.3888   2
   0   3  16 32.6488 60.6277   3
   0   3  17 150.486 96.0118   3
   0  -3 -17 198.884 115.123   2
   0   3  18 170.995 114.511   3
   0  -3 -18 4.40822 47.8996   2
   0   3  19 53.1267 67.4862   3
   0  -3 -19 34.3307 17.2279   2
   0   3  20-54.6507 88.7205   3
   0  -4  16 591.775 252.772   3
   0  -4  15 304.924 154.147   3
   0  -4  14 438.492 180.027   3
   0  -4  13 152.011 99.5509   3
   0  -4  12 154.189 117.835   3
   0  -4  11 1938.22 347.329   3
   0  -4  10 4030.03 507.035   3
   0  -4   9 1157.27 247.990   3
   0  -4   8-4.62556 67.4656   3
   0  -4   7 3110.98 393.921   3
   0  -4   6 1575.34 256.189   3
   0   4  -6 1816.94 270.647   2
   0   4  -6 1944.45 280.198   1
   0  -4   5 657.048 154.417   3
   0   4  -5 908.045 189.905   1
   0   4  -5 834.327 182.777   2
   0   4  -4 6322.58 471.178   1
   0   4  -4 5889.42 469.325   2
   0  -4   4 5979.20 461.309   3
   0   4  -3 8732.79 523.133   1
   0   4  -3 7699.45 517.378   2
   0  -4   3 8482.64 522.203   3
   0  -4   2 1043.87 199.361   1
   0  -4   2 1110.78 186.574   2
   0   4  -2 1014.70 163.059   1
   0  -4   1 4570.15 402.434   1
   0  -4   1 4890.12 420.387   2
   0   4  -1 5484.45 400.351   1
   0  -4   0 1244.71 220.282   1
   0   4   0 1098.01 176.781   1
   0  -4   0 804.472 165.455   2
   0  -4  -1 4235.79 342.954   1
   0  -4  -1 4254.48 362.176   2
   0   4   1 4247.12 320.193   1
   0  -4  -2 27358.5 831.572   1
   0   4   2 27207.6 797.425   1
   0  -4  -2 28045.7 882.758   2
   0  -4  -3 2247.19 256.332   2
   0   4   3 2232.94 227.428   1
   0  -4  -3 1532.44 137.499   1
   0   4   3 1841.61 225.319   2
   0  -4  -4-28.5084 48.4252   1
   0   4   4 48.0894 39.2152   1
   0  -4  -4 41.5493 59.9438   2
   0   4   4 160.920 87.1824   2
   0  -4  -5 6113.48 378.626   3
   0  -4  -5 6296.43 400.537   1
   0  -4  -5 6457.46 430.683   2
   0  -4  -6 3193.53 278.872   3
   0  -4  -6 3449.04 325.621   2
   0  -4  -6 3397.59 297.640   1
   0  -4  -7 1267.79 187.151   3
   0  -4  -7 1922.64 241.393   2
   0  -4  -7 1760.29 219.486   1
   0  -4  -8 3504.82 341.352   2
   0  -4  -8 2877.36 300.311   3
   0  -4  -8 3230.43 303.856   1
   0  -4  -9 256.885 86.3714   2
   0  -4  -9 165.323 73.3233   1
   0  -4  -9 140.334 74.4315   3
   0  -4 -10 1201.25 211.145   3
   0  -4 -10 1635.00 233.357   2
   0  -4 -10 1606.69 228.095   1
   0  -4 -11 111.569 65.4587   3
   0  -4 -11 30.6602 35.5069   1
   0  -4 -11 184.933 87.0344   2
   0  -4 -12 702.570 167.077   1
   0  -4 -12 645.928 172.905   3
   0  -4 -12 579.097 141.760   2
   0  -4 -13 2137.68 303.241   1
   0  -4 -13 2009.61 290.034   2
   0  -4 -14 1012.73 216.183   2
   0  -4 -14 905.714 193.284   1
   0  -4 -15 71.0780 62.2276   2
   0  -4 -15 78.0320 34.5729   1
   0  -4 -16 111.673 82.0559   2
   0  -4 -16 199.825 107.867   1
   0  -4 -17 260.389 117.955   2
   0  -4 -17 239.395 117.337   1
   0  -5  15 396.674 194.579   3
   0  -5  14 614.968 224.882   3
   0  -5  13 98.4011 84.5086   3
   0  -5  12 701.340 228.512   3
   0  -5  11 96.5483 67.5009   3
   0  -5  10 57.4041 84.1964   3
   0  -5   9 2384.00 409.554   3
   0  -5   8 4480.98 514.077   3
   0  -5   7 30.0674 35.3934   3
   0  -5   6 515.741 136.904   3
   0  -5   5 5771.05 520.596   3
   0   5  -4 22.4333 32.2886   1
   0  -5   4 80.7841 73.1027   3
   0  -5   3 4237.09 407.566   3
   0   5  -3 3310.80 354.779   1
   0   5  -3 4678.92 454.304   2
   0  -5   2 340.689 156.923   1
   0   5  -2 151.296 67.3233   2
   0   5  -2 93.2473 37.8320   1
   0  -5   2 211.984 123.468   2
   0  -5   2 214.932 109.433   3
   0   5  -1 2902.04 319.503   1
   0  -5   1 2752.37 333.390   2
   0  -5   1 2683.69 327.064   1
   0   5  -1 3095.77 358.371   2
   0   5   0 177.399 80.9029   1
   0  -5   0 162.924 99.4201   2
   0   5   0 288.343 120.639   2
   0  -5   0 101.854 72.8642   1
   0   5   1 2970.33 350.595   2
   0  -5  -1 2719.36 321.985   2
   0  -5  -1 3285.92 356.809   1
   0   5   1 2836.33 299.567   1
   0   5   2 119.444 75.1643   2
   0  -5  -2 142.172 77.6330   2
   0   5   2 42.9424 23.1428   1
   0   5   3 4080.32 381.168   2
   0  -5  -3 3828.30 380.408   2
   0   5   3 3155.40 307.680   1
   0  -5  -3 4002.63 356.310   1
   0   5   4 20.2536 46.0075   2
   0   5   4 12.1580 3.64077   1
   0  -5  -4 94.5480 76.7933   2
   0   5   5 737.208 144.976   1
   0   5   5 976.987 188.288   2
   0  -5  -5 1048.42 183.030   2
   0  -5  -5 671.925 115.742   1
   0  -5  -5 932.245 158.385   3
   0  -5  -6 4645.49 370.816   3
   0  -5  -6 4838.86 383.298   1
   0   5   6 4464.84 406.375   2
   0  -5  -6 4940.53 423.109   2
   0  -5  -7 198.267 65.9516   3
   0  -5  -7 298.479 100.841   2
   0  -5  -7 346.514 99.4529   1
   0   5   7 219.362 87.8382   2
   0  -5  -8-23.7729 28.6229   2
   0  -5  -8-56.9187 54.9981   3
   0  -5  -9-4.03048 47.2019   2
   0  -5  -9 6.93249 45.2207   3
   0  -5  -9 113.498 75.1447   1
   0  -5 -10 349.835 112.872   1
   0  -5 -10 346.535 134.812   2
   0  -5 -10 219.853 107.863   3
   0  -5 -11 200.283 93.4770   3
   0  -5 -11 580.831 156.580   1
   0  -5 -11 337.344 135.357   2
   0  -5 -12 918.928 199.649   2
   0  -5 -12 903.949 187.689   1
   0  -5 -13 133.949 76.2402   1
   0  -5 -13 138.532 58.7059   2
   0  -5 -14 530.962 152.615   1
   0  -5 -14 528.522 156.857   2
   0  -5 -15-9.02604 75.2459   2
   0  -5 -15 192.730 99.7780   1
   0  -6  13 134.330 125.839   3
   0  -6  12 239.239 140.928   3
   0  -6  11 63.6769 83.2864   3
   0  -6  10 944.442 272.841   3
   0  -6   9 341.452 144.102   3
   0  -6   8 1741.69 332.911   3
   0  -6   7 56.7056 18.5327   3
   0  -6   6 3578.20 460.991   3
   0  -6   5 535.159 171.068   3
   0  -6   4 5214.19 510.778   3
   0  -6   3 85.7143 68.0173   3
   0  -6   2 2524.53 364.503   1
   0  -6   2 2360.81 324.024   3
   0  -6   1 1430.32 268.297   1
   0  -6   1 1145.85 234.029   2
   0  -6   0 608.782 179.223   2
   0  -6   0 533.448 173.696   1
   0   6   0 602.098 156.565   1
   0   6   1 1523.98 237.313   1
   0  -6  -1 2171.14 325.308   2
   0  -6  -1 2317.99 304.105   1
   0  -6  -2 8253.73 570.838   1
   0  -6  -2 7653.50 602.908   2
   0   6   2 8410.19 629.019   2
   0  -6  -3 77.9670 71.1747   2
   0   6   3 29.6963 35.0205   2
   0   6   3 72.4430 46.4044   1
   0   6   4 1014.24 213.404   2
   0   6   4 742.709 165.308   1
   0  -6  -4 1354.08 236.708   1
   0  -6  -4 1031.62 205.295   2
   0   6   5 787.819 186.500   2
   0  -6  -5 683.136 155.467   1
   0   6   5 752.565 160.885   1
   0  -6  -5 662.540 172.986   2
   0   6   6-49.0955 44.3653   2
   0  -6  -6 80.1179 83.1216   2
   0  -6  -6 103.087 56.8096   3
   0  -6  -7-127.532 101.335   1
   0  -6  -7 131.153 102.906   2
   0  -6  -7 98.0242 63.2213   3
   0   6   7 142.845 74.6177   2
   0  -6  -8-157.245 107.181   1
   0  -6  -8-46.9815 55.7219   3
   0  -6  -9 22.3010 37.6428   1
   0  -6  -9 83.6844 61.4040   2
   0  -6 -10 309.765 123.453   2
   0  -6 -10 359.543 127.003   1
   0  -6 -11 155.188 80.1252   1
   0  -6 -11-32.5952 29.7348   2
   0  -6 -12 554.732 151.200   1
   0  -6 -12 605.821 172.063   2
   0  -6 -13 278.042 105.873   2
   0  -7  12 787.505 287.132   3
   0  -7  11-104.429 99.9833   3
   0  -7  10 207.887 143.035   3
   0  -7   9 193.874 137.952   3
   0  -7   8 44.1475 85.3511   3
   0  -7   7 663.662 217.791   3
   0  -7   6-109.946 117.154   3
   0  -7   5 250.600 137.097   3
   0  -7   4 2421.74 385.442   3
   0  -7   3 436.658 153.710   3
   0  -7   2 47.1804 44.8940   3
   0  -7   1 240.018 132.193   1
   0  -7   1 144.340 86.4649   3
   0  -7   0 1782.84 318.731   2
   0  -7   0 1859.12 313.219   1
   0  -7   0 1688.57 297.539   3
   0  -7  -1 302.482 129.561   2
   0  -7  -1 476.289 168.811   1
   0  -7  -2 210.205 100.114   2
   0  -7  -2 193.845 100.274   1
   0  -7  -3 4.85948 39.9314   2
   0  -7  -3 5.04955 50.8823   1
   0  -7  -4 834.806 209.803   1
   0  -7  -4 304.944 134.124   2
   0  -7  -5 659.238 176.410   2
   0  -7  -5 1233.58 246.013   1
   0  -7  -6 339.201 133.113   2
   0  -7  -6 637.254 177.909   1
   0  -7  -7 513.727 155.171   2
   0  -7  -7 622.432 162.827   1
   0  -7  -8 232.926 127.554   2
   0  -7  -8-63.0770 81.6397   1
   0  -7  -9 79.0732 90.3772   2
   0  -7  -9-78.0547 67.3819   1
   0  -7 -10 20.5472 58.6516   2
   0  -7 -11 427.098 162.838   2
   0  -8   9 53.2122 68.0362   3
   0  -8   8 235.197 138.499   3
   0  -8   7 94.3608 83.9639   3
   0  -8   6 90.5969 109.065   3
   0  -8   5 5.08767 6.69441   3
   0  -8   4 116.365 94.8952   3
   0  -8   3 253.184 117.200   3
   0  -8   2 252.240 122.842   3
   0  -8   1 125.605 103.013   3
   0  -8   0 928.414 222.820   3
   0  -8  -1 1044.72 253.532   1
   0  -8  -1 749.713 212.255   3
   0  -8  -1 887.754 252.626   2
   0  -8  -2 246.815 119.300   1
   0  -8  -2 234.940 124.183   2
   0  -8  -3 588.427 175.680   1
   0  -8  -3 668.170 211.491   2
   0  -8  -4 920.696 248.880   2
   0  -8  -4 555.853 169.944   1
   0  -8  -5 253.961 119.768   2
   0  -8  -5 252.881 108.218   1
   0  -8  -6 287.569 156.270   2
   0  -8  -7-20.8955 68.4317   2
   0  -8  -8 246.310 117.335   2
   0  -9   6 127.466 112.114   3
   0  -9   5 662.246 235.268   3
   0  -9   4 303.581 167.306   3
   0  -9   3 500.833 204.719   3
   0  -9   2-250.613 150.315   3
   0  -9   1 362.159 155.208   3
   0  -9  -3 353.834 143.358   2
   0  -9  -4 107.434 124.614   2
   0  -9  -5 371.061 178.324   2
   1  -9  -4 331.342 183.237   2
   1  -9  -3 136.869 131.182   2
   1  -9   1 228.094 140.865   3
   1  -9   2 96.6973 75.8720   3
   1  -9   3 81.9806 45.7393   3
   1  -9   4 97.3061 124.552   3
   1  -8  -9-20.1707 34.2126   2
   1  -8  -8 187.075 82.3515   2
   1  -8  -7-73.2688 69.7382   2
   1  -8  -6 1035.70 276.211   2
   1  -8  -5 217.464 122.818   2
   1  -8  -4 154.728 114.499   2
   1  -8  -3 292.356 141.208   2
   1  -8  -2 357.526 160.753   2
   1  -8  -1 439.894 185.676   2
   1  -8   0 579.100 216.855   2
   1  -8   1 151.963 104.469   3
   1  -8   1 35.8416 27.7673   2
   1  -8   2 139.202 139.601   3
   1  -8   3 170.243 101.377   3
   1  -8   4 317.616 173.627   3
   1  -8   5-16.0642 52.8016   3
   1  -8   6-27.9550 82.0610   3
   1  -8   7 25.2298 68.3303   3
   1  -7 -11 931.701 249.029   2
   1  -7 -10 53.1102 15.7874   2
   1  -7  -9 205.788 122.317   2
   1  -7  -8 282.891 152.872   2
   1  -7  -7 372.118 166.952   2
   1  -7  -6 396.768 130.227   2
   1  -7  -5 1044.13 261.004   2
   1  -7  -4 81.7019 76.3578   2
   1  -7  -4 104.557 73.6299   1
   1  -7  -3 1138.12 267.276   2
   1  -7  -3 1269.22 239.861   1
   1  -7  -2 1307.31 284.234   2
   1  -7  -1 210.730 140.652   2
   1  -7   0 1371.57 293.653   2
   1  -7   1 292.893 135.477   2
   1  -7   2 200.556 112.381   2
   1  -7   3 107.941 95.6787   3
   1  -7   3 28.6989 53.2130   2
   1  -7   4 31.1543 54.3432   3
   1  -7   5 95.0534 78.3705   3
   1  -7   6 430.727 185.483   3
   1  -7   7 180.739 134.613   3
   1  -7   8 58.2475 49.1102   3
   1  -7   9 508.176 212.821   3
   1  -7  10-39.0084 62.8237   3
   1  -6 -14 218.710 122.684   2
   1  -6 -13 53.0480 47.9292   2
   1  -6 -12 340.275 141.305   2
   1  -6 -11 118.272 84.1289   2
   1  -6 -10 792.403 211.446   2
   1  -6  -9 204.998 88.9194   2
   1  -6  -8 122.852 95.9401   2
   1  -6  -8 5.37891 57.9733   1
   1  -6  -7 91.9487 51.6437   2
   1  -6  -7-194.689 95.3263   1
   1  -6  -6-30.4930 11.0438   1
   1  -6  -6-41.4964 71.3588   2
   1  -6  -5 575.632 139.677   1
   1  -6  -5 427.226 152.551   2
   1  -6  -4-17.8326 29.8276   1
  -1   6   4-27.9303 28.4170   1
   1  -6  -4 65.2920 36.1356   2
  -1   6   3 397.640 118.650   1
   1  -6  -3 622.194 153.704   1
   1  -6  -3 488.807 177.140   2
  -1   6   2 3881.48 360.122   1
   1  -6  -2 3422.92 449.053   2
   1  -6  -2 3936.06 394.449   1
   1  -6  -1 7956.53 678.910   2
  -1   6   1 8218.84 530.783   1
  -1   6   0 469.629 148.536   1
   1  -6   0 283.382 120.732   2
  -1   6  -1 229.101 105.961   1
   1  -6   1 70.9120 76.5054   2
   1  -6   2 163.800 86.0205   2
   1  -6   3 525.003 193.518   2
   1  -6   4 3680.54 471.639   3
   1  -6   4 3576.27 482.202   2
   1  -6   5 1026.20 260.835   3
   1  -6   6 2370.77 389.070   3
   1  -6   7 219.526 107.849   3
   1  -6   8 368.868 156.713   3
   1  -6   9 405.335 169.122   3
   1  -6  10 1467.43 356.359   3
   1  -6  11 57.6739 111.398   3
   1  -6  12 152.216 130.659   3
   1  -6  13 126.167 122.119   3
   1  -5 -16 282.273 155.820   2
   1  -5 -15 407.025 141.197   2
   1  -5 -14 434.500 160.730   2
   1  -5 -13 457.064 161.662   2
   1  -5 -12 786.434 206.960   2
   1  -5 -11 103.858 51.5816   1
   1  -5 -11 66.0829 68.3360   2
   1  -5 -10 1570.90 290.217   2
   1  -5 -10 1660.56 214.861   1
   1  -5  -9 872.154 155.254   1
   1  -5  -9 817.206 209.613   2
   1  -5  -8 628.744 161.104   2
   1  -5  -8 898.784 164.220   1
   1  -5  -8 608.486 158.821   3
   1  -5  -7 1913.92 228.645   1
   1  -5  -7 1624.03 244.175   3
   1  -5  -7 1909.73 295.387   2
   1  -5  -6 725.131 127.047   1
   1  -5  -6 714.196 162.912   3
   1  -5  -6 902.557 203.256   2
   1  -5  -5 252.947 84.1101   3
   1  -5  -5 245.534 61.8317   1
   1  -5  -5 348.642 114.474   2
  -1   5   4 226.986 72.3578   1
   1  -5  -4 657.653 149.180   1
  -1   5   4 310.897 112.905   2
   1  -5  -4 354.038 125.249   2
  -1   5   3 52.6706 48.8666   2
   1  -5  -3-42.7151 61.2917   2
  -1   5   3 4.99501 8.12237   1
   1  -5  -2 3308.47 326.734   1
  -1   5   2 3662.85 417.925   2
  -1   5   2 2556.09 265.921   1
   1  -5  -2 3367.27 400.412   2
   1  -5  -1 4671.36 390.500   1
   1  -5  -1 4293.31 450.271   2
  -1   5   1 3144.67 298.788   1
   1  -5   0 7224.08 587.251   2
  -1   5   0 5466.26 414.914   1
   1  -5   1 6512.65 562.328   2
  -1   5  -1 4836.79 401.396   1
   1  -5   2 296.534 101.873   2
  -1   5  -2 206.617 72.3964   1
   1  -5   3 7321.60 612.378   2
  -1   5  -3 5313.18 448.933   1
   1  -5   4 17.4690 46.3547   2
  -1   5  -4 9.03590 8.90104   1
   1  -5   5 7309.03 621.116   3
   1  -5   6 1030.84 240.432   3
   1  -5   7 360.886 112.676   3
   1  -5   8 821.412 231.223   3
   1  -5   9 1737.59 346.714   3
   1  -5  10 4093.69 542.637   3
   1  -5  11 132.753 110.609   3
   1  -5  12 21.9120 26.1065   3
   1  -5  13 42.2946 60.1793   3
   1  -5  14 515.575 228.638   3
   1  -5  15 430.682 216.924   3
   1  -4 -18 49.9528 96.9185   2
   1  -4 -17 655.530 208.061   2
   1  -4 -16 15.4772 44.8716   2
   1  -4 -15 294.017 119.096   2
   1  -4 -14 137.453 80.3171   2
   1  -4 -14 137.163 72.1874   1
   1  -4 -13 758.746 199.387   2
   1  -4 -13 779.809 168.517   1
   1  -4 -12-46.5260 36.2908   2
   1  -4 -12 89.6500 59.8425   1
   1  -4 -11 984.211 170.916   1
   1  -4 -11 999.704 229.551   2
   1  -4 -10 169.563 59.5034   1
   1  -4 -10 170.289 77.7934   2
   1  -4  -9 72.8066 43.3293   3
   1  -4  -9 43.8942 7.80091   1
   1  -4  -9 102.543 65.9913   2
   1  -4  -8 2556.57 314.579   3
   1  -4  -8 3504.68 383.198   2
   1  -4  -8 3577.46 281.239   1
   1  -4  -7 310.020 102.125   2
   1  -4  -7 201.486 91.6519   3
   1  -4  -7 290.364 74.7106   1
  -1   4   6 2223.93 302.976   2
   1  -4  -6 2313.99 217.420   1
   1  -4  -6 1608.44 236.833   3
   1  -4  -6 2267.24 292.508   2
   1  -4  -5 1692.05 236.254   3
   1  -4  -5 2133.90 211.724   1
  -1   4   5 1782.45 262.880   2
   1  -4  -5 1984.21 273.888   2
  -1   4   4 161.412 45.7590   1
  -1   4   4 226.141 82.9989   2
   1  -4  -4 123.434 11.0015   1
   1  -4  -4 246.082 82.5252   2
   1  -4  -3 23.6691 14.7154   2
  -1   4   3-5.50955 4.81396   1
  -1   4   3 35.7877 53.2925   2
   1  -4  -3-5.18631 19.1015   1
   1  -4  -2 2377.02 297.914   2
  -1   4   2 2435.15 301.953   2
  -1   4   2 2266.36 207.291   1
   1  -4  -2 2016.92 196.345   1
  -1   4   1 5455.40 456.201   2
   1  -4  -1 5636.03 457.931   2
   1  -4  -1 6013.91 384.056   1
  -1   4   1 5642.71 352.965   1
  -1   4   0 18245.2 661.543   1
   1  -4   0 17376.1 813.200   2
   1  -4   0 18392.7 690.475   1
  -1   4  -1 694.785 133.184   1
   1  -4   1 628.025 184.523   2
  -1   4  -1 519.886 152.780   2
  -1   4  -2 1402.14 239.959   2
  -1   4  -2 1226.57 181.061   1
   1  -4   2 1143.05 218.292   2
   1  -4   3 2538.60 330.257   2
  -1   4  -3 2819.47 290.639   1
  -1   4  -3 2882.85 345.668   2
  -1   4  -4 645.239 154.742   1
   1  -4   4 306.912 121.720   2
  -1   4  -4 350.042 109.809   2
   1  -4   5 3340.23 384.166   3
   1  -4   5 3222.11 395.742   2
  -1   4  -5 3524.76 404.064   2
  -1   4  -5 2715.41 313.382   1
   1  -4   6 1805.70 286.121   3
  -1   4  -6 1207.71 213.023   1
   1  -4   7 2604.97 360.339   3
   1  -4   8 38.6395 52.6202   3
   1  -4   9 6462.13 625.689   3
   1  -4  10 1501.15 315.076   3
   1  -4  11 186.174 110.048   3
   1  -4  12 254.369 136.254   3
   1  -4  13-131.252 106.205   3
   1  -4  14 115.394 102.691   3
   1  -4  15 251.435 121.128   3
   1  -4  16 306.372 140.752   3
   1  -3 -19 41.9125 73.6707   2
   1  -3 -18 450.307 164.846   2
   1  -3 -17-123.069 104.991   2
   1  -3 -16 476.915 175.209   2
   1  -3 -15-6.81273 44.9174   2
   1  -3 -14-11.1245 73.6846   2
   1  -3 -13-75.2330 63.3761   1
   1  -3 -13-107.773 120.336   2
   1  -3 -12 117.235 62.6168   1
   1  -3 -12 2.21972 59.2278   2
   1  -3 -11 10808.6 563.984   1
   1  -3 -11 10753.6 685.169   2
   1  -3 -10 2798.45 271.038   1
   1  -3 -10 2906.55 353.755   2
   1  -3 -10 2535.97 335.039   3
   1  -3  -9 7189.27 541.508   2
   1  -3  -9 6910.51 407.819   1
   1  -3  -8 1088.93 147.679   1
   1  -3  -8 1221.77 214.730   3
   1  -3  -8 1142.13 210.443   2
   1  -3  -7 1744.69 242.616   3
   1  -3  -7 1833.36 180.151   1
   1  -3  -7 1712.76 243.017   2
   1  -3  -6 71.6440 49.5526   3
   1  -3  -6 17.3265 14.4490   1
   1  -3  -6 105.132 55.7920   2
   1  -3  -5 1598.21 212.071   3
   1  -3  -5 1640.21 153.294   1
   1  -3  -5 1621.78 226.376   2
   1  -3  -4 1745.30 239.176   2
   1  -3  -4 1856.06 163.495   1
   1  -3  -3 4611.96 253.763   1
  -1   3   3 4773.80 252.973   1
   1  -3  -3 4769.84 378.149   2
   1  -3  -2 3382.50 220.435   1
  -1   3   2 3370.50 211.459   1
   1  -3  -2 3426.18 312.557   2
   1  -3  -1 22706.0 614.654   1
   1  -3  -1 23036.4 824.711   2
  -1   3   1 22398.5 588.080   1
   1  -3   0 37109.6 1059.68   2
   1  -3   0 36062.8 837.837   1
  -1   3   0 36851.1 802.332   1
   1  -3   1 1192.96 231.308   2
  -1   3  -1 1808.35 193.220   1
   1  -3   2 155.144 98.7398   2
  -1   3  -2 306.809 93.9929   1
   1  -3   3 364.749 126.655   2
  -1   3  -3 340.553 99.3684   1
   1  -3   4 410.137 128.096   2
  -1   3  -4 282.556 94.2211   1
   1  -3   5 1152.16 215.559   3
   1  -3   5 1221.58 204.959   2
  -1   3  -5 1145.25 180.085   1
  -1   3  -6 939.421 182.810   1
   1  -3   6 783.902 173.623   3
  -1   3  -7 2708.76 310.531   1
  -1   3  -7 2757.42 331.186   2
   1  -3   7 2787.26 347.519   3
  -1   3  -8 3861.83 400.086   2
   1  -3   8 4041.38 436.422   3
  -1   3  -8 3654.07 381.292   1
   1  -3   9 692.648 194.867   3
   1  -3  10 2880.92 403.135   3
   1  -3  11 10844.0 821.037   3
   1  -3  12 311.272 127.518   3
   1  -3  13-156.893 121.470   3
   1  -3  14 263.433 140.908   3
   1  -3  15 1291.00 325.762   3
   1  -3  16 71.7995 53.3230   3
   1  -3  17 514.889 233.418   3
   1  -2 -20 164.103 158.140   2
  -1   2  19 637.712 245.596   3
   1  -2 -19 655.322 233.909   2
  -1   2  18 131.089 111.459   3
   1  -2 -18 44.2377 55.4250   2
  -1   2  17 24.5233 17.0754   3
   1  -2 -17-66.1230 65.9464   2
   1  -2 -16 667.530 210.037   2
  -1   2  16 624.647 211.545   3
  -1   2  15 80.9237 57.4488   3
   1  -2 -15 59.8338 91.8914   2
   1  -2 -14 1546.26 286.988   2
  -1   2  14 1586.09 299.756   3
   1  -2 -13 473.481 155.959   2
  -1   2  13 605.981 174.676   3
   1  -2 -12 9999.33 680.409   2
  -1   2  12 10789.7 716.986   3
   1  -2 -11 2295.32 345.650   3
  -1   2  11 2392.73 315.214   3
   1  -2 -11 2224.58 312.780   2
  -1   2  10 222.952 84.7040   3
   1  -2 -10 287.759 108.319   3
   1  -2 -10 205.229 54.7036   2
   1  -2  -9 544.363 137.942   3
   1  -2  -9 679.972 160.986   2
  -1   2   9 660.255 140.900   3
  -1   2   8 15874.4 719.501   3
   1  -2  -8 15183.6 726.859   2
   1  -2  -8 16007.0 755.477   3
   1  -2  -7 6217.09 448.164   3
   1  -2  -7 5993.24 439.026   2
   1  -2  -6 3742.67 326.358   2
   1  -2  -6 3817.15 329.498   3
   1  -2  -5 10348.2 349.143   1
   1  -2  -5 10365.1 506.459   3
   1  -2  -5 10391.8 525.336   2
   1  -2  -4 28285.6 521.804   1
  -1   2   4 28807.5 846.999   2
   1  -2  -4 28959.7 855.696   2
   1  -2  -4 28537.7 802.078   3
   1  -2  -3 4192.05 314.208   2
   1  -2  -3 3567.90 176.274   1
  -1   2   2 759.149 77.7264   1
   1  -2  -2 436.908 21.9415   1
   1  -2  -2 908.168 148.128   2
   1  -2  -1 2020.84 223.602   2
   1  -2  -1 2272.01 167.030   1
  -1   2   1 1980.93 136.708   1
   1  -2   0 331.107 92.2061   2
  -1   2   0 335.227 59.4414   1
   1  -2   1 3280.88 281.515   2
  -1   2  -1 3251.76 203.877   1
   1  -2   2 2603.87 253.980   2
  -1   2  -2 2530.87 196.864   1
   1  -2   3 1559.05 202.734   2
  -1   2  -3 1529.91 177.240   1
   1  -2   4 28496.7 888.764   2
   1  -2   5 118.221 99.1147   3
   1  -2   6 10515.4 601.545   3
   1  -2   7 2040.62 277.998   3
  -1   2  -7 1317.39 208.224   2
  -1   2  -8 1591.24 232.078   2
   1  -2   8 1829.26 271.049   3
   1  -2   9 437.152 149.811   3
  -1   2  -9 486.394 135.606   2
  -1   2 -10 3279.35 363.441   2
   1  -2  10 3565.74 416.255   3
   1  -2  11 1468.52 284.166   3
   1  -2  12 6624.74 629.966   3
   1  -2  13 1887.91 333.955   3
   1  -2  14 1549.83 314.073   3
   1  -2  15 27.6871 4.96717   3
   1  -2  16 1259.51 315.156   3
   1  -2  17 486.208 223.493   3
   1  -2  18 265.285 160.117   3
   1  -2  19-32.3027 25.1500   3
  -1   1  19 58.2430 52.3936   3
  -1   1  18 133.514 76.0313   3
  -1   1  17 403.719 178.127   3
  -1   1  16 677.146 209.802   3
  -1   1  15 896.018 225.113   3
  -1   1  14 1033.57 242.130   3
  -1   1  13 3224.77 399.643   3
  -1   1  12 1148.23 221.432   3
   1  -1 -11 1.08908 11.2380   3
  -1   1  11 77.1416 72.5709   3
   1  -1 -10 10425.6 688.869   3
  -1   1  10 13952.5 731.922   3
  -1   1   9 9081.90 565.421   3
   1  -1  -9 7269.88 546.697   3
  -1   1   8 6818.03 462.210   3
   1  -1  -8 7245.86 501.058   3
  -1   1   7-36.7526 39.2484   3
   1  -1  -7-31.0265 29.8807   3
  -1   1   6 1131.54 172.472   3
   1  -1  -6 1245.92 186.959   3
  -1   1   5 5154.72 341.661   3
   1  -1  -5 5153.50 353.265   3
   1  -1  -5 4901.30 342.325   2
   1  -1  -4 16124.7 572.867   3
  -1   1   4 17113.3 588.889   3
   1  -1  -4 15893.3 586.678   2
   1  -1  -3 778.513 122.070   2
   1  -1  -2 1194.96 145.722   2
   1  -1  -1 2842.96 210.389   2
  -1   1   0 109438. 737.790   1
   1  -1   0 107401. 1290.14   2
   1  -1   1 71773.0 1040.41   2
   1  -1   2 3644.20 256.408   2
   1  -1   3 410.438 84.3441   2
   1  -1   4 11375.7 475.256   2
   1  -1   5 4141.71 318.434   3
   1  -1   6 3853.16 329.878   3
  -1   1  -6 3495.97 282.302   2
   1  -1   7 8576.41 517.818   3
  -1   1  -7 7725.23 440.523   2
   1  -1   8 162.975 76.5606   3
  -1   1  -8 225.637 80.4693   2
  -1   1  -9 50.2718 61.2024   2
  -1   1  -9 41.6384 45.9607   3
   1  -1   9 11.9179 36.3272   3
   1  -1  10 6124.24 511.817   3
  -1   1 -10 5713.31 479.227   3
   1  -1  11 14829.9 827.224   3
  -1   1 -11 14180.1 793.977   3
   1  -1  12 9344.29 679.644   3
   1  -1  13-161.860 126.409   3
   1  -1  14 1346.96 288.892   3
   1  -1  15 142.143 117.200   3
   1  -1  16 2617.98 458.324   3
   1  -1  17 178.974 122.745   3
   1  -1  18 454.658 161.661   3
   1  -1  19-42.4884 48.2788   3
  -1   0  19-1.74034 18.8385   3
  -1   0  18 1597.52 351.857   3
  -1   0  17 80.5302 78.2986   3
  -1   0  16 202.747 121.179   3
  -1   0  15 362.935 156.765   3
  -1   0  14 227.758 110.533   3
  -1   0  13 529.763 165.076   3
  -1   0  12 59.0825 12.7583   3
  -1   0  11 239.433 103.626   3
   1   0 -10 3461.01 387.772   3
  -1   0  10 3758.10 394.708   3
   1   0  -9 2630.31 315.561   3
  -1   0   9 3471.62 360.061   3
  -1   0   8 41.1966 25.9370   3
   1   0  -8-26.5277 59.0176   3
  -1   0   7 19288.5 755.617   3
  -1   0   6 39871.6 1012.78   3
  -1   0   5 1313.48 171.925   3
  -1   0   4 31575.6 781.110   3
  -1   0   3 773.431 121.393   3
  -1   0   2 11887.4 395.774   3
   1   0  -2 12197.4 270.473   1
   1   0   2 86959.3 846.372   2
  -1   0  -3 1555.44 129.110   2
   1   0   3 1566.65 129.941   2
  -1   0  -4 21655.7 525.367   2
   1   0   4 22995.5 589.996   3
   1   0   5 10508.1 448.244   3
  -1   0  -5 9647.84 425.655   3
   1   0   6 5676.16 361.362   3
  -1   0  -6 4964.17 325.091   3
  -1   0  -7 2125.49 224.863   3
   1   0   7 2381.70 247.663   3
  -1   0  -8 440.987 111.752   3
   1   0   8 471.564 121.949   3
  -1   0  -9 1328.80 206.531   3
   1   0   9 1570.85 232.711   3
  -1   0 -10 82.9632 49.9800   3
   1   0  10 146.584 67.5399   3
  -1   0 -11 2043.11 282.234   3
   1   0  11 2828.90 342.152   3
  -1   0 -12 976.048 208.925   3
   1   0  12 793.586 192.338   3
   1   0  13 310.910 140.118   3
   1   0  14 3702.60 471.763   3
   1   0  15 115.355 109.002   3
   1   0  16 37.0696 44.5637   3
   1   0  17 213.803 116.138   3
   1   0  18 2.19745 36.1709   3
   1   0  19-70.5007 58.0962   3
   1   0  20 608.138 248.897   3
  -1  -1  19 494.143 213.217   3
  -1  -1  18 151.887 123.665   3
  -1  -1  17 76.9820 109.353   3
  -1  -1  16 427.116 188.212   3
  -1  -1  15 435.116 190.288   3
  -1  -1  14 2465.52 396.736   3
  -1  -1  13 864.685 221.966   3
  -1  -1  12 382.110 123.868   3
  -1  -1  11 3257.23 388.511   3
  -1  -1  10 524.697 154.284   3
   1   1 -10 406.285 140.895   3
  -1  -1   9 10223.4 625.494   3
  -1  -1   8 4027.82 380.228   3
  -1  -1   7 5254.24 403.606   3
   1   1  -6 28838.6 807.626   1
  -1  -1   6 31135.8 907.979   3
   1   1  -5 49480.9 970.407   1
  -1  -1   5 50903.5 1084.99   3
  -1  -1   4 1309.66 163.912   3
   1   1  -4 1321.89 150.871   1
  -1  -1   3 44053.4 835.787   3
   1   1  -3 44394.4 775.560   1
   1   1  -2 173.875 53.0831   1
  -1  -1   2 58.9692 40.6714   3
   1   1  -1 14147.5 383.880   1
  -1  -1   1 14264.5 376.508   3
  -1  -1   0 5360.78 222.643   3
   1   1   0 5829.45 294.228   1
   1   1   1 139658. 1147.26   1
   1   1   3 72.7116 17.0316   3
   1   1   4 6522.38 285.042   3
  -1  -1  -4 7079.79 282.174   3
   1   1   5 1291.44 138.527   3
  -1  -1  -5 1516.46 141.898   3
   1   1   6 7481.13 361.537   3
  -1  -1  -6 7663.14 374.492   3
  -1  -1  -7 7014.10 398.760   3
   1   1   7 7392.83 399.101   3
   1   1   8 1305.76 187.748   3
  -1  -1  -8 1221.02 180.835   3
  -1  -1  -9 9.16911 19.5007   3
   1   1   9 63.7964 51.8628   3
   1   1  10 32.0908 40.4374   3
  -1  -1 -10 13.6934 28.6690   3
  -1  -1 -11 115.241 67.1136   3
   1   1  11 197.046 89.8054   3
  -1  -1 -12 3623.17 394.887   3
   1   1  12 5407.20 475.296   3
   1   1  13 2077.97 307.773   3
  -1  -1 -13 1958.37 304.304   3
   1   1  14 6674.18 578.172   3
   1   1  15 753.918 208.219   3
   1   1  16 145.705 71.2854   3
   1   1  17 760.942 226.447   3
   1   1  18-54.2947 59.7419   3
   1   1  19 260.948 127.028   3
   1   1  20 75.3889 57.5506   3
   1   1  21 256.085 185.083   3
  -1  -2  18 517.567 213.372   3
  -1  -2  17 846.386 271.459   3
  -1  -2  16 289.922 134.463   3
  -1  -2  15 777.199 235.142   3
  -1  -2  14-34.8232 79.2743   3
  -1  -2  13 65.3526 61.8859   3
  -1  -2  12 3716.85 450.783   3
  -1  -2  11 219.367 106.826   3
  -1  -2  10 6431.45 560.941   3
   1   2 -10 5518.98 474.326   1
  -1  -2   9 1116.53 232.683   3
   1   2  -9 987.990 198.317   1
   1   2  -8 31.4197 57.3223   1
  -1  -2   8-42.8759 64.7401   3
   1   2  -7 1016.81 173.986   1
  -1  -2   7 1154.41 211.567   3
  -1  -2   6 9249.28 545.418   3
   1   2  -6 9296.50 502.420   1
  -1  -2   5 36238.0 975.694   3
   1   2  -5 35791.8 942.100   1
   1   2  -4 666.833 136.376   1
  -1  -2   4 517.031 103.624   3
  -1  -2   3 19176.0 595.184   3
   1   2  -3 19113.0 619.002   1
  -1  -2   2 581.043 99.4182   3
   1   2  -2 695.881 115.991   1
   1   2  -1 9193.08 385.153   1
  -1  -2   1 8490.76 309.435   3
   1   2  -1 7951.86 295.451   3
  -1  -2   0 1021.81 89.4477   3
   1   2   0 955.659 84.4969   3
   1   2   1 16144.3 483.949   1
   1   2   1 15247.3 356.633   2
  -1  -2  -1 15816.3 269.381   3
   1   2   2 9905.35 390.983   1
  -1  -2  -2 9147.76 226.443   2
   1   2   2 9327.25 236.668   2
  -1  -2  -3 9638.86 228.203   2
   1   2   3 9622.92 220.972   2
   1   2   3 10203.0 405.777   1
  -1  -2  -4 4603.91 194.193   3
   1   2   4 4090.13 161.501   3
  -1  -2  -4 3576.92 259.124   1
  -1  -2  -4 3689.12 155.291   2
  -1  -2  -5 1308.03 111.042   2
  -1  -2  -5 1257.70 114.493   3
   1   2   5 1500.46 114.863   3
  -1  -2  -5 1210.50 149.350   1
  -1  -2  -6 16981.5 498.929   3
   1   2   6 16356.2 468.608   3
   1   2   7 60.0519 40.3622   3
  -1  -2  -7 137.262 79.2171   3
  -1  -2  -8 12.2273 28.7553   3
   1   2   8-3.04063 21.5430   3
   1   2   9 14.1362 16.0077   3
  -1  -2  -9 12.2481 20.7598   3
   1   2  10 3419.75 305.313   3
  -1  -2 -10 3213.24 327.575   3
   1   2  11 4190.04 362.686   3
  -1  -2 -11 2761.43 316.636   3
  -1  -2 -12 709.856 169.988   3
   1   2  12 917.769 186.975   3
   1   2  13 1520.06 256.907   3
  -1  -2 -13 824.159 189.397   3
   1   2  14 6037.61 526.507   3
   1   2  15-20.5221 61.7470   3
   1   2  16 154.540 123.871   3
   1   2  17 28.0168 51.6634   3
   1   2  18-14.7554 49.9702   3
   1   2  19-31.5321 72.1310   3
   1   2  20 25.6040 43.9026   3
   1   2  21 559.213 245.112   3
  -1  -3  17 1072.37 320.483   3
  -1  -3  16-23.6678 47.7863   3
  -1  -3  15 1837.28 384.877   3
  -1  -3  14 88.0795 106.797   3
  -1  -3  13 2179.91 384.461   3
  -1  -3  12 810.132 222.373   3
  -1  -3  11 1229.77 285.577   3
  -1  -3  10-13.6248 33.8552   3
  -1  -3   9 983.225 214.095   3
   1   3  -8-55.3324 68.9485   1
  -1  -3   8-24.7798 52.1584   3
   1   3  -8-36.5625 51.4013   3
  -1  -3   7 265.918 80.2701   3
   1   3  -7 264.356 91.1371   1
  -1  -3   6 6265.40 464.624   3
   1   3  -6 5366.28 428.006   1
  -1  -3   5 73.5123 38.7135   3
   1   3  -5 94.0402 71.1135   1
   1   3  -4 1513.85 216.296   1
  -1  -3   4 1412.28 198.965   3
   1   3  -4 1299.08 178.019   3
  -1  -3   3 230.004 83.5861   3
   1   3  -3 198.979 56.5300   1
   1   3  -3 103.085 53.1057   3
  -1  -3   2 3624.61 266.564   3
   1   3  -2 3722.17 302.892   1
   1   3  -2 3457.97 276.425   2
   1   3  -1 5149.95 323.548   2
   1   3  -1 5931.01 367.360   1
  -1  -3   1 5383.45 296.600   3
   1   3   0 3014.06 234.641   2
  -1  -3   0 3190.41 203.201   3
   1   3   0 3373.37 272.832   1
  -1  -3  -1 16210.2 408.999   3
  -1  -3  -1 15673.8 586.464   1
  -1  -3  -1 15226.1 480.707   2
   1   3   1 15595.5 487.469   2
   1   3   1 15586.4 570.849   1
   1   3   2 13232.2 423.029   2
  -1  -3  -2 12288.1 413.564   2
  -1  -3  -2 13745.0 557.404   1
   1   3   2 13620.0 533.684   1
   1   3   3 12599.5 515.996   1
   1   3   3 11975.9 381.491   2
  -1  -3  -3 11623.9 379.833   2
  -1  -3  -3 11373.4 505.096   1
  -1  -3  -4 2780.03 181.102   2
   1   3   4 2844.11 181.254   2
  -1  -3  -4 2947.75 156.223   3
   1   3   4 3147.23 264.643   1
  -1  -3  -4 2690.57 239.087   1
  -1  -3  -5 33565.4 680.245   2
  -1  -3  -5 32165.4 909.622   1
  -1  -3  -5 33414.1 618.382   3
  -1  -3  -6 4346.37 333.939   1
  -1  -3  -6 4487.11 256.752   3
  -1  -3  -6 4451.53 256.082   2
  -1  -3  -7 2437.87 257.808   1
  -1  -3  -7 2273.19 197.886   2
  -1  -3  -7 2449.35 216.421   3
   1   3   8 1318.49 153.649   3
  -1  -3  -8 1159.73 150.135   2
  -1  -3  -8 920.216 126.984   3
  -1  -3  -8 1078.58 181.898   1
  -1  -3  -9 79.8980 41.7652   2
  -1  -3  -9 37.7635 42.0445   3
   1   3   9 48.2962 36.9251   3
  -1  -3  -9 35.4785 18.4882   1
  -1  -3 -10 60.7121 43.8897   2
  -1  -3 -10 51.4304 38.1237   3
   1   3  10 46.6420 40.9021   3
  -1  -3 -11 160.813 83.0377   3
   1   3  11 295.525 93.5531   3
  -1  -3 -11 234.436 66.7450   2
  -1  -3 -12 602.630 152.830   3
   1   3  12 861.511 170.672   3
  -1  -3 -12 753.090 156.921   2
   1   3  13 12140.5 665.707   3
  -1  -3 -13 10616.4 610.956   2
  -1  -3 -13 12391.5 741.551   3
   1   3  14-11.8229 39.9968   3
  -1  -3 -14-3.31691 25.1889   2
  -1  -3 -14 40.4794 45.7166   3
  -1  -3 -15 112.600 60.3499   2
   1   3  15 27.7341 44.1207   3
   1   3  16 182.395 66.4053   3
  -1  -3 -16 255.328 106.213   2
   1   3  17-0.27587 43.0532   3
  -1  -3 -17 11.0256 11.8975   2
  -1  -3 -18-60.2359 78.2607   2
   1   3  18 26.0280 44.9189   3
   1   3  19 89.6435 89.8565   3
   1   3  20 125.448 89.1398   3
  -1  -4  16 972.630 298.720   3
  -1  -4  15 600.470 240.099   3
  -1  -4  14 1096.08 312.986   3
  -1  -4  13 97.6916 96.7237   3
  -1  -4  12 1752.28 355.975   3
  -1  -4  11 460.268 160.526   3
  -1  -4  10 717.311 199.302   3
  -1  -4   9-11.1252 108.552   3
  -1  -4   8 295.760 118.747   3
   1   4  -7 419.589 132.646   2
  -1  -4   7 357.706 136.575   3
   1   4  -7 295.120 120.621   3
   1   4  -6 2747.56 336.196   1
   1   4  -6 2831.72 333.299   2
  -1  -4   6 2736.90 333.883   3
   1   4  -5 593.143 139.149   2
   1   4  -5 1003.19 201.671   1
  -1  -4   5 810.992 172.943   3
  -1  -4   4 7881.86 543.695   1
   1   4  -4 8722.76 540.230   2
   1   4  -4 8863.20 560.544   1
  -1  -4   4 8712.62 538.014   3
  -1  -4   3 111.360 67.7601   1
  -1  -4   3 99.0559 70.2713   3
   1   4  -3-27.5883 64.2281   1
  -1  -4   2 752.516 145.821   3
  -1  -4   2 741.486 169.185   1
   1   4  -2 859.453 153.335   1
   1   4  -1 1076.20 178.156   1
  -1  -4   1 961.672 141.286   3
   1   4  -1 1019.79 164.531   2
  -1  -4   1 1012.83 195.709   1
  -1  -4   0 3858.64 270.516   3
   1   4   0 4203.09 324.906   2
   1   4   0 4209.83 351.274   1
  -1  -4   0 3807.51 348.943   1
   1   4   1 3003.85 259.043   2
  -1  -4  -1 2714.07 250.756   2
  -1  -4  -1 2574.74 255.797   1
   1   4   1 2942.32 281.449   1
  -1  -4  -1 2842.95 225.108   3
  -1  -4  -2 9174.21 449.402   2
  -1  -4  -2 8683.03 493.400   1
   1   4   2 9608.99 456.979   2
   1   4   2 9328.73 501.809   1
  -1  -4  -3 1300.51 163.255   2
   1   4   3 1511.32 166.275   2
  -1  -4  -3 1763.74 251.546   1
   1   4   3 1438.48 192.876   1
  -1  -4  -4 4213.97 347.180   1
   1   4   4 4203.23 338.651   1
   1   4   4 3844.59 265.481   2
  -1  -4  -4 4126.49 286.423   2
  -1  -4  -5 0.82404 62.3092   1
  -1  -4  -5 33.8632 26.3303   3
   1   4   5 84.0920 43.6427   2
   1   4   5 45.8464 31.6391   1
  -1  -4  -5 61.2834 56.5741   2
  -1  -4  -6 4150.51 286.866   2
  -1  -4  -6 4060.09 344.261   1
  -1  -4  -6 4188.38 265.459   3
  -1  -4  -7 6474.61 458.381   1
  -1  -4  -7 6526.16 350.918   3
  -1  -4  -7 6272.62 366.100   2
  -1  -4  -8 1554.83 195.436   2
  -1  -4  -8 1435.98 222.309   1
  -1  -4  -8 1181.59 164.094   3
  -1  -4  -9 212.355 72.4637   1
  -1  -4  -9 204.141 60.2758   3
  -1  -4  -9 227.844 72.5971   2
  -1  -4 -10 4618.48 361.964   3
  -1  -4 -10 4765.04 426.628   1
  -1  -4 -10 4828.24 354.289   2
  -1  -4 -11-20.5241 42.8751   2
  -1  -4 -11-2.17104 10.0460   1
  -1  -4 -11 29.6636 18.0404   3
  -1  -4 -12 2237.33 287.597   3
  -1  -4 -12 1864.95 226.184   2
  -1  -4 -12 2143.34 319.007   1
  -1  -4 -13-33.5494 85.2028   2
  -1  -4 -13 198.285 115.217   1
  -1  -4 -13 96.0677 63.7426   3
  -1  -4 -14 275.767 90.4715   2
  -1  -4 -14 485.515 170.257   1
  -1  -4 -15 444.385 176.068   1
   1   4  15 198.157 99.2762   3
  -1  -4 -15 266.237 99.7060   2
   1   4  16-17.2889 35.0290   3
  -1  -4 -16 86.1312 58.8421   2
  -1  -4 -17 337.171 148.149   1
   1   4  17 201.545 98.3861   3
  -1  -4 -17 205.046 115.364   2
  -1  -4 -18 72.4120 70.8847   1
  -1  -4 -19 214.650 133.853   1
  -1  -5  15 35.7871 85.3079   3
  -1  -5  14 229.210 167.990   3
  -1  -5  13-7.28220 63.6859   3
  -1  -5  12 322.861 176.740   3
  -1  -5  11-55.0198 53.3901   3
  -1  -5  10 79.5268 44.7596   3
  -1  -5   9 2530.60 385.645   3
  -1  -5   8 4664.34 502.133   3
  -1  -5   7-48.6751 77.5617   3
  -1  -5   6 2026.13 317.464   3
  -1  -5   5 94.2999 69.3285   3
   1   5  -4 274.554 112.352   2
  -1  -5   4 509.284 166.478   1
   1   5  -4 351.315 99.4894   1
  -1  -5   4 386.976 135.069   3
   1   5  -3 1887.39 273.587   2
   1   5  -3 2060.41 274.963   1
  -1  -5   3 2056.59 272.083   3
  -1  -5   3 1987.61 297.596   1
  -1  -5   2 250.360 107.732   1
   1   5  -2 149.214 91.1029   1
   1   5  -2 167.960 83.0787   2
  -1  -5   2 238.051 83.4177   3
  -1  -5   1 594.380 180.852   1
   1   5  -1 504.288 139.748   1
  -1  -5   1 331.750 96.3890   3
   1   5  -1 426.026 119.220   2
  -1  -5   0 898.826 217.220   1
   1   5   0 913.640 184.226   1
  -1  -5   0 913.992 165.311   3
  -1  -5  -1 8735.62 575.877   1
  -1  -5  -1 8757.61 526.454   2
   1   5   1 9377.03 569.196   1
  -1  -5  -1 9083.24 469.673   3
  -1  -5  -2 1804.54 226.275   1
   1   5   2 2267.16 275.290   1
  -1  -5  -2 2120.25 256.107   2
  -1  -5  -3 652.962 130.847   2
   1   5   3 875.465 172.531   1
  -1  -5  -3 501.529 41.5039   1
   1   5   3 490.110 114.281   2
   1   5   4 190.422 77.0759   2
  -1  -5  -4 211.019 73.3259   2
   1   5   4 126.893 51.9037   1
  -1  -5  -5-32.3795 51.9294   2
   1   5   5-3.39312 17.2207   2
  -1  -5  -5-38.1304 45.3976   3
  -1  -5  -5 34.5161 67.8177   1
   1   5   5-48.5300 48.1539   1
   1   5   6 2511.91 255.011   2
  -1  -5  -6 2685.24 270.550   2
  -1  -5  -6 2557.69 217.721   3
  -1  -5  -6 2640.72 307.876   1
  -1  -5  -7 694.583 158.962   1
  -1  -5  -7 872.888 141.748   3
  -1  -5  -7 737.440 139.972   2
  -1  -5  -8 1666.45 208.024   2
  -1  -5  -8 1559.00 191.806   3
  -1  -5  -8 1457.93 229.579   1
  -1  -5  -9 2096.29 282.806   1
  -1  -5  -9 1799.92 221.944   3
  -1  -5  -9 2249.55 254.403   2
  -1  -5 -10 761.662 151.358   2
  -1  -5 -10 665.227 161.524   1
  -1  -5 -10 539.106 131.731   3
  -1  -5 -11 412.814 125.172   2
  -1  -5 -11 194.537 46.5224   1
  -1  -5 -11 265.940 61.4062   3
  -1  -5 -12 2373.10 301.176   2
  -1  -5 -12 1800.16 285.628   1
  -1  -5 -13 321.605 135.684   2
  -1  -5 -13 49.3055 43.1025   1
  -1  -5 -14 1668.91 263.122   2
  -1  -5 -14 1408.44 268.305   1
  -1  -5 -15 78.3677 88.9491   2
  -1  -5 -15 44.1402 49.0435   1
  -1  -5 -16 33.7328 34.0505   1
  -1  -5 -17 178.744 113.753   1
  -1  -5 -18 327.601 154.247   1
  -1  -6  14 1160.36 338.447   3
  -1  -6  13 339.655 175.696   3
  -1  -6  12 277.964 153.641   3
  -1  -6  11 404.664 175.227   3
  -1  -6  10 394.129 138.952   3
  -1  -6   9-20.8639 34.6125   3
  -1  -6   8 2259.23 371.836   3
  -1  -6   7 1510.32 303.486   3
  -1  -6   6-19.9846 80.1127   3
  -1  -6   5-14.0377 41.9857   3
  -1  -6   4 6605.59 598.844   1
  -1  -6   4 7119.18 579.926   3
  -1  -6   3 504.763 152.722   3
  -1  -6   3 479.086 180.145   1
  -1  -6   2 6020.36 488.854   3
  -1  -6   2 5770.88 535.243   1
  -1  -6   1 3637.54 418.999   1
   1   6  -1 2870.52 356.964   2
  -1  -6   1 3962.68 382.266   3
   1   6   0 459.243 146.351   2
  -1  -6   0 763.987 230.542   1
  -1  -6   0 669.095 159.434   3
  -1  -6  -1 1858.43 243.909   3
  -1  -6  -1 2213.65 337.806   1
   1   6   1 1893.20 274.489   1
   1   6   1 1427.93 241.510   2
   1   6   2 1551.36 247.166   2
  -1  -6  -2 1965.99 301.825   1
  -1  -6  -2 1892.30 263.470   2
   1   6   2 1884.09 278.468   1
  -1  -6  -3 2054.52 275.763   2
  -1  -6  -3 1947.21 289.798   1
   1   6   3 1693.41 262.798   1
   1   6   3 1402.53 228.686   2
   1   6   4 1488.86 242.944   1
  -1  -6  -4 1886.31 254.213   2
  -1  -6  -4 1592.81 247.147   1
  -1  -6  -5 73.4629 13.5253   3
   1   6   5 81.0137 44.1065   1
  -1  -6  -5 188.799 78.5711   2
   1   6   6 15.2088 35.7797   1
  -1  -6  -6-22.6212 35.6043   2
  -1  -6  -6 16.4847 7.76142   3
  -1  -6  -7 2133.78 304.086   1
  -1  -6  -7 2021.62 252.519   2
  -1  -6  -7 1482.32 188.113   3
  -1  -6  -8 66.8283 55.6760   3
  -1  -6  -8 39.2564 58.7437   2
  -1  -6  -8 44.7334 53.7623   1
  -1  -6  -9 298.722 113.183   1
  -1  -6  -9 391.483 118.844   2
  -1  -6 -10 116.353 35.0367   1
  -1  -6 -10 283.180 96.5343   2
  -1  -6 -11 369.039 136.776   1
  -1  -6 -11 326.793 108.665   2
  -1  -6 -12 245.699 89.9294   2
  -1  -6 -12 822.973 218.235   1
  -1  -6 -13 1032.17 240.844   1
  -1  -6 -14 371.204 154.612   1
  -1  -6 -15 419.496 171.795   1
  -1  -7  12 139.995 88.3423   3
  -1  -7  11 16.7191 15.9424   3
  -1  -7  10-48.1807 53.1178   3
  -1  -7   9 1216.36 297.990   3
  -1  -7   8 15.4987 70.2677   3
  -1  -7   7 937.541 242.524   3
  -1  -7   6-0.42891 7.33964   3
  -1  -7   5 980.269 245.409   3
  -1  -7   4 216.060 125.821   3
  -1  -7   3 2537.97 398.548   1
  -1  -7   3 2581.35 371.622   3
  -1  -7   2 61.1568 64.6176   3
  -1  -7   2 148.561 132.885   1
  -1  -7   1 40.1136 37.7669   3
  -1  -7   1 135.424 104.749   1
  -1  -7   0 130.493 107.049   1
  -1  -7   0 41.8922 58.0158   3
  -1  -7  -1 147.068 72.5900   3
  -1  -7  -1 232.120 125.994   1
  -1  -7  -2 3984.06 454.510   1
  -1  -7  -2 2785.76 315.224   3
   1   7   3 2396.18 324.953   2
  -1  -7  -3 2526.50 366.733   1
  -1  -7  -3 2097.95 304.191   2
  -1  -7  -3 1705.56 242.557   3
   1   7   4 63.6466 38.9162   2
  -1  -7  -4 31.4344 81.1143   1
  -1  -7  -4 38.2810 40.0468   2
  -1  -7  -5 31.6584 58.1324   1
  -1  -7  -5 14.9493 36.8046   2
  -1  -7  -6-92.6661 85.8017   1
  -1  -7  -6 72.9144 78.7385   2
  -1  -7  -7 575.310 150.023   2
  -1  -7  -7 250.962 9.52661   1
  -1  -7  -8 69.0954 47.6944   2
  -1  -7  -9 626.290 157.585   2
  -1  -7  -9 544.968 153.630   1
  -1  -7 -10-82.2995 84.1615   1
  -1  -7 -10 6.02857 45.3426   2
  -1  -7 -11 95.6546 40.1696   1
  -1  -7 -12-61.7320 70.6171   1
  -1  -8  10 133.567 142.527   3
  -1  -8   9 638.345 246.918   3
  -1  -8   8 254.563 156.029   3
  -1  -8   7 151.192 114.179   3
  -1  -8   6 495.073 181.168   3
  -1  -8   5-45.4769 93.2546   3
  -1  -8   4 141.249 52.7811   3
  -1  -8   3 720.757 205.675   3
  -1  -8   2 204.803 95.5761   3
  -1  -8   2 216.810 131.765   1
  -1  -8   1 471.295 183.130   1
  -1  -8   1 449.343 156.266   3
  -1  -8   0 45.7912 48.9580   3
  -1  -8   0 196.821 116.921   1
  -1  -8  -1 111.782 82.4619   3
  -1  -8  -1 271.981 132.787   1
  -1  -8  -2 300.110 130.740   1
  -1  -8  -2 337.260 121.637   3
  -1  -8  -3 964.849 233.905   1
  -1  -8  -3 831.494 174.636   3
  -1  -8  -4 105.438 78.2069   3
  -1  -8  -4 83.5790 36.5855   2
  -1  -8  -5 543.619 157.574   2
  -1  -8  -5 1000.73 231.598   1
  -1  -8  -6 130.536 90.7659   2
  -1  -8  -6 445.446 161.282   1
  -1  -8  -7 47.4590 60.1134   2
  -1  -8  -7 16.4009 45.4208   1
  -1  -8  -8 709.861 200.389   1
  -1  -9   8-9.33982 116.343   3
  -1  -9   7 145.681 105.641   3
  -1  -9   6 168.014 131.927   3
  -1  -9   5 300.201 158.426   3
  -1  -9   4 162.121 79.8540   3
  -1  -9   3 395.851 180.433   3
  -1  -9   2 850.689 236.499   3
  -1  -9   1 301.514 165.100   1
  -1  -9   0 56.8374 69.1059   1
  -1  -9  -1 317.290 152.877   1
  -1  -9  -2 769.601 233.908   1
  -1  -9  -3 487.103 175.788   1
  -1  -9  -4 257.512 128.070   1
  -1  -9  -5 131.934 122.453   1
   2  -8  -6 188.945 122.828   2
   2  -8  -5 24.1975 43.8236   2
   2  -8  -4 88.2369 95.3086   2
   2  -8  -3-41.7024 4.86140   2
   2  -8  -2 457.933 201.236   2
   2  -8  -1 58.5786 73.0722   2
   2  -8   0 191.569 172.827   2
   2  -8   1 367.463 211.200   2
   2  -8   3 4.84265 23.4274   3
   2  -8   4 41.5867 78.4347   3
   2  -7 -11 516.910 234.354   2
   2  -7 -10 20.0743 60.5818   2
   2  -7  -9 660.347 245.687   2
   2  -7  -8-77.2683 96.1560   2
   2  -7  -7 101.238 99.5127   2
   2  -7  -6 208.272 145.901   2
   2  -7  -5 561.494 201.877   2
   2  -7  -4 423.464 178.983   2
   2  -7  -3 871.112 244.282   2
   2  -7  -2 119.066 99.2911   2
   2  -7  -1 357.543 164.769   2
   2  -7   0 325.640 146.966   2
   2  -7   1 44.8557 80.2617   2
   2  -7   2 79.2090 90.0264   2
   2  -7   3 10.2341 44.6364   2
   2  -7   4-0.53205 43.5825   3
   2  -7   4-29.3454 77.8104   2
   2  -7   5 167.485 98.4197   3
   2  -7   6 158.126 118.535   3
   2  -7   7-72.2119 77.0939   3
   2  -7   8 113.237 83.5378   3
   2  -6 -14-80.1503 118.224   2
   2  -6 -13 18.0909 66.3013   2
   2  -6 -12 253.487 138.607   2
   2  -6 -11 275.274 119.285   2
   2  -6 -10 474.863 193.494   2
   2  -6  -9 40.2904 47.7236   2
   2  -6  -8 46.8815 102.598   2
   2  -6  -7 370.830 148.412   2
   2  -6  -6 22.9091 26.9100   2
   2  -6  -5 392.234 160.560   2
   2  -6  -4 218.380 131.447   2
   2  -6  -3 613.567 198.950   2
   2  -6  -2 290.054 127.845   2
   2  -6  -1 932.201 263.532   2
   2  -6   0 3279.15 481.894   2
  -2   6   0 3134.54 330.561   1
   2  -6   1 3479.84 488.047   2
  -2   6  -1 3565.79 383.357   1
   2  -6   2 476.467 158.514   2
   2  -6   3 166.794 97.8527   2
   2  -6   4 269.537 137.162   2
   2  -6   5 213.144 156.794   2
   2  -6   6 165.230 136.430   3
   2  -6   7-52.3601 54.2470   3
   2  -6   8 226.453 110.918   3
   2  -6   9 30.8001 24.5416   3
   2  -6  10 481.181 213.859   3
   2  -6  11 476.366 207.160   3
   2  -5 -16 1.62707 135.785   2
   2  -5 -15 431.750 197.957   2
   2  -5 -14 108.451 93.7261   2
   2  -5 -13 10.9099 68.8142   2
   2  -5 -12 24.4323 39.1777   2
   2  -5 -11-3.70223 45.7558   2
   2  -5 -10 162.012 97.8596   2
   2  -5  -9 303.266 140.085   2
   2  -5  -8 412.090 158.127   2
   2  -5  -7 520.000 86.8044   1
   2  -5  -7 653.983 180.686   2
   2  -5  -6-3.30047 53.1644   2
   2  -5  -6 230.975 72.7002   1
   2  -5  -5 1814.03 323.065   2
   2  -5  -4 3259.48 429.481   2
   2  -5  -3-21.3787 10.9065   2
  -2   5   3 6.24553 7.76356   1
  -2   5   2 234.618 71.9235   1
   2  -5  -2 152.543 96.3934   2
   2  -5  -1 4133.56 480.219   2
  -2   5   1 2706.76 258.314   1
   2  -5   0 1420.34 294.879   2
  -2   5   0 926.306 161.919   1
  -2   5  -1 976.497 180.328   1
   2  -5   1 1338.36 287.055   2
   2  -5   2 100.027 80.0533   2
  -2   5  -2 26.4480 13.7491   1
   2  -5   3 3013.38 418.594   2
  -2   5  -3 2757.61 324.821   1
   2  -5   4 788.666 222.290   2
  -2   5  -4 597.547 161.727   1
   2  -5   5 3299.42 461.487   2
   2  -5   6 308.576 144.963   3
   2  -5   6 379.305 170.614   2
   2  -5   7 1637.13 320.350   3
   2  -5   8 65.2111 40.4863   3
   2  -5   9-62.1601 48.2651   3
   2  -5  10 651.404 224.053   3
   2  -5  11 536.288 214.434   3
   2  -5  12 111.170 101.652   3
   2  -5  13 1.37891 56.0345   3
   2  -5  14 12.8032 35.0021   3
   2  -4 -17 127.739 131.808   2
   2  -4 -16 0.12821 91.8782   2
   2  -4 -15 10.1085 41.0908   2
   2  -4 -14-59.2743 30.7166   2
   2  -4 -13 357.558 132.391   2
   2  -4 -12 268.801 100.271   2
   2  -4 -11 635.127 188.704   2
   2  -4 -10-17.7981 41.2796   2
   2  -4 -10 29.4023 28.6101   1
   2  -4  -9 213.656 61.3815   1
   2  -4  -9 222.703 105.485   2
   2  -4  -8 386.966 71.5286   1
   2  -4  -8 500.534 171.771   2
   2  -4  -7 383.244 125.172   2
   2  -4  -7 232.883 54.3606   1
   2  -4  -6 3264.34 401.916   2
   2  -4  -6 2341.01 160.248   1
   2  -4  -5 139.693 46.4497   1
   2  -4  -5 67.6797 52.8916   2
   2  -4  -4 1471.60 265.995   2
  -2   4   3 30.5615 20.4242   1
   2  -4  -3 63.3036 51.7041   2
   2  -4  -2 1080.22 218.215   2
  -2   4   2 860.330 115.442   1
   2  -4  -1 690.411 194.517   2
  -2   4   1 409.984 81.8796   1
   2  -4   0 12885.4 776.698   2
  -2   4   0 9475.73 452.183   1
   2  -4   1 2586.95 366.293   2
  -2   4  -1 1655.63 204.233   1
   2  -4   2 4188.39 462.072   2
  -2   4  -2 3072.06 292.230   1
   2  -4   3 113.468 69.8270   2
  -2   4  -3 146.222 71.8310   1
   2  -4   4 143.743 88.9492   2
  -2   4  -4 203.118 94.7839   1
  -2   4  -5 1681.11 245.315   1
   2  -4   5 2724.39 389.951   2
  -2   4  -6 1666.28 258.192   1
   2  -4   6 2428.58 373.247   2
   2  -4   7 201.231 92.1571   3
   2  -4   8 341.528 123.886   3
   2  -4   9 1280.17 291.646   3
   2  -4  10 2019.31 371.317   3
   2  -4  11 545.645 212.493   3
   2  -4  12 1258.07 307.618   3
   2  -4  13-52.9462 79.0209   3
   2  -4  14 43.5231 106.239   3
   2  -4  15 155.056 134.878   3
   2  -4  16-75.4168 134.317   3
   2  -3 -18 155.243 108.009   2
   2  -3 -17 169.809 127.904   2
   2  -3 -16 263.329 138.669   2
   2  -3 -15 25.6442 76.3187   2
   2  -3 -14 668.626 207.034   2
   2  -3 -13-58.2071 69.6190   2
   2  -3 -13 117.686 54.1305   1
   2  -3 -12 94.8552 26.5193   2
   2  -3 -12 96.2981 44.0229   1
   2  -3 -11 157.109 62.0002   1
   2  -3 -11 134.153 82.0216   2
   2  -3 -10 193.087 99.5123   2
   2  -3 -10 88.1390 32.1399   1
   2  -3  -9 1746.06 291.548   2
   2  -3  -9 1696.42 161.355   1
   2  -3  -8 1334.56 127.975   1
   2  -3  -8 1479.88 261.836   2
   2  -3  -7 5211.67 487.387   2
   2  -3  -7 4747.69 441.610   3
   2  -3  -7 3953.64 204.182   1
   2  -3  -6 426.567 56.5074   1
   2  -3  -6 409.512 125.667   3
   2  -3  -6 645.316 162.988   2
  -2   3   5 1644.26 267.337   2
   2  -3  -5 2257.63 313.075   2
   2  -3  -5 1353.21 90.6215   1
   2  -3  -5 1580.98 240.617   3
  -2   3   4 254.517 110.725   2
   2  -3  -4 382.554 130.069   2
  -2   3   3 81.2224 50.0827   2
   2  -3  -3 64.8583 54.0018   2
  -2   3   2 5103.34 221.433   1
  -2   3   2 5792.83 476.148   2
   2  -3  -2 5923.24 482.643   2
  -2   3   1 973.544 108.995   1
   2  -3  -1 884.627 181.146   2
   2  -3   0 4083.12 404.007   2
  -2   3   0 4070.27 250.513   1
   2  -3   1 3216.12 359.679   2
  -2   3  -1 2929.01 234.474   1
  -2   3  -2 1341.42 165.364   1
   2  -3   2 1141.45 216.531   2
   2  -3   3 150.018 120.748   2
  -2   3  -3 169.473 75.2089   1
   2  -3   4 17394.0 847.148   2
  -2   3  -4 14742.4 621.503   1
  -2   3  -5 129.944 89.3870   2
   2  -3   5 72.4515 62.3716   2
  -2   3  -5 197.940 87.6192   1
  -2   3  -6 114.743 74.3012   1
  -2   3  -6 81.4236 66.2783   2
   2  -3   6 103.079 84.1007   2
   2  -3   7-22.7419 69.9686   3
   2  -3   8 420.422 150.713   3
   2  -3   9 419.609 155.558   3
   2  -3  10 182.367 107.292   3
   2  -3  11 2679.46 419.654   3
   2  -3  12 4916.27 597.404   3
   2  -3  13 144.731 114.121   3
   2  -3  14 467.104 207.660   3
   2  -3  15 370.707 183.582   3
   2  -3  16 112.515 64.9428   3
   2  -3  17 325.353 203.804   3
  -2   2  18 533.377 219.746   3
   2  -2 -18 520.769 229.410   2
  -2   2  17 77.3872 110.267   3
   2  -2 -17 95.0722 120.044   2
  -2   2  16 442.405 179.135   3
   2  -2 -16 548.205 201.586   2
  -2   2  15 54.9687 83.0573   3
   2  -2 -15-26.5055 40.6949   2
  -2   2  14 1061.27 255.037   3
   2  -2 -14 1330.52 299.092   2
   2  -2 -13 658.878 198.293   2
   2  -2 -12 928.091 216.980   2
   2  -2 -11 216.781 136.948   2
   2  -2 -10 4625.79 475.378   2
   2  -2  -9 8.97434 48.2261   2
   2  -2  -8 5504.13 484.492   2
   2  -2  -8 5818.17 501.521   3
   2  -2  -7 86.0882 62.1115   3
   2  -2  -7 67.8525 17.9088   2
   2  -2  -7 119.413 36.2598   1
   2  -2  -6 689.823 161.330   3
   2  -2  -6 834.222 182.365   2
   2  -2  -6 582.615 72.4986   1
   2  -2  -5 161.625 84.7609   3
   2  -2  -5 135.281 52.5639   2
   2  -2  -4 191.021 83.8847   3
   2  -2  -4 217.436 79.7498   2
   2  -2  -3 4083.05 375.813   2
   2  -2  -2 5577.13 427.527   2
   2  -2  -1 360.824 115.519   2
  -2   2   1 436.607 66.1629   1
  -2   2   0 70.9467 36.1290   1
   2  -2   0-24.4122 28.0603   2
   2  -2   1 1083.84 189.288   2
  -2   2  -1 924.758 110.234   1
   2  -2   2 8328.26 509.863   2
   2  -2   3 1592.47 232.644   2
   2  -2   4 1051.02 195.085   2
   2  -2   5 5225.15 441.204   2
   2  -2   6 16537.2 765.538   2
  -2   2  -6 11995.2 660.590   2
   2  -2   7 1064.04 215.287   3
  -2   2  -7 642.051 156.242   2
  -2   2  -8 2642.92 317.583   2
   2  -2   8 3050.42 381.188   3
  -2   2  -9 1306.98 236.215   2
   2  -2   9 1371.26 262.279   3
   2  -2  10 1117.60 235.572   3
   2  -2  11 1119.95 256.400   3
   2  -2  12 1915.51 346.445   3
   2  -2  13 3374.16 481.244   3
   2  -2  14 642.463 224.341   3
   2  -2  15-29.6891 68.1409   3
   2  -2  16 1046.66 293.946   3
   2  -2  17 104.661 67.0302   3
   2  -2  18 270.989 145.194   3
   2  -1 -18 47.0651 59.1912   2
  -2   1  18 146.727 104.634   3
  -2   1  17 586.292 212.646   3
   2  -1 -17 626.266 225.943   2
  -2   1  16 2.90723 73.4647   3
   2  -1 -16 180.988 76.4048   2
  -2   1  15 517.714 195.949   3
  -2   1  14 408.295 175.567   3
  -2   1  13 1876.92 324.584   3
  -2   1  12 1726.89 312.008   3
  -2   1  11 1555.15 277.461   3
   2  -1 -10 1973.23 308.611   2
  -2   1  10 2172.57 310.396   3
   2  -1  -9 2336.10 331.499   3
   2  -1  -9 2042.47 297.406   2
  -2   1   9 2409.89 318.672   3
   2  -1  -8 1.88374 40.6750   3
  -2   1   8 60.0093 23.1702   3
   2  -1  -8 23.2392 34.1202   2
   2  -1  -7 13514.9 708.985   2
  -2   1   7 13916.2 710.026   3
   2  -1  -6 1388.62 216.592   2
   2  -1  -6 1225.40 122.715   1
   2  -1  -6 1057.58 195.272   3
   2  -1  -5 5383.67 414.247   2
   2  -1  -5 4642.90 198.069   1
   2  -1  -4 2332.53 267.861   2
   2  -1  -4 1234.53 79.6468   1
   2  -1  -3 24.4353 40.1077   2
   2  -1  -2 688.734 135.813   2
   2  -1  -1 284.407 100.252   2
   2  -1   0 1481.18 200.394   2
   2  -1   1 135.661 91.2356   2
   2  -1   2 3293.03 292.575   2
   2  -1   3 2006.42 223.503   2
   2  -1   4 67.0490 12.0519   2
  -2   1  -4 48.6272 38.7444   2
  -2   1  -5 25620.3 828.976   2
   2  -1   5 26828.6 860.671   2
   2  -1   6 11924.4 583.552   2
  -2   1  -6 11139.1 552.385   2
  -2   1  -7 2994.27 297.379   2
   2  -1   7 2971.58 330.924   3
   2  -1   8 763.648 199.494   3
  -2   1  -8 665.732 155.882   2
  -2   1  -9-17.2100 40.2714   2
   2  -1   9 49.4166 29.9059   3
  -2   1 -10 3750.74 369.111   2
   2  -1  10 5761.07 525.951   3
  -2   1 -11 2658.94 325.818   2
   2  -1  11 3993.59 457.461   3
   2  -1  12 974.805 228.427   3
   2  -1  13 6320.04 628.932   3
   2  -1  14 94.0004 87.2539   3
   2  -1  15 100.784 79.8763   3
   2  -1  16 148.993 127.290   3
   2  -1  17 85.5590 57.0312   3
   2  -1  18 124.812 83.5933   3
   2  -1  19 195.935 162.133   3
  -2   0  18 396.986 194.501   3
  -2   0  17-66.2222 30.8665   3
  -2   0  16-81.2285 16.9780   3
  -2   0  15 1668.57 333.302   3
  -2   0  14 149.254 128.800   3
  -2   0  13 134.902 68.8519   3
   2   0 -13 378.971 142.050   1
   2   0 -12 1651.95 273.347   1
  -2   0  12 1903.13 320.313   3
  -2   0  11 595.883 180.690   3
   2   0 -11 603.092 156.878   1
  -2   0  10 870.364 205.249   3
   2   0 -10 924.005 178.619   1
   2   0  -9 2668.96 278.372   1
   2   0  -9 3295.79 393.841   3
  -2   0   9 2706.33 338.129   3
  -2   0   8 4.39924 16.9155   3
   2   0  -8-9.09636 24.2658   3
  -2   0   7 508.725 130.584   3
   2   0  -7 583.088 111.818   1
  -2   0   6 13282.1 652.271   3
   2   0  -6 12375.3 464.902   1
   2   0  -5 4209.04 243.835   1
  -2   0   5 4225.17 354.954   3
   2   0  -4 7225.56 290.562   1
  -2   0   4 7038.50 440.073   3
   2   0  -3 15118.4 597.394   2
   2   0  -3 15055.5 370.203   1
   2   0  -2 9096.68 470.548   2
  -2   0   2 8453.86 243.165   1
   2   0  -2 8542.86 246.272   1
   2   0  -1 1824.63 127.164   1
  -2   0   1 1405.35 106.146   1
   2   0  -1 2350.11 289.131   2
   2   0   0 10647.9 467.853   2
  -2   0   0 9002.32 290.220   1
  -2   0  -1 162009. 1661.39   2
   2   0   1 165033. 1646.52   2
  -2   0  -2 195969. 1796.06   2
   2   0   2 196797. 1767.35   2
  -2   0  -3 36906.4 789.551   2
   2   0   3 36483.6 777.296   2
   2   0   4 107.405 54.7610   2
  -2   0  -4 210.875 78.3370   2
   2   0   5 2450.89 220.521   2
  -2   0  -5 2214.18 211.577   2
  -2   0  -6 79.2438 32.9141   2
   2   0   6 56.5207 55.4125   3
  -2   0  -7 587.990 122.194   2
   2   0   7 542.700 139.736   3
  -2   0  -8 454.880 106.091   2
   2   0   8 451.021 129.003   3
   2   0   9 1598.32 243.087   3
  -2   0  -9 1611.98 209.174   2
   2   0  10 2061.86 292.819   3
  -2   0 -10 1799.53 232.505   2
  -2   0 -11 347.050 106.069   2
   2   0  11 573.068 162.128   3
  -2   0 -12 606.265 151.746   2
   2   0  12 1138.39 228.691   3
  -2   0 -13 2524.23 313.838   2
   2   0  13 2751.62 370.371   3
   2   0  14 257.471 101.299   3
   2   0  15-64.3727 92.1562   3
   2   0  16-28.6846 51.2759   3
   2   0  17 622.113 228.620   3
   2   0  18-8.30041 22.6738   3
   2   0  19 103.501 26.8334   3
   2   0  20 53.4487 49.3482   3
  -2  -1  18 70.2140 72.5552   3
  -2  -1  17 179.384 133.051   3
  -2  -1  16 88.8622 21.4378   3
  -2  -1  15 241.456 127.659   3
  -2  -1  14 488.736 182.746   3
  -2  -1  13 1.51091 8.46696   3
  -2  -1  12 228.396 90.9871   3
   2   1 -11 756.624 178.666   1
  -2  -1  11 1226.92 268.210   3
  -2  -1  10 117.337 81.2103   3
   2   1 -10 24.1148 53.0331   1
   2   1  -9 5001.08 410.190   1
  -2  -1   9 5226.21 486.644   3
   2   1  -9 5078.54 481.347   3
  -2  -1   8 84.7823 58.0466   3
   2   1  -8 140.513 59.6575   1
   2   1  -7 4920.25 359.835   1
  -2  -1   7 5059.31 426.834   3
   2   1  -6 14778.9 580.334   1
  -2  -1   6 14846.8 694.193   3
  -2  -1   5 11917.7 585.077   3
   2   1  -5 11986.7 496.470   1
  -2  -1   4 10624.7 416.603   1
   2   1  -4 10233.1 443.500   1
  -2  -1   4 9870.84 518.103   3
  -2  -1   3 17411.0 498.657   1
   2   1  -3 17853.9 539.471   1
  -2  -1   3 16986.4 624.172   3
  -2  -1   2 25.9234 39.5307   3
   2   1  -2-7.98743 7.69722   1
   2   1  -1 1716.51 154.785   1
  -2  -1   1 1783.94 174.361   3
   2   1   0 53062.0 840.690   2
   2   1   0 51043.0 817.209   1
   2   1   1 172460. 1370.21   2
   2   1   1 172133. 1551.44   1
  -2  -1  -2 109495. 1074.94   2
   2   1   2 110941. 1021.49   2
   2   1   3 3623.49 178.726   2
  -2  -1  -3 3718.79 186.252   2
   2   1   4 22176.3 460.991   2
  -2  -1  -4 20959.8 458.954   2
   2   1   5 183.200 57.6420   3
  -2  -1  -5 177.966 43.0344   2
  -2  -1  -6 25917.8 595.741   2
   2   1   6 26879.6 715.911   3
  -2  -1  -7 2532.46 198.244   2
   2   1   7 2648.22 234.936   3
  -2  -1  -8 4.38730 12.6316   2
   2   1   8 52.5425 45.9712   3
   2   1   9 5033.93 387.130   3
  -2  -1  -9 4406.09 308.037   2
  -2  -1 -10 972.261 155.278   2
   2   1  10 1095.94 189.151   3
  -2  -1 -11 360.626 104.815   2
   2   1  11 361.434 114.277   3
  -2  -1 -12 257.944 96.4445   2
   2   1  12 383.073 125.494   3
   2   1  13 2.61961 27.6068   3
  -2  -1 -14 62.5192 56.1677   2
   2   1  14-55.7290 80.4441   3
  -2  -1 -15 1386.34 243.946   2
   2   1  15 1667.21 299.689   3
   2   1  16 160.730 127.545   3
   2   1  17 1497.96 308.955   3
   2   1  18 79.2904 82.5869   3
   2   1  19 5.61826 69.6322   3
   2   1  20 18.8402 55.8534   3
   2   1  21 354.679 203.213   3
  -2  -2  17 136.647 90.9806   3
  -2  -2  16-143.458 115.830   3
  -2  -2  15-94.4107 118.202   3
  -2  -2  14 476.060 186.136   3
  -2  -2  13 54.7496 52.5429   3
  -2  -2  12-36.0525 79.4522   3
  -2  -2  11 223.095 111.018   3
   2   2 -10 6561.16 538.009   1
  -2  -2  10 8727.29 660.409   3
  -2  -2   9 376.001 125.093   3
   2   2  -9 309.596 116.247   1
   2   2  -9 398.853 146.243   3
   2   2  -8 7714.03 525.627   1
  -2  -2   8 7560.03 559.828   3
   2   2  -7 1469.81 223.213   1
  -2  -2   7 1423.54 241.906   3
   2   2  -6 145.751 83.9034   1
  -2  -2   6 31.0589 53.7217   3
  -2  -2   5 9314.47 484.806   1
   2   2  -5 9974.70 522.914   1
  -2  -2   5 9565.73 537.925   3
   2   2  -4 5041.77 354.985   1
  -2  -2   4 4980.26 365.993   3
   2   2  -3 6324.01 382.446   1
  -2  -2   3 6976.88 398.492   3
   2   2  -2 15363.2 570.614   1
  -2  -2   2 16007.9 561.382   3
   2   2  -2 15336.3 547.756   3
   2   2  -1 4669.01 264.981   3
   2   2  -1 5091.66 312.091   1
  -2  -2   1 4971.64 282.882   3
   2   2   0 11719.9 368.968   3
   2   2   0 11984.9 475.358   1
  -2  -2   0 11933.2 386.238   3
   2   2   1 8605.78 279.486   3
   2   2   1 8574.18 406.930   1
   2   2   2 610.462 72.0313   3
   2   2   2 673.107 128.283   1
   2   2   4 6047.12 210.221   3
   2   2   5 352.134 79.4214   3
  -2  -2  -6 86.9713 34.6039   2
   2   2   6 136.514 60.4373   3
  -2  -2  -7 1569.92 127.539   2
   2   2   7 1590.73 165.963   3
   2   2   8 2669.37 224.345   3
   2   2   9 2874.36 265.523   3
  -2  -2  -9 2673.76 258.004   3
   2   2  10-50.1658 39.1608   3
  -2  -2 -10 85.8776 65.8100   3
  -2  -2 -11 42.1906 42.5901   3
   2   2  11 36.8507 39.3572   3
  -2  -2 -12 1174.84 212.366   3
   2   2  12 1914.03 260.673   3
  -2  -2 -13 271.578 105.473   3
   2   2  13 522.828 138.861   3
  -2  -2 -14 2075.25 304.840   3
   2   2  14 2044.91 305.525   3
   2   2  15 61.5315 61.3598   3
   2   2  16 32.8632 47.3303   3
   2   2  17-5.27895 66.7612   3
   2   2  18 142.696 102.586   3
   2   2  19 32.6362 18.5881   3
   2   2  20 169.474 112.203   3
   2   2  21 128.597 113.808   3
  -2  -3  17-103.364 90.7892   3
  -2  -3  16 45.8530 107.078   3
  -2  -3  15 1031.80 303.913   3
  -2  -3  14 7.21705 59.2782   3
  -2  -3  13 1752.87 356.612   3
  -2  -3  12 100.863 38.5981   3
  -2  -3  11 2085.19 349.547   3
  -2  -3  10 1295.02 259.730   3
  -2  -3   9 1050.68 231.367   3
   2   3  -8 2068.98 304.528   3
  -2  -3   8 2043.76 300.421   3
   2   3  -8 2408.08 317.827   1
   2   3  -7 95.3438 86.1660   1
   2   3  -7 58.7085 65.4284   3
  -2  -3   7 125.356 82.3917   3
   2   3  -6 252.638 105.216   1
   2   3  -6 319.417 110.240   3
  -2  -3   6 260.232 101.087   3
   2   3  -5 2535.51 292.300   1
  -2  -3   5 3275.58 329.314   3
  -2  -3   4 12095.0 594.797   3
   2   3  -4 12595.7 633.942   1
   2   3  -4 11738.0 562.608   3
  -2  -3   3 3001.62 279.379   3
   2   3  -3 2890.59 288.894   1
   2   3  -3 2845.58 257.009   3
   2   3  -2 2676.40 273.518   1
  -2  -3   2 2470.93 227.784   3
   2   3  -2 2438.78 217.445   3
   2   3  -1 1332.21 187.599   1
   2   3  -1 1333.50 141.123   3
  -2  -3   1 1321.30 149.141   3
   2   3   0 2751.49 179.730   3
   2   3   0 2856.32 260.580   1
  -2  -3   0 2920.59 195.737   3
  -2  -3  -1 156.377 33.4158   3
   2   3   1 34.8858 24.2103   1
   2   3   1 117.866 29.3859   3
   2   3   2 5.67533 18.4785   2
   2   3   2 177.287 84.1779   1
   2   3   3 242.692 94.4359   1
   2   3   3 70.2393 26.0123   2
   2   3   4 143.155 95.7720   1
   2   3   6 16548.0 317.811   3
  -2  -3  -6 17464.7 764.092   1
  -2  -3  -7 1903.81 116.052   2
   2   3   7 2396.17 153.619   3
  -2  -3  -7 2274.22 279.264   1
   2   3   8 281.882 57.7816   3
  -2  -3  -8 241.121 64.0276   1
  -2  -3  -8 233.200 45.5600   2
  -2  -3  -8 439.765 103.811   3
   2   3   9 51.4535 36.3504   3
  -2  -3  -9 17.4005 23.9276   2
  -2  -3  -9 85.5733 59.0720   3
   2   3  10 740.326 126.984   3
  -2  -3 -10 547.753 99.6023   2
  -2  -3 -10 583.326 122.588   3
   2   3  11 456.713 100.354   3
  -2  -3 -11 337.210 94.6637   3
   2   3  12-13.0376 45.1068   3
  -2  -3 -12 32.4640 44.0391   3
  -2  -3 -13 1681.38 251.205   3
   2   3  13 2126.97 266.930   3
   2   3  14 475.931 138.163   3
  -2  -3 -14 466.683 139.536   3
   2   3  15 193.373 89.7126   3
   2   3  16 318.307 115.060   3
   2   3  17 332.294 132.197   3
   2   3  18 116.170 72.6409   3
   2   3  19 69.8128 80.5218   3
  -2  -4  16 743.266 258.122   3
  -2  -4  15-33.1258 60.5365   3
  -2  -4  14 712.527 236.330   3
  -2  -4  13 14.0306 52.7498   3
  -2  -4  12 323.301 154.033   3
  -2  -4  11 1835.03 352.247   3
  -2  -4  10 127.213 70.9467   3
  -2  -4   9 4663.88 518.700   3
  -2  -4   8 3368.46 426.239   3
   2   4  -7 116.294 63.7205   3
  -2  -4   7 201.863 106.133   3
   2   4  -6 106.334 64.5148   1
   2   4  -6 220.093 59.5787   3
  -2  -4   6 254.790 102.437   3
  -2  -4   5 1492.60 238.402   3
   2   4  -5 1215.67 218.102   1
   2   4  -5 1178.09 195.131   3
   2   4  -4 719.608 156.271   1
  -2  -4   4 755.000 147.940   3
  -2  -4   3 982.345 166.559   3
   2   4  -3 1069.38 193.766   1
   2   4  -3 883.283 146.400   3
   2   4  -2 10775.7 615.226   1
   2   4  -2 11950.9 511.512   3
  -2  -4   2 12593.2 554.533   3
  -2  -4   1 4107.03 289.507   3
   2   4  -1 4175.74 282.926   3
   2   4  -1 3981.50 309.108   2
   2   4  -1 4707.53 393.675   1
   2   4   0 1951.93 210.271   2
   2   4   0 2094.83 253.282   1
  -2  -4   0 2002.57 174.940   3
   2   4   1 509.273 113.703   2
   2   4   1 499.833 127.344   1
  -2  -4  -1 484.161 81.0153   3
   2   4   2 16050.2 512.574   2
  -2  -4  -2 16178.7 381.125   3
   2   4   2 16981.0 719.829   1
  -2  -4  -3 672.968 162.233   1
   2   4   3 587.115 85.5069   2
   2   4   3 630.964 136.839   1
   2   4   4 4419.40 213.239   2
   2   4   4 5014.07 407.850   1
  -2  -4  -4 4622.77 380.768   1
  -2  -4  -5 7122.84 480.992   1
   2   4   5 7012.45 249.645   2
   2   4   5 7984.90 514.523   1
  -2  -4  -6 20.2910 10.9336   2
  -2  -4  -6 138.652 95.7132   1
  -2  -4  -7 336.300 126.108   1
  -2  -4  -7 213.715 38.6715   3
  -2  -4  -7 170.661 29.8740   2
  -2  -4  -8 5188.01 238.987   2
  -2  -4  -8 5562.42 474.818   1
  -2  -4  -8 5224.74 247.002   3
  -2  -4  -9 9.73313 15.1962   3
  -2  -4  -9-9.29243 29.6355   1
  -2  -4  -9-22.7113 22.8240   2
  -2  -4 -10 2117.61 181.421   2
  -2  -4 -10 1920.56 295.137   1
  -2  -4 -10 2078.07 199.337   3
   2   4  11 68.0628 34.0628   3
  -2  -4 -11-23.3692 60.5031   1
  -2  -4 -11 223.110 76.7104   2
  -2  -4 -11 126.285 40.5781   3
   2   4  12 3329.69 285.345   3
  -2  -4 -12 4057.14 303.248   2
  -2  -4 -12 3720.93 426.428   1
  -2  -4 -12 2889.26 292.420   3
  -2  -4 -13 179.557 70.6619   2
   2   4  13 93.3604 46.9166   3
  -2  -4 -13 159.995 85.0234   3
  -2  -4 -13-14.7890 59.3336   1
  -2  -4 -14 330.071 131.766   1
   2   4  14 492.916 134.961   3
  -2  -4 -14 435.872 100.210   2
   2   4  15-10.2981 44.2343   3
  -2  -4 -15-11.4070 36.9560   2
  -2  -4 -15-161.602 134.594   1
   2   4  16 11.3584 56.0662   3
  -2  -4 -16-166.834 123.411   1
  -2  -4 -17-19.8021 97.9756   1
   2   4  17 230.494 106.943   3
  -2  -4 -18-92.7421 99.2492   1
  -2  -4 -19-28.8239 45.9928   1
  -2  -4 -20-153.420 105.621   1
  -2  -5  15 808.277 276.344   3
  -2  -5  14 18.3727 49.9790   3
  -2  -5  13 61.7296 123.024   3
  -2  -5  12 354.083 180.332   3
  -2  -5  11 67.0347 100.039   3
  -2  -5  10 539.427 212.768   3
  -2  -5   9 445.692 162.991   3
  -2  -5   8 0.85816 51.7404   3
  -2  -5   7 873.064 219.069   3
  -2  -5   6 1961.58 322.006   1
  -2  -5   6 2010.97 300.344   3
   2   5  -6 1407.46 242.549   3
   2   5  -5 586.264 152.136   2
  -2  -5   5 681.185 192.291   1
  -2  -5   5 513.063 140.761   3
   2   5  -4 118.252 74.8184   2
  -2  -5   4 178.446 81.2358   1
  -2  -5   4 61.7183 52.8644   3
  -2  -5   3 2540.50 282.534   3
  -2  -5   3 2178.61 307.418   1
   2   5  -3 2519.03 300.019   2
   2   5  -3 2907.12 354.640   1
  -2  -5   2 276.623 158.566   1
   2   5  -2 56.8578 31.4019   1
  -2  -5   2 168.424 75.7205   3
   2   5  -1-80.5029 69.7798   1
  -2  -5   1 38.5726 74.0287   1
  -2  -5   1-5.66503 27.7737   3
   2   5   0 198.743 94.4980   1
  -2  -5   0 102.468 58.9266   1
   2   5   0 13.8663 50.9329   2
  -2  -5   0 133.767 61.6348   3
   2   5   1 2291.52 249.865   2
  -2  -5  -1 2199.46 276.278   1
   2   5   1 2491.14 303.184   1
  -2  -5  -1 2378.15 209.047   3
   2   5   2 520.275 140.964   1
  -2  -5  -2 260.354 15.8440   1
  -2  -5  -2 397.265 79.2722   3
   2   5   2 362.487 91.2435   2
   2   5   3 8067.91 412.330   2
  -2  -5  -3 7948.94 577.930   1
  -2  -5  -3 7858.71 295.446   3
   2   5   3 7855.77 535.834   1
  -2  -5  -4 265.310 39.7388   3
  -2  -5  -4 242.649 42.7228   3
   2   5   4 249.079 68.2963   2
   2   5   4 172.008 74.0994   1
  -2  -5  -4 365.477 141.684   1
   2   5   5 3505.88 236.103   2
  -2  -5  -5 3772.88 390.548   1
   2   5   5 3073.41 340.915   1
  -2  -5  -6 211.825 66.3947   2
   2   5   6 198.948 47.4109   2
  -2  -5  -6 68.8459 75.4178   1
  -2  -5  -7 2974.53 212.720   2
  -2  -5  -7 2506.94 126.321   3
  -2  -5  -7 2889.72 334.454   1
  -2  -5  -8 3262.47 214.415   2
  -2  -5  -8 3193.65 175.051   3
  -2  -5  -8 3371.81 364.815   1
  -2  -5  -9 3551.53 406.562   1
  -2  -5  -9 3209.58 226.980   2
  -2  -5  -9 3145.03 205.670   3
  -2  -5 -10 267.334 67.3900   2
  -2  -5 -10 176.897 30.2880   3
  -2  -5 -10 303.441 130.730   1
  -2  -5 -11 698.167 116.994   3
  -2  -5 -11 1151.74 248.564   1
  -2  -5 -11 796.992 120.792   2
  -2  -5 -12 24.8957 46.2669   2
  -2  -5 -12-3.37509 48.7580   1
  -2  -5 -13 170.451 96.3471   1
  -2  -5 -13-134.580 97.5737   2
  -2  -5 -14 612.394 189.573   1
  -2  -5 -15 44.8097 38.6187   1
  -2  -5 -16 591.333 196.769   1
  -2  -5 -17 91.1564 73.8420   1
  -2  -5 -18 39.7068 41.9139   1
  -2  -5 -19 243.422 139.364   1
  -2  -6  14 184.303 114.673   3
  -2  -6  13 580.255 220.486   3
  -2  -6  12 272.584 166.570   3
  -2  -6  11 222.800 122.202   3
  -2  -6  10 3.41979 44.4324   3
  -2  -6   9 249.830 119.959   3
  -2  -6   8 1215.80 268.580   3
  -2  -6   7 2352.60 370.790   3
  -2  -6   6 48.4871 11.2251   3
  -2  -6   5 50.9165 103.795   1
  -2  -6   5 29.6120 22.4357   3
  -2  -6   4 346.003 116.129   3
  -2  -6   4 313.936 108.807   1
  -2  -6   3 145.813 53.0026   3
   2   6  -3 291.744 113.082   2
  -2  -6   3 149.919 88.9529   1
  -2  -6   2 6299.46 474.764   3
  -2  -6   2 5619.14 530.018   1
   2   6  -2 4521.98 438.230   2
  -2  -6   1 698.593 223.070   1
   2   6  -1 539.031 154.669   2
  -2  -6   1 599.851 156.106   3
  -2  -6   0 1840.19 235.424   3
   2   6   0 1816.17 265.306   2
  -2  -6   0 1816.37 323.452   1
  -2  -6  -1 3780.54 431.134   1
  -2  -6  -1 3968.47 316.863   3
  -2  -6  -2 293.338 142.510   1
  -2  -6  -2 339.999 96.4594   3
  -2  -6  -3 3117.03 375.997   1
  -2  -6  -3 3551.77 249.549   3
   2   6   4 3711.28 308.931   2
  -2  -6  -4 3893.32 415.166   1
  -2  -6  -4 4100.61 236.341   3
  -2  -6  -5 649.802 76.5996   3
  -2  -6  -5 977.134 230.916   1
   2   6   5 503.051 109.708   2
  -2  -6  -5 664.339 87.8223   3
  -2  -6  -6 399.170 109.640   2
  -2  -6  -6 286.296 49.4686   3
   2   6   6 206.600 61.0205   2
  -2  -6  -6 367.765 56.4856   3
  -2  -6  -6 500.302 156.321   1
  -2  -6  -7 3616.27 285.140   2
  -2  -6  -7 3847.37 440.476   1
  -2  -6  -7 3426.80 171.887   3
  -2  -6  -8 718.720 182.588   1
  -2  -6  -8 856.972 136.365   2
  -2  -6  -8 768.987 82.5523   3
  -2  -6  -9 1238.45 116.373   3
  -2  -6  -9 1304.82 243.576   1
  -2  -6  -9 1169.05 153.648   2
  -2  -6 -10 90.9270 65.4225   1
  -2  -6 -10 216.210 45.5140   2
  -2  -6 -11-118.752 116.606   1
  -2  -6 -11 168.627 51.3603   2
  -2  -6 -12-176.070 144.496   1
  -2  -6 -13 626.022 167.893   1
  -2  -6 -14 406.392 162.866   1
  -2  -6 -15 283.977 131.042   1
  -2  -6 -16-28.5106 43.6351   1
  -2  -6 -17-182.234 134.032   1
  -2  -6 -18 119.246 76.8690   1
  -2  -7  12 31.4133 81.1952   3
  -2  -7  11 958.960 292.609   3
  -2  -7  10 717.458 257.904   3
  -2  -7   9 235.890 136.912   3
  -2  -7   8 170.687 119.316   3
  -2  -7   7 1295.67 291.223   3
  -2  -7   6 151.070 127.982   3
  -2  -7   5 2641.59 429.818   1
  -2  -7   5 2734.58 382.452   3
  -2  -7   4 405.977 169.106   1
  -2  -7   4 417.311 146.753   3
  -2  -7   3 1012.89 257.518   1
  -2  -7   3 1055.95 211.691   3
  -2  -7   2 283.784 129.928   1
  -2  -7   2 276.670 104.619   3
  -2  -7   1 1804.90 266.535   3
  -2  -7   1 1756.20 312.918   1
  -2  -7   0 1373.52 281.506   1
   2   7   0 1092.19 231.497   2
  -2  -7   0 1012.78 192.529   3
  -2  -7  -1 378.681 176.117   1
   2   7   1 332.740 131.370   2
  -2  -7  -1 302.688 123.758   3
   2   7   2 2941.30 354.181   2
  -2  -7  -2 2716.57 386.898   1
  -2  -7  -2 2795.68 277.364   3
   2   7   3 2013.75 279.381   2
  -2  -7  -3 1908.02 329.317   1
  -2  -7  -3 1860.44 213.594   3
  -2  -7  -4 62.2560 17.4755   1
  -2  -7  -4 167.188 67.0433   3
  -2  -7  -5-62.4966 88.7373   1
  -2  -7  -5 79.4307 39.0369   3
  -2  -7  -6 370.100 68.7966   3
  -2  -7  -6 315.490 58.3366   1
  -2  -7  -7 621.165 218.759   1
  -2  -7  -8 691.926 138.532   2
  -2  -7  -8 1271.06 281.306   1
  -2  -7  -9 677.931 131.627   2
  -2  -7  -9 793.583 222.269   1
  -2  -7 -10 106.621 74.3093   1
  -2  -7 -11 115.774 68.1154   1
  -2  -7 -12-51.9014 89.7821   1
  -2  -7 -13 684.025 205.167   1
  -2  -7 -14 151.287 90.9094   1
  -2  -7 -15 625.698 209.723   1
  -2  -8  11 649.006 272.154   3
  -2  -8  10 205.962 114.578   3
  -2  -8   9-39.3429 75.0754   3
  -2  -8   8 174.615 82.1892   3
  -2  -8   7 342.641 160.715   3
  -2  -8   6 1731.72 344.125   3
  -2  -8   5 116.640 124.276   3
  -2  -8   4 508.694 215.733   1
  -2  -8   4 308.752 145.701   3
  -2  -8   3 398.082 160.071   1
  -2  -8   3 409.168 149.522   3
  -2  -8   2 663.957 184.951   3
  -2  -8   2 736.987 224.608   1
  -2  -8   1 434.610 174.062   1
  -2  -8   1 433.558 125.751   3
  -2  -8   0 59.3777 62.6734   1
  -2  -8   0 133.310 84.2448   3
  -2  -8  -1 147.436 144.552   1
  -2  -8  -1 86.0468 60.5974   3
  -2  -8  -2 25.0489 51.0628   3
  -2  -8  -2 164.498 138.563   1
  -2  -8  -3 1034.95 252.313   1
  -2  -8  -4 452.859 172.657   1
  -2  -8  -5 237.509 117.712   1
  -2  -8  -6 559.297 171.935   1
  -2  -8  -7-5.09059 92.5963   1
  -2  -8  -8 743.953 201.202   1
  -2  -8  -9 84.6268 11.4409   1
  -2  -8 -10 396.828 151.273   1
  -2  -8 -11 217.905 124.687   1
  -2  -8 -12 306.586 145.617   1
  -2  -8 -13 105.443 80.3233   1
  -2  -9   9 360.818 195.779   3
  -2  -9   8 206.035 161.073   3
  -2  -9   7-34.6954 56.0408   3
  -2  -9   6 509.742 201.539   3
  -2  -9   5 299.572 158.925   3
  -2  -9   4-41.8296 80.2228   3
  -2  -9   3 406.015 201.497   1
  -2  -9   2 596.834 216.640   1
  -2  -9   1 161.318 107.842   1
  -2  -9   0 176.831 112.855   1
  -2  -9  -1 458.668 183.788   1
  -2  -9  -2 515.472 187.943   1
  -2  -9  -3 211.334 133.758   1
  -2  -9  -4 258.052 140.813   1
  -2  -9  -5 294.929 153.242   1
  -2  -9  -6 179.116 114.214   1
  -2  -9  -7 434.144 184.988   1
  -2  -9  -8 300.100 148.137   1
  -2  -9  -9 652.154 222.763   1
  -2 -10  -1 231.851 157.365   1
  -2 -10  -2 153.605 115.398   1
  -2 -10  -3 41.3443 82.8577   1
  -2 -10  -4 318.656 153.799   1
   3  -7  -5 256.524 166.885   2
   3  -7  -4-39.6994 65.8609   2
   3  -7  -3 135.573 83.5434   2
   3  -7  -2 20.7350 56.7809   2
   3  -7  -1 187.472 122.200   2
   3  -7   0 408.879 213.851   2
   3  -7   1 70.1180 65.4689   2
   3  -7   2 150.974 138.780   2
   3  -7   3-149.138 109.142   2
   3  -6 -10 159.146 135.790   2
   3  -6  -9 93.2611 79.2398   2
   3  -6  -8 363.087 168.019   2
   3  -6  -7 353.527 176.537   2
   3  -6  -6 201.286 108.553   2
   3  -6  -5-58.1342 87.4199   2
   3  -6  -4 572.854 223.798   2
   3  -6  -3 176.514 123.116   2
   3  -6  -2 161.904 153.591   2
   3  -6  -1-14.5733 45.9995   2
   3  -6   0 687.631 241.260   2
   3  -6   1 1925.76 393.066   2
   3  -6   2 132.923 107.688   2
   3  -6   3 50.8922 75.7149   2
   3  -6   4 60.7351 12.5350   2
   3  -6   5 536.522 213.576   2
   3  -6   6 291.298 164.979   2
   3  -6   7 70.0086 89.1098   2
   3  -6   7 58.9868 67.4814   3
   3  -6   8 65.4456 50.3272   3
   3  -6   9-22.6579 69.1378   3
   3  -5 -13 295.955 175.126   2
   3  -5 -12-27.8765 45.0552   2
   3  -5 -11 56.0605 106.983   2
   3  -5 -10 362.559 165.032   2
   3  -5  -9 85.2656 69.7458   2
   3  -5  -8 937.742 256.047   2
   3  -5  -7 156.366 110.847   2
   3  -5  -6-14.2688 55.1947   2
   3  -5  -5 1135.41 263.249   2
   3  -5  -4 667.618 203.863   2
   3  -5  -3 40.2451 41.2232   2
   3  -5  -2 950.560 264.808   2
   3  -5  -1 1061.13 272.908   2
   3  -5   0 2470.95 402.393   2
  -3   5  -1 224.420 86.0090   1
   3  -5   1 269.896 190.025   2
   3  -5   2 300.337 150.756   2
  -3   5  -2 397.804 110.309   1
   3  -5   3 264.875 129.017   2
  -3   5  -3 184.181 75.6112   1
   3  -5   4 518.354 197.771   2
  -3   5  -4 549.592 155.463   1
   3  -5   5 1583.85 335.256   2
   3  -5   6 165.224 138.162   2
   3  -5   7 939.949 277.030   2
   3  -5   8 324.516 152.217   3
   3  -5   9 2.74668 35.6724   3
   3  -5  10 318.939 166.472   3
   3  -5  11 486.924 216.424   3
   3  -5  12 362.698 192.593   3
   3  -4 -14 67.8068 95.0278   2
   3  -4 -13 26.4753 89.7283   2
   3  -4 -12-45.7985 71.1822   2
   3  -4 -11 155.145 132.526   2
   3  -4 -10 70.9741 81.6696   2
   3  -4  -9 518.459 190.585   2
   3  -4  -8 290.795 112.507   2
   3  -4  -7 93.8745 49.8696   2
   3  -4  -6 3879.61 501.235   2
   3  -4  -5-24.0798 19.8855   2
   3  -4  -4 1497.31 301.801   2
   3  -4  -3 567.924 178.853   2
   3  -4  -2 853.921 226.772   2
  -3   4   1 38.3158 29.2703   1
   3  -4  -1 40.4899 81.1766   2
  -3   4   0 310.579 78.5091   1
   3  -4   0 408.204 154.098   2
   3  -4   1 1905.27 337.485   2
  -3   4  -1 1135.05 157.825   1
   3  -4   2 6498.64 608.616   2
  -3   4  -2 4325.71 342.083   1
   3  -4   3 285.336 137.678   2
  -3   4  -3 282.413 95.6609   1
  -3   4  -4 1464.21 221.838   1
   3  -4   4 2510.41 395.489   2
  -3   4  -5 232.199 90.6525   1
   3  -4   5 225.772 116.596   2
   3  -4   6 258.857 124.993   2
  -3   4  -6 211.728 107.041   1
   3  -4   7 104.569 81.7445   2
   3  -4   8 117.873 101.563   2
   3  -4   8-104.994 103.918   3
   3  -4   9 36.1180 69.3853   3
   3  -4  10 13.5395 40.6001   3
   3  -4  11 822.255 248.901   3
   3  -4  12 690.152 245.496   3
   3  -4  13 16.5621 49.9894   3
   3  -4  14 84.1983 112.275   3
   3  -3 -16 303.351 169.648   2
   3  -3 -15 51.6109 89.1565   2
   3  -3 -14 66.9924 22.5976   2
   3  -3 -13 167.296 111.600   2
   3  -3 -12 81.6308 92.1684   2
   3  -3 -11-88.9034 78.3993   2
   3  -3 -10 102.440 61.2446   2
   3  -3  -9 1537.66 314.930   2
   3  -3  -8 30.4619 99.1528   2
   3  -3  -7 2116.05 352.054   2
   3  -3  -6 25.9898 23.2906   2
   3  -3  -5 1136.85 243.091   2
   3  -3  -4 244.880 117.373   2
   3  -3  -3-63.6003 91.5537   2
   3  -3  -2 367.075 80.6840   2
   3  -3  -1 2816.36 358.597   2
  -3   3   1 1226.33 95.9028   1
   3  -3   0 3638.04 404.661   2
  -3   3   0 2574.41 182.784   1
   3  -3   1 1667.12 287.164   2
  -3   3  -1 1236.73 145.888   1
  -3   3  -2 1153.66 154.038   1
   3  -3   2 1801.17 305.740   2
  -3   3  -3 1281.19 179.347   1
   3  -3   3 2011.58 303.814   2
   3  -3   4 326.351 124.147   2
  -3   3  -4 381.142 107.141   1
   3  -3   5 358.221 155.891   2
  -3   3  -5 320.748 110.790   1
   3  -3   6 734.185 196.523   2
   3  -3   7 293.632 122.954   2
   3  -3   8-153.988 84.4986   2
   3  -3   9-3.50517 65.2298   3
   3  -3  10 1026.17 245.123   3
   3  -3  11 183.727 63.4249   3
   3  -3  12 113.495 106.302   3
   3  -3  13 131.848 109.006   3
   3  -3  14-113.225 70.7345   3
   3  -3  15 174.158 157.748   3
   3  -3  16-49.8047 52.8604   3
   3  -2 -16-10.5067 49.9599   2
   3  -2 -15 7.34548 17.3648   2
   3  -2 -14-117.888 69.4498   2
   3  -2 -13 51.4327 62.4877   2
   3  -2 -12 285.458 139.983   2
   3  -2 -11 972.727 256.513   2
   3  -2 -11 614.894 102.945   1
   3  -2 -10 2063.71 177.489   1
   3  -2 -10 2729.54 193.639   1
   3  -2  -9 680.129 82.6943   1
   3  -2  -9 852.194 85.7333   1
   3  -2  -8-35.5585 61.8724   2
   3  -2  -7 224.030 121.348   2
   3  -2  -6 541.901 162.757   2
   3  -2  -5 1579.34 267.672   2
   3  -2  -4 451.612 135.437   3
  -3   2   4 597.446 173.782   2
   3  -2  -4 623.953 166.824   2
  -3   2   3 4143.70 428.238   2
   3  -2  -3 3946.83 415.487   2
   3  -2  -2 4820.83 458.273   2
   3  -2  -1-27.5282 44.8797   2
  -3   2   0 398.259 58.7719   1
   3  -2   0 446.759 124.078   2
  -3   2  -1 2046.76 167.402   1
   3  -2   1 1916.93 274.948   2
   3  -2   2 41.6015 61.5719   2
   3  -2   3 657.868 180.623   2
  -3   2  -3 393.424 159.937   2
  -3   2  -4 369.251 137.153   2
   3  -2   4 377.845 134.310   2
   3  -2   5 535.807 143.875   2
  -3   2  -5 614.382 168.602   2
  -3   2  -6 6355.38 542.892   2
   3  -2   6 7000.02 552.982   2
   3  -2   7 17.7793 24.4280   2
  -3   2  -7 29.0602 41.3075   2
   3  -2   8 619.476 176.605   2
   3  -2   9 2511.07 364.668   3
   3  -2  10 28.1765 35.9298   3
   3  -2  11 2.27649 36.9841   3
   3  -2  12 74.1667 67.5442   3
   3  -2  13 64.2637 74.9305   3
   3  -2  14 322.614 167.114   3
   3  -2  15 182.645 164.623   3
   3  -2  16 768.578 273.000   3
   3  -2  17 75.9184 109.950   3
   3  -2  18 17.9760 13.4101   3
  -3   1  17 183.063 155.069   3
   3  -1 -17 43.9552 76.0018   2
  -3   1  16-4.96485 53.8258   3
   3  -1 -16-28.6856 34.9166   2
  -3   1  15 220.198 116.325   3
   3  -1 -15 367.932 163.322   2
  -3   1  14 352.038 163.944   3
   3  -1 -14 410.997 168.304   2
  -3   1  13 209.806 99.3304   3
   3  -1 -13 298.395 137.451   2
   3  -1 -12 101.469 64.8307   1
   3  -1 -12-15.9317 64.8570   2
   3  -1 -11 6043.44 600.995   2
   3  -1 -11 5020.96 371.127   1
   3  -1 -10 1595.94 297.016   2
   3  -1 -10 1447.61 189.104   1
   3  -1  -9 443.255 103.082   1
   3  -1  -9 339.146 147.297   2
   3  -1  -8 4113.83 460.660   2
   3  -1  -8 3121.51 224.637   1
   3  -1  -7 3082.25 384.850   2
   3  -1  -7 2093.80 154.750   1
   3  -1  -6 77.1009 84.0489   2
   3  -1  -6 16.8749 31.9148   3
   3  -1  -6 23.4265 14.1326   1
   3  -1  -5 313.033 113.332   3
   3  -1  -5 242.488 97.9281   2
   3  -1  -4 67.5890 62.8409   2
   3  -1  -3 13.6611 35.1669   2
   3  -1  -2 2948.61 324.967   2
   3  -1  -1 562.574 143.245   2
  -3   1   1 149.256 29.8970   1
   3  -1   0 571.321 156.643   2
  -3   1   0 521.234 70.9501   1
   3  -1   1 10866.8 604.403   2
  -3   1  -2 48.0948 15.9760   2
   3  -1   2 75.6323 34.3350   2
  -3   1  -3 1301.61 207.750   2
   3  -1   3 1251.15 204.589   2
  -3   1  -4 174.069 115.682   2
   3  -1   4 67.4666 60.4222   2
  -3   1  -5 2318.95 296.668   2
   3  -1   5 2204.96 270.353   2
   3  -1   6 79.5472 41.3601   2
  -3   1  -6 68.8643 53.1928   2
  -3   1  -7 4001.44 387.321   2
   3  -1   7 4088.13 385.702   2
   3  -1   8-33.7409 60.1361   2
  -3   1  -8 14.9571 8.93236   2
   3  -1   9 1308.82 256.827   3
  -3   1  -9 1099.15 210.819   2
   3  -1  10 565.007 163.164   3
  -3   1 -10 566.446 156.801   2
   3  -1  11 393.735 136.996   3
   3  -1  12 1402.41 283.487   3
   3  -1  13 3235.51 454.572   3
   3  -1  14 75.5153 78.7726   3
   3  -1  15 1626.76 352.146   3
   3  -1  16 272.631 163.914   3
   3  -1  17 86.5042 128.450   3
   3  -1  18 23.2464 46.9834   3
   3  -1  19 23.8218 93.6084   3
  -3   0  17 147.030 138.079   3
  -3   0  16 442.146 190.679   3
  -3   0  15 439.348 189.259   3
  -3   0  14 356.830 164.384   3
   3   0 -13 545.610 154.399   1
  -3   0  13 763.734 227.523   3
   3   0 -12 1462.97 238.398   1
  -3   0  12 1831.52 337.589   3
   3   0 -11 168.966 96.9269   1
  -3   0  11-41.3449 31.3313   3
   3   0 -10 117.537 79.6640   1
  -3   0  10-16.2777 51.6244   3
   3   0  -9 549.213 128.121   1
  -3   0   9 316.286 123.563   3
  -3   0   8 498.422 137.185   3
   3   0  -8 608.189 163.833   2
   3   0  -8 542.188 118.190   1
  -3   0   7 554.328 160.241   3
   3   0  -7 445.610 99.6404   1
   3   0  -7 586.337 158.062   2
   3   0  -7 696.442 183.066   3
   3   0  -6 921.638 118.386   1
   3   0  -6 1322.29 225.963   2
   3   0  -5-85.4337 65.3890   2
   3   0  -5 40.2718 34.8450   1
   3   0  -4 3129.81 348.582   2
   3   0  -4 2806.70 177.530   1
   3   0  -3 411.787 117.584   2
   3   0  -3 342.547 56.6428   1
  -3   0   3 468.517 62.8911   1
  -3   0   2 332.789 56.2486   1
   3   0  -2 264.769 49.9414   1
   3   0  -2 300.346 96.2580   2
   3   0  -1 263.710 105.350   2
  -3   0   1 329.434 60.7949   1
  -3   0   0 562.300 85.8277   1
  -3   0   0 564.859 140.168   2
   3   0   0 545.092 125.371   2
  -3   0  -1 2484.23 267.998   2
   3   0   1 2689.87 266.689   2
  -3   0  -1 2459.46 196.829   1
  -3   0  -2 2635.58 266.891   2
   3   0   2 2924.39 268.525   2
  -3   0  -3 1054.61 157.429   2
   3   0   3 919.246 150.039   2
  -3   0  -4 852.758 147.111   2
   3   0   4 882.947 149.459   2
  -3   0  -5 34.0576 41.7666   2
   3   0   5 4.01486 34.5859   2
  -3   0  -6 8118.66 476.943   2
   3   0   6 8523.77 478.266   2
  -3   0  -7 8701.07 496.992   2
   3   0   7 9242.52 515.096   2
  -3   0  -8 5227.58 409.025   2
   3   0   8 5197.89 469.086   3
  -3   0  -9 1688.56 233.284   2
   3   0   9 1661.52 269.509   3
   3   0  10 117.294 78.6536   3
  -3   0 -10 67.7725 47.4841   2
  -3   0 -11 927.658 181.096   2
   3   0  11 1366.74 265.175   3
   3   0  12 1523.00 293.392   3
  -3   0 -12 776.538 172.828   2
   3   0  13 1018.06 254.391   3
  -3   0 -13 804.882 189.643   2
   3   0  14 2462.39 392.530   3
   3   0  15 81.3769 85.2661   3
   3   0  16 175.400 100.088   3
   3   0  17 2019.03 398.077   3
   3   0  18-17.4247 37.3358   3
   3   0  19 0.30979 5.28183   3
   3   0  20 337.828 193.285   3
  -3  -1  17 55.1731 86.7020   3
  -3  -1  16-7.14777 23.7317   3
  -3  -1  15-40.7645 61.9820   3
  -3  -1  14 154.982 118.485   3
  -3  -1  13 727.582 218.166   3
  -3  -1  12 893.477 239.205   3
   3   1 -12 807.878 199.706   1
   3   1 -11 1433.06 247.680   1
  -3  -1  11 1288.67 277.298   3
  -3  -1  10 37.6082 13.9296   3
   3   1 -10 199.363 95.0936   1
   3   1  -9 1814.21 254.500   1
  -3  -1   9 2462.65 351.524   3
   3   1  -8 2490.05 285.542   1
  -3  -1   8 2210.68 333.481   3
   3   1  -7 2512.52 272.447   1
  -3  -1   7 2323.30 316.635   3
  -3  -1   6 2887.50 339.242   3
   3   1  -6 2985.78 278.014   1
  -3  -1   5 1021.24 193.463   3
   3   1  -5 967.695 148.343   1
  -3  -1   4 1316.26 148.152   1
   3   1  -4 1328.82 166.856   1
  -3  -1   4 1253.96 204.169   3
  -3  -1   3 5314.78 294.557   1
   3   1  -3 5050.18 301.990   1
   3   1  -2 1273.93 185.328   2
  -3  -1   2 1324.47 142.153   1
   3   1  -2 1208.85 145.568   1
   3   1  -1 49.3938 14.3528   1
   3   1  -1 14.7773 62.2008   2
  -3  -1   1 75.2267 45.0906   1
   3   1   0 12733.7 539.324   2
  -3  -1   0 11288.2 447.474   1
   3   1   0 11244.0 519.126   3
   3   1   0 11283.5 447.055   1
   3   1   1 18746.4 614.684   2
  -3  -1  -1 17440.5 570.984   1
  -3  -1  -2 3446.73 255.263   2
   3   1   2 3808.49 270.101   2
  -3  -1  -2 3229.15 278.593   1
  -3  -1  -3 4408.83 275.863   2
   3   1   3 4974.64 295.936   2
  -3  -1  -3 4265.08 329.074   1
  -3  -1  -4 4332.24 277.033   2
   3   1   4 4278.13 271.529   2
   3   1   5 440.347 98.1072   2
  -3  -1  -5 419.634 103.126   2
  -3  -1  -6 53.1146 42.2031   2
   3   1   6 42.0323 19.1509   2
  -3  -1  -7 92.9270 45.1594   2
  -3  -1  -8 2265.10 227.272   2
   3   1   8 2246.34 268.744   3
  -3  -1  -9 721.464 139.760   2
   3   1   9 881.985 184.317   3
   3   1  10 88.3295 96.0149   3
  -3  -1 -10 14.7071 40.6218   2
   3   1  11 262.300 119.556   3
  -3  -1 -11 268.934 91.1448   2
  -3  -1 -12 1734.84 237.839   2
   3   1  12 2807.88 361.799   3
  -3  -1 -13 2.55280 9.36017   2
   3   1  13 13.9124 40.0804   3
  -3  -1 -14 481.656 136.252   2
   3   1  14 573.427 175.592   3
   3   1  15-41.6787 67.9031   3
   3   1  16 19.1252 84.3737   3
   3   1  17 44.4585 39.1855   3
   3   1  18 336.602 172.126   3
   3   1  19 292.888 177.089   3
   3   1  20-100.015 90.9769   3
   3   1  21-22.1189 97.4692   3
  -3  -2  16-1.95259 38.2850   3
  -3  -2  15 368.119 184.292   3
  -3  -2  14 597.332 213.016   3
  -3  -2  13 662.461 226.464   3
  -3  -2  12 206.648 89.3367   3
  -3  -2  11 584.190 191.917   3
  -3  -2  10 1303.76 267.373   3
   3   2 -10 1482.67 261.441   1
  -3  -2   9 215.216 81.7861   3
   3   2  -9 358.388 130.340   1
   3   2  -8 5143.19 446.830   1
  -3  -2   8 5203.95 496.059   3
   3   2  -7 5635.31 505.575   3
   3   2  -7 5143.02 426.461   1
  -3  -2   7 4709.53 458.311   3
   3   2  -6 1653.23 231.325   1
   3   2  -6 1934.56 289.596   3
  -3  -2   6 1605.95 251.327   3
  -3  -2   5 90.8332 76.3299   3
   3   2  -5 65.7436 43.5603   1
   3   2  -5 190.918 75.9211   3
  -3  -2   4 7526.38 433.888   1
   3   2  -4 8287.89 472.252   1
  -3  -2   4 7647.98 495.639   3
   3   2  -3 42.3215 49.2619   3
  -3  -2   3 18.2633 32.6268   3
  -3  -2   3 105.394 78.5888   1
   3   2  -3 30.6782 34.4412   1
  -3  -2   2 7114.16 411.119   1
   3   2  -2 7672.51 430.850   1
   3   2  -2 7650.81 439.924   3
  -3  -2   2 7861.43 448.406   3
  -3  -2   1 4418.67 319.977   3
  -3  -2   1 3834.08 282.064   1
   3   2  -1 3729.67 308.104   1
   3   2  -1 4144.87 308.399   3
  -3  -2   0 6180.01 382.346   1
   3   2   0 5986.20 381.517   1
   3   2   0 6002.09 344.810   3
   3   2   1 2703.89 214.795   2
   3   2   1 2276.74 199.862   3
   3   2   1 2115.56 228.619   1
   3   2   2 4527.91 244.174   2
   3   2   2 4085.68 262.054   3
   3   2   2 4249.08 325.699   1
   3   2   3 464.249 69.1550   2
   3   2   4 6355.66 241.375   2
   3   2   5 210.165 38.6146   2
  -3  -2  -5 234.085 43.7191   2
  -3  -2  -6 3553.48 183.698   2
  -3  -2  -7 2264.05 158.819   2
   3   2   7 2188.62 208.354   3
   3   2   8-41.4143 12.8848   3
  -3  -2  -8-28.1543 18.4859   2
   3   2   9 212.979 80.1758   3
  -3  -2  -9 90.3151 35.5533   2
   3   2  10 155.095 73.6758   3
  -3  -2 -10 175.966 57.7522   2
   3   2  11 34.3972 41.8783   3
  -3  -2 -11 4.09815 33.9756   2
  -3  -2 -12 2774.41 265.834   2
   3   2  12 2909.36 322.000   3
  -3  -2 -13 2307.87 255.256   2
   3   2  13 3412.80 379.202   3
  -3  -2 -14-9.64238 40.5361   2
   3   2  14 52.2174 38.6286   3
   3   2  15 699.674 190.493   3
   3   2  16 1646.89 303.100   3
   3   2  17 357.397 156.732   3
   3   2  18 1451.45 310.089   3
   3   2  19 58.7604 67.3828   3
   3   2  20 23.0751 70.4173   3
  -3  -3  16 61.0943 56.7977   3
  -3  -3  15 60.8526 86.9099   3
  -3  -3  14-31.1738 83.6709   3
  -3  -3  13 654.429 232.283   3
  -3  -3  12 313.797 144.871   3
  -3  -3  11 804.735 227.238   3
  -3  -3  10 589.198 193.237   3
  -3  -3   9 1946.28 320.529   3
  -3  -3   8 68.5511 47.4289   3
   3   3  -8 31.7260 16.3872   1
   3   3  -7 1676.67 265.324   1
   3   3  -7 2637.00 338.313   3
  -3  -3   7 2611.11 350.961   3
  -3  -3   6 167.374 73.7067   3
   3   3  -6 94.3159 48.2278   1
  -3  -3   6 275.814 130.904   1
   3   3  -6 137.118 68.9727   3
  -3  -3   5-17.4400 21.6372   3
   3   3  -5-38.6502 70.9942   1
   3   3  -5-10.5997 49.0320   3
  -3  -3   5 79.9806 62.4060   1
   3   3  -4 2672.50 304.545   1
  -3  -3   4 2828.61 311.879   3
   3   3  -3 4283.52 381.335   1
  -3  -3   3 4445.43 365.339   3
   3   3  -3 3889.42 329.977   3
   3   3  -2 4067.10 358.152   1
   3   3  -2 3738.62 307.147   3
  -3  -3   2 3782.21 316.458   3
   3   3  -1 13190.7 623.768   1
   3   3  -1 12989.0 532.359   3
  -3  -3   1 13207.5 533.244   3
  -3  -3   0 2993.81 234.717   3
   3   3   0 2832.18 283.023   1
   3   3   0 2750.15 222.517   3
   3   3   1 16379.9 473.645   3
   3   3   1 17575.3 720.655   1
   3   3   2 6152.45 265.248   3
   3   3   2 6324.94 438.966   1
   3   3   3 88.2729 28.5813   3
   3   3   3 64.7954 28.7941   2
   3   3   3 11.9154 42.5035   1
   3   3   4 2504.84 127.787   3
   3   3   5 4603.66 176.552   3
   3   3   6 1436.96 114.182   3
   3   3   7 3608.23 200.183   3
   3   3   8 3638.35 224.985   3
  -3  -3  -8 3374.77 379.042   1
  -3  -3  -9 373.175 53.2705   2
  -3  -3  -9 601.820 161.560   1
   3   3   9 797.371 122.665   3
  -3  -3 -10 645.088 82.7121   2
   3   3  10 1055.85 157.131   3
  -3  -3 -10 570.583 163.537   1
   3   3  11 498.655 108.537   3
  -3  -3 -11 480.472 82.6434   2
  -3  -3 -12 1391.57 153.414   2
   3   3  12 1505.66 204.594   3
  -3  -3 -13 98.5356 40.2556   2
   3   3  13 79.7965 13.8339   3
  -3  -3 -14 3092.19 272.652   2
   3   3  14 2360.65 291.162   3
   3   3  15 2567.35 326.248   3
   3   3  16 175.530 84.5641   3
   3   3  17 366.534 134.318   3
   3   3  18 99.0196 103.027   3
  -3  -4  15 207.526 153.308   3
  -3  -4  14 285.432 167.247   3
  -3  -4  13 18.2864 67.7343   3
  -3  -4  12 707.647 234.554   3
  -3  -4  11-39.2477 70.6665   3
  -3  -4  10 136.209 103.629   3
  -3  -4   9 49.7181 57.7265   3
  -3  -4   8 542.514 146.213   3
  -3  -4   7 163.121 65.3535   3
   3   4  -6 711.033 170.857   3
  -3  -4   6 1220.75 236.001   3
  -3  -4   6 1139.97 224.816   1
  -3  -4   5 4501.03 421.025   1
   3   4  -5 4796.53 453.355   1
   3   4  -5 4695.70 418.613   3
  -3  -4   5 4660.13 430.999   3
  -3  -4   4 925.987 187.284   3
  -3  -4   4 926.861 186.168   1
   3   4  -4 1091.06 213.893   1
  -3  -4   3 182.009 76.1973   3
   3   4  -3 39.4028 48.7071   3
  -3  -4   2 142.757 82.1446   3
   3   4  -2 211.017 107.272   1
   3   4  -2 102.914 42.3298   3
  -3  -4   1 792.821 137.446   3
   3   4  -1 881.707 177.959   1
   3   4  -1 825.989 132.187   3
  -3  -4   0 368.236 120.373   3
   3   4   0 230.335 84.4303   3
   3   4   1 777.930 96.8254   3
   3   4   1 1002.05 190.146   1
  -3  -4  -1 854.169 107.637   3
   3   4   2 1821.65 253.763   1
   3   4   2 1475.69 111.311   3
   3   4   3 6211.74 262.878   2
   3   4   3 6720.57 490.149   1
   3   4   4 4130.16 392.355   1
  -3  -4  -6 3973.75 402.170   1
  -3  -4  -7 4771.82 453.028   1
  -3  -4  -8 1058.07 229.577   1
   3   4   9 18.0366 8.69355   3
  -3  -4  -9 91.4577 83.1561   1
  -3  -4 -10 477.413 150.918   1
   3   4  10 362.983 65.0986   3
   3   4  11 38.9603 26.4722   3
  -3  -4 -11-30.2764 56.7123   1
  -3  -4 -12 1295.62 107.110   2
  -3  -4 -12 1235.43 106.568   2
   3   4  12 1387.99 160.759   3
  -3  -4 -12 1603.21 298.683   1
  -3  -4 -13 289.018 62.0545   2
   3   4  13 408.933 101.545   3
  -3  -4 -13 390.211 70.4510   2
  -3  -4 -13 363.437 132.489   1
  -3  -4 -14 3077.24 224.221   2
   3   4  14 3149.76 300.489   3
  -3  -4 -14 3629.38 480.884   1
   3   4  15-43.4584 22.3431   3
  -3  -4 -15 36.2382 82.3298   1
   3   4  16 41.7958 50.5719   3
  -3  -4 -16 153.905 108.890   1
  -3  -4 -17-1.08234 60.3159   1
  -3  -4 -18-180.867 115.729   1
  -3  -4 -19 156.391 82.5134   1
  -3  -5  14-46.3230 64.2586   3
  -3  -5  13 1048.43 302.254   3
  -3  -5  12 13.3684 80.1581   3
  -3  -5  11 344.974 164.692   3
  -3  -5  10-19.2570 39.2326   3
  -3  -5   9 1036.09 260.244   3
  -3  -5   8 641.494 187.460   3
  -3  -5   7 759.214 199.088   3
  -3  -5   6 4818.95 488.122   1
   3   5  -6 5173.87 462.152   3
  -3  -5   6 5223.67 499.787   3
  -3  -5   5-69.7781 78.7515   3
   3   5  -5-36.1721 45.7854   3
  -3  -5   5 142.948 104.129   1
  -3  -5   4 390.848 119.773   1
   3   5  -4 349.955 103.980   3
  -3  -5   4 450.034 140.584   3
  -3  -5   3 433.936 118.396   3
  -3  -5   3 579.947 182.001   1
  -3  -5   2 673.539 136.370   3
  -3  -5   2 537.769 163.052   1
   3   5  -2 194.625 84.0406   3
  -3  -5   1 2601.84 338.508   1
   3   5  -1 2364.47 232.200   3
   3   5  -1 2764.48 343.371   1
  -3  -5   1 2784.92 268.435   3
   3   5   0 694.597 135.599   2
  -3  -5   0 688.906 161.222   1
   3   5   0 822.972 187.348   1
  -3  -5   0 788.358 137.555   3
  -3  -5  -1 238.658 91.1906   3
   3   5   1 224.790 97.9658   2
  -3  -5  -1 51.2124 28.3115   1
   3   5   1 219.781 94.9127   1
   3   5   2 552.807 152.422   1
  -3  -5  -2 395.948 64.6240   3
  -3  -5  -2 670.367 219.175   1
   3   5   2 489.043 107.030   2
   3   5   3 21289.6 593.158   2
  -3  -5  -3 21784.5 988.904   1
   3   5   3 21879.3 945.528   1
   3   5   4 2287.14 167.559   2
  -3  -5  -4 2803.02 360.339   1
   3   5   4 2472.45 327.406   1
   3   5   5 3608.62 151.794   2
  -3  -5  -5 4493.23 429.777   1
  -3  -5  -6 385.356 122.563   1
  -3  -5  -7 1193.50 214.757   1
  -3  -5  -8 830.751 190.927   1
  -3  -5  -9 4588.27 501.474   1
  -3  -5 -10 505.447 173.509   1
  -3  -5 -11 4468.83 510.115   1
  -3  -5 -12 728.512 200.520   1
  -3  -5 -13 131.574 88.3873   1
  -3  -5 -14 935.416 244.812   1
  -3  -5 -15 145.358 122.343   1
  -3  -5 -16 3.98096 38.6117   1
  -3  -5 -17-19.5922 35.8755   1
  -3  -5 -18 55.5731 69.6224   1
  -3  -6  13 168.212 120.151   3
  -3  -6  12 180.623 134.466   3
  -3  -6  11 848.795 244.764   3
  -3  -6  10-44.1944 60.5101   3
  -3  -6   9 251.292 112.048   3
  -3  -6   8 154.762 90.7491   3
  -3  -6   7 553.896 172.044   3
  -3  -6   6-13.6058 20.5376   1
  -3  -6   6-21.8037 57.8733   3
  -3  -6   5 4698.14 517.882   1
  -3  -6   5 5366.35 512.424   3
  -3  -6   4 80.7262 71.4906   1
  -3  -6   4 96.6729 74.6086   3
  -3  -6   3 1306.53 252.514   1
   3   6  -3 1465.89 247.478   2
  -3  -6   3 1350.44 226.384   3
  -3  -6   2 4082.95 470.850   1
  -3  -6   2 4142.55 385.517   3
   3   6  -1 464.911 132.835   2
  -3  -6   1 811.773 229.627   1
  -3  -6   1 634.062 153.034   3
  -3  -6   0 7709.98 632.604   1
  -3  -6   0 8224.33 462.602   3
  -3  -6  -1 319.741 128.173   1
   3   6   1 81.1822 64.1573   2
  -3  -6  -1 464.158 103.437   3
   3   6   2 6889.31 436.081   2
  -3  -6  -2 6049.21 550.451   1
  -3  -6  -2 6601.36 310.573   3
   3   6   3 1752.05 200.861   2
  -3  -6  -3 1513.20 253.751   1
  -3  -6  -3 1101.92 78.9132   3
   3   6   4 667.429 115.362   2
  -3  -6  -4 955.033 244.249   1
   3   6   5 1085.59 121.203   2
  -3  -6  -5 1897.23 341.153   1
   3   6   6 2095.14 145.029   2
  -3  -6  -6 3252.67 411.531   1
  -3  -6  -7 2222.15 343.984   1
  -3  -6  -8 273.306 98.1882   1
  -3  -6  -9 2596.99 368.513   1
  -3  -6 -10 1490.03 278.070   1
  -3  -6 -11-83.3083 102.462   1
  -3  -6 -12 154.222 105.787   1
  -3  -6 -13 1092.43 266.455   1
  -3  -6 -14 169.602 131.901   1
  -3  -6 -15 631.781 217.338   1
  -3  -6 -16 290.002 158.126   1
  -3  -6 -17 334.099 181.572   1
  -3  -7  12 220.965 146.073   3
  -3  -7  11 678.976 246.156   3
  -3  -7  10 585.069 215.995   3
  -3  -7   9 109.710 107.287   3
  -3  -7   8 4.10796 51.7671   3
  -3  -7   7 1331.51 301.995   3
  -3  -7   6 1338.81 312.793   1
  -3  -7   6 1515.32 306.942   3
  -3  -7   5 1715.32 309.499   3
  -3  -7   5 1521.81 317.789   1
  -3  -7   4 48.6665 115.100   1
  -3  -7   4 58.5429 69.8435   3
  -3  -7   3 1606.96 310.748   1
  -3  -7   3 1849.21 296.324   3
  -3  -7   2 450.042 162.589   1
  -3  -7   2 501.477 159.203   3
  -3  -7   1 4962.76 555.898   1
   3   7  -1 5162.47 472.238   2
  -3  -7   1 4395.01 413.019   3
  -3  -7   0 692.332 282.310   1
   3   7   0 656.255 175.290   2
  -3  -7   0 501.294 144.606   3
  -3  -7  -1 68.2464 39.5598   1
   3   7   1 173.823 80.2572   2
  -3  -7  -1 134.349 56.3470   3
  -3  -7  -2-33.7092 85.3690   1
  -3  -7  -2 271.852 68.7840   3
  -3  -7  -3 854.129 238.246   1
  -3  -7  -3 685.130 83.2873   3
   3   7   4 921.101 168.635   2
  -3  -7  -4 9442.99 741.637   1
   3   7   5 2212.55 213.846   2
  -3  -7  -5 2249.30 378.477   1
  -3  -7  -6 1528.69 317.413   1
  -3  -7  -7 136.139 112.668   1
  -3  -7  -8 697.800 213.462   1
  -3  -7  -9 265.712 136.414   1
  -3  -7 -10 181.875 90.6921   1
  -3  -7 -11 332.018 152.842   1
  -3  -7 -12 67.5695 51.8336   1
  -3  -7 -13 344.936 144.710   1
  -3  -7 -14 4.69384 41.9516   1
  -3  -7 -15 335.721 116.572   1
  -3  -8  11 272.027 186.259   3
  -3  -8  10 603.421 228.923   3
  -3  -8   9 106.180 109.139   3
  -3  -8   8 23.6734 101.461   3
  -3  -8   7 161.613 76.1238   3
  -3  -8   6 1079.27 276.552   3
  -3  -8   5 189.786 142.006   1
  -3  -8   5 11.1731 31.9507   3
  -3  -8   4 2050.40 351.731   3
  -3  -8   4 1377.84 316.619   1
  -3  -8   3 686.855 193.554   3
  -3  -8   3 400.298 162.949   1
  -3  -8   2 462.906 176.244   1
  -3  -8   2 367.744 130.385   3
  -3  -8   1 300.879 164.446   1
  -3  -8   1 480.043 131.319   3
  -3  -8   0 38.1185 60.9891   1
  -3  -8   0 12.0463 54.0990   3
  -3  -8  -1 447.927 182.662   1
  -3  -8  -2 293.632 163.329   1
  -3  -8  -3 693.722 211.254   1
  -3  -8  -4 54.3248 68.7852   1
  -3  -8  -5 537.568 169.359   1
  -3  -8  -6 120.714 64.2007   1
  -3  -8  -7 236.501 100.679   1
  -3  -8  -8 2064.68 358.588   1
  -3  -8  -9 68.8333 94.9185   1
  -3  -8 -10 1085.43 277.233   1
  -3  -8 -11 279.444 148.369   1
  -3  -8 -12 263.685 153.140   1
  -3  -8 -13 355.492 172.122   1
  -3  -8 -14 880.391 274.594   1
  -3  -9   8 841.682 266.847   3
  -3  -9   7 640.051 245.167   3
  -3  -9   4 285.911 173.683   1
  -3  -9   3 46.4927 77.3081   1
  -3  -9   2 310.770 173.317   1
  -3  -9   1 227.416 136.632   1
  -3  -9   0 639.251 212.014   1
  -3  -9  -1 280.279 151.239   1
  -3  -9  -2 78.4680 104.976   1
  -3  -9  -3 787.727 242.396   1
  -3  -9  -4 584.202 199.745   1
  -3  -9  -5 533.684 196.504   1
  -3  -9  -6 640.945 224.146   1
  -3  -9  -7-8.53025 18.4288   1
  -3  -9  -8 210.412 118.565   1
  -3  -9  -9 685.554 219.140   1
  -3  -9 -10-233.916 147.278   1
  -3  -9 -11 9.32396 21.8109   1
   4  -6  -3 226.957 176.745   2
   4  -6  -2 276.422 146.370   2
   4  -6  -1 91.3665 94.7391   2
   4  -6   0 74.1640 66.0725   2
   4  -6   1 16.0088 84.2426   2
   4  -6   2 226.171 105.310   2
   4  -6   3 324.346 182.856   2
   4  -6   4 319.250 179.806   2
   4  -5  -9 239.940 180.903   2
   4  -5  -8 298.444 171.727   2
   4  -5  -7 70.7775 43.7246   2
   4  -5  -6 57.6359 31.7418   2
   4  -5  -5 73.3053 101.907   2
   4  -5  -4 30.6913 32.4473   2
   4  -5  -3 250.954 170.624   2
   4  -5  -2 885.551 261.293   2
   4  -5  -1 508.611 219.230   2
   4  -5   0 365.922 177.947   2
   4  -5   1 596.329 209.252   2
   4  -5   2 915.600 259.677   2
   4  -5   3 136.616 106.506   2
   4  -5   4 155.779 118.799   2
   4  -5   5 84.4062 109.355   2
   4  -5   6 453.871 203.070   2
   4  -5   7 296.673 152.329   2
   4  -5   8-12.0685 100.210   2
   4  -5   9 446.451 212.621   3
   4  -5  10-33.7165 22.3023   3
   4  -4 -11 136.207 101.487   2
   4  -4 -10 115.481 120.142   2
   4  -4  -9 434.848 193.438   2
   4  -4  -8 53.1376 55.9605   2
   4  -4  -7-30.5428 21.5590   2
   4  -4  -6-9.75691 61.0444   2
   4  -4  -5 110.848 84.3796   2
   4  -4  -4 940.306 256.689   2
   4  -4  -3 465.766 173.257   2
   4  -4  -2 88.2661 53.7580   2
   4  -4  -1 66.5779 101.042   2
   4  -4   0 904.539 242.465   2
   4  -4   1 72.5147 74.4784   2
   4  -4   2 710.124 221.945   2
  -4   4  -3 88.0501 53.2825   1
   4  -4   3 74.8209 30.8886   2
   4  -4   4 592.359 203.023   2
  -4   4  -4 484.519 132.894   1
   4  -4   5 35.7286 68.7913   2
   4  -4   6 228.264 149.428   2
   4  -4   7 40.8301 85.7543   2
   4  -4   8 195.228 110.898   2
   4  -4   9 239.374 148.636   2
   4  -4   9-40.4607 35.5588   3
   4  -4  10-95.7533 69.8865   3
   4  -4  11 871.229 275.299   3
   4  -4  12 101.512 106.199   3
   4  -4  13 145.452 114.457   3
   4  -3 -13 104.406 93.2890   2
   4  -3 -12 185.906 117.452   2
   4  -3 -11-12.4034 14.5704   2
   4  -3 -10-14.0667 20.9391   2
   4  -3  -9 69.8026 81.0852   2
   4  -3  -8-112.622 115.393   2
   4  -3  -7 1104.50 290.941   2
   4  -3  -6 4.61393 64.8082   2
   4  -3  -5 1533.13 324.939   2
   4  -3  -4 173.136 133.092   2
   4  -3  -3 1825.27 334.259   2
   4  -3  -2 573.297 185.360   2
   4  -3  -1 104.859 92.4753   2
  -4   3   0 127.286 33.3662   1
   4  -3   0 421.259 142.137   2
   4  -3   1 1605.03 301.371   2
  -4   3  -1 1061.58 130.163   1
  -4   3  -2 210.755 73.0590   1
   4  -3   2 243.616 117.156   2
  -4   3  -3 1478.22 194.258   1
   4  -3   3 2274.40 356.258   2
  -4   3  -4 49.3178 45.5259   1
   4  -3   4 177.865 110.705   2
   4  -3   5-16.7707 43.8810   2
  -4   3  -5 104.020 64.1204   1
   4  -3   6 1421.20 288.171   2
   4  -3   7 626.937 195.311   2
   4  -3   8 13.8471 30.1557   2
   4  -3   9 471.271 198.238   2
   4  -3  10 16.0480 23.7551   3
   4  -3  11 75.2195 88.7041   3
   4  -3  12 68.1692 75.7731   3
   4  -3  13 692.589 252.006   3
   4  -3  14 275.965 145.991   3
   4  -3  15 5.48559 50.4737   3
   4  -2 -14 2.98607 15.7194   2
   4  -2 -13 36.0333 52.2568   2
   4  -2 -12 88.1705 96.7234   2
   4  -2 -11 127.128 130.517   2
   4  -2 -10 77.7968 75.1566   2
   4  -2  -9 99.5049 57.6015   2
   4  -2  -8 2222.33 377.068   2
   4  -2  -7-12.5685 28.8262   2
   4  -2  -6 465.227 156.270   2
   4  -2  -5 58.8591 60.6435   2
   4  -2  -4 465.247 168.986   2
   4  -2  -3 34.2651 25.7209   2
   4  -2  -2 242.500 121.245   2
   4  -2  -1 1551.62 299.569   2
  -4   2   0 2555.30 145.329   1
  -4   2   0 2041.75 132.325   1
  -4   2  -1 1419.74 145.624   1
   4  -2   1 1981.74 334.120   2
   4  -2   2 791.525 209.090   2
   4  -2   3 211.235 111.096   2
   4  -2   4 110.577 83.9260   2
   4  -2   5 1485.54 277.035   2
   4  -2   6 1567.64 289.250   2
   4  -2   7 262.381 126.011   2
   4  -2   8 292.817 133.418   2
   4  -2   9 221.830 113.545   2
   4  -2  10-3.71916 49.4478   3
   4  -2  11 346.036 155.868   3
   4  -2  12 1058.05 286.217   3
   4  -2  13 325.331 157.798   3
   4  -2  14 272.194 128.202   3
   4  -2  15 156.200 144.938   3
   4  -2  16 231.718 152.317   3
   4  -2  17 255.215 153.435   3
   4  -1 -15 227.081 148.308   2
   4  -1 -14-5.21658 20.7154   2
   4  -1 -13 200.408 152.474   2
   4  -1 -12 95.9347 45.8951   2
   4  -1 -11 163.275 166.691   2
   4  -1 -10 43.3249 57.2165   2
   4  -1  -9-16.4578 15.8204   1
   4  -1  -9 15.5947 28.4543   2
   4  -1  -8 95.0522 62.9984   2
   4  -1  -7 2432.95 374.124   2
   4  -1  -6 371.957 130.379   2
   4  -1  -5 448.494 154.609   2
   4  -1  -4 6.48035 20.5768   2
   4  -1  -3 790.851 192.502   2
   4  -1  -2 1300.96 259.250   2
  -4   1   1 289.121 40.4843   1
  -4   1   1 754.461 182.634   2
   4  -1  -1 641.230 156.151   2
  -4   1   0 86.4524 67.7071   2
  -4   1   0 26.8215 19.4982   1
   4  -1   0 9.09100 20.6966   2
  -4   1  -1 43.9406 30.2739   1
  -4   1  -1-45.4069 40.7903   2
   4  -1   1 15.2840 49.4901   2
  -4   1  -2 474.530 156.240   2
   4  -1   2 551.411 148.891   2
  -4   1  -3 419.710 139.363   2
   4  -1   3 699.945 190.885   2
  -4   1  -4 2136.81 310.723   2
   4  -1   4 2911.87 348.524   2
  -4   1  -5 204.907 90.6791   2
   4  -1   5 137.462 82.2784   2
   4  -1   6-22.3466 7.96344   2
  -4   1  -6 26.1544 39.5412   2
  -4   1  -7 2556.48 349.533   2
   4  -1   7 3306.23 380.792   2
   4  -1   8 404.478 139.981   2
  -4   1  -8 492.321 166.227   2
   4  -1   9 1164.76 240.578   2
   4  -1  10 1788.68 316.171   3
   4  -1  11-99.7193 109.853   3
   4  -1  12-103.410 64.8480   3
   4  -1  13 457.817 180.350   3
   4  -1  14 727.764 235.128   3
   4  -1  15 1059.75 287.894   3
   4  -1  16 19.7943 52.6671   3
   4  -1  17 172.121 95.0146   3
   4  -1  18 38.8809 41.0722   3
  -4   0  15 84.7330 78.6344   3
   4   0 -15 173.387 138.941   2
   4   0 -14 68.1881 78.5048   2
   4   0 -13 273.186 133.630   2
   4   0 -12 695.748 229.379   2
   4   0 -11-58.2180 104.369   2
   4   0 -10 1591.44 325.082   2
   4   0 -10 1102.77 168.663   1
   4   0  -9 135.166 101.495   2
   4   0  -9 139.443 61.2256   1
   4   0  -8 1202.46 256.852   2
   4   0  -8 1034.38 151.330   1
   4   0  -7 563.432 93.5748   1
   4   0  -7 903.708 221.102   2
   4   0  -6 385.782 69.0320   1
   4   0  -6 857.567 207.640   2
   4   0  -5 1294.50 246.804   2
   4   0  -5 823.927 101.056   1
   4   0  -4 949.317 203.476   3
   4   0  -4 1120.96 246.214   2
   4   0  -4 745.737 96.2296   1
   4   0  -3 168.192 89.5880   3
   4   0  -3 201.582 88.5528   2
  -4   0   3 267.030 55.6888   1
   4   0  -2 1989.62 287.105   2
  -4   0   2 1957.96 152.123   1
   4   0  -1 2254.86 307.695   2
  -4   0   1 2466.76 186.721   1
   4   0   0 3794.87 384.422   2
  -4   0   0 3370.16 230.168   1
  -4   0  -1 3499.37 365.445   2
   4   0   1 3520.11 361.654   2
  -4   0  -1 3560.07 263.705   1
  -4   0  -2 445.778 106.848   1
  -4   0  -2 263.126 107.079   2
   4   0   2 463.565 156.214   2
  -4   0  -3 14696.9 711.109   2
   4   0   3 14453.9 689.250   2
  -4   0  -4 28170.6 974.424   2
   4   0   4 27339.8 932.662   2
  -4   0  -5 2616.21 302.665   2
   4   0   5 2560.80 284.597   2
  -4   0  -6 1586.34 239.227   2
   4   0   6 1642.97 232.336   2
   4   0   7 46.9241 45.0908   2
  -4   0  -7 15.2665 35.7119   2
  -4   0  -8 3237.09 355.695   2
   4   0   8 4051.10 395.317   2
   4   0   9 230.611 91.1932   2
  -4   0  -9 339.961 116.372   2
   4   0  10 524.582 173.140   3
  -4   0 -10 348.345 119.879   2
   4   0  11 230.253 88.2292   3
  -4   0 -11 391.502 136.067   2
  -4   0 -12 3306.79 393.626   2
   4   0  12 3543.96 454.938   3
   4   0  13 910.149 251.808   3
   4   0  14 464.621 191.165   3
   4   0  15-34.1064 67.3312   3
   4   0  16 170.493 107.897   3
   4   0  17-8.17670 48.5077   3
   4   0  18-142.825 94.1676   3
   4   0  19 18.8938 20.5879   3
   4   0  20 23.5269 105.066   3
  -4  -1  15 270.586 143.702   3
  -4  -1  14 267.674 154.564   3
  -4  -1  13-9.48776 77.0446   3
  -4  -1  12 491.305 193.852   3
  -4  -1  11 252.584 147.596   3
   4   1 -11 178.438 87.1230   1
  -4  -1  10 1.01497 78.0723   3
   4   1 -10-112.280 59.5316   1
  -4  -1   9-9.69060 63.5840   3
   4   1  -9-38.4396 49.2036   1
  -4  -1   8-81.0427 60.5313   3
   4   1  -8 49.0092 43.8883   1
  -4  -1   7 996.261 229.937   3
   4   1  -7 1087.15 238.875   2
   4   1  -7 1030.29 169.456   1
   4   1  -6 3269.71 396.430   2
   4   1  -6 2711.11 267.713   1
   4   1  -5 3134.34 381.001   2
   4   1  -5 2466.54 241.306   1
   4   1  -5 3364.70 392.195   3
   4   1  -4 1927.65 277.510   2
  -4  -1   4 1790.91 185.509   1
   4   1  -4 1461.22 174.277   1
   4   1  -4 1788.50 286.958   3
   4   1  -3 8.16649 57.0545   3
  -4  -1   3 146.649 61.0730   1
   4   1  -3 73.5263 58.2273   2
   4   1  -3-27.9260 33.3786   1
   4   1  -2 149.338 79.9782   3
  -4  -1   2 124.911 44.4747   1
   4   1  -2 217.777 89.2181   2
   4   1  -2 167.997 58.3365   1
   4   1  -1 164.169 76.9314   1
   4   1  -1 358.243 155.268   2
  -4  -1   1 238.493 91.7947   1
   4   1   0 2724.53 349.694   2
  -4  -1   0 2026.36 240.710   1
   4   1   1 5541.69 424.421   2
  -4  -1  -1 4818.15 339.603   1
  -4  -1  -2 29792.1 923.519   2
   4   1   2 31815.9 937.712   2
  -4  -1  -2 29639.3 865.899   1
  -4  -1  -3 77815.3 1461.86   2
   4   1   3 78250.6 1428.58   2
  -4  -1  -3 75055.2 1457.91   1
  -4  -1  -4 20316.8 723.964   2
   4   1   4 20883.9 717.757   2
  -4  -1  -5 2433.09 259.979   2
   4   1   5 2400.19 244.147   2
  -4  -1  -6 51.8886 36.0135   2
   4   1   6 37.9905 35.3641   2
   4   1   7 137.389 81.3520   2
  -4  -1  -7 83.3643 49.5032   2
  -4  -1  -8 2073.87 251.374   2
   4   1   8 3119.29 294.674   2
  -4  -1  -9 1158.08 198.203   2
   4   1   9 1108.07 237.516   3
  -4  -1 -10 2250.39 266.774   2
   4   1  10 2292.07 318.565   3
  -4  -1 -11 1664.74 237.765   2
   4   1  11 2459.72 342.391   3
   4   1  12 279.476 112.980   3
  -4  -1 -12 198.730 89.9416   2
   4   1  13 56.4485 75.5860   3
  -4  -1 -13 163.375 80.3721   2
  -4  -1 -14 1659.77 265.318   2
   4   1  14 1516.05 313.153   3
   4   1  15 98.2348 76.3104   3
   4   1  16 18.4848 18.6182   3
   4   1  17 126.845 83.3465   3
   4   1  18 58.3394 68.9980   3
   4   1  19 230.464 170.754   3
   4   1  20 176.285 162.665   3
  -4  -2  15-38.1207 36.8038   3
  -4  -2  14 59.6622 9.66301   3
  -4  -2  13 242.642 108.729   3
  -4  -2  12 125.312 72.1104   3
  -4  -2  11 501.472 188.655   3
  -4  -2  10 14.2323 55.5497   3
   4   2 -10-24.2406 62.0128   1
  -4  -2   9 46.4571 69.5755   3
   4   2  -9-131.536 103.156   1
  -4  -2   8 736.007 200.666   3
   4   2  -8 572.145 148.292   1
   4   2  -7 1059.82 198.123   1
  -4  -2   7 1540.52 287.594   3
   4   2  -6 6646.61 490.123   1
  -4  -2   6 8260.34 633.881   3
   4   2  -5 5255.46 414.013   1
   4   2  -5 5659.21 499.920   3
  -4  -2   5 5425.97 490.323   3
   4   2  -4 19.6120 31.4895   3
  -4  -2   4 0.52344 56.7289   3
   4   2  -4 24.1643 43.5166   1
   4   2  -3 406.730 134.418   3
  -4  -2   3 234.303 86.8171   1
   4   2  -3 215.753 72.7299   1
   4   2  -2 6057.03 452.275   2
  -4  -2   2 5206.64 365.454   1
   4   2  -2 5368.13 384.373   1
   4   2  -1 25.5235 31.6279   1
   4   2  -1 24.2632 15.5774   2
  -4  -2   1-65.6897 62.1561   1
   4   2   0 2541.31 265.909   3
   4   2   0 3504.22 317.797   2
  -4  -2   0 2993.15 283.707   1
   4   2   0 2863.81 290.483   1
   4   2   1 2411.45 244.284   2
  -4  -2  -1 1688.07 212.824   1
   4   2   1 2101.16 249.000   1
   4   2   1 2080.77 246.274   3
   4   2   2 22325.6 697.874   2
   4   2   2 18897.7 714.186   3
   4   2   3 837.514 135.627   2
   4   2   4 346.087 79.7947   2
  -4  -2  -5 977.260 133.969   2
   4   2   5 1327.46 162.156   2
  -4  -2  -5 1015.55 217.235   1
  -4  -2  -6 72.7928 30.2195   2
  -4  -2  -6 98.9723 83.6179   1
   4   2   6 103.842 48.5502   2
  -4  -2  -7 3231.42 239.270   2
   4   2   7 3633.51 254.340   2
  -4  -2  -7 3174.33 374.390   1
   4   2   8 647.395 159.907   3
  -4  -2  -8 332.033 101.476   2
  -4  -2  -9 5371.33 330.355   2
   4   2   9 5406.79 420.312   3
  -4  -2 -10 2158.14 218.762   2
   4   2  10 2055.19 268.110   3
  -4  -2 -11 93.9706 38.8426   2
   4   2  11 131.028 84.6331   3
  -4  -2 -12 55.5765 40.3120   2
   4   2  12 35.8847 58.0848   3
  -4  -2 -13 877.037 159.270   2
   4   2  13 1033.85 222.236   3
   4   2  14 1607.13 278.877   3
   4   2  15 99.7771 73.1711   3
   4   2  16 225.346 108.170   3
   4   2  17 49.8521 55.7608   3
   4   2  18 502.494 181.703   3
   4   2  19 148.350 118.220   3
  -4  -3  15-97.1797 33.8276   3
  -4  -3  14 18.3337 37.1456   3
  -4  -3  13 420.339 182.887   3
  -4  -3  12 104.393 94.5448   3
  -4  -3  11 1400.45 314.357   3
  -4  -3  10 20.3579 61.1294   3
  -4  -3   9 3565.84 462.787   3
  -4  -3   8 823.373 217.124   3
  -4  -3   7 168.821 50.9215   3
   4   3  -7 196.929 100.474   1
  -4  -3   6 3275.34 345.015   1
   4   3  -6 2654.46 345.637   1
  -4  -3   6 3300.67 406.218   3
  -4  -3   5 7342.33 512.652   1
   4   3  -5 6027.46 499.800   1
   4   3  -5 5750.45 514.354   3
  -4  -3   5 7952.35 588.430   3
  -4  -3   4 2778.07 312.573   1
   4   3  -4 2538.12 317.032   1
   4   3  -4 2761.88 338.741   3
  -4  -3   4 2661.78 333.247   3
   4   3  -3 2413.30 301.603   1
   4   3  -3 2602.58 304.565   3
  -4  -3   3 2608.32 312.150   3
   4   3  -2 3249.65 332.274   1
  -4  -3   2 3403.34 337.060   3
   4   3  -1 11944.0 641.514   1
   4   3  -1 10190.1 534.010   3
   4   3   0 1035.15 156.202   3
   4   3   0 1076.16 190.149   1
   4   3   1 942.976 138.798   2
   4   3   1 782.360 136.329   3
   4   3   1 641.877 147.039   1
   4   3   2 1048.69 138.572   2
   4   3   2 776.221 163.881   1
   4   3   2 960.877 138.976   3
   4   3   3 3244.76 221.616   2
  -4  -3  -3 2611.01 303.348   1
   4   3   3 2875.02 230.489   3
   4   3   3 2323.63 293.893   1
   4   3   4 1560.88 137.059   2
  -4  -3  -4 1562.70 253.405   1
   4   3   4 1322.12 153.259   3
   4   3   5 1888.42 134.680   2
   4   3   6 1037.33 91.3456   2
  -4  -3  -6 1447.72 257.999   1
   4   3   7 5957.62 337.421   3
  -4  -3  -7 5640.49 522.023   1
  -4  -3  -8 829.942 213.094   1
   4   3   8 899.408 143.421   3
  -4  -3  -9 53.0180 19.1783   2
   4   3   9 175.383 89.2206   3
  -4  -3  -9 179.520 124.720   1
  -4  -3 -10 77.7149 25.2285   2
   4   3  10 65.1343 43.8192   3
  -4  -3 -10-47.8148 53.3736   1
  -4  -3 -11 873.539 231.216   1
  -4  -3 -11 935.366 100.245   2
   4   3  11 1115.37 177.504   3
  -4  -3 -12 11.3782 15.5090   2
   4   3  12 18.8103 28.9908   3
  -4  -3 -13 1852.54 177.672   2
   4   3  13 1536.68 234.392   3
   4   3  14 21.4027 22.7902   3
   4   3  15 1877.93 292.286   3
   4   3  16 69.1785 71.7652   3
   4   3  17 68.0062 27.2697   3
  -4  -4  14 759.562 254.853   3
  -4  -4  13 81.6027 70.0350   3
  -4  -4  12 1462.29 351.117   3
  -4  -4  11-79.7266 80.5794   3
  -4  -4  10 1865.09 353.446   3
  -4  -4   9 489.312 158.281   3
  -4  -4   8 825.058 225.440   3
  -4  -4   7 2711.92 361.561   1
  -4  -4   7 2690.09 386.149   3
  -4  -4   6 6068.77 514.096   1
  -4  -4   6 6693.14 579.306   3
  -4  -4   5 2140.44 301.070   1
   4   4  -5 1602.30 256.522   3
  -4  -4   5 2172.61 316.841   3
  -4  -4   4 3411.18 381.417   1
   4   4  -4 3708.33 410.472   1
   4   4  -4 3101.80 341.136   3
  -4  -4   4 3154.39 362.707   3
  -4  -4   3 1797.88 276.757   1
   4   4  -3 1895.40 282.973   1
  -4  -4   3 1819.65 262.219   3
  -4  -4   2 1557.32 245.770   1
   4   4  -2 1685.10 261.677   1
  -4  -4   2 1728.84 245.361   3
  -4  -4   1 204.185 87.9762   3
  -4  -4   1 195.900 39.7850   1
   4   4  -1 175.829 82.6643   1
   4   4  -1 218.957 68.8902   3
  -4  -4   0 1197.86 194.193   1
   4   4   0 1235.27 170.836   3
   4   4   0 1525.45 242.339   1
  -4  -4  -1 4687.19 435.589   1
   4   4   1 4604.00 304.407   3
   4   4   1 4394.85 415.323   1
  -4  -4  -2 2208.84 305.567   1
   4   4   2 1984.14 183.293   3
   4   4   2 2040.54 286.486   1
  -4  -4  -3 821.856 190.442   1
   4   4   3 987.846 115.467   2
   4   4   3 980.475 120.668   3
   4   4   3 911.131 201.579   1
   4   4   4 2642.45 144.164   2
  -4  -4  -4 2937.48 341.117   1
   4   4   4 2669.55 156.038   3
   4   4   4 2814.37 339.235   1
  -4  -4  -5 2504.98 322.638   1
   4   4   5 1896.17 105.339   3
  -4  -4  -6 5849.39 532.237   1
  -4  -4  -7 3455.56 412.717   1
  -4  -4  -8 211.366 115.833   1
   4   4   8 105.267 25.7836   3
  -4  -4  -9 479.489 170.943   1
   4   4   9 287.120 50.9007   3
   4   4  10 992.407 110.764   3
  -4  -4 -10 1359.64 289.891   1
  -4  -4 -11-0.58048 23.8133   1
   4   4  11 19.1204 29.3745   3
  -4  -4 -12 862.439 227.986   1
   4   4  12 902.872 131.603   3
   4   4  13 310.071 79.4880   3
  -4  -4 -13 225.182 143.129   1
   4   4  14 3452.36 308.116   3
  -4  -4 -14 2797.29 457.559   1
  -4  -4 -15 205.210 115.956   1
  -4  -4 -16-51.3087 54.1080   1
  -4  -4 -17 91.0466 102.353   1
  -4  -4 -18-10.2351 64.7737   1
  -4  -5  14 122.627 123.435   3
  -4  -5  13 600.874 239.652   3
  -4  -5  12 8.63873 75.8755   3
  -4  -5  11 189.492 126.411   3
  -4  -5  10 219.328 143.227   3
  -4  -5   9 111.821 116.939   3
  -4  -5   8 1485.50 307.287   3
  -4  -5   7 390.926 144.877   3
  -4  -5   7 480.015 167.209   1
  -4  -5   6 237.264 102.245   3
  -4  -5   6 306.387 132.204   1
  -4  -5   5 425.481 159.142   3
   4   5  -5 230.156 94.9934   3
  -4  -5   5 320.234 125.920   1
  -4  -5   4 6491.53 538.340   3
  -4  -5   4 5827.94 532.786   1
  -4  -5   3 1773.46 305.008   1
   4   5  -3 1406.78 220.713   3
  -4  -5   3 1666.37 261.600   3
  -4  -5   2 389.772 120.267   3
  -4  -5   2 376.657 141.771   1
  -4  -5   1 6689.83 557.774   1
   4   5  -1 6100.68 399.748   3
  -4  -5   1 6964.11 461.029   3
  -4  -5   0 5757.14 505.787   1
   4   5   0 5785.47 358.335   3
  -4  -5   0 5886.57 385.592   3
  -4  -5  -1 117.446 96.6860   1
   4   5   1 300.479 75.7988   3
  -4  -5  -2 315.859 151.110   1
   4   5   2 159.276 43.8300   3
   4   5   3 2481.65 201.032   2
  -4  -5  -3 2719.39 365.175   1
  -4  -5  -4 503.266 184.060   1
   4   5   4 594.077 72.5402   2
   4   5   4 286.998 63.5993   2
  -4  -5  -5 6146.56 553.021   1
  -4  -5  -6 2231.84 334.203   1
  -4  -5  -7 3712.74 442.924   1
  -4  -5  -8 2237.85 356.652   1
  -4  -5  -9 584.913 187.528   1
  -4  -5 -10 655.544 204.879   1
  -4  -5 -11 2060.98 361.002   1
  -4  -5 -12 63.0251 83.3839   1
  -4  -5 -13 412.151 169.761   1
  -4  -5 -14 33.0654 71.4877   1
  -4  -5 -15 123.415 91.6072   1
  -4  -5 -16 171.407 132.231   1
  -4  -5 -17 75.0418 74.9267   1
  -4  -6  13 70.8061 102.681   3
  -4  -6  12 58.2886 81.8442   3
  -4  -6  11 601.202 224.004   3
  -4  -6  10 135.954 101.652   3
  -4  -6   9 872.178 252.860   3
  -4  -6   8 29.4254 18.2312   3
  -4  -6   7 58.5423 20.4142   3
  -4  -6   7-0.10551 73.2333   1
  -4  -6   6 1425.51 290.206   3
  -4  -6   6 1380.04 282.208   1
  -4  -6   5 3847.71 469.492   1
  -4  -6   5 4295.92 473.546   3
  -4  -6   4 216.367 105.415   3
  -4  -6   4 39.5134 41.1577   1
   4   6  -4 136.768 84.0610   3
  -4  -6   3 200.137 107.165   3
  -4  -6   3 206.890 123.851   1
   4   6  -3 115.552 65.3289   3
  -4  -6   2 2185.29 354.513   1
  -4  -6   2 2269.11 292.966   3
  -4  -6   1 472.582 130.180   3
   4   6  -1 299.026 104.986   2
  -4  -6   1 408.937 157.209   1
  -4  -6   0 6764.03 610.872   1
  -4  -6   0 7279.28 431.175   3
   4   6   1 10.7627 32.5017   2
  -4  -6  -1 177.606 55.0988   3
  -4  -6  -1 85.7415 81.4332   1
   4   6   2 2788.71 269.841   2
  -4  -6  -2 3674.13 428.062   1
  -4  -6  -3 148.825 129.850   1
   4   6   3 71.4652 52.8273   2
   4   6   4 1547.86 142.299   2
  -4  -6  -4 2454.71 375.673   1
  -4  -6  -5 978.708 245.047   1
  -4  -6  -6 7780.87 686.598   1
  -4  -6  -7 137.907 67.3869   1
  -4  -6  -8 63.9593 30.1375   1
  -4  -6  -9 3151.96 432.818   1
  -4  -6 -10 159.642 63.9321   1
  -4  -6 -11 54.2128 43.4963   1
  -4  -6 -12 132.675 100.474   1
  -4  -6 -13 79.5702 106.068   1
  -4  -6 -14 103.641 93.9671   1
  -4  -6 -15 430.906 185.936   1
  -4  -6 -16 202.928 132.214   1
  -4  -7  12 218.524 156.848   3
  -4  -7  11 177.784 150.569   3
  -4  -7  10 51.2028 39.8845   3
  -4  -7   9 394.938 187.863   3
  -4  -7   8 144.331 119.681   3
  -4  -7   7 561.442 195.621   3
  -4  -7   7 524.040 226.294   1
  -4  -7   6 149.270 106.819   3
  -4  -7   6 69.7014 100.851   1
  -4  -7   5 124.478 51.5141   3
  -4  -7   5 348.605 154.051   1
  -4  -7   4 313.820 133.608   1
  -4  -7   4 263.782 106.012   3
  -4  -7   3 3744.98 490.769   1
  -4  -7   3 4296.44 456.175   3
  -4  -7   2 761.184 179.108   3
  -4  -7   2 673.990 221.366   1
  -4  -7   1 2535.33 396.759   1
   4   7  -1 2605.96 334.080   2
  -4  -7   1 2479.76 300.042   3
   4   7   0 571.051 161.169   2
  -4  -7   0 735.840 150.903   3
  -4  -7   0 822.467 247.856   1
  -4  -7  -1 2914.86 429.445   1
  -4  -7  -1 3025.28 242.971   3
  -4  -7  -2 286.581 54.6521   3
  -4  -7  -2 201.912 94.2759   1
   4   7   2 355.199 109.741   2
  -4  -7  -3 921.983 232.792   1
  -4  -7  -4 4042.75 493.184   1
  -4  -7  -5 2046.31 368.014   1
  -4  -7  -6 227.063 159.566   1
  -4  -7  -7 187.040 145.112   1
  -4  -7  -8 3150.45 459.714   1
  -4  -7  -9 362.662 160.256   1
  -4  -7 -10 150.937 62.8390   1
  -4  -7 -11-86.4191 74.5612   1
  -4  -7 -12 25.6181 49.2974   1
  -4  -7 -13-19.7237 40.5506   1
  -4  -7 -14-83.4968 93.6260   1
  -4  -7 -15 214.116 101.721   1
  -4  -8  10 2477.66 479.946   3
  -4  -8   9 799.995 264.163   3
  -4  -8   8-40.4771 111.835   3
  -4  -8   7 97.7924 96.2523   3
  -4  -8   6 206.251 117.255   3
  -4  -8   6 583.305 226.388   1
  -4  -8   5 125.267 74.9356   3
  -4  -8   5 188.353 141.310   1
  -4  -8   4 1351.64 268.725   3
  -4  -8   4 1168.07 284.534   1
  -4  -8   3 6.96243 52.0914   1
  -4  -8   3 63.5609 72.8288   3
  -4  -8   2 161.302 90.2961   3
  -4  -8   2 187.396 156.208   1
  -4  -8   1 1184.49 306.030   1
  -4  -8   0 458.861 195.865   1
  -4  -8  -1 379.268 152.214   1
  -4  -8  -2 448.444 192.692   1
  -4  -8  -3 595.336 202.067   1
  -4  -8  -4-105.966 117.269   1
  -4  -8  -5 100.065 83.1257   1
  -4  -8  -6-123.170 100.997   1
  -4  -8  -7 287.506 153.921   1
  -4  -8  -8 1110.78 294.548   1
  -4  -8  -9 196.993 143.770   1
  -4  -8 -10 1247.44 309.236   1
  -4  -8 -11 123.662 122.433   1
  -4  -8 -12 151.498 104.814   1
  -4  -8 -13 168.123 106.980   1
  -4  -9   2 68.5255 108.977   1
  -4  -9   1 60.9080 81.2701   1
  -4  -9   0 438.419 215.603   1
  -4  -9  -1 119.479 106.147   1
  -4  -9  -2 199.745 135.365   1
  -4  -9  -3 640.047 236.600   1
  -4  -9  -4 144.635 129.645   1
  -4  -9  -5 260.833 142.889   1
  -4  -9  -6-47.7169 61.8556   1
  -4  -9  -7 239.964 119.777   1
  -4  -9  -8-45.5048 121.106   1
  -4  -9  -9 479.720 203.692   1
   5  -5  -1 80.4566 101.150   2
   5  -5   0 75.6314 98.3902   2
   5  -5   1 533.190 230.842   2
   5  -5   2 785.825 287.265   2
   5  -5   3 143.120 133.832   2
   5  -5   4 0.15122 7.30105   2
   5  -4  -7 945.877 295.086   2
   5  -4  -6 321.303 183.965   2
   5  -4  -5 480.717 237.474   2
   5  -4  -4 476.214 179.641   2
   5  -4  -3 77.6131 111.379   2
   5  -4  -2 149.021 83.8262   2
   5  -4  -1 209.496 142.394   2
   5  -4   0-43.0028 65.2806   2
   5  -4   1 168.808 92.7663   2
   5  -4   2 451.712 175.332   2
   5  -4   3 338.111 187.209   2
   5  -4   4 1405.08 328.801   2
   5  -4   5 358.987 169.105   2
   5  -4   6 359.781 193.804   2
   5  -4   7 73.1880 70.0255   2
   5  -4   8 197.730 109.925   2
   5  -4   9 8.57626 43.6816   2
   5  -4  10 186.090 145.051   2
   5  -3  -9 39.6009 78.4500   2
   5  -3  -8 54.4025 90.1627   2
   5  -3  -7-7.02124 51.2779   2
   5  -3  -6 109.364 98.8035   2
   5  -3  -5 641.121 230.714   2
   5  -3  -4 26.5769 24.0002   2
   5  -3  -3 689.895 233.035   2
   5  -3  -2 135.707 79.6638   2
   5  -3  -1 30.1976 32.0955   2
   5  -3   0 79.4047 67.3124   2
   5  -3   1 282.964 139.998   2
   5  -3   2 304.446 150.503   2
   5  -3   3 1228.59 304.674   2
   5  -3   4 73.3261 87.3356   2
   5  -3   5 75.1871 85.6863   2
   5  -3   6 37.7941 66.2948   2
   5  -3   7 1.47404 33.5150   2
   5  -3   8 92.6403 82.2873   2
   5  -3   9 93.0434 104.008   2
   5  -3  10-15.1880 86.3186   2
   5  -3  11 158.189 115.854   3
   5  -3  12 833.506 271.616   3
   5  -3  13 87.2032 114.127   3
   5  -2 -11-15.2778 46.3412   2
   5  -2 -10-32.2239 68.3548   2
   5  -2  -9 1248.24 318.973   2
   5  -2  -8 592.353 215.982   2
   5  -2  -7 881.626 267.066   2
   5  -2  -6 1794.24 362.249   2
   5  -2  -5 199.075 129.188   2
   5  -2  -4 521.185 207.227   2
   5  -2  -3-38.7877 70.5832   2
   5  -2  -2-59.9316 84.5962   2
   5  -2  -1 987.962 250.211   2
   5  -2   0 1667.18 324.945   2
   5  -2   1-6.94328 53.4879   2
  -5   2  -1 12.0878 18.4277   1
  -5   2  -1 13.7092 15.8111   1
  -5   2  -2 232.799 71.9567   1
   5  -2   2 212.888 107.682   2
   5  -2   3 525.697 181.160   2
   5  -2   4 2387.85 392.553   2
   5  -2   5 811.229 227.345   2
   5  -2   6 19.8407 35.8038   2
   5  -2   7 231.442 138.111   2
   5  -2   8-125.296 110.854   2
   5  -2   9-34.9230 46.7417   2
   5  -2  10 135.689 105.804   2
   5  -2  11 366.244 186.312   3
   5  -2  12-31.3512 66.6197   3
   5  -2  13-74.9826 89.3993   3
   5  -2  14 211.415 144.229   3
   5  -2  15 6.84848 45.7055   3
   5  -1 -12 6.78667 81.0256   2
   5  -1 -11 18.2846 30.7172   2
   5  -1 -10 401.501 156.304   2
   5  -1  -9 1405.52 328.430   2
   5  -1  -8 1937.05 384.106   2
   5  -1  -7 149.028 79.9520   2
   5  -1  -6 1574.62 319.414   2
   5  -1  -5 543.015 194.404   2
   5  -1  -4 376.246 140.510   2
   5  -1  -3 209.478 117.192   2
   5  -1  -2 2003.84 343.933   2
  -5   1   1 231.216 34.7696   1
   5  -1  -1 1083.87 246.180   2
   5  -1   0-89.9915 61.6143   2
  -5   1   0-14.9156 16.8352   1
  -5   1  -1 96.2499 44.9132   1
   5  -1   1 316.972 107.943   2
  -5   1  -2 400.077 96.8880   1
   5  -1   2 466.630 175.743   2
  -5   1  -3 32.8277 40.7673   1
   5  -1   3 69.8971 42.2356   2
   5  -1   4 1323.88 274.424   2
   5  -1   5 116.834 92.5304   2
   5  -1   6 208.372 108.745   2
   5  -1   7 408.965 155.425   2
   5  -1   8 69.4198 50.7776   2
   5  -1   9 295.357 127.407   2
   5  -1  10 392.567 130.075   2
   5  -1  11 137.337 136.364   3
   5  -1  12 47.0488 79.6470   3
   5  -1  13-42.1844 111.899   3
   5  -1  14 629.784 226.593   3
   5  -1  15 204.181 145.884   3
   5  -1  16 160.250 133.204   3
   5  -1  17 237.074 172.673   3
   5   0 -13 153.104 117.599   2
   5   0 -12 272.608 157.008   2
   5   0 -11 252.996 172.184   2
   5   0 -10 1151.58 297.439   2
   5   0  -9 479.191 189.708   2
   5   0  -8 734.203 208.691   2
   5   0  -7 0.97767 4.40598   1
   5   0  -7 35.1892 92.1913   2
   5   0  -6 3219.05 451.470   2
   5   0  -5 1472.88 300.045   2
   5   0  -4-19.5289 60.8463   2
  -5   0   3 18.7683 15.2474   1
   5   0  -3-0.51746 33.8393   2
  -5   0   2 954.084 111.868   1
   5   0  -2 1207.42 253.139   2
  -5   0   1 635.944 87.0851   1
   5   0  -1 796.532 205.716   2
   5   0   0 481.198 153.052   2
  -5   0   0 270.895 70.2418   1
  -5   0  -1 365.739 87.7217   1
   5   0   1 411.984 125.331   2
  -5   0  -2 458.157 108.908   1
  -5   0  -2 455.840 147.446   2
   5   0   2 433.480 144.088   2
  -5   0  -3 134.531 86.9593   2
   5   0   3 236.452 83.4248   2
  -5   0  -4 476.696 153.650   2
   5   0   4 436.339 147.908   2
  -5   0  -5 1984.73 302.382   2
   5   0   5 2765.12 353.633   2
  -5   0  -6 3283.20 387.002   2
   5   0   6 4500.74 424.151   2
   5   0   7 611.644 164.458   2
  -5   0  -7 841.545 194.563   2
   5   0   8 203.798 105.115   2
  -5   0  -8 174.130 98.5935   2
   5   0   9 49.3470 26.1338   2
  -5   0  -9 143.112 89.9457   2
   5   0  10 2430.25 336.332   2
   5   0  11 291.235 119.156   3
   5   0  12-121.581 75.9283   3
   5   0  13 320.820 129.312   3
   5   0  14 693.955 227.857   3
   5   0  15 203.476 124.555   3
   5   0  16 332.418 149.809   3
   5   0  17 151.789 135.546   3
   5   0  18 200.972 159.035   3
   5   0  19 80.3583 104.496   3
   5   1 -13 448.953 217.334   2
   5   1 -12 149.782 120.366   2
   5   1 -11 36.5870 88.6617   2
   5   1 -10 560.057 205.407   2
   5   1  -9 350.730 163.349   2
   5   1  -8 111.633 46.3420   1
   5   1  -8 190.860 103.197   2
   5   1  -7 42.1173 7.57632   1
   5   1  -7-145.800 136.117   2
   5   1  -6 1438.40 284.365   2
   5   1  -6 858.039 143.912   1
   5   1  -5 142.346 64.0356   1
   5   1  -5 167.976 98.8102   2
  -5  -1   4 934.739 142.800   1
   5   1  -4 824.230 201.692   2
   5   1  -4 712.107 130.126   1
   5   1  -3-60.5844 85.2735   2
   5   1  -3 17.1234 32.1363   1
  -5  -1   2-15.1695 7.41429   1
   5   1  -2-30.9950 60.3318   2
   5   1  -1 2777.08 356.215   2
  -5  -1   1 2194.62 217.505   1
   5   1  -1 2145.79 318.895   3
   5   1   0 77.8314 28.9456   3
   5   1   0-46.7601 68.5521   2
  -5  -1   0 66.1149 44.1539   1
  -5  -1  -1 296.116 96.8733   1
   5   1   1 487.196 152.190   2
  -5  -1  -2 95.7105 63.5500   2
   5   1   2 155.589 84.8575   2
  -5  -1  -3 3188.32 351.194   2
   5   1   3 3037.40 341.895   2
  -5  -1  -4 202.716 88.1099   2
   5   1   4 325.512 102.227   2
   5   1   5 8595.18 537.054   2
  -5  -1  -5 9124.45 605.746   1
  -5  -1  -6 101.283 57.3052   2
  -5  -1  -6 89.9612 70.3166   1
   5   1   6 182.627 88.4277   2
  -5  -1  -7 1363.48 225.407   2
   5   1   7 2164.94 276.124   2
   5   1   8 1103.95 195.515   2
  -5  -1  -8 561.047 141.579   2
   5   1   9 690.261 148.917   2
  -5  -1  -9 768.809 170.735   2
  -5  -1 -10 26.3035 33.3044   2
  -5  -1 -11 285.631 104.650   2
   5   1  11 145.342 81.3747   3
  -5  -1 -12 296.133 117.406   2
   5   1  12 166.447 86.0601   3
   5   1  13 129.398 117.761   3
   5   1  14 860.218 246.277   3
   5   1  15 106.634 100.873   3
   5   1  16 39.5454 30.8971   3
   5   1  17 3.83984 21.8174   3
   5   1  18 129.465 118.890   3
   5   1  19 198.963 168.315   3
  -5  -2  13 253.478 162.549   3
  -5  -2  12 428.235 182.821   3
  -5  -2  11 1657.53 363.758   3
  -5  -2  10 542.916 202.597   3
  -5  -2   9-43.5305 83.7951   3
   5   2  -9-3.62801 25.3277   1
   5   2  -8 675.785 172.160   1
   5   2  -8 784.599 234.322   2
   5   2  -7 70.3045 24.8918   1
   5   2  -7 43.2805 27.4831   2
   5   2  -6 174.110 88.7887   1
   5   2  -6 183.371 81.9110   2
   5   2  -5 8272.62 662.927   2
   5   2  -5 4949.42 401.404   1
   5   2  -4 1043.38 244.719   2
   5   2  -4 437.834 120.386   1
   5   2  -3 675.896 144.931   1
   5   2  -3 1237.53 242.636   2
   5   2  -2 2584.59 345.719   3
   5   2  -2 2987.36 310.248   1
   5   2  -1 261.812 105.414   3
   5   2  -1 368.826 149.339   2
   5   2  -1 118.064 55.4760   1
   5   2   0 3552.68 361.182   2
   5   2   0 2692.15 329.909   3
   5   2   0 2640.10 299.314   1
   5   2   1 42.9803 26.1365   3
   5   2   1 90.1404 78.9952   2
   5   2   2 1125.58 192.986   2
   5   2   2 895.840 187.104   3
   5   2   3 652.915 140.238   2
  -5  -2  -3 437.110 128.017   1
   5   2   4 1190.27 181.960   2
  -5  -2  -4 1182.11 225.085   1
  -5  -2  -5-17.2390 24.7048   2
  -5  -2  -5 95.6805 79.4933   1
   5   2   5 81.3966 43.9516   2
  -5  -2  -6 4918.86 364.796   2
   5   2   6 5534.41 373.608   2
  -5  -2  -6 4580.24 476.391   1
  -5  -2  -7 5556.22 384.255   2
   5   2   7 5886.27 390.533   2
  -5  -2  -7 5223.45 535.783   1
  -5  -2  -8 1367.24 184.448   2
   5   2   8 1543.84 200.585   2
  -5  -2  -8 1479.14 290.904   1
  -5  -2  -9 893.612 157.164   2
  -5  -2  -9 1257.75 296.075   1
  -5  -2 -10 373.572 101.008   2
   5   2  10 443.805 152.771   3
  -5  -2 -11 465.353 119.278   2
   5   2  11 394.341 131.988   3
  -5  -2 -12 27.5546 39.4541   2
   5   2  12 0.78074 39.0123   3
   5   2  13-18.2160 47.9395   3
   5   2  14 188.121 101.080   3
   5   2  15 820.296 225.410   3
   5   2  16 58.3301 59.0935   3
   5   2  17-4.09838 43.4439   3
   5   2  18 1018.28 279.449   3
  -5  -3  13 166.536 127.846   3
  -5  -3  12 304.674 181.047   3
  -5  -3  11 286.348 142.854   3
  -5  -3  10-41.9410 79.9368   3
  -5  -3   9 2346.77 412.236   3
  -5  -3   8 95.7155 88.0541   3
  -5  -3   7 2070.72 351.956   3
  -5  -3   6 1025.94 253.351   3
   5   3  -6 990.942 215.725   1
  -5  -3   6 971.581 201.172   1
  -5  -3   5 2032.68 284.857   1
   5   3  -5 1246.10 232.387   1
  -5  -3   5 1937.54 331.637   3
  -5  -3   4 466.230 162.209   1
   5   3  -4 99.6969 67.0727   1
   5   3  -3 824.268 188.009   3
  -5  -3   3 1313.08 220.769   1
   5   3  -3 861.472 189.341   1
   5   3  -2 856.827 195.129   3
   5   3  -2 465.702 147.424   1
  -5  -3   2 654.175 146.279   1
   5   3  -2 719.697 165.432   2
   5   3  -1 1589.74 251.224   2
  -5  -3   1 1410.40 209.814   1
   5   3  -1 1547.95 246.419   3
   5   3  -1 1129.25 215.650   1
   5   3   0 2315.14 280.952   2
  -5  -3   0 2084.92 283.676   1
   5   3   0 1324.89 229.586   1
   5   3   1 2005.88 243.964   2
  -5  -3  -1 1419.05 232.498   1
   5   3   1 1211.02 228.360   1
  -5  -3  -2 119.179 50.3644   1
   5   3   2 208.377 82.9230   2
   5   3   3 8.20241 23.2153   3
  -5  -3  -3-30.4307 47.1224   1
   5   3   3-30.6574 6.30897   2
   5   3   4 622.535 138.660   3
   5   3   4 972.174 145.759   2
  -5  -3  -4 603.393 148.684   1
   5   3   5 135.415 48.4440   2
  -5  -3  -5 252.515 95.3506   1
   5   3   6 3027.64 222.126   2
  -5  -3  -6 2531.31 362.250   1
   5   3   7 9.63042 21.7607   2
  -5  -3  -7 32.2086 45.9329   1
  -5  -3  -8 30.2691 51.0001   1
   5   3   9 3812.44 341.389   3
  -5  -3  -9 3270.81 448.157   1
  -5  -3 -10 140.509 46.9056   2
  -5  -3 -10 55.5432 48.4063   1
   5   3  10 137.510 79.4725   3
  -5  -3 -11 510.460 194.108   1
  -5  -3 -11 353.743 73.4585   2
   5   3  11 458.320 131.217   3
  -5  -3 -12-75.9922 83.4827   1
   5   3  12-30.4252 3.78672   3
  -5  -3 -13 1216.06 312.527   1
   5   3  13 876.721 194.148   3
  -5  -3 -14 1057.28 295.972   1
   5   3  14 966.187 209.098   3
  -5  -3 -15 92.7940 100.300   1
   5   3  15 39.0962 51.1000   3
  -5  -3 -16 893.217 274.860   1
   5   3  16 775.152 207.686   3
  -5  -3 -17 1027.00 293.028   1
  -5  -4  13-109.476 82.2160   3
  -5  -4  12 718.438 243.598   3
  -5  -4  11 19.6702 81.1163   3
  -5  -4  10 1465.01 334.659   3
  -5  -4   9-56.1222 46.8258   3
  -5  -4   8 884.512 239.815   3
  -5  -4   7 512.413 171.799   3
  -5  -4   7 603.240 182.681   1
  -5  -4   6 143.970 98.5990   3
  -5  -4   6 295.990 143.235   1
  -5  -4   5 209.755 103.789   1
  -5  -4   5 94.5506 54.9921   3
  -5  -4   4 2166.44 323.403   1
  -5  -4   4 2009.48 312.705   3
  -5  -4   3 5163.22 476.896   1
   5   4  -3 3809.76 413.619   3
  -5  -4   3 5309.85 491.780   3
  -5  -4   2 844.769 200.035   1
   5   4  -2 574.163 151.753   3
  -5  -4   1 1739.32 258.453   1
   5   4   0 489.588 122.274   2
  -5  -4   0 55.2511 62.4174   1
   5   4   1 45.7115 29.4756   3
   5   4   1 326.800 92.9037   2
  -5  -4  -1 273.155 124.433   1
   5   4   2-11.6339 26.1219   3
   5   4   2 59.3047 34.2699   2
  -5  -4  -2 25.4177 64.1955   1
   5   4   3 85.7738 54.7207   3
  -5  -4  -3 70.1909 54.8566   1
   5   4   3 88.1054 37.4051   2
   5   4   4 1745.26 159.312   2
  -5  -4  -4 1428.92 251.355   1
   5   4   4 1493.30 172.385   3
   5   4   5 105.413 41.4590   3
  -5  -4  -5 16.2760 79.7110   1
   5   4   5 126.556 38.2178   2
   5   4   6 10.5587 12.0187   2
   5   4   6-8.61259 4.69955   3
  -5  -4  -6-24.7974 47.6964   1
   5   4   7 607.674 98.7865   3
  -5  -4  -7 987.404 236.608   1
   5   4   8 7047.70 352.867   3
  -5  -4  -8 9187.42 748.563   1
  -5  -4  -9 102.949 108.796   1
   5   4   9 75.9834 48.1142   3
  -5  -4 -10 214.539 118.964   1
   5   4  10 134.410 55.2899   3
  -5  -4 -11 63.8797 85.0681   1
   5   4  11 24.6233 32.1101   3
  -5  -4 -12 297.771 163.215   1
   5   4  12 238.265 77.6852   3
  -5  -4 -13 88.2044 79.6583   1
   5   4  13-73.0786 55.9102   3
  -5  -4 -14 147.348 147.413   1
  -5  -4 -15 723.158 255.945   1
  -5  -4 -16 1734.49 386.566   1
  -5  -4 -17 63.2261 78.5615   1
  -5  -5  12-46.2770 50.4970   3
  -5  -5  11 774.153 259.113   3
  -5  -5  10 430.739 187.234   3
  -5  -5   9 287.190 124.295   3
  -5  -5   8 862.900 248.928   3
  -5  -5   7 284.856 136.275   3
  -5  -5   7 157.200 78.8374   1
  -5  -5   6 21.5283 17.4987   3
  -5  -5   6 121.807 104.519   1
  -5  -5   5 715.224 188.085   1
  -5  -5   5 477.729 159.086   3
  -5  -5   4 2994.50 397.183   1
  -5  -5   4 3138.73 401.849   3
  -5  -5   3 353.689 132.432   3
  -5  -5   3 576.951 190.973   1
   5   5  -3 390.787 122.552   3
  -5  -5   2 567.722 152.203   3
  -5  -5   2 572.253 169.145   1
   5   5  -2 300.946 107.252   3
  -5  -5   1 611.639 135.323   1
  -5  -5   0 596.430 127.250   1
   5   5   0 7.93103 36.7260   3
   5   5   1 1158.10 165.373   3
  -5  -5  -1 1340.77 233.221   1
   5   5   2 421.010 101.276   2
  -5  -5  -2 384.591 156.125   1
   5   5   2 211.281 62.5415   3
   5   5   3 626.240 102.484   2
   5   5   3 439.357 81.2839   3
  -5  -5  -3 744.248 198.278   1
  -5  -5  -4 348.283 133.703   1
   5   5   4 298.109 58.6051   2
   5   5   4 214.025 47.1973   3
  -5  -5  -5 2363.36 358.974   1
   5   5   5 1211.86 80.5683   3
  -5  -5  -6 731.546 190.179   1
  -5  -5  -7 1170.22 241.230   1
  -5  -5  -8-59.3336 88.9778   1
  -5  -5  -9 232.889 147.281   1
  -5  -5 -10 1899.37 359.147   1
  -5  -5 -11 443.692 181.481   1
  -5  -5 -12 769.533 246.997   1
  -5  -5 -13 582.530 207.064   1
  -5  -5 -14 90.7142 102.836   1
  -5  -5 -15 280.332 148.367   1
  -5  -5 -16 89.4796 82.2930   1
  -5  -6  12 257.896 169.504   3
  -5  -6  11-68.4093 77.2613   3
  -5  -6  10 132.377 123.408   3
  -5  -6   9 497.156 190.828   3
  -5  -6   8-42.3357 65.6730   3
  -5  -6   7 100.114 75.9874   3
  -5  -6   7 32.8291 40.8739   1
  -5  -6   6 1392.89 376.668   1
  -5  -6   6 2337.53 377.472   3
  -5  -6   5 352.848 142.276   3
  -5  -6   5 451.602 161.042   1
  -5  -6   4 122.814 90.0784   1
  -5  -6   4 86.6194 20.8306   3
  -5  -6   3 3008.05 419.352   1
   5   6  -3 2489.11 318.480   3
  -5  -6   3 2811.87 364.381   3
  -5  -6   2 250.886 95.1172   3
  -5  -6   2 151.599 85.0535   1
   5   6  -2 187.640 83.0254   3
  -5  -6   1 142.441 66.2731   3
  -5  -6   1 170.949 68.8989   1
  -5  -6   0 2887.91 406.843   1
   5   6   0-44.7788 44.3726   3
  -5  -6  -1 176.676 84.6409   1
   5   6   1 114.106 45.9677   3
   5   6   2 1417.57 197.984   2
  -5  -6  -2 2160.79 332.090   1
   5   6   2 1401.27 149.092   3
   5   6   3 370.314 91.9638   2
  -5  -6  -3 609.472 208.742   1
   5   6   4 3065.71 191.016   2
  -5  -6  -4 3635.26 484.972   1
  -5  -6  -5 340.810 172.148   1
  -5  -6  -6-21.6927 46.1356   1
  -5  -6  -7-9.53093 37.0203   1
  -5  -6  -8 1225.01 276.340   1
  -5  -6  -9 1567.37 332.320   1
  -5  -6 -10-54.1469 59.1535   1
  -5  -6 -11 549.849 197.847   1
  -5  -6 -12 530.864 208.176   1
  -5  -6 -13 335.279 162.985   1
  -5  -6 -14 207.514 144.221   1
  -5  -6 -15 193.221 140.177   1
  -5  -7  11 175.095 148.910   3
  -5  -7  10 203.314 155.030   3
  -5  -7   9 587.479 222.538   3
  -5  -7   8 291.910 140.901   3
  -5  -7   7 64.9742 75.4628   3
  -5  -7   7 26.3574 59.2687   1
  -5  -7   6 215.397 128.010   3
  -5  -7   6 166.133 137.509   1
  -5  -7   5 1484.18 299.130   3
  -5  -7   5 759.278 291.987   1
  -5  -7   4 107.189 62.1448   1
  -5  -7   4 200.753 97.5206   3
  -5  -7   3 87.9540 12.9792   3
  -5  -7   3 265.090 157.396   1
  -5  -7   2 482.276 154.133   3
  -5  -7   2 486.707 192.023   1
  -5  -7   1 1438.79 314.975   1
  -5  -7   1 1637.84 237.063   3
  -5  -7   0 1278.11 295.161   1
  -5  -7   0 1331.67 192.371   3
  -5  -7  -1 5767.86 629.753   1
  -5  -7  -2-9.94899 146.336   1
  -5  -7  -3 255.400 99.1950   1
  -5  -7  -4 279.029 131.003   1
  -5  -7  -5 1899.57 367.157   1
  -5  -7  -6 2452.20 428.204   1
  -5  -7  -7 962.895 262.281   1
  -5  -7  -8 276.530 123.364   1
  -5  -7  -9-0.90065 36.1371   1
  -5  -7 -10 507.392 206.960   1
  -5  -7 -11 101.544 69.3805   1
  -5  -7 -12-40.3029 47.7387   1
  -5  -7 -13 159.811 103.724   1
  -5  -8  10 1167.58 350.395   3
  -5  -8   9 290.986 180.815   3
  -5  -8   8 318.548 164.033   3
  -5  -8   7-41.4503 49.5415   3
  -5  -8   6 148.389 117.412   3
  -5  -8   6 48.3654 142.813   1
  -5  -8   5 285.235 148.561   3
  -5  -8   5 197.348 247.453   1
  -5  -8   4 250.096 126.408   3
  -5  -8   4 167.683 129.960   1
  -5  -8   3 134.024 110.530   1
  -5  -8   2 435.827 210.434   1
  -5  -8   1 407.764 167.479   1
  -5  -8   0 398.362 188.906   1
  -5  -8  -1 292.892 154.269   1
  -5  -8  -2 106.507 103.068   1
  -5  -8  -3-36.2108 96.5700   1
  -5  -8  -4 361.932 131.937   1
  -5  -8  -5 696.426 213.895   1
  -5  -8  -6 11.3645 55.1795   1
  -5  -8  -7-53.3310 52.1254   1
  -5  -8  -8 152.611 123.859   1
  -5  -8  -9 58.0141 109.103   1
  -5  -8 -10 349.759 163.280   1
  -5  -8 -11 244.071 163.364   1
  -5  -9  -1 193.053 151.211   1
  -5  -9  -2 653.005 241.524   1
  -5  -9  -3 148.520 104.096   1
  -5  -9  -4 189.134 125.723   1
  -5  -9  -5 476.259 199.194   1
  -5  -9  -6-252.485 163.835   1
   6  -3  -4-152.620 126.528   2
   6  -3  -3 209.776 157.906   2
   6  -3  -2 205.477 155.288   2
   6  -3  -1 30.8883 135.918   2
   6  -3   0 109.924 130.757   2
   6  -3   1 216.705 138.856   2
   6  -3   2 67.4465 41.3326   2
   6  -3   3 103.526 97.2953   2
   6  -3   4 140.656 154.230   2
   6  -3   5 999.784 280.623   2
   6  -3   6 239.954 154.361   2
   6  -3   7-4.62277 18.8729   2
   6  -3   8 56.1799 52.7443   2
   6  -3   9 12.3045 83.7707   2
   6  -3  10 34.9891 69.3109   2
   6  -3  11 178.726 158.507   2
   6  -2  -7 294.167 199.161   2
   6  -2  -6 694.102 264.005   2
   6  -2  -5 191.069 145.915   2
   6  -2  -4 477.337 217.368   2
   6  -2  -3 83.1251 105.013   2
   6  -2  -2 843.662 274.730   2
   6  -2  -1-84.2868 78.3205   2
   6  -2   0 83.8755 103.491   2
   6  -2   1 349.832 167.593   2
   6  -2   2 362.853 154.564   2
   6  -2   3 110.696 128.927   2
   6  -2   4 565.101 201.910   2
   6  -2   5-41.2085 27.9409   2
   6  -2   6 174.666 134.991   2
   6  -2   7 647.902 214.526   2
   6  -2   8 245.987 139.289   2
   6  -2   9-0.47457 30.4763   2
   6  -2  10 22.0337 69.4031   2
   6  -2  11 67.7656 97.4657   2
   6  -2  12 139.527 137.540   3
   6  -1  -9 5.17372 77.7285   2
   6  -1  -8 201.249 122.485   2
   6  -1  -7 17.5635 78.9976   2
   6  -1  -6 29.2405 71.9283   2
   6  -1  -5 936.600 283.546   2
   6  -1  -4 342.976 189.369   2
   6  -1  -3 485.858 204.702   2
   6  -1  -2-25.4774 75.8183   2
   6  -1  -1 64.8947 86.5703   2
   6  -1   0 1355.23 310.455   2
   6  -1   1 679.002 212.786   2
  -6   1  -1 384.863 83.6651   1
  -6   1  -2 70.8361 41.1401   1
   6  -1   2 34.4153 33.4791   2
   6  -1   3 116.478 99.6673   2
   6  -1   4 144.473 110.128   2
  -6   1  -5 26.0430 45.3770   1
   6  -1   5 13.3075 35.0452   2
   6  -1   6 1606.65 312.785   2
   6  -1   7 286.095 150.175   2
   6  -1   8 844.807 225.785   2
   6  -1   9 328.997 126.449   2
   6  -1  10-38.8252 28.6460   2
   6  -1  11 62.8125 49.6190   2
   6  -1  12 191.808 115.243   3
   6  -1  13-105.656 81.6722   3
   6  -1  14-91.9101 79.5136   3
   6  -1  15 71.3020 48.2748   3
   6   0 -10 99.6181 99.5384   2
   6   0  -9 203.058 124.923   2
   6   0  -8 333.508 145.922   2
   6   0  -7 20.3996 80.9917   2
   6   0  -6 81.6381 25.3117   2
   6   0  -5 167.602 116.922   2
   6   0  -4 439.341 167.424   2
   6   0  -3-70.7270 86.2301   2
   6   0  -2 234.339 121.610   2
  -6   0   2 137.149 43.7646   1
  -6   0   1 635.181 101.122   1
   6   0  -1 706.573 202.599   2
  -6   0   0 456.405 100.823   1
   6   0   0 371.666 127.920   2
  -6   0  -1 624.927 130.877   1
   6   0   1 873.160 221.513   2
   6   0   2-18.9335 65.2135   2
   6   0   3 24.1002 24.7848   2
  -6   0  -4 168.406 84.1222   1
   6   0   4 92.6537 55.0995   2
  -6   0  -5 141.667 67.9278   1
   6   0   5 152.605 113.123   2
   6   0   6 1603.41 292.013   2
  -6   0  -6 1661.85 285.146   1
  -6   0  -7 216.119 109.298   1
   6   0   7 48.3000 31.1032   2
   6   0   8 368.745 135.032   2
   6   0   9 63.0827 40.2142   2
   6   0  10 253.229 104.951   2
   6   0  11 22.1889 60.3511   2
   6   0  12 58.2373 45.8700   3
   6   0  13 62.0256 56.2879   3
   6   0  14 167.040 121.067   3
   6   0  15 12.6626 50.5317   3
   6   0  16 156.044 134.841   3
   6   0  17 0.46200 56.2714   3
   6   1 -11 0.75194 76.8654   2
   6   1 -10 267.172 157.405   2
   6   1  -9 139.665 91.7542   2
   6   1  -8-47.8999 45.0185   2
   6   1  -7 215.277 121.855   2
   6   1  -6 13.9084 68.9355   2
   6   1  -5 32.8315 16.9298   2
  -6  -1   4 168.843 66.2003   1
   6   1  -4 139.310 96.1054   2
   6   1  -3 1516.50 302.858   2
  -6  -1   3 1229.80 170.960   1
  -6  -1   2 294.399 91.7514   1
   6   1  -2 670.713 210.204   2
  -6  -1   1 15.6428 24.4825   1
   6   1  -1 1353.35 285.799   2
   6   1   0 391.797 150.135   2
   6   1   1 182.806 101.392   2
   6   1   2 271.957 132.244   2
  -6  -1  -3 986.746 198.643   1
   6   1   3 879.520 199.831   2
   6   1   4 9737.36 660.249   2
  -6  -1  -4 10387.9 646.327   1
  -6  -1  -5 10735.6 707.896   2
   6   1   5 10847.6 678.542   2
  -6  -1  -5 10661.8 676.806   1
  -6  -1  -6 4966.72 477.214   2
   6   1   6 5211.51 469.685   2
  -6  -1  -6 5085.50 491.315   1
  -6  -1  -7 2054.39 310.182   2
   6   1   7 1881.18 276.601   2
  -6  -1  -7 1815.75 322.144   1
   6   1   8 642.638 155.638   2
  -6  -1  -8 518.885 174.150   1
  -6  -1  -8 645.689 175.063   2
  -6  -1  -9-9.51408 24.5360   1
   6   1   9-12.6137 32.3124   2
   6   1  10 49.4061 50.2910   2
   6   1  12 193.013 128.331   3
   6   1  13 134.927 93.3162   3
   6   1  14 92.0435 87.4494   3
   6   1  15 1.09440 193.820   3
   6   1  16 21.2243 69.2704   3
   6   1  17 133.149 103.388   3
   6   1  18 220.828 166.650   3
   6   2 -11 280.187 147.939   2
   6   2 -10 29.2678 85.8069   2
   6   2  -9 179.815 123.725   2
   6   2  -8-28.3552 44.9605   2
   6   2  -7-47.1708 71.8852   2
   6   2  -6 267.118 101.397   1
   6   2  -6 279.255 111.376   2
   6   2  -5-23.1899 97.4158   2
   6   2  -5-10.7255 26.0038   1
   6   2  -4 1560.63 307.310   2
   6   2  -4 1077.58 197.951   1
   6   2  -3 937.925 231.920   2
   6   2  -3 686.407 159.765   1
   6   2  -2-65.6322 88.6087   2
   6   2  -1 400.486 132.816   2
   6   2   0 2111.38 320.068   2
  -6  -2   0 1809.01 253.533   1
   6   2   1 611.327 175.630   2
  -6  -2  -1 588.742 160.729   1
  -6  -2  -2 81.7709 52.9669   1
   6   2   2 176.930 109.903   2
   6   2   3 5198.03 473.564   2
  -6  -2  -3 4091.60 410.407   1
   6   2   3 3882.95 434.693   3
   6   2   4 6982.02 512.634   2
  -6  -2  -4 6349.88 527.510   1
   6   2   5 1551.79 232.765   2
  -6  -2  -5 1365.73 264.786   1
  -6  -2  -6 77.8283 55.8702   2
  -6  -2  -6 215.642 117.537   1
   6   2   6 204.085 87.5623   2
  -6  -2  -7 30.2179 23.4441   2
  -6  -2  -7 17.6332 54.5144   1
   6   2   7 11.5835 36.1561   2
   6   2   8 84.0589 41.3317   2
  -6  -2  -8 43.8704 67.7422   1
  -6  -2  -8-26.2425 27.1313   2
  -6  -2  -9 1474.42 224.160   2
   6   2   9 1054.60 187.644   2
  -6  -2  -9 1212.69 301.380   1
  -6  -2 -10 63.8810 69.9268   1
   6   2  11 650.185 180.854   3
  -6  -2 -11 763.994 235.192   1
   6   2  12 241.157 110.291   3
  -6  -2 -12 256.997 177.877   1
   6   2  13 131.007 82.9778   3
  -6  -2 -13 70.1827 122.383   1
   6   2  14-1.71401 33.4455   3
   6   2  15-74.0217 88.6019   3
   6   2  16-56.3244 47.2536   3
   6   3 -11 161.672 122.341   2
   6   3 -10 189.869 159.595   2
   6   3  -9 237.759 142.058   2
   6   3  -8 126.528 84.2730   2
   6   3  -7 1510.75 327.994   2
   6   3  -6-17.4585 64.1378   2
  -6  -3   6 75.0741 68.7783   1
   6   3  -5 548.374 187.690   2
  -6  -3   5 528.630 162.306   1
  -6  -3   4 807.827 192.865   1
   6   3  -4 551.749 162.581   1
   6   3  -4 719.138 203.657   2
  -6  -3   3 194.933 105.280   1
   6   3  -3 181.473 113.390   2
   6   3  -3 152.089 74.7273   1
   6   3  -2 381.446 139.406   1
  -6  -3   2 706.194 174.745   1
   6   3  -2 472.093 144.339   2
  -6  -3   1 404.673 118.339   1
   6   3  -1 516.131 160.704   2
   6   3  -1 343.277 128.015   1
   6   3   0 2010.05 297.281   2
  -6  -3   0 1519.20 245.651   1
   6   3   0 1811.74 283.002   3
   6   3   0 1585.63 267.869   1
   6   3   1 1423.81 236.895   2
   6   3   1 1129.65 219.967   3
  -6  -3  -1 1206.01 222.654   1
  -6  -3  -2-58.2926 76.0449   1
   6   3   2-3.36357 5.36408   3
   6   3   2 33.4744 43.5595   2
   6   3   3-26.4620 56.0367   3
  -6  -3  -3 46.4442 79.0783   1
   6   3   3-57.0589 42.8845   2
   6   3   4 244.482 98.6218   3
  -6  -3  -4 317.334 122.670   1
   6   3   4 408.469 116.505   2
   6   3   5 134.826 74.2085   3
  -6  -3  -5 91.3554 40.3318   1
   6   3   5 151.350 69.8104   2
  -6  -3  -6 34.5585 17.5389   1
   6   3   6 90.4547 42.1993   2
  -6  -3  -7 471.164 170.399   1
   6   3   7 519.021 114.694   2
  -6  -3  -8 1194.85 281.288   1
   6   3   8 1267.84 174.691   2
  -6  -3  -9 1161.06 284.061   1
   6   3  10 235.109 89.7556   3
  -6  -3 -10 274.365 144.497   1
  -6  -3 -11-44.7941 79.7297   1
   6   3  11 48.6255 47.4793   3
  -6  -3 -12-37.3512 44.0001   1
   6   3  12-19.3547 33.6644   3
  -6  -3 -13-39.6197 5.35067   1
   6   3  13 61.7276 57.3515   3
  -6  -3 -14-108.072 108.681   1
   6   3  14-25.3667 14.7064   3
  -6  -3 -15 34.2052 81.2252   1
  -6  -3 -16-41.4521 104.810   1
  -6  -4  11-6.46858 29.4669   3
  -6  -4  10 1019.47 297.357   3
  -6  -4   9 67.7557 77.6992   3
  -6  -4   8 1836.68 377.146   3
  -6  -4   7 631.170 200.480   1
  -6  -4   6 49.5056 62.6759   1
  -6  -4   5 1009.34 232.989   1
  -6  -4   4 381.408 148.776   1
   6   4  -4 312.374 122.802   2
  -6  -4   3 346.900 145.544   1
   6   4  -3 392.575 149.512   2
  -6  -4   2 254.958 97.5521   1
   6   4  -2 269.671 115.737   2
   6   4  -1 416.435 131.078   3
  -6  -4   1 389.730 118.800   1
   6   4  -1 560.008 148.155   2
   6   4   0 1344.87 234.647   2
  -6  -4   0 1281.78 235.990   1
   6   4   0 1051.80 213.775   3
   6   4   1-0.06441 22.1657   3
   6   4   1-26.5577 25.4237   2
  -6  -4  -1 69.7002 83.0122   1
   6   4   2 567.356 142.532   3
   6   4   2 945.551 170.240   2
  -6  -4  -2 768.385 211.963   1
  -6  -4  -3 688.811 192.101   1
   6   4   3 483.905 112.148   2
  -6  -4  -4 1.15555 64.6169   1
   6   4   4-23.0451 34.5250   2
   6   4   5-0.65283 13.6469   3
  -6  -4  -5 66.0113 19.0453   1
   6   4   6-12.2405 20.5270   3
  -6  -4  -6 41.5416 14.5072   1
   6   4   7 77.7097 35.0080   2
   6   4   7 7.72317 32.0380   3
  -6  -4  -7 79.6204 65.2673   1
   6   4   8 300.454 83.7934   3
  -6  -4  -8 1724.80 337.607   1
  -6  -4  -9 961.790 259.019   1
   6   4   9 1092.01 176.106   3
  -6  -4 -10 171.491 166.474   1
   6   4  10 235.817 91.5964   3
  -6  -4 -11-6.82885 74.7002   1
   6   4  11 79.1257 53.0848   3
  -6  -4 -12 524.415 225.905   1
  -6  -4 -13 114.065 143.448   1
  -6  -4 -14 29.3517 78.5346   1
  -6  -4 -15-6.78300 67.7636   1
  -6  -5  11 147.235 134.864   3
  -6  -5  10 53.3465 55.8450   3
  -6  -5   9 146.660 90.0480   3
  -6  -5   8-4.55052 69.1684   3
  -6  -5   7 158.436 114.383   3
  -6  -5   7 157.848 123.085   1
  -6  -5   6 1281.61 323.045   1
  -6  -5   6 1730.27 336.315   3
  -6  -5   5 615.385 188.155   1
  -6  -5   5 506.998 185.206   3
  -6  -5   4 176.065 111.441   1
  -6  -5   3 217.536 129.626   1
  -6  -5   2 112.814 42.5933   1
   6   5  -1 72.4144 55.1282   2
  -6  -5   1-58.9490 68.0177   1
   6   5  -1 107.781 74.4105   3
   6   5   0 74.8802 53.7907   2
  -6  -5   0-27.5948 89.2830   1
   6   5   0 91.3477 36.8607   3
   6   5   1 1886.51 258.855   2
  -6  -5  -1 2059.43 330.677   1
   6   5   2 795.455 152.632   2
  -6  -5  -2 1119.48 270.475   1
   6   5   3-12.2787 5.37629   2
   6   5   3-2.22744 26.6937   3
  -6  -5  -4 170.974 105.643   1
   6   5   4 228.546 55.3432   2
   6   5   4 248.575 73.2795   3
  -6  -5  -5 444.528 147.787   1
   6   5   5 493.017 83.6279   2
   6   5   5 431.531 84.4738   3
  -6  -5  -6 50.5136 53.0409   1
  -6  -5  -7 423.988 128.648   1
   6   5   7 469.047 80.2737   3
  -6  -5  -8 1134.27 282.336   1
  -6  -5  -9 95.7719 51.1247   1
  -6  -5 -10 585.364 209.586   1
  -6  -5 -11 288.743 169.751   1
  -6  -5 -12 237.761 112.028   1
  -6  -5 -13 225.670 159.291   1
  -6  -5 -14 111.492 94.8874   1
  -6  -6  10-31.3813 108.078   3
  -6  -6   9 244.909 135.993   3
  -6  -6   8-2.11650 68.6527   3
  -6  -6   7 318.457 165.311   3
  -6  -6   7 78.5980 129.844   1
  -6  -6   6 34.7405 59.1731   3
  -6  -6   6 46.3387 85.8082   1
  -6  -6   5 30.3231 51.8889   3
  -6  -6   5 184.181 142.894   1
  -6  -6   4 875.831 297.011   1
  -6  -6   4 1366.16 285.923   3
  -6  -6   3 647.521 235.660   1
  -6  -6   2 203.039 146.241   1
  -6  -6   1 113.694 105.535   1
  -6  -6   0 133.642 34.9210   1
   6   6   1 89.7687 59.5843   2
  -6  -6  -1-111.398 123.792   1
   6   6   2 917.164 158.574   2
  -6  -6  -2 518.912 180.349   1
   6   6   3 65.2520 48.2970   2
  -6  -6  -3 252.078 164.482   1
  -6  -6  -4 279.270 148.961   1
  -6  -6  -5 247.605 140.877   1
  -6  -6  -6 191.506 101.370   1
  -6  -6  -7-80.1141 111.397   1
  -6  -6  -8 844.275 268.054   1
  -6  -6  -9 100.223 108.217   1
  -6  -6 -10-0.38941 37.5165   1
  -6  -6 -11 427.569 184.698   1
  -6  -6 -12 259.183 113.722   1
  -6  -6 -13 55.9190 95.5494   1
  -6  -7  10 95.7896 27.2339   3
  -6  -7   9 82.9803 77.3512   3
  -6  -7   8 15.1165 112.135   3
  -6  -7   7 64.6269 80.2565   3
  -6  -7   7 176.649 148.806   1
  -6  -7   6 98.8211 104.865   3
  -6  -7   6 15.8764 57.1529   1
  -6  -7   5 172.253 106.061   3
  -6  -7   5 19299.8 1196.11   1
  -6  -7   4 161.205 148.081   1
  -6  -7   4 150.178 99.6165   3
  -6  -7   3 148.168 158.040   1
  -6  -7   3 132.286 97.9851   3
  -6  -7   2 179.746 185.634   1
  -6  -7   1 121.493 114.045   1
  -6  -7   0 110.605 132.470   1
  -6  -7  -1 968.551 299.368   1
  -6  -7  -2 53.0229 34.5914   1
  -6  -7  -3 1457.43 328.355   1
  -6  -7  -4 572.487 226.890   1
  -6  -7  -5 529.130 207.930   1
  -6  -7  -6 581.451 209.810   1
  -6  -7  -7 885.479 278.007   1
  -6  -7  -8 431.180 192.974   1
  -6  -7  -9 50.3184 88.8728   1
  -6  -7 -10 384.091 194.474   1
  -6  -7 -11 36.5059 27.4951   1
  -6  -8   3 100.171 138.333   1
  -6  -8   2 556.397 266.374   1
  -6  -8   1 101.344 141.832   1
  -6  -8   0-48.3290 61.4580   1
  -6  -8  -1 62.1404 128.991   1
  -6  -8  -2 849.868 257.480   1
  -6  -8  -3 50.7937 82.6970   1
  -6  -8  -4 264.148 82.7755   1
  -6  -8  -5 462.960 161.099   1
  -6  -8  -6 209.604 117.011   1
  -6  -8  -7 85.3932 123.561   1
  -6  -8  -8 75.0436 103.871   1
   7  -2  -1 135.231 115.915   2
   7  -2   0 41.4704 45.9390   2
   7  -2   1 51.4401 54.9850   2
   7  -2   2 0.42189 46.1845   2
   7  -2   3 71.7645 63.7597   2
   7  -2   4 26.5481 63.5065   2
   7  -2   5 151.445 136.369   2
   7  -2   6 215.963 139.190   2
   7  -2   7 155.871 137.331   2
   7  -2   8-29.2818 30.4312   2
   7  -2   9-0.13593 40.6273   2
   7  -2  10-0.13763 27.7108   2
   7  -1  -5 101.850 142.021   2
   7  -1  -4 59.8388 68.0040   2
   7  -1  -3 25.0105 36.7223   2
   7  -1  -2-65.1279 31.9855   2
   7  -1  -1 51.9118 16.5115   2
   7  -1   0 670.631 249.028   2
   7  -1   1 171.858 124.968   2
   7  -1   2-147.908 138.523   2
   7  -1   3 73.3519 37.0821   2
   7  -1   4 43.6162 89.3064   2
   7  -1   5 24.5527 70.0783   2
   7  -1   6-6.04607 20.0620   2
   7  -1   7-40.8749 52.6815   2
   7  -1   8-53.6845 60.5402   2
  -7   1  -8 32.8707 33.4562   1
   7  -1   9 124.123 94.8074   2
  -7   1  -9 60.4807 87.0776   1
   7  -1  10-16.7328 12.2211   2
   7  -1  11 196.127 129.571   2
   7  -1  12 151.501 159.898   3
   7   0  -7 477.579 223.998   2
   7   0  -6 382.902 202.820   2
   7   0  -5 486.790 215.835   2
   7   0  -4 398.586 180.907   2
   7   0  -3 135.780 121.544   2
   7   0  -2 63.4963 82.7266   2
   7   0  -1 33.8252 61.3774   2
   7   0   0 70.4400 91.7115   2
   7   0   1 32.1558 78.6867   2
   7   0   2 30.6043 70.4264   2
   7   0   3-42.0024 88.4495   2
  -7   0  -4 49.8027 37.8104   1
   7   0   4 101.335 74.6424   2
   7   0   5 13.0608 34.0042   2
  -7   0  -5 34.5782 40.1907   1
  -7   0  -6-6.13737 8.82668   1
   7   0   6 81.5033 92.8373   2
  -7   0  -7 8.79149 41.8464   1
   7   0   7 225.680 118.042   2
   7   0   8 30.3130 47.8768   2
  -7   0  -8-27.3688 38.6191   1
   7   0   9 15.0107 52.2967   2
  -7   0  -9 18.3450 30.1750   1
   7   0  10 55.4753 62.8651   2
  -7   0 -10-43.2018 43.5347   1
   7   0  11 79.5576 72.2634   2
  -7   0 -11 25.7842 46.1465   1
   7   0  12 58.7940 69.5378   3
   7   0  13 60.8889 79.2853   3
   7   0  14-122.190 116.400   3
   7   0  15-33.8282 11.6708   3
   7   1  -8 0.15305 28.3746   2
   7   1  -7-78.9498 108.717   2
   7   1  -6 153.084 116.144   2
   7   1  -5 13.2653 22.6765   2
   7   1  -4 106.871 87.4392   2
   7   1  -3 176.167 84.9819   2
   7   1  -2 115.679 89.4337   2
   7   1  -1 154.951 102.475   2
   7   1   0 208.773 151.740   2
   7   1   1 586.210 206.436   2
   7   1   2 113.891 104.330   2
  -7  -1  -2 31.1947 36.3960   1
  -7  -1  -3 13.5540 39.7153   1
   7   1   3-77.9906 55.1164   2
  -7  -1  -4-108.302 83.5288   1
   7   1   4-8.06408 55.3375   2
  -7  -1  -5 57.1507 43.9847   1
   7   1   5 143.365 93.6384   2
  -7  -1  -6 61.8033 57.7765   1
   7   1   6 28.6159 49.1769   2
  -7  -1  -7 260.424 117.475   1
   7   1   7 270.401 109.031   2
   7   1   8 42.8594 42.2021   2
  -7  -1  -8 118.389 74.1980   1
   7   1   9 10.3153 14.4601   2
  -7  -1  -9 148.049 90.5739   1
   7   1  10 57.4354 54.0576   2
  -7  -1 -10-56.1835 77.5096   1
   7   1  11 255.568 124.536   2
  -7  -1 -11 182.321 155.290   1
  -7  -1 -12 64.8204 83.4346   1
   7   1  12 69.2873 80.5759   3
   7   1  13 125.743 104.997   3
  -7  -1 -13-77.9110 79.4882   1
  -7  -1 -14 40.3397 72.8516   1
   7   1  14 29.0612 34.8629   3
   7   1  15 60.9049 105.523   3
   7   1  16 112.037 158.115   3
   7   2  -8 113.433 97.4371   2
   7   2  -7 312.693 179.634   2
   7   2  -6 201.312 133.133   2
   7   2  -5-56.3081 26.2084   2
   7   2  -4 715.298 229.390   2
  -7  -2   3 305.341 103.155   1
   7   2  -3 463.475 181.511   2
  -7  -2   2 161.593 84.0145   1
   7   2  -2 120.638 95.3087   2
  -7  -2   1 107.834 66.0335   1
   7   2  -1 222.026 109.650   2
  -7  -2   0 384.126 122.031   1
   7   2   0 788.543 225.504   2
   7   2   1 5.46549 49.0823   2
  -7  -2  -1 109.915 81.7842   1
   7   2   2 304.726 126.256   2
  -7  -2  -2 367.431 141.309   1
  -7  -2  -3 9.09715 25.6077   1
   7   2   3-1.62507 12.0702   2
  -7  -2  -4 3.16681 50.8160   1
   7   2   4 216.985 104.577   2
  -7  -2  -5-15.7762 59.9695   1
   7   2   5 162.199 87.0618   2
  -7  -2  -6 483.717 162.000   1
   7   2   6 438.420 143.213   2
  -7  -2  -7 17.9375 38.6056   1
   7   2   7 22.1851 53.2514   2
   7   2   8 221.732 90.7002   2
  -7  -2  -8 328.073 147.203   1
   7   2   9-2.93772 11.5429   2
  -7  -2  -9 30.6675 47.9452   1
   7   2  10 35.4181 37.7499   2
  -7  -2 -10 42.9880 83.0142   1
  -7  -2 -11-19.7827 64.8554   1
  -7  -2 -12-41.1626 55.4594   1
   7   2  12 129.861 103.533   3
  -7  -2 -13 40.4763 140.717   1
   7   2  13-100.924 95.1494   3
  -7  -2 -14-0.14960 85.4693   1
   7   2  14-39.8718 48.1679   3
   7   3  -9 109.901 80.2191   2
   7   3  -8 71.3854 40.0790   2
   7   3  -7 113.600 96.1848   2
   7   3  -6 121.562 96.6075   2
   7   3  -5 1027.74 287.417   2
  -7  -3   5 541.156 165.771   1
  -7  -3   4 87.4389 68.4988   1
   7   3  -4 61.5778 56.9914   2
  -7  -3   3 177.975 102.792   1
   7   3  -3-54.1952 64.0488   2
  -7  -3   2 160.035 83.3062   1
   7   3  -2 137.375 99.1540   2
  -7  -3   1 29.8256 56.3780   1
   7   3  -1 9.04448 37.3318   2
  -7  -3   0-31.8994 45.7325   1
   7   3   0 84.6856 73.5050   2
   7   3   1 638.275 186.960   2
  -7  -3  -1 673.105 191.009   1
   7   3   2 257.597 109.657   2
  -7  -3  -2 508.030 171.808   1
  -7  -3  -3 123.826 79.7623   1
   7   3   3-11.7354 40.8490   2
  -7  -3  -4-12.0605 64.7749   1
   7   3   4 26.0805 37.0545   2
  -7  -3  -5-79.7333 80.7959   1
   7   3   5-42.7123 33.0042   2
  -7  -3  -6-0.68414 78.5465   1
   7   3   6 85.0007 57.0037   2
  -7  -3  -7 44.9970 69.2588   1
   7   3   7 2.94186 9.93261   2
   7   3   8 53.2511 45.6304   2
  -7  -3  -8 66.1405 97.1758   1
  -7  -3  -9 29.7330 117.646   1
  -7  -3 -10 89.6595 120.290   1
  -7  -3 -11 71.7769 105.886   1
   7   3  11 13.0651 36.4565   3
  -7  -3 -12 104.072 149.239   1
   7   3  12 110.214 87.0587   3
  -7  -3 -13-6.45228 7.73022   1
  -7  -3 -14-26.5794 16.9662   1
   7   4  -9 23.8125 93.2443   2
   7   4  -8 253.617 149.717   2
   7   4  -7 75.2293 100.030   2
   7   4  -6 84.0122 56.8038   2
  -7  -4   6 126.992 99.6471   1
   7   4  -5 60.6098 93.7163   2
  -7  -4   5-4.45797 19.2506   1
  -7  -4   4 226.672 123.179   1
   7   4  -4 235.375 141.331   2
  -7  -4   3 83.0237 86.9217   1
   7   4  -3 47.6159 51.1220   2
  -7  -4   2 201.907 119.393   1
   7   4  -2 66.4709 62.1011   2
  -7  -4   1 189.803 120.760   1
   7   4  -1 125.163 68.2304   2
  -7  -4   0-53.1900 82.5012   1
   7   4   0 65.6013 47.9622   2
   7   4   1 352.836 134.768   2
  -7  -4  -1 383.890 150.642   1
   7   4   2 217.437 95.7600   2
  -7  -4  -2 368.820 143.257   1
   7   4   3 124.473 67.2269   2
  -7  -4  -3 66.0172 80.4965   1
  -7  -4  -4 30.2474 80.7981   1
   7   4   4 2.88705 32.0853   2
  -7  -4  -5 20.5538 71.8340   1
   7   4   5 61.6910 39.3695   2
  -7  -4  -6 3.99893 40.3315   1
   7   4   6 38.3180 16.4790   2
  -7  -4  -7 24.6718 40.7609   1
  -7  -4  -8 73.6750 103.422   1
  -7  -4  -9 132.462 131.626   1
  -7  -4 -10 182.726 175.274   1
  -7  -4 -11 226.529 170.335   1
  -7  -4 -12 30.3920 114.045   1
  -7  -4 -13 95.3440 103.189   1
  -7  -4 -14 205.146 161.702   1
   7   5  -8 45.2541 89.7047   2
   7   5  -7-80.4207 79.9245   2
  -7  -5   7 91.7190 85.3894   1
   7   5  -6 73.3254 70.9274   2
  -7  -5   6 39.6805 54.4521   1
   7   5  -5 173.464 99.6117   2
  -7  -5   5 182.460 109.247   1
  -7  -5   4 34.0682 73.5774   1
   7   5  -4 27.7742 58.3648   2
  -7  -5   3 221.455 144.645   1
   7   5  -3 243.006 130.609   2
  -7  -5   2 187.428 165.307   1
   7   5  -2 506.360 166.894   2
  -7  -5   1 53.0587 47.7662   1
   7   5  -1 114.284 82.0922   2
  -7  -5   0 84.6991 64.6600   1
   7   5   0 37.1373 45.4256   2
   7   5   1 3.81346 26.8072   2
  -7  -5  -1-80.5151 119.672   1
   7   5   2-16.2281 24.6369   2
  -7  -5  -2-43.8565 66.4670   1
   7   5   3 202.098 82.8338   2
  -7  -5  -3 274.484 188.206   1
   7   5   4 6.57650 10.3397   2
  -7  -5  -4 84.0200 117.149   1
  -7  -5  -5 107.705 141.018   1
  -7  -5  -6 17.8824 38.3770   1
  -7  -5  -7 93.0790 123.113   1
  -7  -5  -8 41.5803 64.8290   1
  -7  -5  -9 39.9796 59.2772   1
  -7  -5 -10-0.26786 54.9759   1
  -7  -5 -11 9.79480 26.1551   1
  -7  -5 -12 0.58060 33.3892   1
  -7  -5 -13 145.532 149.926   1
  -7  -6   7 22.7510 94.3923   1
  -7  -6   6 9.91788 88.6238   1
  -7  -6   5 158.093 181.216   1
  -7  -6   4 94.1445 126.159   1
  -7  -6   3 491.810 253.009   1
   7   6  -3 602.244 184.158   2
  -7  -6   2 30.7754 95.9278   1
   7   6  -2 147.540 92.1166   2
  -7  -6   1 116.921 118.658   1
   7   6  -1 83.7265 83.5854   2
  -7  -6   0 30.4400 109.803   1
   7   6   0 84.5615 49.6340   2
  -7  -6  -1 17.1740 47.0238   1
   7   6   1 19.2658 19.3826   2
  -7  -6  -2 49.7595 48.1534   1
  -7  -6  -3-2.67384 32.4403   1
  -7  -6  -4 1.63679 71.3553   1
  -7  -6  -5 177.312 176.994   1
  -7  -6  -6 595.947 279.684   1
  -7  -6  -7 87.2905 135.089   1
  -7  -6  -8-45.5324 77.7553   1
  -7  -6  -9-13.8829 128.976   1
  -7  -6 -10 22.0282 25.2089   1
  -7  -6 -11 29.5797 12.3506   1
  -7  -7   8 135.381 146.557   3
  -7  -7   6 62.6930 101.909   1
  -7  -7   5 46.1963 67.4495   1
  -7  -7   4-8.95747 36.8171   1
  -7  -7   3 211.490 176.812   1
  -7  -7   2 274.519 209.270   1
  -7  -7   1 30.5805 92.3433   1
  -7  -7   0 20376.4 1271.78   1
  -7  -7  -1-9.94828 75.2682   1
  -7  -7  -2 111.532 130.736   1
  -7  -7  -3 670.370 280.645   1
  -7  -7  -4 49.6005 56.4880   1
  -7  -7  -5 202.690 206.079   1
  -7  -7  -6 386.120 253.099   1
  -7  -7  -7 135.121 185.229   1
  -7  -7  -8 318.092 207.275   1
  -7  -7  -9 56.4442 100.683   1
   8  -1   3 44.5925 96.4277   2
   8  -1   4 120.609 119.365   2
   8  -1   5 14.1241 47.7137   2
   8  -1   6 81.5177 109.005   2
   8  -1   7 0.13742 82.8909   2
   8  -1   8 227.338 158.701   2
   8   0  -2 129.149 124.924   2
   8   0  -1 19.4283 41.4047   2
   8   0   0-67.3356 74.9811   2
   8   0   1 184.983 134.317   2
   8   0   2-88.4070 94.4047   2
   8   0   3-5.45196 20.2862   2
   8   0   4 39.8379 66.7369   2
   8   0   5 84.1418 80.7263   2
   8   0   6-78.9676 74.5792   2
   8   0   7-181.721 117.635   2
   8   0   8 23.7053 74.7544   2
   8   0   9-116.621 94.5853   2
   8   0  10 110.327 112.283   2
   8   1  -4 32.3213 89.8583   2
   8   1  -3 0.14605 14.0893   2
   8   1  -2 9.58610 51.0799   2
   8   1  -1-89.3826 86.2726   2
   8   1   0 67.4102 99.3583   2
   8   1   1 282.664 146.427   2
   8   1   2 157.034 128.761   2
   8   1   3 27.2425 42.7003   2
   8   1   4 45.7645 64.1769   2
   8   1   5 542.600 190.286   2
   8   1   6 601.756 194.200   2
  -8  -1  -7 1352.23 301.351   1
   8   1   7 1047.02 256.916   2
   8   1   8 120.108 90.4055   2
  -8  -1  -8 97.8828 105.556   1
   8   1   9 36.3592 59.4911   2
  -8  -1  -9 74.1854 58.0933   1
  -8  -1 -10-9.98603 73.0700   1
  -8  -1 -11 83.5373 92.9971   1
  -8  -1 -12 101.021 123.476   1
   8   1  13 144.220 124.775   3
   8   2  -5-0.15062 25.9266   2
   8   2  -4-113.387 85.1542   2
   8   2  -3-39.6735 56.9970   2
   8   2  -2 211.259 146.166   2
   8   2  -1 264.420 146.505   2
   8   2   0 76.5040 77.5818   2
   8   2   1-249.307 131.800   2
   8   2   2 87.7238 95.3747   2
   8   2   3-27.7556 2.48091   2
  -8  -2  -3 84.3947 75.0801   1
  -8  -2  -4 110.050 80.5676   1
   8   2   4 418.325 163.092   2
  -8  -2  -5 838.474 232.330   1
   8   2   5 1000.23 239.215   2
   8   2   6 1846.78 319.194   2
  -8  -2  -6 1521.80 309.528   1
  -8  -2  -7 489.614 187.734   1
   8   2   7 468.216 154.730   2
   8   2   8-81.1632 42.7824   2
  -8  -2  -8 140.634 117.813   1
  -8  -2  -9 89.3014 91.5443   1
  -8  -2 -10-58.8728 66.9889   1
  -8  -2 -11-14.9070 40.7485   1
   8   2  12 49.6950 84.3841   3
  -8  -2 -12 63.8140 102.998   1
   8   3  -6 154.824 162.931   2
   8   3  -5 16.4302 63.5202   2
   8   3  -4 4.72722 24.1769   2
   8   3  -3 254.386 140.671   2
   8   3  -2 53.7917 45.1923   2
   8   3  -1 135.495 108.367   2
  -8  -3   0 28.9102 20.4194   1
   8   3   0 102.211 96.0778   2
  -8  -3  -1 38.2441 44.6851   1
   8   3   1 153.734 96.6053   2
  -8  -3  -2 32.2072 46.2476   1
   8   3   2-42.4934 56.5347   2
   8   3   3 98.9535 58.4675   2
  -8  -3  -3 198.681 122.886   1
  -8  -3  -4 92.3012 83.3675   1
   8   3   4 82.8710 68.5998   2
  -8  -3  -5 266.309 132.496   1
   8   3   5 88.9718 64.8155   2
  -8  -3  -6 24.0197 40.5663   1
   8   3   6 161.341 79.9867   2
  -8  -3  -7-67.3920 91.5561   1
  -8  -3  -8-43.4574 94.9624   1
  -8  -3  -9 40.7091 124.549   1
  -8  -3 -10-23.0801 73.0155   1
  -8  -3 -11-24.9132 68.2928   1
  -8  -3 -12 33.9521 95.7124   1
   8   4  -6 295.400 175.629   2
   8   4  -5 157.626 125.082   2
   8   4  -4-121.063 115.971   2
  -8  -4   3 78.6652 71.5403   1
   8   4  -3-80.0253 69.4663   2
  -8  -4   2 105.307 88.1624   1
   8   4  -2 28.5397 44.7062   2
  -8  -4   1-28.1609 57.8779   1
   8   4  -1-103.235 93.2463   2
  -8  -4   0 72.1348 77.3570   1
   8   4   0 0.74543 24.3663   2
  -8  -4  -1 26.3885 27.2991   1
   8   4   1 128.586 93.7503   2
  -8  -4  -2 299.226 122.811   1
   8   4   2 348.236 139.267   2
   8   4   3-42.6863 44.5526   2
  -8  -4  -3 105.935 95.9734   1
  -8  -4  -4-0.92012 50.7660   1
  -8  -4  -5 131.840 109.636   1
  -8  -4  -6-23.3799 63.4737   1
  -8  -4  -7 19.8702 20.7863   1
  -8  -4  -8-17.2056 76.5656   1
  -8  -4  -9 33.7484 55.6991   1
  -8  -4 -10 21.8292 72.3944   1
  -8  -4 -11 7.24616 57.1629   1
   8   5  -6 236.574 136.932   2
   8   5  -5 355.829 177.499   2
  -8  -5   5 190.843 148.118   1
  -8  -5   4 190.591 133.718   1
   8   5  -4 151.755 125.180   2
  -8  -5   3 174.482 122.343   1
   8   5  -3 231.444 125.699   2
  -8  -5   2 110.717 102.220   1
   8   5  -2 15.6780 58.4138   2
  -8  -5   1 70.3441 85.0451   1
   8   5  -1 183.236 101.327   2
  -8  -5   0-16.1890 46.1878   1
   8   5   0 89.1898 70.3551   2
  -8  -5  -1 87.8038 109.301   1
   8   5   1 297.558 123.912   2
  -8  -5  -2-57.0150 88.8998   1
  -8  -5  -3 120.956 147.952   1
  -8  -5  -4 286.048 206.718   1
  -8  -5  -5-0.91747 51.9269   1
  -8  -5  -6 28.9526 128.326   1
  -8  -5  -7 6.45529 27.4990   1
  -8  -5  -8 62.1857 115.474   1
  -8  -5  -9 184.657 177.564   1
  -8  -5 -10 29.4678 122.703   1
   8   6  -6 28.0252 61.4152   2
   8   6  -5 77.5307 48.5604   2
  -8  -6   5 119.520 137.310   1
  -8  -6   4 88.8800 147.997   1
   8   6  -4 228.207 136.641   2
  -8  -6   3 105.355 178.926   1
   8   6  -3-112.321 75.0341   2
  -8  -6   2 100.939 118.086   1
   8   6  -2 164.557 116.304   2
  -8  -6   1 58.8529 103.144   1
  -8  -6   0 25.9778 68.6030   1
  -8  -6  -1-12.3659 44.2554   1
  -8  -6  -2 58.6839 121.526   1
  -8  -6  -3 70.3269 118.667   1
  -8  -6  -4 46.1581 47.7954   1
  -8  -6  -5 119.859 114.814   1
  -8  -6  -6 14.2330 71.4318   1
  -8  -6  -7-7.54305 63.4540   1
  -8  -6  -8-9.28758 64.7644   1
  -8  -7   1 89.7611 126.338   1
  -8  -7   0-23.6478 92.3887   1
  -8  -7  -1 3.40531 69.8709   1
  -8  -7  -2-45.3739 25.6434   1
  -8  -7  -3 106.588 107.779   1
  -8  -7  -4-30.6393 95.1779   1
   9   1   3 81.4558 86.9624   2
   9   1   4 0.13491 45.3581   2
   9   1   5 224.405 166.543   2
   9   2   0 156.874 138.613   2
   9   2   1 76.4331 105.222   2
   9   2   2 144.638 101.602   2
   9   2   3-84.2819 113.097   2
   9   2   4 174.191 118.834   2
   9   3  -2 0.14920 84.0633   2
   9   3  -1 89.7881 122.795   2
   9   3   0 115.340 95.5887   2
   9   3   1 0.26074 71.9334   2
   9   3   2 113.304 74.9417   2
  -9  -3  -7-75.1751 81.5811   1
  -9  -3  -8-77.2093 99.0001   1
   9   4  -3-46.7056 29.7937   2
   9   4  -2 97.8889 102.995   2
   9   4  -1 98.8612 110.171   2
   9   4   0 100.316 106.233   2
  -9  -4  -4 271.595 176.712   1
  -9  -4  -5 53.4068 77.0825   1
  -9  -4  -6 25.2253 77.9868   1
  -9  -4  -7 122.916 155.987   1
  -9  -4  -8 56.1268 142.382   1
  -9  -4  -9 0.15051 99.1056   1
  -9  -5  -1 202.747 142.528   1
  -9  -5  -2 82.9785 100.238   1
  -9  -5  -3 4.44139 64.3566   1
  -9  -5  -4-57.0958 111.680   1
  -9  -5  -5 76.8102 79.3424   1
  -9  -5  -6 57.1598 91.6075   1
  -9  -5  -7-63.3078 126.960   1
  -9  -6  -1 20.7626 117.604   1
  -9  -6  -2 8.56104 53.2075   1
  -9  -6  -3 11.1380 94.6905   1
   0   0   0    0.00    0.00   0
;
_shelx_hkl_checksum              30644
_olex2_submission_special_instructions 'No special instructions were received'
loop_
_space_group_symop_operation_xyz
'x, y, z'
'-x, -y, -z'
loop_
_atom_site_label
_atom_site_type_symbol
_atom_site_fract_x
_atom_site_fract_y
_atom_site_fract_z
_atom_site_U_iso_or_equiv
_atom_site_adp_type
_atom_site_occupancy
_atom_site_site_symmetry_order
_atom_site_calc_flag
_atom_site_refinement_flags_posn
S1 S 0.53595(18) 0.64851(13) 0.22845(7) 0.0543(4) Uani 1 1 d .
O1 O 0.3741(4) 0.5983(3) 0.42476(17) 0.0535(7) Uani 1 1 d .
O2 O 0.3610(6) 0.5956(4) 0.2191(2) 0.0766(10) Uani 1 1 d .
O3 O 0.7024(5) 0.5161(4) 0.27174(19) 0.0707(9) Uani 1 1 d .
N1 N 0.3197(4) 1.0775(4) 0.38089(19) 0.0413(7) Uani 1 1 d .
N2 N 0.4495(5) 0.8627(4) 0.2688(2) 0.0497(8) Uani 1 1 d .
C1 C 0.2121(6) 0.8603(6) 0.5888(3) 0.0490(10) Uani 1 1 d .
H1 H 0.221474 0.737039 0.609556 0.059 Uiso 1 1 calc R
C2 C 0.1396(6) 1.0128(6) 0.6446(3) 0.0559(11) Uani 1 1 d .
H2 H 0.098347 0.993419 0.703342 0.067 Uiso 1 1 calc R
C3 C 0.1288(6) 1.1944(6) 0.6125(3) 0.0540(10) Uani 1 1 d .
H3 H 0.081175 1.295545 0.650858 0.065 Uiso 1 1 calc R
C4 C 0.1859(6) 1.2318(5) 0.5257(3) 0.0491(10) Uani 1 1 d .
H4 H 0.178248 1.354783 0.505172 0.059 Uiso 1 1 calc R
C5 C 0.2550(5) 1.0776(5) 0.4705(2) 0.0387(8) Uani 1 1 d .
C6 C 0.2698(5) 0.8934(5) 0.5027(2) 0.0395(8) Uani 1 1 d .
C7 C 0.3452(5) 0.7665(5) 0.4283(2) 0.0407(9) Uani 1 1 d .
C8 C 0.3824(5) 0.8967(5) 0.3500(2) 0.0404(8) Uani 1 1 d .
C9 C 0.6510(7) 0.6993(5) 0.1255(3) 0.0518(10) Uani 1 1 d .
C10 C 0.8390(8) 0.7306(7) 0.1142(3) 0.0703(13) Uani 1 1 d .
H10 H 0.905991 0.724615 0.161842 0.084 Uiso 1 1 calc R
C11 C 0.9281(8) 0.7705(7) 0.0333(3) 0.0729(13) Uani 1 1 d .
H11 H 1.054051 0.793320 0.027250 0.088 Uiso 1 1 calc R
C12 C 0.8372(8) 0.7778(6) -0.0391(3) 0.0624(12) Uani 1 1 d .
C13 C 0.6528(9) 0.7442(8) -0.0276(3) 0.0801(14) Uani 1 1 d .
H13 H 0.588144 0.747594 -0.075697 0.096 Uiso 1 1 calc R
C14 C 0.5592(8) 0.7053(7) 0.0531(3) 0.0717(13) Uani 1 1 d .
H14 H 0.433035 0.682861 0.058816 0.086 Uiso 1 1 calc R
C15 C 0.9377(9) 0.8231(8) -0.1275(3) 0.0884(16) Uani 1 1 d .
H15A H 1.056104 0.857920 -0.121696 0.133 Uiso 1 1 calc GR
H15B H 0.835676 0.928673 -0.154265 0.133 Uiso 1 1 calc GR
H15C H 0.985383 0.711629 -0.162949 0.133 Uiso 1 1 calc GR
C16 C 0.3134(7) 1.2471(5) 0.3271(3) 0.0547(10) Uani 1 1 d .
H16A H 0.169903 1.320670 0.318905 0.082 Uiso 1 1 calc GR
H16B H 0.398498 1.208210 0.271720 0.082 Uiso 1 1 calc GR
H16C H 0.367745 1.324873 0.354865 0.082 Uiso 1 1 calc GR
loop_
_atom_site_aniso_label
_atom_site_aniso_U_11
_atom_site_aniso_U_22
_atom_site_aniso_U_33
_atom_site_aniso_U_23
_atom_site_aniso_U_13
_atom_site_aniso_U_12
S1 0.0784(8) 0.0388(6) 0.0473(7) -0.0003(4) -0.0064(5) -0.0243(6)
O1 0.0659(18) 0.0354(14) 0.0616(18) 0.0043(12) -0.0089(14) -0.0223(13)
O2 0.105(3) 0.075(2) 0.074(2) -0.0047(16) -0.0090(18) -0.061(2)
O3 0.094(2) 0.0447(15) 0.0526(19) 0.0040(13) -0.0039(16) -0.0054(16)
N1 0.0450(17) 0.0304(15) 0.0483(19) -0.0004(13) -0.0055(14) -0.0142(13)
N2 0.066(2) 0.0373(17) 0.046(2) 0.0049(14) -0.0076(16) -0.0198(16)
C1 0.042(2) 0.056(2) 0.050(2) 0.0098(19) -0.0100(18) -0.0210(19)
C2 0.052(2) 0.071(3) 0.043(2) -0.003(2) -0.0044(18) -0.021(2)
C3 0.044(2) 0.062(3) 0.054(3) -0.016(2) -0.0106(19) -0.012(2)
C4 0.046(2) 0.040(2) 0.062(3) -0.0069(18) -0.0089(19) -0.0154(18)
C5 0.0322(18) 0.0366(18) 0.052(2) -0.0008(16) -0.0084(16) -0.0162(16)
C6 0.0354(19) 0.0412(19) 0.044(2) 0.0023(16) -0.0080(16) -0.0158(16)
C7 0.0364(19) 0.037(2) 0.051(2) 0.0017(16) -0.0108(16) -0.0151(16)
C8 0.042(2) 0.0349(18) 0.046(2) 0.0027(16) -0.0095(16) -0.0161(17)
C9 0.073(3) 0.037(2) 0.047(2) -0.0050(17) -0.012(2) -0.020(2)
C10 0.091(4) 0.086(3) 0.051(3) 0.005(2) -0.021(3) -0.048(3)
C11 0.077(3) 0.083(3) 0.065(3) 0.008(3) -0.013(3) -0.038(3)
C12 0.073(3) 0.052(2) 0.047(3) -0.0020(19) -0.003(2) -0.007(2)
C13 0.085(4) 0.114(4) 0.044(3) -0.001(3) -0.019(2) -0.035(3)
C14 0.076(3) 0.092(4) 0.054(3) -0.001(2) -0.016(2) -0.037(3)
C15 0.101(4) 0.092(4) 0.050(3) 0.003(3) 0.006(3) -0.018(3)
C16 0.066(3) 0.040(2) 0.060(3) 0.0079(18) -0.012(2) -0.021(2)
loop_
_atom_type_symbol
_atom_type_description
_atom_type_scat_dispersion_real
_atom_type_scat_dispersion_imag
_atom_type_scat_source
C C 0.0033 0.0016 'International Tables Vol C Tables 4.2.6.8 and 6.1.1.4'
H H 0.0000 0.0000 'International Tables Vol C Tables 4.2.6.8 and 6.1.1.4'
N N 0.0061 0.0033 'International Tables Vol C Tables 4.2.6.8 and 6.1.1.4'
O O 0.0106 0.0060 'International Tables Vol C Tables 4.2.6.8 and 6.1.1.4'
S S 0.1246 0.1234 'International Tables Vol C Tables 4.2.6.8 and 6.1.1.4'
loop_
_geom_angle_atom_site_label_1
_geom_angle_atom_site_label_2
_geom_angle_atom_site_label_3
_geom_angle
O2 S1 O3 118.9(2)
O2 S1 N2 109.71(19)
O2 S1 C9 108.42(19)
O3 S1 N2 111.26(17)
O3 S1 C9 107.5(2)
N2 S1 C9 99.19(16)
C5 N1 C16 125.0(3)
C8 N1 C5 110.8(3)
C8 N1 C16 124.1(3)
C8 N2 S1 123.7(3)
C2 C1 H1 120.5
C6 C1 H1 120.5
C6 C1 C2 118.9(4)
C1 C2 H2 120.2
C1 C2 C3 119.6(4)
C3 C2 H2 120.2
C2 C3 H3 118.7
C4 C3 C2 122.6(4)
C4 C3 H3 118.7
C3 C4 H4 121.5
C3 C4 C5 116.9(3)
C5 C4 H4 121.5
C4 C5 N1 128.1(3)
C4 C5 C6 120.7(4)
C6 C5 N1 111.2(3)
C1 C6 C5 121.2(3)
C1 C6 C7 132.0(3)
C5 C6 C7 106.7(3)
O1 C7 C6 130.1(3)
O1 C7 C8 125.0(3)
C6 C7 C8 104.9(3)
N1 C8 C7 106.2(3)
N2 C8 N1 121.4(3)
N2 C8 C7 132.3(3)
C10 C9 S1 120.8(3)
C10 C9 C14 118.0(4)
C14 C9 S1 121.2(4)
C9 C10 H10 119.8
C11 C10 C9 120.4(4)
C11 C10 H10 119.8
C10 C11 H11 119.0
C10 C11 C12 122.0(5)
C12 C11 H11 119.0
C11 C12 C15 121.0(5)
C13 C12 C11 117.3(4)
C13 C12 C15 121.7(4)
C12 C13 H13 119.1
C12 C13 C14 121.9(4)
C14 C13 H13 119.1
C9 C14 H14 119.8
C13 C14 C9 120.4(5)
C13 C14 H14 119.8
C12 C15 H15A 109.5
C12 C15 H15B 109.5
C12 C15 H15C 109.5
H15A C15 H15B 109.5
H15A C15 H15C 109.5
H15B C15 H15C 109.5
N1 C16 H16A 109.5
N1 C16 H16B 109.5
N1 C16 H16C 109.5
H16A C16 H16B 109.5
H16A C16 H16C 109.5
H16B C16 H16C 109.5
loop_
_geom_bond_atom_site_label_1
_geom_bond_atom_site_label_2
_geom_bond_distance
S1 O2 1.428(3)
S1 O3 1.434(3)
S1 N2 1.627(3)
S1 C9 1.745(4)
O1 C7 1.199(4)
N1 C5 1.397(5)
N1 C8 1.359(4)
N1 C16 1.448(5)
N2 C8 1.288(5)
C1 H1 0.9300
C1 C2 1.381(5)
C1 C6 1.366(5)
C2 H2 0.9300
C2 C3 1.382(6)
C3 H3 0.9300
C3 C4 1.382(6)
C4 H4 0.9300
C4 C5 1.386(5)
C5 C6 1.394(5)
C6 C7 1.463(5)
C7 C8 1.542(5)
C9 C10 1.375(6)
C9 C14 1.376(6)
C10 H10 0.9300
C10 C11 1.367(6)
C11 H11 0.9300
C11 C12 1.371(6)
C12 C13 1.359(7)
C12 C15 1.506(6)
C13 H13 0.9300
C13 C14 1.375(7)
C14 H14 0.9300
C15 H15A 0.9600
C15 H15B 0.9600
C15 H15C 0.9600
C16 H16A 0.9600
C16 H16B 0.9600
C16 H16C 0.9600
