#------------------------------------------------------------------------------
#$Date: 2017-09-28 16:02:59 +0300 (Thu, 28 Sep 2017) $
#$Revision: 201428 $
#$URL: file:///home/coder/svn-repositories/cod/cif/1/54/74/1547426.cif $
#------------------------------------------------------------------------------
#
# This file is available in the Crystallography Open Database (COD),
# http://www.crystallography.net/
#
# All data on this site have been placed in the public domain by the
# contributors.
#
data_1547426
loop_
_publ_author_name
'Anuradha R. Pallipurath'
'Jonathan M. Skelton'
'Mark R. Warren'
'Naghmeh Kamali'
'Patrick McArdle'
'Andrea Erxleben'
_publ_section_title
;
 Sulfamerazine: Understanding the Influence of Slip Planes in the
 Polymorphic Phase Transformation through X-Ray Crystallographic Studies
 and ab Initio Lattice Dynamics
;
_journal_name_full               'Molecular Pharmaceutics'
_journal_page_first              3735
_journal_page_last               3748
_journal_paper_doi               10.1021/acs.molpharmaceut.5b00504
_journal_volume                  12
_journal_year                    2015
_chemical_absolute_configuration ad
_chemical_formula_moiety         'C11 H12 N4 O2 S'
_chemical_formula_sum            'C11 H12 N4 O2 S'
_chemical_formula_weight         264.31
_space_group_crystal_system      orthorhombic
_space_group_IT_number           33
_space_group_name_Hall           'P 2c -2n'
_space_group_name_H-M_alt        'P n a 21'
_symmetry_space_group_name_Hall  'P 2c -2n'
_symmetry_space_group_name_H-M   'P n a 21'
_atom_sites_solution_hydrogens   mixed
_cell_angle_alpha                90
_cell_angle_beta                 90
_cell_angle_gamma                90
_cell_formula_units_Z            8
_cell_length_a                   14.4973(2)
_cell_length_b                   8.21180(10)
_cell_length_c                   21.9658(3)
_cell_measurement_reflns_used    10058
_cell_measurement_temperature    280
_cell_measurement_theta_max      29.4360
_cell_measurement_theta_min      1.7980
_cell_volume                     2615.00(6)
_computing_cell_refinement
;
CrysAlisPro, Agilent Technologies,
Version 1.171.37.35 (release 13-08-2014 CrysAlis171 .NET)
(compiled Aug 13 2014,18:06:01)
;
_computing_data_collection
;
CrysAlisPro, Agilent Technologies,
Version 1.171.37.35 (release 13-08-2014 CrysAlis171 .NET)
(compiled Aug 13 2014,18:06:01)
;
_computing_data_reduction
;
CrysAlisPro, Agilent Technologies,
Version 1.171.37.35 (release 13-08-2014 CrysAlis171 .NET)
(compiled Aug 13 2014,18:06:01)
;
_computing_molecular_graphics    OSCAIL
_computing_structure_refinement  'SHELXL-2014/7 (Sheldrick, 2014)'
_computing_structure_solution    SHELXT
_diffrn_ambient_temperature      280
_diffrn_measured_fraction_theta_full 0.998
_diffrn_measured_fraction_theta_max 0.998
_diffrn_measurement_device       'CrystalLogic Kappa (3 circle)'
_diffrn_measurement_device_type  'Rigaku Saturn724+ (2x2 bin mode)'
_diffrn_measurement_method
;
omega rotation with 1 degree frames
;
_diffrn_measurement_specimen_support 'MiTeGen loop'
_diffrn_radiation_monochromator  'double crystal Silicon 111'
_diffrn_radiation_source         'Diamond Light Source Beamline I19'
_diffrn_radiation_type           Synchrotron
_diffrn_radiation_wavelength     0.68890
_diffrn_reflns_av_R_equivalents  0.0439
_diffrn_reflns_av_unetI/netI     0.0437
_diffrn_reflns_Laue_measured_fraction_full 0.998
_diffrn_reflns_Laue_measured_fraction_max 0.998
_diffrn_reflns_limit_h_max       20
_diffrn_reflns_limit_h_min       -13
_diffrn_reflns_limit_k_max       11
_diffrn_reflns_limit_k_min       -11
_diffrn_reflns_limit_l_max       27
_diffrn_reflns_limit_l_min       -31
_diffrn_reflns_number            23768
_diffrn_reflns_point_group_measured_fraction_full 0.989
_diffrn_reflns_point_group_measured_fraction_max 0.970
_diffrn_reflns_theta_full        24.415
_diffrn_reflns_theta_max         29.474
_diffrn_reflns_theta_min         1.797
_exptl_absorpt_coefficient_mu    0.248
_exptl_absorpt_correction_T_max  1.00000
_exptl_absorpt_correction_T_min  0.99394
_exptl_absorpt_correction_type   multi-scan
_exptl_absorpt_process_details
;
CrysAlisPro, Agilent Technologies,
Version 1.171.36.28 (release 01-02-2013 CrysAlis171 .NET)
Empirical absorption correction using spherical harmonics,
implemented in SCALE3 ABSPACK scaling algorithm.
;
_exptl_crystal_colour            Colourless
_exptl_crystal_density_diffrn    1.343
_exptl_crystal_description       Parallelepiped
_exptl_crystal_F_000             1104
_exptl_crystal_size_max          0.50
_exptl_crystal_size_mid          0.40
_exptl_crystal_size_min          0.20
_refine_diff_density_max         0.237
_refine_diff_density_min         -0.289
_refine_diff_density_rms         0.044
_refine_ls_abs_structure_details
;
 Flack x determined using 2069 quotients [(I+)-(I-)]/[(I+)+(I-)]
 (Parsons, Flack and Wagner, Acta Cryst. B69 (2013) 249-259).
;
_refine_ls_abs_structure_Flack   0.01(5)
_refine_ls_extinction_coef       .
_refine_ls_extinction_method     none
_refine_ls_goodness_of_fit_ref   1.025
_refine_ls_hydrogen_treatment    mixed
_refine_ls_matrix_type           full
_refine_ls_number_parameters     344
_refine_ls_number_reflns         7757
_refine_ls_number_restraints     1
_refine_ls_restrained_S_all      1.025
_refine_ls_R_factor_all          0.0722
_refine_ls_R_factor_gt           0.0493
_refine_ls_shift/su_max          0.001
_refine_ls_shift/su_mean         0.000
_refine_ls_structure_factor_coef Fsqd
_refine_ls_weighting_details
'w=1/[\s^2^(Fo^2^)+(0.0541P)^2^+0.3587P] where P=(Fo^2^+2Fc^2^)/3'
_refine_ls_weighting_scheme      calc
_refine_ls_wR_factor_gt          0.1132
_refine_ls_wR_factor_ref         0.1301
_reflns_Friedel_coverage         0.899
_reflns_Friedel_fraction_full    0.980
_reflns_Friedel_fraction_max     0.941
_reflns_number_gt                5718
_reflns_number_total             7757
_reflns_threshold_expression     'I > 2\s(I)'
_cod_data_source_file            Exp_Form-I2FSynchrotron_Form-I_280K.cif
_cod_data_source_block           280k_smz-f1_a
_cod_database_code               1547426
_shelx_space_group_comment
;
The symmetry employed for this shelxl refinement is uniquely defined
by the following loop, which should always be used as a source of
symmetry information in preference to the above space-group names.
They are only intended as comments.
;
_shelx_estimated_absorpt_t_min   0.886
_shelx_estimated_absorpt_t_max   0.952
_shelx_res_file
;
    280k_smz-f1_a.res created by SHELXL-2014/7
TITL 280k_smz-f1_a.res in Pna2(1)
REM Old TITL 004_280K_SulfamerazineF1_ in Pna2(1)
REM SHELXT solution in Pna2(1)
REM R1 0.107,  Rweak 0.027,  Alpha 0.003,  Orientation as input
REM Flack x =  0.102 ( 0.053 ) from Parsons' quotients
REM Formula found by SHELXT:  C26 N4 O4 S2
CELL  0.68890  14.4973   8.2118  21.9658   90.000   90.000   90.000
ZERR    8.000   0.0002   0.0001   0.0003    0.000    0.000    0.000
REM SG 33 4 4 Pna21 PGmm2 Orthorhombic
LATT -1
REM SG  ASUN  1  .5 .5 1.
REM SG  ORGN  on 2(1)
SYMM -X,-Y,0.5+Z
SYMM 0.5+X,0.5-Y,Z
SYMM 0.5-X,0.5+Y,0.5+Z
SFAC C H N O S
UNIT 88.00 96.00 32.00 16.00 8.00
L.S. 10
SIZE    0.50  0.40  0.20
BOND $H
FMAP 2
PLAN 20
ACTA
CONF
EQIV $1 x, y-1, z
HTAB N5 O4_$1
HTAB C19 O2
EQIV $2 -x+3/2, y+1/2, z-1/2
HTAB N1 O4_$2
EQIV $3 x, y+1, z
HTAB N1 O1_$3
HTAB N2 N8
HTAB N6 N4
LIST 4
WGHT    0.054100    0.358700
FVAR       0.41368   0.35344
S1    5    0.646984    0.495981    0.344558    11.00000    0.03644    0.04150 =
         0.03908    0.00315   -0.00151   -0.00251
S2    5    0.577775    0.494732    0.652350    11.00000    0.03555    0.04163 =
         0.03781    0.00398   -0.00161   -0.00258
O1    4    0.690313    0.371827    0.309141    11.00000    0.06051    0.04260 =
         0.04973   -0.00511    0.00257   -0.00261
O2    4    0.549998    0.523019    0.337926    11.00000    0.03791    0.06367 =
         0.04904    0.00782   -0.00842   -0.00589
O3    4    0.674861    0.466929    0.658581    11.00000    0.03697    0.06428 =
         0.04574    0.00913   -0.00751   -0.00501
O4    4    0.535698    0.622001    0.686597    11.00000    0.05671    0.04061 =
         0.05412   -0.00525   -0.00021   -0.00047
N1    3    0.843500    1.116291    0.312094    11.00000    0.05451    0.04273 =
         0.07824   -0.01064    0.01836   -0.00738
N2    3    0.656089    0.449509    0.417314    11.00000    0.03337    0.05634 =
         0.04265    0.01098   -0.00067    0.00200
N3    3    0.815387    0.410156    0.417726    11.00000    0.03701    0.04756 =
         0.04696    0.00510    0.00198    0.00353
N4    3    0.728448    0.428050    0.509197    11.00000    0.04409    0.09609 =
         0.04225    0.00947   -0.00239    0.01546
N5    3    0.380522   -0.120081    0.696096    11.00000    0.06643    0.04323 =
         0.11447   -0.00512    0.02058   -0.01046
AFIX  93
H5A   2    0.324292   -0.118847    0.708562    11.00000   -1.30000
H5B   2    0.407922   -0.211385    0.689714    11.00000   -1.30000
AFIX   0
N6    3    0.568277    0.535553    0.579121    11.00000    0.03355    0.06938 =
         0.03679    0.01370    0.00249    0.00195
N7    3    0.410065    0.584557    0.579457    11.00000    0.03831    0.05262 =
         0.04970    0.00231    0.00205    0.00504
N8    3    0.496753    0.566607    0.487527    11.00000    0.04314    0.09007 =
         0.04258    0.00523   -0.00233    0.01528
C1    1    0.705942    0.677694    0.334213    11.00000    0.03471    0.03708 =
         0.03370    0.00167    0.00249    0.00213
C2    1    0.795394    0.679625    0.310969    11.00000    0.03653    0.04201 =
         0.03551   -0.00182    0.00123    0.00593
AFIX  43
H2    2    0.824423    0.582535    0.300576    11.00000   -1.30000
AFIX   0
C3    1    0.840623    0.825451    0.303441    11.00000    0.03289    0.04643 =
         0.03408   -0.00207    0.00501    0.00045
AFIX  43
H3    2    0.900277    0.826248    0.287873    11.00000   -1.30000
AFIX   0
C4    1    0.798006    0.972673    0.318914    11.00000    0.03916    0.04299 =
         0.03719   -0.00326    0.00108   -0.00247
C5    1    0.707772    0.968693    0.342760    11.00000    0.04415    0.04041 =
         0.05018   -0.00494    0.00711    0.00300
AFIX  43
H5    2    0.678677    1.065341    0.353637    11.00000   -1.30000
AFIX   0
C6    1    0.662552    0.823130    0.350035    11.00000    0.03592    0.04586 =
         0.05157   -0.00169    0.00884    0.00325
AFIX  43
H6    2    0.602869    0.821542    0.365546    11.00000   -1.30000
AFIX   0
C7    1    0.737985    0.428967    0.449273    11.00000    0.03650    0.04489 =
         0.04097    0.00665   -0.00066    0.00227
C8    1    0.806353    0.402027    0.540552    11.00000    0.05552    0.13744 =
         0.05331    0.00211   -0.00849    0.02630
AFIX  43
H8    2    0.803476    0.397223    0.582810    11.00000   -1.30000
AFIX   0
C9    1    0.890077    0.382245    0.512606    11.00000    0.04417    0.12356 =
         0.06616   -0.00069   -0.01357    0.02207
AFIX  43
H9    2    0.943460    0.365189    0.535202    11.00000   -1.30000
AFIX   0
C10   1    0.892650    0.388400    0.450235    11.00000    0.04003    0.05782 =
         0.06541   -0.00134    0.00009    0.00773
C11   1    0.980018    0.370594    0.414910    11.00000    0.04140    0.09523 =
         0.08538   -0.00353    0.00797    0.01150
AFIX 137
H11A  2    0.977319    0.273122    0.390846    11.00000   -1.30000
H11B  2    1.031229    0.364152    0.442513    11.00000   -1.30000
H11C  2    0.987701    0.463055    0.388651    11.00000   -1.30000
AFIX   0
C12   1    0.519303    0.313974    0.665638    11.00000    0.03504    0.03742 =
         0.03679    0.00054    0.00168    0.00038
C13   1    0.563363    0.167135    0.655515    11.00000    0.03783    0.04405 =
         0.06557   -0.00241    0.00943    0.00510
AFIX  43
H13   2    0.623905    0.165844    0.641526    11.00000   -1.30000
AFIX   0
C14   1    0.518026    0.023625    0.666048    11.00000    0.04866    0.03765 =
         0.08151   -0.00025    0.00956    0.00492
AFIX  43
H14   2    0.548354   -0.074678    0.659618    11.00000   -1.30000
AFIX   0
C15   1    0.426397    0.023239    0.686418    11.00000    0.05173    0.04054 =
         0.05079   -0.00180    0.00463   -0.00330
C16   1    0.382782    0.172122    0.696590    11.00000    0.03841    0.04687 =
         0.04444   -0.00683    0.00546   -0.00456
AFIX  43
H16   2    0.322142    0.173799    0.710387    11.00000   -1.30000
AFIX   0
C17   1    0.428300    0.316394    0.686479    11.00000    0.03729    0.03776 =
         0.04032   -0.00101    0.00358    0.00220
AFIX  43
H17   2    0.398673    0.415086    0.693474    11.00000   -1.30000
AFIX   0
C18   1    0.486806    0.563812    0.547961    11.00000    0.03698    0.04606 =
         0.04336    0.00654   -0.00014    0.00171
C19   1    0.419211    0.598576    0.456931    11.00000    0.05727    0.14704 =
         0.04250    0.00560   -0.00926    0.02915
AFIX  43
H19   2    0.421520    0.602507    0.414646    11.00000   -1.30000
AFIX   0
C20   1    0.336952    0.625645    0.485050    11.00000    0.04892    0.13135 =
         0.06341   -0.00364   -0.01487    0.03126
AFIX  43
H20   2    0.284606    0.651353    0.462542    11.00000   -1.30000
AFIX   0
C21   1    0.332931    0.614223    0.547122    11.00000    0.03995    0.06520 =
         0.06181   -0.00083   -0.00211    0.01267
C22   1    0.246339    0.633896    0.583273    11.00000    0.04177    0.10594 =
         0.09833   -0.00166    0.00883    0.01480
AFIX 137
H22A  2    0.238239    0.746543    0.593666    11.00000   -1.30000
H22B  2    0.250466    0.570247    0.619831    11.00000   -1.30000
H22C  2    0.194679    0.597536    0.559550    11.00000   -1.30000
AFIX   0
H1N1  2    0.891738    1.121873    0.288601    11.00000    0.11264
H2N1  2    0.812295    1.201880    0.314834    11.00000    0.08616
H1N2  2    0.611589    0.483429    0.438680    11.00000    0.04843
H1N6  2    0.618969    0.505124    0.562054    11.00000    0.08113
HKLF 4
REM  280k_smz-f1_a.res in Pna2(1)
REM R1 =  0.0493 for    5718 Fo > 4sig(Fo)  and  0.0722 for all    7757 data
REM    344 parameters refined using      1 restraints
END
WGHT      0.0512      0.3748
REM Highest difference peak  0.237,  deepest hole -0.289,  1-sigma level  0.044
Q1    1   0.5465  0.3892  0.6664  11.00000  0.05    0.24
Q2    1   0.6791  0.5933  0.3438  11.00000  0.05    0.21
Q3    1   0.4857  0.3123  0.6753  11.00000  0.05    0.20
Q4    1   0.4206  0.5781  0.6203  11.00000  0.05    0.20
Q5    1   0.5416  0.2480  0.6659  11.00000  0.05    0.19
Q6    1   0.8453  0.3435  0.4376  11.00000  0.05    0.19
Q7    1   0.8187  0.7640  0.3215  11.00000  0.05    0.19
Q8    1   0.5912  0.5642  0.3418  11.00000  0.05    0.18
Q9    1   0.2407  0.4862  0.5891  11.00000  0.05    0.17
Q10   1   0.7126  0.5525  0.5488  11.00000  0.05    0.17
Q11   1   0.6924  0.8932  0.3492  11.00000  0.05    0.17
Q12   1   0.6835  0.7516  0.3387  11.00000  0.05    0.16
Q13   1   0.5308  0.6544  0.6967  11.00000  0.05    0.16
Q14   1   0.3586  0.5603  0.5618  11.00000  0.05    0.16
Q15   1   0.5356  0.7195  0.6610  11.00000  0.05    0.16
Q16   1   0.7570  0.9620  0.3266  11.00000  0.05    0.16
Q17   1   0.4865  0.5359  0.5256  11.00000  0.05    0.16
Q18   1   0.4747  0.4958  0.3097  11.00000  0.05    0.16
Q19   1   1.0549  0.4585  0.4469  11.00000  0.05    0.15
Q20   1   0.7408  0.4718  0.4797  11.00000  0.05    0.15
;
_shelx_res_checksum              53198
_shelx_hkl_file
;
   0   0 -29    2.64    1.68
   0   0 -28   85.03    8.68
   0   0 -27   -1.20    0.89
   0   0 -26  244.62   14.45
   0   0 -25    2.50    2.19
   0   0 -24   -0.54    1.16
   0   0 -23   -0.47    1.28
   0   0 -22   27.58    4.61
   0   0 -21    0.44    1.17
   0   0 -20  315.97   14.61
   0   0 -19   -0.90    0.98
   0   0 -18   36.61    4.78
   0   0 -17    0.81    1.51
   0   0 -16  177.62    9.83
   0   0 -15   -0.16    0.76
   0   0 -14   50.39    4.91
   0   0 -13    1.69    0.88
   0   0 -12 2193.16   29.78
   0   0 -11    0.76    0.69
   0   0 -10  330.05   10.45
   0   0  -9   -0.08    0.62
   0   0  -8 9999.00   51.64
   0   0  -7    1.12    0.54
   0   0  -5    0.15    0.18
   0   0  -4 2681.41   19.11
   0   0  -3    3.35    0.63
   0   0  -2  103.59    2.63
   0   0   4 2717.86   14.29
   0   0   5    0.24    0.27
   0   0   7   -0.07    0.35
   0   0   9    0.84    0.47
   0   0  10  329.68    7.93
   0   0  11    0.16    0.33
   0   0  12 2293.15   22.71
   0   0  13   -0.02    0.46
   0   0  14   52.35    3.74
   0   0  15   -0.13    0.45
   0   0  16  206.86    8.08
   0   0  17   -0.41    0.56
   0   0  17    0.08    0.69
   0   0  18   38.11    3.81
   0   0  19   -0.14    0.66
   0  -1 -31    5.84    2.41
   0  -1 -30   -0.60    1.30
   0  -1 -29    0.32    1.96
   0  -1 -28    0.53    1.28
   0  -1 -27    0.17    0.85
   0  -1 -26    0.42    1.26
   0   1 -26    1.21    0.92
   0  -1 -25    0.74    1.84
   0   1 -25    0.56    1.20
   0  -1 -24    0.60    1.54
   0   1 -24   -1.33    1.54
   0  -1 -23    1.57    1.83
   0   1 -23   -0.45    1.21
   0  -1 -22   -1.77    1.04
   0   1 -22   -0.92    1.17
   0   1 -21   57.29    6.39
   0  -1 -21   53.82    6.17
   0  -1 -20    1.82    1.62
   0   1 -20    0.66    1.56
   0   1 -19    5.66    2.15
   0  -1 -19    7.49    2.43
   0   1 -18    0.56    0.86
   0  -1 -18    0.50    0.85
   0   1 -17   13.30    2.78
   0  -1 -17    5.65    1.75
   0  -1 -16   -1.68    1.20
   0   1 -16    0.23    1.25
   0  -1 -15   41.26    4.75
   0   1 -15   40.20    4.41
   0   1 -14    0.33    0.75
   0  -1 -14   -0.22    1.14
   0  -1 -13   80.45    6.18
   0   1 -13   81.86    5.84
   0  -1 -12    1.27    1.07
   0   1 -12   -0.18    0.70
   0   1 -11   30.20    3.30
   0  -1 -11   32.98    3.60
   0  -1 -10    0.61    0.73
   0   1 -10    0.27    0.69
   0   1  -9 1020.69   10.00
   0   1  -9 1011.89   16.58
   0  -1  -9 1021.49   18.44
   0   1  -8    0.32    0.24
   0   1  -8   -0.02    0.55
   0  -1  -8    0.18    0.92
   0  -1  -7  968.31   16.18
   0   1  -7  982.58   14.10
   0   1  -7  989.53    9.44
   0   1  -6    0.17    0.50
   0   1  -6    0.05    0.20
   0  -1  -6    0.46    0.68
   0  -1  -5 1864.16   19.57
   0   1  -5 1824.53   15.83
   0  -1  -5 1854.61   18.07
   0   1  -5 1848.34   12.49
   0   1  -4   -0.14    0.16
   0  -1  -4    0.27    0.44
   0  -1  -4    0.01    0.20
   0   1  -4    0.40    0.16
   0   1  -3  805.03    8.41
   0  -1  -3  822.92   10.71
   0  -1  -3  812.17   10.62
   0  -1  -2    0.24    0.22
   0  -1  -2   -0.16    0.19
   0   1  -2   -0.25    0.27
   0   1  -1  364.67    5.89
   0  -1  -1  356.09    5.23
   0  -1  -1  367.15    6.16
   0  -1   0   -0.02    0.14
   0   1   0   -0.07    0.16
   0  -1   1  365.70    5.27
   0   1   1  362.63    6.26
   0   1   2    0.26    0.40
   0  -1   2    0.03    0.10
   0   1   3  816.25   10.23
   0  -1   5 1844.09   10.75
   0  -1   6   -0.06    0.18
   0  -1   7  977.69    9.05
   0  -1   8    0.16    0.11
   0   1   8    0.31    0.56
   0   1   9 1040.84   16.11
   0  -1   9 1036.45   10.86
   0   1  10   -0.17    0.30
   0  -1  10   -0.15    0.22
   0   1  11   34.38    3.14
   0  -1  11   29.16    2.04
   0   1  12    0.35    0.61
   0  -1  12    0.61    0.43
   0  -1  13   79.42    3.83
   0   1  13   89.73    5.46
   0   1  14    0.39    0.64
   0   1  14   -0.45    0.65
   0  -1  14   -0.25    0.34
   0   1  15   44.24    3.53
   0  -1  15   44.12    3.09
   0   1  15   48.27    4.20
   0   1  16    0.36    0.38
   0  -1  16   -0.25    0.60
   0   1  16    0.42    0.71
   0   1  17   10.21    1.88
   0   1  17    7.02    1.87
   0  -1  17    9.85    1.68
   0   1  18   -0.06    0.73
   0   1  18   -0.85    0.67
   0   1  19    6.65    1.92
   0   1  20    0.58    1.07
   0   1  21   45.20    4.91
   0  -2 -30   41.91    6.44
   0  -2 -29   -0.98    2.08
   0  -2 -28    7.35    2.37
   0  -2 -27   -1.42    1.67
   0  -2 -26   70.10    7.86
   0  -2 -25   -1.18    1.26
   0  -2 -24    5.63    3.02
   0  -2 -23    0.33    0.71
   0  -2 -22   63.34    6.88
   0  -2 -21   -0.17    1.46
   0  -2 -20   93.70    7.98
   0   2 -19   -0.23    1.08
   0  -2 -19    2.57    1.40
   0  -2 -18   26.72    4.08
   0   2 -18   29.73    4.10
   0  -2 -17   -0.27    0.80
   0   2 -17    1.06    1.17
   0   2 -16  436.09   14.65
   0  -2 -16  478.55   16.79
   0  -2 -15   -0.30    0.64
   0   2 -15    0.73    1.36
   0   2 -14  209.44    5.84
   0  -2 -14  219.30   10.71
   0   2 -14  222.21    9.78
   0   2 -13   -0.31    0.34
   0   2 -13    0.08    0.55
   0  -2 -13   -0.55    0.68
   0  -2 -12  956.58   21.09
   0   2 -12  994.72   12.81
   0   2 -12  968.78   18.48
   0  -2 -11    0.59    1.19
   0   2 -11    0.25    0.38
   0   2 -11    0.56    0.41
   0   2 -10 1356.37   14.99
   0   2 -10 1323.70   19.52
   0  -2 -10 1351.59   23.20
   0  -2  -9    0.11    0.97
   0   2  -9    0.40    0.47
   0   2  -8  100.49    4.13
   0  -2  -8   93.25    5.61
   0   2  -7    0.39    0.40
   0  -2  -7   -0.38    0.56
   0  -2  -7    0.66    0.84
   0   2  -6  998.21   13.16
   0  -2  -6  964.94   16.43
   0  -2  -6  981.64   16.46
   0  -2  -5   -0.37    0.39
   0  -2  -5   -0.07    0.24
   0   2  -5   -0.07    0.25
   0   2  -4 1105.14   14.19
   0  -2  -4 1138.79   16.56
   0  -2  -4 1090.18   15.42
   0  -2  -3    0.19    0.40
   0   2  -3   -0.09    0.31
   0  -2  -3    0.79    0.40
   0   2  -2  404.07    8.78
   0  -2  -2  401.82    7.86
   0   2  -1    0.48    0.61
   0  -2  -1    0.00    0.14
   0  -2  -1    0.06    0.52
   0   2   1    0.10    0.45
   0  -2   1    0.96    0.48
   0  -2   1    0.71    0.67
   0  -2   2  423.77    5.39
   0  -2   2  418.70    8.05
   0   2   2  410.88    9.51
   0  -2   3    0.13    0.37
   0   2   3   -0.21    0.22
   0   2   4 1071.83   16.15
   0  -2   4 1082.28   12.05
   0  -2   5    0.11    0.32
   0   2   5   -0.16    0.42
   0  -2   6  996.84   10.82
   0   2   6  995.95   15.83
   0   2   7    0.46    0.83
   0  -2   7    0.11    0.25
   0  -2   8   96.46    3.30
   0   2   8   91.57    5.02
   0  -2   9   -0.09    0.32
   0   2   9    0.19    0.48
   0   2  10 1311.85   19.96
   0  -2  10 1337.63   12.58
   0   2  11    0.33    0.50
   0  -2  11    0.48    0.18
   0   2  11    0.80    0.91
   0   2  12  982.24   19.75
   0   2  12  993.90   18.12
   0  -2  12  941.50   11.15
   0   2  13    0.86    0.98
   0  -2  13    0.11    0.16
   0   2  13    0.60    0.57
   0  -2  14  217.81    5.63
   0   2  14  218.45    8.98
   0   2  14  211.30    9.70
   0  -2  15   -0.15    0.37
   0   2  15    0.01    0.72
   0   2  15    0.78    0.92
   0   2  16  444.61   13.26
   0   2  16  450.48   14.60
   0   2  17    0.53    0.99
   0   2  17   -0.26    0.65
   0   2  18   27.90    3.39
   0   2  18   22.37    3.41
   0   2  19    1.56    1.22
   0   2  19    0.11    1.05
   0   2  20   76.41    6.65
   0   2  21    0.38    1.28
   0   2  22   43.78    5.41
   0  -3 -30   -1.68    1.75
   0  -3 -29   -0.80    1.64
   0  -3 -28    3.81    3.09
   0  -3 -27    4.68    2.30
   0  -3 -26    0.25    1.68
   0  -3 -25   -1.11    0.74
   0  -3 -24   -0.54    1.86
   0  -3 -23    2.20    1.50
   0  -3 -22    2.08    1.69
   0  -3 -21   58.83    6.62
   0  -3 -20    0.05    0.76
   0  -3 -19   45.03    5.60
   0  -3 -18   -0.66    1.17
   0  -3 -17   18.23    3.61
   0  -3 -16    0.17    1.29
   0  -3 -15   73.23    6.65
   0  -3 -14    0.99    0.60
   0   3 -14   -0.30    0.40
   0  -3 -13   82.97    6.69
   0   3 -13   74.61    4.36
   0  -3 -12    0.63    1.22
   0   3 -12    0.16    0.50
   0   3 -11   69.02    4.23
   0  -3 -11   75.84    5.99
   0   3 -10   -0.12    0.63
   0  -3 -10    0.07    0.66
   0  -3  -9 1703.56   26.68
   0   3  -9 1683.66   21.04
   0  -3  -9 1685.93   26.39
   0  -3  -8    0.36    0.74
   0  -3  -8    0.35    0.75
   0   3  -8   -0.52    0.72
   0  -3  -7    5.80    1.63
   0  -3  -7    5.35    1.46
   0   3  -7    6.83    1.32
   0   3  -6    1.76    0.99
   0  -3  -6    0.74    0.91
   0  -3  -6    1.00    0.83
   0  -3  -5  385.19   10.57
   0   3  -5  372.55   10.24
   0  -3  -4    0.45    0.49
   0   3  -4   -0.23    0.39
   0  -3  -4    0.56    0.89
   0  -3  -3  483.99   12.27
   0  -3  -3  464.45   10.55
   0   3  -3  453.41   11.39
   0  -3  -2    1.09    0.97
   0  -3  -2   -0.13    0.21
   0   3  -2   -0.04    0.56
   0   3  -1 1020.66   17.48
   0  -3  -1  994.23   13.06
   0  -3   0    0.81    0.33
   0  -3   0    0.89    0.50
   0   3   0    0.86    0.98
   0  -3   1  999.35   11.10
   0  -3   1 1016.34   16.08
   0  -3   2    0.17    0.21
   0   3   2    0.69    0.46
   0  -3   2   -0.21    0.30
   0  -3   3  487.32    6.97
   0  -3   3  469.44   10.55
   0   3   3  461.57   12.20
   0  -3   4   -0.08    0.30
   0  -3   4    0.01    0.14
   0   3   4    0.22    0.34
   0  -3   5  393.60    9.30
   0   3   5  409.09   11.81
   0  -3   6    0.13    0.23
   0   3   6    0.34    0.66
   0   3   7    7.26    1.62
   0  -3   7    5.05    1.06
   0   3   8    0.51    0.68
   0  -3   8    0.08    0.27
   0   3   9 1674.25   25.61
   0  -3   9 1707.44   17.24
   0  -3  10   -0.40    0.42
   0   3  10    0.30    0.72
   0  -3  11   70.20    3.42
   0   3  11   78.74    5.72
   0  -3  12    0.15    0.27
   0   3  12    0.30    0.68
   0   3  13   77.58    5.82
   0  -3  13   69.06    3.21
   0   3  13   67.43    5.89
   0  -3  14   -0.34    0.24
   0   3  14   -0.58    0.43
   0   3  14    0.80    1.20
   0   3  15   82.63    6.72
   0   3  15   64.03    5.47
   0   3  16    1.40    1.19
   0   3  16   -0.33    1.45
   0   3  17   28.42    3.80
   0   3  17   22.87    3.70
   0   3  18    0.69    0.91
   0   3  18   -0.87    1.15
   0   3  19   54.75    5.73
   0   3  19   48.78    5.14
   0   3  20    0.20    0.66
   0   3  21   53.74    6.18
   0   3  22    3.16    1.76
   0   3  23    0.68    1.02
   0  -4 -29    1.02    1.49
   0  -4 -28    1.37    1.98
   0  -4 -27    3.54    1.96
   0  -4 -26   18.02    4.20
   0  -4 -25   -0.35    1.82
   0  -4 -24    4.10    2.53
   0  -4 -23    0.71    1.57
   0  -4 -22  118.11    9.66
   0  -4 -21   -0.02    0.92
   0  -4 -20   26.83    4.88
   0  -4 -19   -0.28    0.81
   0  -4 -18   71.73    7.27
   0  -4 -17   -0.48    1.81
   0  -4 -16  447.89   17.19
   0  -4 -15   -0.64    1.13
   0  -4 -14  103.45    8.02
   0   4 -14  111.25    6.41
   0   4 -13   -0.06    0.90
   0  -4 -13    0.73    0.94
   0   4 -12  409.06   12.03
   0  -4 -12  407.11   14.77
   0  -4 -11   -0.01    1.12
   0   4 -11    0.17    0.83
   0  -4 -10 1155.63   23.78
   0   4 -10 1152.74   20.75
   0  -4  -9    1.84    0.96
   0  -4  -9   -0.20    0.47
   0   4  -9    1.08    1.03
   0  -4  -8  296.08   11.39
   0  -4  -8  305.54   11.90
   0   4  -8  333.27   11.13
   0  -4  -7   -0.14    0.54
   0   4  -7   -0.28    0.58
   0  -4  -7    1.38    1.08
   0  -4  -6  540.39   14.17
   0  -4  -6  530.97   15.34
   0   4  -6  547.86   14.51
   0  -4  -5   -0.26    0.69
   0  -4  -5    1.31    0.99
   0   4  -5    1.65    1.09
   0  -4  -4 1236.07   22.71
   0   4  -4 1283.13   22.17
   0  -4  -4 1223.04   19.59
   0  -4  -3   -0.12    0.57
   0   4  -3   -0.40    0.64
   0  -4  -3    0.79    0.81
   0   4  -2  326.42   11.27
   0  -4  -2  321.60   11.01
   0   4  -1   -0.48    0.87
   0  -4  -1   -0.85    0.96
   0  -4  -1   -0.26    0.56
   0   4   0  138.23    7.42
   0  -4   0  154.05    5.45
   0  -4   0  144.21    7.18
   0  -4   1    0.28    0.42
   0   4   1   -0.43    0.95
   0  -4   1   -0.02    0.52
   0  -4   2  309.15    6.85
   0  -4   2  313.25   10.32
   0   4   2  295.19   10.97
   0  -4   3   -0.23    0.49
   0   4   3   -0.23    0.47
   0   4   4 1237.95   22.92
   0  -4   4 1252.65   12.73
   0  -4   4 1265.33   20.02
   0  -4   5    0.32    0.68
   0   4   5    0.27    0.83
   0  -4   5    0.37    0.37
   0   4   6  563.27   15.85
   0  -4   6  563.55   12.89
   0   4   7    1.82    1.21
   0  -4   7    0.05    0.58
   0   4   8  316.72   12.07
   0  -4   8  310.52    9.41
   0  -4   9   -0.07    0.33
   0   4   9    1.08    1.06
   0  -4  10 1076.91   17.24
   0   4  10 1169.45   23.89
   0  -4  11    0.55    0.56
   0   4  11    0.47    0.54
   0  -4  12  405.93    9.66
   0   4  12  399.90   14.43
   0   4  13   -0.62    0.73
   0  -4  13    0.28    0.28
   0   4  14  127.36    8.75
   0   4  14  113.30    7.97
   0   4  15    0.74    1.19
   0   4  15    1.72    1.21
   0   4  16  410.20   16.20
   0   4  16  404.38   15.45
   0   4  17    0.80    1.08
   0   4  17   -0.39    1.33
   0   4  18   68.73    6.71
   0   4  18   69.06    6.42
   0   4  19   -1.72    1.85
   0   4  19   -0.78    1.24
   0   4  20   30.37    4.83
   0   4  20   25.09    4.34
   0   4  21    0.51    1.15
   0   4  22  124.04   10.01
   0   4  23    1.12    1.82
   0   4  24    4.40    1.88
   0  -5 -28   -1.30    1.20
   0  -5 -27    0.43    1.33
   0  -5 -26   -0.99    1.61
   0  -5 -25    0.92    1.22
   0  -5 -24   -0.39    1.47
   0  -5 -23    8.21    2.80
   0  -5 -22   -0.39    1.43
   0  -5 -21    1.65    1.42
   0  -5 -20   -0.07    1.06
   0  -5 -19    6.93    2.37
   0  -5 -18    1.70    1.49
   0  -5 -17    0.18    1.14
   0  -5 -16   -0.11    0.93
   0  -5 -15    3.12    2.10
   0  -5 -14   -1.53    1.92
   0  -5 -13   26.26    4.19
   0   5 -13   18.38    2.99
   0   5 -12    0.22    0.81
   0  -5 -12    0.11    1.10
   0  -5 -11    5.58    1.78
   0   5 -11    4.16    1.78
   0  -5 -10    0.11    0.78
   0  -5 -10    0.38    0.87
   0   5 -10   -0.76    0.66
   0  -5  -9    8.03    2.08
   0   5  -9    5.01    1.53
   0  -5  -8    1.92    1.40
   0   5  -8    0.22    0.53
   0  -5  -8    0.75    0.89
   0  -5  -7   60.78    5.70
   0   5  -7   65.37    5.57
   0  -5  -7   65.56    5.47
   0  -5  -6    0.38    0.60
   0   5  -6   -0.16    1.21
   0  -5  -6    1.16    1.09
   0  -5  -5  127.75    7.06
   0   5  -5  113.34    7.29
   0  -5  -4    0.26    0.48
   0  -5  -4    0.32    0.43
   0   5  -4    1.39    0.98
   0   5  -3  115.89    7.43
   0  -5  -3  119.51    6.41
   0  -5  -3  122.32    7.59
   0   5  -2   -0.64    0.48
   0  -5  -2    0.49    0.46
   0  -5  -2    0.10    0.81
   0  -5  -1   27.75    3.54
   0  -5  -1   27.14    2.83
   0   5  -1   29.19    3.82
   0  -5   0   -0.08    0.49
   0  -5   0    0.21    0.52
   0   5   0   -0.70    1.11
   0  -5   1   33.79    2.69
   0   5   1   30.19    3.78
   0  -5   1   31.77    3.84
   0   5   2    0.27    0.99
   0  -5   2    0.09    0.59
   0  -5   2    0.28    1.02
   0  -5   3  114.97    4.51
   0  -5   3  119.95    7.00
   0   5   3  127.44    8.07
   0  -5   4    0.26    0.24
   0  -5   4   -0.27    0.88
   0   5   4   -0.75    0.92
   0  -5   5  119.36    6.93
   0  -5   5  126.69    4.30
   0   5   5  116.44    7.79
   0  -5   6    0.55    0.42
   0   5   6    0.29    0.77
   0  -5   6    0.19    0.46
   0   5   7   62.51    5.75
   0  -5   7   61.79    3.08
   0  -5   7   75.67    5.36
   0  -5   8   -0.10    0.82
   0  -5   8   -0.02    0.33
   0   5   8    0.88    1.09
   0  -5   9    5.54    1.62
   0   5   9    6.26    2.15
   0  -5   9    2.78    0.72
   0   5  10   -0.63    1.15
   0  -5  10    0.10    0.45
   0  -5  11    4.20    1.30
   0   5  11    9.01    2.81
   0   5  12    2.73    2.08
   0  -5  12   -0.57    0.59
   0   5  13   23.54    3.79
   0   5  14   -0.11    1.37
   0   5  15    4.35    2.14
   0   5  15    6.15    2.53
   0   5  16   -0.12    1.07
   0   5  16    0.15    0.83
   0   5  17    2.29    1.05
   0   5  17    3.02    0.95
   0   5  18    1.33    1.50
   0   5  18   -1.69    2.16
   0   5  19    5.55    2.16
   0   5  19    1.19    1.47
   0   5  20   -1.47    1.28
   0   5  20   -0.22    0.94
   0   5  21    0.55    1.14
   0   5  21    3.38    2.50
   0   5  22    0.98    1.09
   0   5  23   14.62    3.80
   0   5  24    1.77    1.77
   0   5  25    3.27    1.90
   0  -6 -26   32.49    5.34
   0  -6 -25   -0.52    1.79
   0  -6 -24   15.72    3.96
   0  -6 -23    0.08    1.61
   0  -6 -22   69.43    7.76
   0  -6 -21    3.44    2.13
   0  -6 -20   48.44    6.44
   0  -6 -19    0.45    1.48
   0  -6 -18    1.30    0.95
   0  -6 -17   -0.46    1.82
   0  -6 -16   80.91    7.84
   0  -6 -15    1.48    2.00
   0  -6 -14    7.25    2.41
   0  -6 -13   -0.25    0.96
   0   6 -13    0.66    1.39
   0   6 -12  115.65    8.28
   0  -6 -12  154.58   10.01
   0  -6 -11   -1.73    0.69
   0   6 -11    0.47    0.79
   0   6 -10  182.94   10.36
   0  -6 -10  178.33   10.15
   0   6  -9    1.20    1.33
   0  -6  -9   -2.62    1.65
   0  -6  -9    0.09    1.22
   0   6  -8   20.40    3.58
   0  -6  -8   15.52    3.04
   0  -6  -8   20.11    3.21
   0   6  -7    0.87    1.39
   0  -6  -7    0.25    1.44
   0  -6  -7    0.95    0.80
   0   6  -6 1081.19   25.11
   0  -6  -6 1079.57   22.96
   0  -6  -6 1087.69   25.63
   0   6  -5    1.12    1.55
   0  -6  -5   -0.12    0.63
   0  -6  -5   -0.18    0.97
   0  -6  -4  476.73   14.20
   0   6  -4  473.29   16.45
   0  -6  -4  476.62   16.68
   0  -6  -3    0.04    1.09
   0   6  -3    0.41    1.05
   0  -6  -3    0.05    1.78
   0  -6  -2  807.10   17.23
   0  -6  -2  794.05   20.95
   0   6  -2  805.64   21.66
   0   6  -1    0.38    0.70
   0  -6  -1    0.80    1.46
   0  -6  -1    0.04    1.67
   0  -6   0  649.16   14.34
   0  -6   0  650.78   18.59
   0   6   0  642.25   19.40
   0  -6   1    1.09    1.52
   0   6   1    0.95    1.27
   0  -6   1   -0.49    0.76
   0  -6   2  791.34   13.89
   0   6   2  775.56   21.76
   0  -6   2  794.78   20.27
   0  -6   3    1.91    1.23
   0  -6   3    0.50    0.85
   0   6   3    2.36    2.05
   0  -6   4  467.09    9.42
   0  -6   4  464.05   15.29
   0   6   4  500.05   17.48
   0   6   5    1.20    2.02
   0  -6   5    0.88    0.68
   0  -6   5    0.46    0.67
   0   6   6 1093.03   26.48
   0  -6   6 1088.84   22.83
   0   6   7    0.85    1.10
   0  -6   7    1.09    1.08
   0   6   8   20.96    3.56
   0  -6   8   17.67    2.95
   0   6   9   -0.35    1.60
   0  -6   9    0.86    1.02
   0  -6  10  179.20    8.85
   0   6  10  181.44   10.84
   0   6  11    1.49    1.11
   0  -6  11   -0.15    0.48
   0   6  12  151.79   10.36
   0   6  13   -1.31    1.04
   0   6  14    7.66    2.59
   0   6  15    0.45    0.98
   0   6  15    1.61    1.50
   0   6  16  124.16    9.74
   0   6  16   92.21    8.52
   0   6  17   -0.59    1.32
   0   6  17    2.47    2.00
   0   6  18    0.80    1.29
   0   6  18    1.68    1.67
   0   6  19    0.29    1.17
   0   6  19   -0.11    1.21
   0   6  20   34.23    5.35
   0   6  20   44.52    6.35
   0   6  21    1.13    1.47
   0   6  21    0.57    1.19
   0   6  22   52.96    6.92
   0   6  23    0.32    1.49
   0   6  24    8.61    3.51
   0   6  25   -1.69    2.80
   0   6  26   23.85    5.42
   0  -7 -25    4.71    2.76
   0  -7 -24   -1.41    2.54
   0  -7 -23    2.47    1.72
   0  -7 -22    2.04    2.17
   0  -7 -21    8.79    3.16
   0  -7 -20    0.76    1.48
   0  -7 -19    2.64    2.13
   0  -7 -18    2.00    1.69
   0  -7 -17    2.24    2.10
   0  -7 -16   -1.98    2.16
   0  -7 -15   15.33    3.73
   0  -7 -14    0.13    1.80
   0  -7 -13   23.01    3.98
   0  -7 -12    0.92    1.51
   0   7 -12    0.11    1.11
   0  -7 -11   11.24    2.70
   0   7 -11   13.49    3.32
   0  -7 -10    0.57    0.80
   0   7 -10    1.41    1.33
   0  -7  -9   80.12    6.99
   0   7  -9   69.93    6.99
   0  -7  -9   71.22    7.39
   0   7  -8    0.43    1.59
   0  -7  -8   -0.82    0.99
   0  -7  -8    0.63    1.28
   0  -7  -7  395.55   15.36
   0   7  -7  394.23   16.42
   0  -7  -7  366.79   15.93
   0  -7  -6    3.06    1.50
   0  -7  -6    3.83    2.03
   0   7  -6    1.09    1.63
   0  -7  -5  255.99   12.93
   0   7  -5  255.57   13.03
   0  -7  -5  266.20   11.96
   0  -7  -4   -0.99    1.08
   0   7  -4    1.05    1.13
   0  -7  -4   -2.35    1.74
   0  -7  -3   23.53    3.89
   0  -7  -3   26.40    3.37
   0   7  -3   20.61    3.61
   0  -7  -2    0.90    1.15
   0  -7  -2    1.60    1.11
   0   7  -2    1.02    0.75
   0   7  -1  763.21   22.90
   0  -7  -1  735.63   17.01
   0  -7  -1  744.70   22.06
   0  -7   0    1.09    1.26
   0  -7   0    1.54    1.42
   0   7   0    3.19    2.57
   0   7   1  786.78   23.08
   0  -7   1  728.33   21.60
   0   7   2    1.33    1.89
   0  -7   2    0.36    0.89
   0   7   3   38.50    5.27
   0  -7   3   20.77    3.80
   0  -7   4    1.08    1.29
   0   7   4    0.91    0.94
   0  -7   5  252.70   12.05
   0   7   5  244.50   13.33
   0  -7   6    0.38    1.48
   0   7   6    1.79    2.15
   0   7   7  401.30   17.22
   0  -7   7  380.50   14.86
   0   7   8   -0.90    1.21
   0  -7   8    0.97    1.19
   0  -7   9   79.57    6.56
   0   7   9   64.22    6.93
   0  -7  10    0.77    0.92
   0   7  10    0.47    1.03
   0   7  11   11.90    3.16
   0   7  12   -0.22    1.08
   0   7  13   20.85    4.27
   0   7  14   -1.08    2.32
   0   7  15    9.08    2.50
   0   7  15   13.40    3.20
   0   7  16   -1.16    1.89
   0   7  16    0.44    1.31
   0   7  17    0.45    0.82
   0   7  17    3.02    2.11
   0   7  18   -1.76    2.18
   0   7  18   -0.39    1.75
   0   7  19    5.41    2.35
   0   7  19    7.30    2.50
   0   7  20    1.92    1.73
   0   7  20    0.74    1.48
   0   7  21    3.61    1.47
   0   7  21    9.08    2.88
   0   7  22    0.60    2.42
   0   7  23    3.88    2.00
   0   7  24    0.31    1.12
   0   7  25    1.92    1.99
   0  -8 -22    7.39    3.29
   0  -8 -21    3.25    2.70
   0  -8 -20   12.48    3.70
   0  -8 -19   -2.01    1.63
   0  -8 -18   -0.14    1.25
   0  -8 -17    1.58    2.20
   0  -8 -16   15.90    4.07
   0  -8 -15    1.68    2.66
   0  -8 -14    8.74    3.02
   0  -8 -13    6.07    2.77
   0   8 -12   13.02    4.26
   0  -8 -12    2.11    1.66
   0   8 -11    0.55    1.47
   0  -8 -11   -0.05    1.64
   0  -8 -10   25.21    4.49
   0   8 -10   34.20    5.35
   0  -8  -9    0.30    1.97
   0   8  -9    0.91    2.15
   0  -8  -8    0.50    2.13
   0   8  -8    0.09    1.09
   0  -8  -7   -0.18    1.59
   0   8  -7    0.89    1.14
   0  -8  -7    1.31    1.77
   0  -8  -6   71.21    7.24
   0   8  -6   51.40    6.41
   0  -8  -6   70.02    6.61
   0   8  -5    0.05    1.20
   0  -8  -5    0.33    0.85
   0  -8  -5   -0.77    0.70
   0  -8  -4   32.36    4.19
   0   8  -4   32.69    5.06
   0  -8  -4   31.37    4.99
   0  -8  -3    0.78    1.36
   0   8  -3    1.12    1.22
   0   8  -2   36.63    5.27
   0  -8  -2   31.80    4.74
   0  -8  -1   -0.06    1.17
   0   8  -1    0.39    1.72
   0  -8   0   58.07    6.32
   0   8   0   63.16    6.87
   0  -8   1    3.87    1.83
   0   8   1   -0.35    1.39
   0  -8   2   36.88    5.18
   0   8   2   36.64    5.34
   0   8   3   -0.06    1.12
   0  -8   3   -0.25    1.55
   0  -8   4   25.32    4.76
   0   8   4   30.84    4.86
   0  -8   5    0.18    1.08
   0   8   5   -0.65    1.18
   0   8   6   67.82    7.20
   0  -8   6   64.59    6.86
   0   8   7    1.98    1.70
   0  -8   7    0.11    1.19
   0   8   8    1.72    2.33
   0  -8   8    1.76    1.84
   0   8   9    0.72    1.79
   0  -8   9   -0.80    1.61
   0   8  10   35.50    5.62
   0   8  11   -1.65    1.90
   0   8  12    4.29    2.76
   0   8  13    0.45    1.06
   0   8  14    5.64    1.77
   0   8  14    3.17    2.23
   0   8  15    2.68    2.78
   0   8  15   -0.95    0.78
   0   8  16   22.20    4.62
   0   8  16   24.12    5.18
   0   8  17   -2.40    2.25
   0   8  17   -1.28    1.54
   0   8  18   -1.63    1.84
   0   8  18    0.88    1.27
   0   8  19   -0.39    1.28
   0   8  19    0.29    1.72
   0   8  20    8.88    2.71
   0   8  20    8.90    3.40
   0   8  21    0.13    0.91
   0   8  21   -1.40    2.25
   0   8  22   10.00    3.32
   0  -9 -20    2.28    2.18
   0  -9 -19    2.49    2.45
   0  -9 -18    1.75    1.41
   0  -9 -17    8.41    3.12
   0  -9 -16    0.50    1.91
   0  -9 -15    4.14    1.77
   0  -9 -14   -0.61    1.88
   0  -9 -13    4.02    2.28
   0  -9 -12    0.10    1.09
   0  -9 -11   11.10    3.48
   0   9 -11   12.32    3.40
   0   9 -10    0.42    1.13
   0  -9 -10   -1.21    0.97
   0   9  -9    4.79    2.29
   0   9  -8    0.09    1.45
   0   9  -7    3.52    1.17
   0   9  -6    1.40    1.49
   0  -9  -5    0.94    1.67
   0   9  -5    2.15    1.27
   0   9  -4    1.01    1.42
   0  -9  -4    0.12    0.74
   0   9  -3   17.08    3.57
   0  -9  -3   23.76    4.53
   0  -9  -2    0.48    2.04
   0   9  -2    1.20    1.90
   0   9  -1    1.99    2.15
   0  -9  -1    3.85    1.97
   0  -9   0   -0.83    1.16
   0   9   0    0.11    0.86
   0   9   1    4.15    2.66
   0  -9   1    1.17    1.17
   0   9   2   -0.55    1.30
   0  -9   2    0.45    1.42
   0   9   3   15.62    3.58
   0  -9   3   17.86    3.84
   0  -9   4   -0.28    1.10
   0   9   4   -0.91    1.93
   0   9   5   -1.29    1.59
   0  -9   5   -0.16    1.22
   0   9   6   -0.81    1.74
   0  -9   6    0.46    1.36
   0  -9   7    6.87    2.04
   0   9   7    4.43    1.80
   0  -9   8    2.46    1.84
   0   9   8   -1.20    1.98
   0   9   9   13.39    3.75
   0   9  10   -0.51    1.91
   0   9  11   15.28    3.78
   0   9  12    1.65    2.46
   0   9  13   -1.66    1.25
   0   9  13   -0.48    1.56
   0   9  14    0.34    1.28
   0   9  14   -0.34    1.33
   0   9  15    5.08    2.56
   0   9  15    2.02    2.21
   0   9  16   -1.32    2.04
   0   9  16   -0.05    1.37
   0   9  17    4.93    2.30
   0   9  17    0.23    1.77
   0   9  18   -0.37    1.93
   0   9  18    0.84    2.02
   0   9  19    1.29    1.00
   0   9  19    0.34    2.16
   0   9  20    0.53    2.29
   0   9  20    2.43    1.69
   0  10 -10    8.90    2.54
   0  10  -9   -2.88    1.85
   0  10  -8   -0.42    1.31
   0  10  -7   -0.03    1.68
   0  10  -6   31.66    5.59
   0  10  -5    3.69    2.60
   0  10  -4   18.74    4.22
   0  10  -3   -0.51    1.91
   0  10  -2   11.68    2.92
   0  10  -1    1.29    2.31
   0  10   0   54.66    7.21
   0 -10   0   49.57    6.58
   0  10   1   -0.51    1.06
   0 -10   1    3.13    1.83
   0 -10   2   12.50    3.51
   0  10   2   12.44    3.58
   0 -10   3   -0.25    1.10
   0  10   3    1.97    1.55
   0 -10   4   19.28    4.34
   0  10   4   26.08    5.26
   0 -10   5   -0.51    1.26
   0  10   5    0.01    1.11
   0 -10   6   29.38    5.36
   0  10   6   28.33    5.02
   0  10   7   -0.02    1.88
   0  10   8   -0.44    1.15
   0  10   9    1.07    1.73
   0  10  10   17.37    4.53
   0  10  11    0.60    2.28
   0  10  11   -2.08    1.41
   0  10  12   10.98    3.90
   0  10  12   16.34    4.35
   0  10  13    2.49    2.23
   0  10  13   -3.76    1.72
   0  10  14    4.15    2.49
   0  10  14    3.22    1.27
   0  10  15   -1.16    1.70
   0  10  15   -0.74    1.92
   0  10  16    4.29    2.12
   0  10  16    6.17    2.53
   0  11  -9    1.87    2.39
   0  11  -8    1.84    2.14
   0  11  -7    1.66    1.51
   0  11  -6   -3.64    2.48
   0  11  -5    1.25    1.90
   0  11  -4    1.45    1.16
   0  11  -3    1.60    1.37
   0  11  -2    0.21    0.94
   0  11  -1   -2.29    2.31
   0  11   0    0.94    1.88
   0  11   1    0.01    1.98
   0  11   2   -1.21    1.91
   0  11   3    3.63    1.52
   0  11   4    0.87    1.29
   0  11   5    2.00    2.32
   0  11   6   -1.46    1.73
   0  11   7    1.47    1.70
   0  11   8    2.23    2.19
   0  11   8    0.44    1.53
   0  11   9    1.82    1.14
   0  11   9    6.86    3.46
   0  11  10   -1.39    1.72
   0  11  10    0.81    1.62
   1   0 -31   -0.21    1.17
   1   0 -30    0.56    2.01
   1   0 -29    0.63    1.92
   1   0 -28    1.50    1.20
   1   0 -27   -0.19    1.34
   1   0 -26   -1.45    1.28
  -1   0 -26    0.50    1.73
   1   0 -25    0.92    1.60
  -1   0 -25    2.58    2.09
   1   0 -24   -0.84    1.67
  -1   0 -24   -0.86    1.11
   1   0 -23   -0.97    1.63
  -1   0 -23    1.29    0.69
   1   0 -22   -1.67    1.65
  -1   0 -22    0.90    1.40
   1   0 -21    1.94    0.73
  -1   0 -21   -0.94    1.27
   1   0 -20    0.76    0.60
  -1   0 -20    1.51    1.96
   1   0 -19    0.29    1.12
  -1   0 -19    1.21    1.53
  -1   0 -18    0.35    1.31
   1   0 -18    0.78    1.07
  -1   0 -17    0.19    0.97
   1   0 -17   -1.16    0.99
  -1   0 -16   -0.07    0.91
   1   0 -16    0.35    1.08
   1   0 -15   -0.49    0.60
  -1   0 -15   -0.20    0.59
  -1   0 -14    0.61    0.72
   1   0 -14    0.27    0.86
   1   0 -13    1.40    0.69
  -1   0 -13    0.71    0.50
   1   0 -12    1.74    1.37
  -1   0 -12    0.03    0.56
   1   0 -11    0.60    0.57
  -1   0 -11    0.21    0.62
  -1   0 -10    0.98    0.59
   1   0 -10    0.33    0.59
   1   0  -9    0.34    0.71
  -1   0  -9    0.18    0.83
   1   0  -8    0.35    0.65
  -1   0  -8    0.14    0.76
   1   0  -7    0.13    0.27
  -1   0  -7    0.07    0.35
  -1   0  -6    0.13    0.40
   1   0  -6    0.37    0.29
   1   0  -6   -0.09    0.15
  -1   0  -5    0.02    0.21
   1   0  -5    0.11    0.41
   1   0  -5    0.40    0.21
   1   0  -4    0.19    0.35
   1   0  -4    0.11    0.15
  -1   0  -4    0.42    0.27
   1   0  -3   -0.01    0.18
   1   0  -3   -0.11    0.15
  -1   0  -3   -0.25    0.35
   1   0  -2    0.03    0.18
   1   0  -2    0.22    0.12
   1   0  -1   -0.06    0.12
   1   0  -1    0.09    0.09
   1   0   1    0.12    0.09
   1   0   2    0.04    0.10
   1   0   3    0.06    0.11
   1   0   4    0.52    0.42
   1   0   5   -0.14    0.20
   1   0   6   -0.02    0.27
   1   0   7    0.39    0.42
   1   0   8    0.23    0.25
  -1   0   8    0.06    0.17
   1   0   8   -0.08    0.12
   1   0   9   -0.03    0.14
  -1   0   9    0.29    0.30
   1   0   9    0.07    0.62
  -1   0  10    0.46    0.37
   1   0  10    0.10    0.22
   1   0  10   -0.09    0.53
   1   0  11    0.21    0.56
  -1   0  11    0.61    0.24
   1   0  11   -0.01    0.12
  -1   0  12   -0.01    0.23
   1   0  12   -0.13    0.38
   1   0  12    0.00    0.18
  -1   0  13   -0.10    0.42
   1   0  13   -0.14    0.46
   1   0  13   -0.08    0.15
  -1   0  14   -0.18    0.53
   1   0  14   -0.04    0.77
   1   0  14   -0.16    0.30
   1   0  15    0.48    0.31
   1   0  15    0.70    0.77
  -1   0  15    0.31    0.68
  -1   0  16    0.68    0.93
   1   0  16   -0.08    0.54
   1   0  16    0.37    0.35
  -1   0  17    0.41    0.53
   1   0  17   -0.13    0.59
  -1   0  18   -0.35    0.65
   1   0  18   -0.31    0.57
   1   0  19    0.27    0.46
   1   0  20   -0.23    1.03
   1  -1 -31    0.63    1.75
   1  -1 -30   16.43    3.90
   1  -1 -29   20.31    4.51
  -1  -1 -29   24.24    4.92
   1   1 -28   10.69    3.17
   1  -1 -28   14.08    3.95
  -1  -1 -28    9.12    3.03
   1   1 -27    4.81    2.39
   1  -1 -27    6.91    2.54
  -1  -1 -27    4.76    2.12
   1  -1 -26   53.17    6.99
  -1  -1 -26   57.77    7.23
   1   1 -26   48.48    6.61
   1   1 -25   38.78    5.83
   1  -1 -25   38.13    5.50
  -1  -1 -25   42.01    6.12
  -1  -1 -24    1.86    1.68
   1  -1 -24    3.12    1.70
   1   1 -24    2.22    1.57
   1  -1 -23   38.43    5.70
  -1  -1 -23   41.10    5.59
   1   1 -23   31.59    4.98
   1   1 -22   28.91    4.63
  -1  -1 -22   26.40    4.36
  -1   1 -22   28.86    4.58
   1  -1 -22   27.90    4.61
   1   1 -21   10.23    2.85
  -1   1 -21    4.59    1.83
  -1  -1 -21   10.45    2.73
   1  -1 -21    9.88    2.71
   1  -1 -20   64.11    6.67
  -1   1 -20   63.23    6.48
  -1  -1 -20   69.46    6.87
   1   1 -20   63.32    6.40
   1  -1 -19   76.24    6.93
  -1  -1 -19   74.82    6.93
  -1   1 -19   87.28    7.37
   1   1 -19   85.62    7.12
  -1   1 -18   15.13    3.41
   1   1 -18   15.82    3.23
  -1  -1 -18   17.94    3.48
   1  -1 -18   17.27    3.33
  -1   1 -17   89.55    7.06
   1   1 -17   82.23    6.70
  -1  -1 -17   78.16    7.02
   1  -1 -17   74.45    6.60
  -1  -1 -16  148.82    9.03
   1  -1 -16  133.13    8.63
  -1   1 -16  148.63    8.77
   1   1 -16  141.97    8.47
  -1   1 -15   10.71    2.47
   1   1 -15    7.40    2.21
   1  -1 -15    6.15    1.72
  -1  -1 -15    7.96    2.32
  -1  -1 -14   69.02    5.90
   1  -1 -14   72.29    6.02
   1   1 -14   80.25    5.95
  -1   1 -14   77.20    5.92
  -1   1 -13  321.75   11.78
   1  -1 -13  359.17   12.79
   1   1 -13  337.18   11.69
  -1  -1 -13  315.87   12.17
   1   1 -12  753.82   16.58
  -1   1 -12  704.38   16.69
  -1  -1 -12  737.90   17.83
   1  -1 -12  729.53   17.77
  -1  -1 -11  262.58   10.25
   1  -1 -11  258.23   10.19
  -1   1 -11  247.26    9.43
   1   1 -11  266.50    9.47
   1  -1 -10  491.43   13.49
  -1   1 -10  517.08   12.98
   1   1 -10  492.67    8.99
   1   1 -10  503.25   12.21
   1  -1  -9  541.91   13.42
   1   1  -9  575.90   12.30
   1   1  -9  558.98    9.29
  -1  -1  -9  583.69   13.97
  -1   1  -9  556.17   12.77
   1  -1  -9  559.84   11.77
   1   1  -8  323.23    8.69
   1   1  -8  321.56    7.07
  -1   1  -8  331.50    9.30
   1  -1  -8  325.56    8.61
   1  -1  -8  331.62   10.02
  -1  -1  -8  333.52   10.07
   1  -1  -7  494.12   10.19
   1   1  -7  503.21    8.47
   1   1  -7  499.43    9.84
   1  -1  -7  508.43   11.78
  -1  -1  -7  511.04   11.89
   1  -1  -6 1041.44   16.10
   1   1  -6 1007.71   11.79
   1   1  -6 1032.86   12.79
   1  -1  -6 1020.11   13.81
  -1  -1  -6 1056.10   16.03
   1  -1  -5  531.02    9.63
   1   1  -5  547.08    8.24
   1  -1  -5  531.28   10.79
  -1  -1  -5  551.10   10.78
   1   1  -5  538.45    8.43
  -1  -1  -4 1744.28   17.63
   1   1  -4 1781.58   12.85
   1  -1  -4 1791.11   18.08
   1  -1  -4 1744.38   16.95
   1   1  -4 1767.89   14.87
  -1   1  -3 1373.42   10.25
   1   1  -3 1329.62   12.64
   1  -1  -3 1357.90   14.66
   1   1  -3 1378.91    8.93
   1  -1  -3 1350.06   14.00
  -1  -1  -3 1368.76   14.03
   1  -1  -2   58.02    2.78
  -1  -1  -2   58.17    2.53
   1   1  -2   52.93    2.49
   1  -1  -2   52.89    2.65
   1   1  -2   56.69    1.84
   1   1  -1 2021.14   15.53
   1  -1  -1 2032.36   15.23
   1  -1  -1 2034.89   15.95
   1   1  -1 2030.82   12.72
  -1  -1  -1 2044.94   12.64
   1   1   1 2084.96   15.85
   1   1   1 2057.87   15.54
   1  -1   1 2058.87   15.07
   1   1   2   53.95    2.71
   1  -1   2   49.63    2.32
   1   1   2   53.69    2.57
   1  -1   3 1355.89   12.21
   1   1   3 1341.53   14.58
   1   1   4 1801.31   17.72
   1  -1   4 1785.80   14.05
   1   1   5  535.85    8.63
   1   1   5  542.13   10.20
   1  -1   5  517.48    7.98
   1  -1   6 1059.66   11.55
   1   1   6 1032.84   14.84
   1   1   7  526.96    9.05
   1  -1   7  508.95    8.41
   1   1   8  337.55    7.49
   1  -1   8  333.72    7.23
   1   1   8  332.44    9.10
   1  -1   9  557.63    9.69
   1   1   9  556.90   12.21
   1   1   9  542.76    9.87
   1   1  10  488.45    9.53
   1   1  10  511.48   12.10
  -1  -1  10  495.27    6.25
   1  -1  10  496.65    9.68
   1   1  11  254.28    8.85
   1   1  11  262.67    7.25
   1  -1  11  255.55    7.24
  -1  -1  11  247.67    4.91
   1   1  12  713.84   15.42
   1  -1  12  725.64   12.67
  -1  -1  12  711.68    9.05
   1   1  12  735.30   12.33
  -1   1  12  729.43   14.88
   1   1  13  352.70   11.12
   1  -1  13  340.75    9.13
  -1   1  13  341.60   10.50
   1   1  13  345.32    8.64
  -1  -1  13  345.46    6.76
   1  -1  14   73.12    4.36
   1   1  14   80.60    5.50
   1   1  14   77.65    4.24
  -1  -1  14   71.61    3.24
  -1   1  14   74.09    4.99
  -1   1  15    6.87    1.66
   1  -1  15    8.38    1.62
  -1  -1  15    6.40    1.05
   1   1  15    7.76    1.78
   1   1  15    4.65    1.15
   1   1  16  139.12    5.92
   1  -1  16  129.54    6.25
   1   1  16  132.65    7.53
  -1  -1  16  129.01    4.88
  -1   1  16  139.67    7.35
   1  -1  17   75.10    4.91
   1   1  17   84.27    6.19
  -1   1  17   84.62    5.86
   1   1  17   76.35    4.51
  -1  -1  17   76.64    3.91
  -1   1  18   13.94    2.42
   1  -1  18   12.22    2.20
   1   1  18   16.00    2.72
   1   1  19   78.74    6.33
  -1   1  19   84.79    6.28
  -1   1  20   64.79    5.67
   1   1  20   58.13    5.64
   1   1  21    2.67    1.62
   1  -2 -30    0.25    0.85
  -1  -2 -30    0.22    2.35
   1  -2 -29    3.20    2.42
  -1  -2 -29    1.52    1.88
  -1  -2 -28    5.23    2.39
   1  -2 -28   12.18    3.29
   1  -2 -27    2.44    1.76
  -1  -2 -27   -0.30    1.24
   1  -2 -26    3.25    2.28
  -1  -2 -26    2.87    1.33
  -1  -2 -25   12.04    3.04
   1  -2 -25    8.92    2.96
  -1  -2 -24    5.36    2.39
   1   2 -24    5.85    2.30
   1  -2 -24    1.36    0.99
   1  -2 -23    5.53    2.39
  -1  -2 -23    5.20    2.32
   1   2 -23    6.16    2.40
  -1  -2 -22    6.33    1.88
   1   2 -22    5.96    2.16
   1  -2 -22    4.32    2.36
   1  -2 -21   10.74    3.15
  -1  -2 -21    5.43    2.02
   1   2 -21    7.10    2.71
  -1  -2 -20   38.38    5.16
   1   2 -20   32.61    4.66
   1  -2 -20   30.09    4.72
   1   2 -19   14.73    2.78
   1  -2 -19    8.99    2.77
  -1  -2 -19   12.26    2.94
   1   2 -18    5.06    2.02
  -1  -2 -18   12.09    2.75
   1  -2 -18    9.25    2.85
   1   2 -17   20.44    3.21
   1  -2 -17   17.79    3.37
  -1  -2 -17   18.87    3.74
   1  -2 -16   18.50    3.52
  -1  -2 -16   15.33    3.03
   1   2 -16   18.26    3.00
  -1  -2 -15   17.73    3.31
   1   2 -15   11.64    1.85
   1   2 -15   11.49    2.17
   1  -2 -15   17.33    3.16
   1   2 -14   59.42    4.97
  -1  -2 -14   57.07    5.54
   1  -2 -14   56.44    5.47
   1   2 -14   57.31    3.60
  -1  -2 -13    6.02    1.61
   1   2 -13    4.94    1.41
   1   2 -13    5.28    1.23
  -1   2 -13    5.11    0.68
   1  -2 -13    5.66    1.59
   1   2 -12    2.65    0.78
  -1  -2 -12    2.33    1.49
   1  -2 -12    2.74    1.05
   1   2 -12    2.84    1.24
  -1   2 -12    3.69    0.64
  -1  -2 -11    1.26    1.03
   1   2 -11    0.52    0.47
   1   2 -11    0.48    0.99
  -1   2 -11    0.93    0.24
  -1  -2 -10   31.87    3.66
  -1   2 -10   33.61    2.05
   1  -2 -10   34.46    3.77
   1  -2 -10   28.85    3.16
   1   2 -10   37.70    2.84
   1   2 -10   31.75    2.93
   1  -2  -9  108.62    5.92
   1   2  -9  115.56    5.14
  -1   2  -9  118.92    3.97
   1   2  -9  117.30    5.00
  -1  -2  -9  120.97    6.75
   1  -2  -9  108.51    6.36
   1  -2  -8   74.98    4.83
  -1  -2  -8   77.63    5.09
  -1   2  -8   72.87    3.23
   1   2  -8   79.71    3.98
   1   2  -8   74.97    4.02
   1  -2  -8   74.40    5.14
   1  -2  -7   99.24    5.41
   1  -2  -7  103.46    5.66
   1   2  -7  111.68    4.21
  -1   2  -7  107.37    4.05
   1   2  -7  103.92    4.66
   1  -2  -6  108.67    5.54
  -1   2  -6  109.40    4.18
  -1  -2  -6  118.70    5.72
   1   2  -6  101.42    4.57
   1   2  -6  112.86    3.72
   1  -2  -6  111.88    5.75
   1   2  -5   21.27    2.05
   1  -2  -5   18.01    2.14
  -1   2  -5   20.34    1.80
   1  -2  -5   15.38    2.08
  -1  -2  -5   18.86    2.10
   1  -2  -4  103.53    4.91
  -1  -2  -4  114.63    4.98
   1   2  -4  108.75    4.72
  -1   2  -4  101.27    4.16
   1  -2  -4  104.00    5.09
  -1  -2  -3  841.51   12.43
   1   2  -3  845.49   13.17
   1  -2  -3  892.40   14.52
   1  -2  -3  855.12   13.43
  -1   2  -3  868.68   12.42
  -1   2  -2 2666.57   22.79
   1   2  -2 2707.25   23.74
   1  -2  -2 2757.65   22.16
  -1  -2  -2 2722.96   19.78
   1  -2  -2 2753.03   24.61
  -1  -2  -2 2671.60   24.24
   1  -2  -1 2637.53   20.58
   1  -2  -1 2640.61   23.54
  -1  -2  -1 2607.56   17.01
  -1  -2  -1 2622.71   22.84
  -1   2  -1 2577.83   22.58
   1   2   0 4565.68   31.52
  -1   2   0 4625.42   31.13
   1  -2   0 4777.31   26.10
  -1  -2   0 4786.35   28.98
   1  -2   0 4641.61   30.57
  -1  -2   1 2679.63   20.41
   1   2   1 2616.65   23.86
   1  -2   1 2613.85   18.46
  -1  -2   2 2649.96   19.89
   1  -2   2 2693.31   18.79
  -1  -2   3  839.53   10.49
   1   2   3  836.78   14.01
   1  -2   3  855.26   12.36
  -1  -2   4  113.70    3.54
   1   2   4  102.72    4.90
   1  -2   4  112.16    4.42
   1   2   5   17.13    2.06
  -1  -2   5   18.49    1.31
   1  -2   5   15.01    1.59
   1  -2   6  109.49    4.37
   1   2   6  111.63    5.23
  -1  -2   6  109.27    3.01
   1   2   7  106.05    5.21
   1   2   7  100.53    5.66
   1  -2   7   99.18    4.21
   1  -2   8   77.67    3.72
   1   2   8   83.18    4.76
   1   2   8   79.64    5.08
   1   2   9  113.10    6.26
   1   2   9  109.06    5.53
   1  -2   9  116.64    4.57
   1   2  10   35.99    3.22
   1   2  10   35.48    3.65
   1  -2  10   27.72    2.29
   1  -2  11    0.71    0.33
   1   2  11    1.67    0.82
   1   2  11    2.26    1.28
   1   2  12    3.16    1.25
   1  -2  12    3.59    0.92
   1   2  12    2.63    0.83
   1  -2  13    8.72    1.34
   1   2  13    6.17    1.48
   1   2  13    7.50    1.77
  -1   2  14   54.49    4.85
   1   2  14   58.22    4.37
   1  -2  14   53.46    3.42
   1   2  14   53.11    4.80
   1   2  15   12.85    2.32
   1  -2  15   12.19    1.73
   1   2  15   14.07    2.58
  -1   2  15   16.42    2.88
   1   2  16   13.30    2.69
   1   2  16   13.04    2.19
   1  -2  16   14.88    1.80
  -1   2  16   12.71    2.39
   1  -2  17   10.87    1.68
  -1   2  17   22.98    3.48
  -1   2  17   18.71    2.95
   1   2  17   17.35    2.96
   1   2  17   12.58    2.29
  -1   2  18    8.22    2.01
  -1   2  18    8.18    2.25
   1   2  18    8.47    2.06
   1   2  18    7.81    2.10
   1   2  19   10.63    2.39
  -1   2  19   11.18    2.57
  -1   2  19    7.86    1.93
  -1   2  20   35.42    4.53
   1   2  20   29.06    4.20
  -1   2  21    6.16    1.65
   1   2  21    6.03    2.19
   1   2  22    5.63    2.10
   1   2  23    7.30    2.25
   1  -3 -30   11.90    3.25
  -1  -3 -30   13.21    3.89
  -1  -3 -29   13.95    3.79
   1  -3 -29   11.21    3.97
  -1  -3 -28    3.29    1.39
   1  -3 -28    6.90    2.83
   1  -3 -27    2.14    2.02
  -1  -3 -27    5.59    2.45
  -1  -3 -26   27.62    4.67
   1  -3 -26   30.45    5.37
   1  -3 -25   21.06    4.03
  -1  -3 -25   13.88    3.26
   1  -3 -24   11.23    3.28
  -1  -3 -24    8.90    3.38
  -1  -3 -23   38.39    5.48
   1  -3 -23   35.65    5.44
   1  -3 -22   60.96    7.02
  -1  -3 -22   73.19    7.44
   1  -3 -21   16.72    3.78
  -1  -3 -21   21.98    4.21
  -1  -3 -20   80.73    7.62
   1  -3 -20   88.34    7.99
  -1  -3 -19   82.91    7.75
   1  -3 -19   86.75    7.85
  -1  -3 -18   33.17    4.95
   1  -3 -18   26.73    4.44
  -1  -3 -17  117.93    8.75
   1  -3 -17  120.34    9.04
   1  -3 -16  414.04   15.99
  -1  -3 -16  384.34   15.52
   1  -3 -15   47.56    5.22
  -1  -3 -15   46.83    5.42
   1  -3 -14  373.01   14.45
  -1  -3 -14  357.14   14.22
   1   3 -14  348.59   10.21
  -1  -3 -13  482.67   15.97
  -1   3 -13  463.04    9.92
   1  -3 -12  187.51    9.44
  -1  -3 -12  182.02    9.60
   1   3 -12  183.04    7.42
   1  -3 -12  200.17   10.03
  -1   3 -12  185.93    6.38
   1  -3 -11  162.57    8.72
  -1  -3 -11  153.54    8.51
  -1   3 -11  151.88    5.88
   1  -3 -11  143.87    8.06
   1   3 -11  164.58    7.02
   1  -3 -10  803.88   18.48
  -1   3 -10  788.63   13.70
   1  -3 -10  749.99   18.31
  -1  -3 -10  779.41   18.55
   1   3 -10  790.36   15.32
   1  -3  -9  160.78    8.10
  -1  -3  -9  183.95    8.72
  -1   3  -9  166.45    6.38
   1   3  -9  169.78    7.07
   1  -3  -9  171.11    8.51
   1  -3  -8  118.84    6.85
  -1   3  -8  126.77    5.64
   1  -3  -8  121.92    6.93
  -1  -3  -8  122.32    6.77
   1   3  -8  122.64    6.02
  -1   3  -7  322.83    9.32
   1   3  -7  353.69   10.21
   1  -3  -7  328.77   11.20
   1  -3  -7  349.39   11.29
  -1  -3  -7  342.64   10.96
  -1  -3  -6   38.05    3.50
   1  -3  -6   42.12    4.01
  -1   3  -6   39.07    3.27
   1   3  -6   41.69    3.49
   1  -3  -6   41.23    3.74
   1   3  -5  186.05    7.44
  -1  -3  -5  181.71    7.22
   1  -3  -5  173.67    7.83
   1  -3  -5  204.86    7.98
  -1   3  -5  182.78    7.07
   1  -3  -4  605.87   12.99
   1   3  -4  551.96   12.93
   1  -3  -4  582.84   14.04
  -1  -3  -4  570.88   12.09
  -1  -3  -4  593.25   13.94
  -1   3  -4  579.73   12.67
  -1  -3  -3  139.89    5.55
   1   3  -3  139.14    6.52
  -1   3  -3  141.61    6.28
   1  -3  -3  153.11    6.27
  -1  -3  -3  123.96    6.28
   1  -3  -3  138.28    6.63
   1  -3  -2  140.04    5.71
   1  -3  -2  136.35    6.52
  -1  -3  -2  140.55    5.17
  -1   3  -2  136.28    6.28
  -1  -3  -2  133.55    6.28
   1   3  -2  144.90    6.64
   1  -3  -1  558.33   10.90
  -1  -3  -1  528.33    9.23
  -1   3  -1  577.49   12.99
   1  -3  -1  544.48   12.80
  -1  -3  -1  552.40   12.64
   1   3  -1  542.77   12.93
   1  -3   0 1210.96   18.72
  -1   3   0 1221.39   19.40
  -1  -3   0 1249.41   18.20
  -1  -3   0 1220.76   12.25
   1   3   0 1205.69   19.36
   1  -3   0 1198.08   15.19
   1  -3   1  573.97   10.11
  -1  -3   1  574.18    7.08
  -1   3   1  534.89   13.13
   1  -3   1  568.39   12.45
   1   3   1  545.72   13.13
  -1  -3   1  555.14   11.80
  -1   3   2  147.36    6.86
   1  -3   2  140.49    6.10
   1   3   2  134.10    6.58
   1  -3   2  137.08    4.79
  -1  -3   2  137.74    5.66
  -1  -3   3  126.85    5.29
   1   3   3  128.51    6.46
   1  -3   3  136.67    6.02
  -1   3   3  136.99    6.69
   1  -3   3  127.48    4.56
   1  -3   4  578.90    9.90
   1  -3   4  564.74   12.01
   1   3   4  585.44   14.05
  -1   3   4  569.88   14.08
  -1  -3   4  612.65   11.05
   1   3   5  202.16    8.21
   1  -3   5  197.76    6.99
  -1   3   5  196.68    8.25
  -1  -3   5  204.58    6.21
  -1  -3   6   42.04    2.67
   1  -3   6   41.04    3.10
   1   3   6   41.77    3.84
  -1   3   6   40.63    3.78
   1   3   7  340.32   11.06
  -1  -3   7  346.73    7.47
   1  -3   7  346.48    9.06
  -1   3   7  335.00   11.15
  -1   3   8  138.28    7.46
  -1  -3   8  114.26    4.12
   1  -3   8  131.80    5.46
   1   3   8  124.28    6.65
  -1  -3   9  177.89    4.81
   1  -3   9  182.28    6.42
   1   3   9  165.26    7.87
  -1   3   9  169.51    8.27
   1   3   9  170.56    8.49
  -1   3  10  761.51   17.73
   1  -3  10  818.73   13.64
   1   3  10  778.46   18.83
   1   3  10  758.92   17.18
  -1   3  11  157.08    8.25
   1   3  11  155.52    7.88
   1  -3  11  153.16    5.95
   1   3  11  161.29    8.73
   1   3  12  163.57    8.17
  -1   3  12  186.60    9.15
   1   3  12  174.01    9.29
   1  -3  12  188.70    6.60
   1   3  13  463.94   15.43
  -1   3  13  481.93   14.82
   1   3  13  437.41   13.76
   1  -3  13  481.92   10.54
   1   3  14  365.58   12.74
  -1   3  14  348.03   12.95
   1   3  14  342.96   13.50
   1   3  15   40.91    4.31
  -1   3  15   46.23    4.79
  -1   3  15   43.64    4.98
   1   3  15   45.82    5.19
   1  -3  15   36.76    2.93
   1   3  16  389.18   14.91
  -1   3  16  385.81   14.22
  -1   3  16  374.96   14.51
   1   3  16  385.78   13.73
   1   3  17  115.33    7.62
  -1   3  17  124.12    8.60
   1   3  17  120.07    8.28
  -1   3  17  108.29    7.74
  -1   3  18   23.79    3.81
  -1   3  18   32.26    4.18
   1   3  18   27.60    3.96
   1   3  18   26.11    3.73
   1   3  19   74.97    6.92
  -1   3  19   72.28    6.71
  -1   3  19   71.59    6.50
   1   3  19   70.49    6.19
   1   3  20   98.33    8.21
  -1   3  20   76.63    7.06
  -1   3  20   85.73    7.12
  -1   3  21   13.97    3.21
   1   3  21   13.38    2.94
  -1   3  22   64.50    6.69
   1   3  22   61.76    6.68
   1   3  23   38.97    5.46
  -1   3  23   35.19    5.15
   1   3  24   10.97    2.81
  -1  -4 -29    2.18    1.05
   1  -4 -29    1.17    1.09
   1  -4 -28   -2.44    1.71
  -1  -4 -28   -2.97    1.91
   1  -4 -27    0.49    1.98
  -1  -4 -27    6.02    2.05
  -1  -4 -26   10.51    3.57
   1  -4 -26    5.22    2.03
  -1  -4 -25    0.49    1.71
   1  -4 -25    7.65    2.59
   1  -4 -24    4.22    2.14
  -1  -4 -24    3.96    2.01
   1  -4 -23   20.07    4.12
  -1  -4 -23   14.05    3.34
   1  -4 -22   22.98    4.53
  -1  -4 -22   16.65    3.68
   1  -4 -21   15.61    3.69
  -1  -4 -21   26.41    4.83
  -1  -4 -20    2.11    2.05
   1  -4 -20    0.51    0.94
  -1  -4 -19    4.86    2.48
   1  -4 -19    6.18    2.10
   1  -4 -18    8.94    3.06
  -1  -4 -18   14.39    3.18
   1  -4 -17   14.32    3.12
  -1  -4 -17   14.63    3.22
  -1  -4 -16    7.89    2.57
   1  -4 -16   14.57    3.43
   1  -4 -15   30.39    4.44
  -1  -4 -15   27.88    4.15
   1   4 -14    7.19    1.75
   1  -4 -14    1.95    1.40
  -1  -4 -14    4.95    2.29
  -1   4 -13    4.71    1.28
  -1  -4 -13    7.21    2.09
   1  -4 -13    6.21    1.93
   1   4 -13    8.64    1.96
  -1   4 -12  101.36    5.93
   1  -4 -12   90.07    7.05
   1   4 -12   88.59    5.91
  -1  -4 -12   88.64    6.92
   1  -4 -11   29.45    3.98
  -1  -4 -11   31.29    3.98
   1   4 -11   29.20    3.46
   1  -4 -11   30.17    3.91
  -1   4 -11   25.79    3.13
   1  -4 -10  131.08    8.08
  -1   4 -10  133.20    6.84
   1   4 -10  137.11    7.30
  -1  -4 -10  137.78    8.19
   1  -4 -10  126.93    7.96
   1  -4  -9  233.10   10.36
   1  -4  -9  257.82   11.31
  -1   4  -9  234.94    9.16
  -1  -4  -9  240.87   10.46
   1   4  -9  241.71    9.69
   1  -4  -8  113.55    7.08
   1   4  -8  107.21    6.48
  -1   4  -8  119.78    6.58
  -1  -4  -8  119.35    7.19
   1  -4  -8  108.06    7.26
   1  -4  -7   11.10    2.17
  -1  -4  -7   12.84    2.48
   1  -4  -7   11.06    2.25
  -1   4  -7   12.91    2.26
   1   4  -7   11.46    2.15
   1  -4  -6   63.35    5.24
  -1  -4  -6   59.33    4.75
   1  -4  -6   62.34    4.91
   1   4  -6   64.31    4.99
  -1   4  -6   59.82    4.66
  -1  -4  -6   58.54    5.09
   1  -4  -5   75.29    5.64
   1   4  -5   78.04    5.55
   1  -4  -5   74.96    5.16
  -1   4  -5   70.23    5.14
  -1  -4  -5   79.96    5.94
  -1  -4  -5   74.19    4.97
  -1  -4  -4   50.25    3.87
  -1   4  -4   47.08    4.22
   1  -4  -4   47.30    4.54
  -1  -4  -4   52.08    4.71
   1  -4  -4   46.77    3.99
   1   4  -4   41.50    4.10
  -1   4  -3   41.12    4.04
  -1  -4  -3   43.13    3.40
  -1  -4  -3   48.70    4.35
   1   4  -3   44.68    4.22
   1  -4  -3   49.90    4.44
   1  -4  -3   42.80    3.66
  -1   4  -2  155.00    7.78
  -1  -4  -2  160.71    6.15
   1  -4  -2  158.73    6.75
  -1  -4  -2  163.91    7.90
   1   4  -2  157.70    8.00
   1  -4  -2  152.82    7.80
  -1   4  -1  339.19   11.59
  -1  -4  -1  357.40   11.42
   1  -4  -1  343.28    9.47
   1   4  -1  336.15   11.67
  -1  -4  -1  330.81    8.16
   1  -4  -1  325.37   11.21
  -1  -4   0  881.05   17.87
  -1  -4   0  881.95   12.18
   1  -4   0  891.58   14.67
   1  -4   0  874.83   18.12
   1   4   0  884.41   18.94
  -1   4   0  856.71   18.60
   1  -4   1  324.82   10.97
   1   4   1  330.01   11.63
  -1  -4   1  306.40   10.32
  -1  -4   1  324.34    6.54
  -1   4   1  336.95   11.76
   1  -4   1  339.30    8.66
   1  -4   2  160.96    7.61
  -1   4   2  143.07    7.74
  -1  -4   2  174.28    7.64
  -1  -4   2  159.78    3.97
   1   4   2  160.89    8.08
   1  -4   2  155.90    5.75
  -1  -4   3   37.24    3.40
   1  -4   3   45.68    3.96
   1  -4   3   43.35    3.00
  -1   4   3   43.77    4.33
  -1  -4   3   40.38    1.66
   1   4   3   42.12    4.28
   1  -4   4   51.30    3.12
  -1  -4   4   49.03    3.75
  -1   4   4   46.01    4.56
   1   4   4   57.24    4.78
   1  -4   4   49.80    4.08
  -1   4   5   82.04    5.99
  -1  -4   5   67.19    4.37
   1  -4   5   76.77    5.01
   1   4   5   77.09    5.69
   1  -4   5   87.36    4.15
   1   4   6   58.58    5.06
  -1  -4   6   61.75    4.02
   1  -4   6   60.57    3.58
  -1   4   6   66.62    5.49
   1  -4   6   60.29    4.44
  -1   4   7   13.13    2.45
  -1  -4   7   13.79    1.75
   1  -4   7   11.01    2.00
   1   4   7   11.65    2.36
  -1  -4   7   11.18    0.97
  -1   4   8  106.35    7.22
  -1  -4   8  118.13    5.30
   1   4   8  123.97    7.53
   1  -4   8  106.00    5.69
   1  -4   9  267.06    8.96
   1   4   9  242.91   10.67
  -1  -4   9  263.58    7.64
  -1   4   9  241.24   10.96
   1   4  10  132.28    8.03
  -1  -4  10  139.41    5.35
   1  -4  10  123.40    6.07
  -1   4  10  137.48    8.41
   1   4  11   26.47    3.88
  -1   4  11   23.67    3.61
   1  -4  11   26.79    2.88
  -1  -4  11   28.99    2.30
   1   4  11   29.27    3.94
   1  -4  12   94.65    5.16
  -1  -4  12   79.67    3.69
  -1   4  12  100.13    7.40
   1   4  12   97.70    7.43
   1   4  12   90.49    6.82
   1   4  13    2.22    1.60
   1  -4  13    2.10    0.90
  -1   4  13    6.13    1.80
   1   4  13    2.99    1.40
  -1   4  14    4.11    1.85
   1   4  14    3.25    1.54
   1  -4  14    2.28    0.76
   1   4  14    1.40    0.55
   1   4  15   28.39    4.11
  -1   4  15   27.71    4.07
   1   4  15   31.24    4.41
  -1   4  16    8.57    2.50
  -1   4  16   12.09    3.22
   1   4  16    9.15    2.48
   1   4  16   14.23    2.98
   1   4  17   20.63    3.45
  -1   4  17   19.14    3.20
   1   4  17   13.22    2.81
  -1   4  17   14.24    3.10
  -1   4  18   10.85    3.08
   1   4  18    9.06    2.61
  -1   4  18    9.23    2.53
   1   4  18    1.87    0.94
   1   4  19    5.99    1.75
  -1   4  19    8.01    2.18
  -1   4  19    5.18    2.04
   1   4  19    8.07    2.90
  -1   4  20    1.54    1.22
  -1   4  20    0.71    1.34
   1   4  20    3.08    0.86
   1   4  20    4.57    1.55
  -1   4  21   26.71    4.59
  -1   4  21   20.72    3.82
   1   4  21   29.96    4.91
  -1   4  22   12.43    3.10
   1   4  22   10.76    2.97
  -1   4  23   15.74    3.92
   1   4  23   20.90    4.07
   1   4  24    5.18    2.03
  -1   4  24    9.53    3.16
   1   4  25   -0.35    2.19
   1  -5 -28    1.99    1.59
  -1  -5 -28    1.94    1.49
   1  -5 -27    2.91    1.81
  -1  -5 -27    3.93    2.41
  -1  -5 -26   19.51    4.41
   1  -5 -26    6.34    2.18
  -1  -5 -25   11.74    3.74
   1  -5 -25    8.95    2.95
   1  -5 -24   -0.15    1.77
  -1  -5 -24    0.58    1.55
  -1  -5 -23   15.00    3.59
   1  -5 -23   13.38    2.94
  -1  -5 -22   37.81    5.65
   1  -5 -22   32.71    5.43
  -1  -5 -21   13.90    3.85
   1  -5 -21   11.03    3.52
  -1  -5 -20   11.80    3.09
   1  -5 -20   15.71    3.56
  -1  -5 -19   40.63    5.34
   1  -5 -19   37.45    5.50
  -1  -5 -18   14.06    3.43
   1  -5 -18   12.18    3.49
   1  -5 -17   20.10    4.14
  -1  -5 -17   16.80    3.48
  -1  -5 -16  144.00    9.87
   1  -5 -16  133.86    9.51
  -1  -5 -15   38.56    4.90
   1  -5 -15   26.11    4.23
   1  -5 -14   44.97    5.45
   1   5 -14   45.86    4.87
  -1  -5 -14   50.99    5.78
  -1   5 -13  131.23    7.84
   1   5 -13  120.81    7.79
   1  -5 -13  113.23    8.61
  -1  -5 -13  129.48    8.80
  -1   5 -12   78.99    5.99
  -1  -5 -12   82.71    7.03
   1  -5 -12   92.88    7.47
   1  -5 -12   85.50    7.52
   1   5 -12   73.41    5.91
   1   5 -11   11.04    2.26
  -1   5 -11   21.54    3.21
  -1  -5 -11   12.35    3.02
   1  -5 -11   11.41    2.71
   1  -5 -11   16.11    3.51
  -1  -5 -10  238.18   11.29
   1   5 -10  264.59   11.43
   1  -5 -10  277.93   12.26
   1  -5 -10  236.31   11.82
  -1   5 -10  244.01   10.81
  -1  -5  -9  142.28    8.50
   1  -5  -9  132.98    8.71
  -1   5  -9  156.97    8.57
   1  -5  -9  135.56    8.46
   1   5  -9  162.19    8.85
   1  -5  -8   25.08    3.48
   1  -5  -8   25.49    3.80
  -1   5  -8   23.35    3.38
   1   5  -8   30.01    3.79
  -1  -5  -8   23.68    3.48
  -1  -5  -7  144.16    8.04
   1   5  -7  142.50    8.24
   1  -5  -7  134.90    8.06
  -1   5  -7  137.14    8.11
   1  -5  -7  130.39    8.52
   1  -5  -6  124.12    8.12
  -1   5  -6  110.40    7.24
  -1  -5  -6  118.08    7.04
   1  -5  -6  131.63    7.63
   1   5  -6  114.96    7.58
  -1  -5  -6  119.27    7.98
   1  -5  -5   46.20    4.40
  -1  -5  -5   47.90    5.05
  -1   5  -5   49.56    4.89
   1   5  -5   49.58    4.93
  -1  -5  -5   45.09    4.29
   1  -5  -5   47.97    4.93
   1  -5  -4  198.37    8.86
  -1  -5  -4  205.56    8.46
  -1  -5  -4  210.09   10.31
  -1   5  -4  202.33    9.91
   1   5  -4  176.24    9.31
   1  -5  -4  195.26    9.84
  -1   5  -3  231.29   10.62
  -1  -5  -3  249.31   11.01
  -1  -5  -3  263.03    9.10
   1  -5  -3  253.38    9.72
   1   5  -3  258.94   11.47
   1  -5  -3  273.75   11.56
   1   5  -2   31.70    3.95
   1  -5  -2   30.13    3.92
  -1  -5  -2   27.47    3.61
  -1  -5  -2   33.64    3.03
  -1   5  -2   33.47    4.01
   1  -5  -2   31.72    3.22
  -1  -5  -1   21.74    3.16
  -1  -5  -1   16.79    2.08
   1  -5  -1   17.39    2.43
  -1   5  -1   13.99    2.63
   1   5  -1   19.07    3.07
   1  -5  -1   24.82    3.39
   1   5   0  178.68    9.40
  -1   5   0  160.47    8.84
   1  -5   0  169.26    6.99
   1  -5   0  154.36    8.53
  -1  -5   0  157.83    8.43
  -1  -5   0  160.04    5.90
  -1   5   1   18.18    3.04
  -1  -5   1   18.53    2.96
   1  -5   1   22.32    2.47
   1   5   1   21.06    3.23
   1  -5   1   25.08    3.36
  -1  -5   1   23.55    2.12
   1  -5   2   34.32    2.96
  -1  -5   2   33.51    3.64
   1  -5   2   35.08    3.87
  -1  -5   2   33.60    2.24
   1   5   2   35.50    4.46
  -1   5   2   38.33    4.36
   1  -5   3  247.94    7.81
  -1   5   3  237.34   10.98
  -1  -5   3  242.49    9.98
  -1  -5   3  236.27    5.10
   1  -5   3  269.82   10.81
   1   5   3  245.62   11.20
  -1   5   4  192.38    9.99
   1   5   4  191.85    9.93
   1  -5   4  190.39    9.14
  -1  -5   4  198.97    8.77
   1  -5   4  196.78    6.79
   1  -5   5   50.91    3.46
   1   5   5   50.81    5.18
  -1   5   5   53.22    5.37
   1  -5   5   46.77    4.43
  -1  -5   5   54.22    4.58
   1  -5   6  112.71    5.03
   1  -5   6  122.33    7.09
  -1  -5   6  113.78    6.47
   1   5   6  123.62    8.15
  -1   5   6  124.55    8.30
  -1  -5   7  139.12    7.09
   1  -5   7  135.92    7.62
   1   5   7  144.52    8.91
   1  -5   7  142.61    5.81
  -1   5   7  135.91    8.76
  -1  -5   8   27.32    3.01
   1   5   8   27.55    4.19
  -1   5   8   22.93    3.70
   1  -5   8   26.41    2.61
   1  -5   8   21.95    3.13
   1  -5   9  134.41    6.01
   1  -5   9  124.59    7.10
  -1   5   9  137.73    8.77
   1   5   9  142.53    9.03
  -1   5  10  213.80   11.18
  -1  -5  10  224.44    8.60
   1   5  10  247.89   12.02
   1  -5  10  249.69    9.87
  -1  -5  11   14.48    2.21
  -1   5  11   14.48    3.19
   1   5  11   15.74    3.21
   1  -5  11   10.09    2.02
   1   5  12   89.91    7.49
   1   5  12   98.19    7.89
   1  -5  12   88.28    5.86
  -1  -5  12   88.40    5.00
  -1   5  12   83.32    7.40
   1   5  13  121.74    9.04
   1   5  13  120.01    8.67
  -1   5  13  118.30    8.68
   1  -5  13  113.24    6.45
   1   5  14   51.42    5.50
   1   5  14   56.34    6.15
  -1   5  14   50.80    5.75
  -1   5  15   30.11    4.49
   1   5  15   25.41    4.28
   1   5  15   32.93    4.59
   1   5  16  134.94    9.66
   1   5  16  127.18    9.66
  -1   5  16  122.72    9.19
   1   5  17   18.28    3.27
  -1   5  17   18.39    3.83
   1   5  17   12.94    3.33
  -1   5  17   24.12    4.49
   1   5  18   14.83    3.19
   1   5  18    9.00    2.41
  -1   5  18   14.54    3.30
  -1   5  19   32.44    5.30
  -1   5  19   33.93    4.95
   1   5  19   30.49    4.75
   1   5  19   42.62    5.59
  -1   5  20   23.64    4.30
   1   5  20   18.72    3.56
  -1   5  20   14.83    3.71
   1   5  20   20.16    4.23
   1   5  21    6.07    2.26
  -1   5  21    2.98    2.34
   1   5  22   45.75    6.04
  -1   5  22   38.83    5.97
   1   5  23   10.66    2.90
  -1   5  23   17.02    4.01
   1   5  24   -1.01    1.72
  -1   5  24    0.98    1.66
  -1   5  25    5.08    1.96
   1   5  25    5.46    2.33
   1   5  26   14.12    4.01
  -1  -6 -26   -0.11    1.74
   1  -6 -26    4.03    1.64
  -1  -6 -25    0.72    1.28
   1  -6 -25    1.47    1.80
  -1  -6 -24   -0.46    1.67
   1  -6 -24    0.15    1.27
   1  -6 -23    3.11    1.01
  -1  -6 -23    4.28    2.36
   1  -6 -22   -0.95    2.34
  -1  -6 -22    6.23    2.36
   1  -6 -21    3.03    1.83
  -1  -6 -21    2.13    2.08
  -1  -6 -20   -0.38    0.94
   1  -6 -20    2.55    2.20
   1  -6 -19    3.86    1.98
  -1  -6 -19    2.44    1.71
   1  -6 -18    0.64    1.18
  -1  -6 -18    0.71    1.27
   1  -6 -17    2.96    1.15
  -1  -6 -17    2.76    1.85
   1  -6 -16    2.17    1.83
  -1  -6 -16    3.81    1.74
  -1  -6 -15    3.25    0.79
   1  -6 -15    7.14    2.41
  -1  -6 -14    3.92    1.60
   1  -6 -14    6.07    2.08
   1   6 -13    8.79    2.45
   1  -6 -13   11.73    2.75
  -1  -6 -13   16.77    3.41
   1  -6 -12   13.82    3.37
   1   6 -12   14.85    3.14
  -1  -6 -12   14.24    3.34
   1  -6 -12   15.13    3.32
  -1   6 -12   10.17    2.56
   1   6 -11    7.91    2.38
  -1   6 -11    4.44    1.79
   1  -6 -11    8.49    2.89
   1  -6 -11    4.96    2.18
  -1  -6 -11    4.67    1.51
   1  -6 -10    8.67    2.71
  -1   6 -10    4.71    1.90
   1   6 -10    8.77    2.42
  -1  -6 -10    7.31    2.55
   1  -6 -10    8.67    2.54
  -1   6  -9    8.46    2.48
   1   6  -9    3.63    1.44
  -1  -6  -9    8.93    2.57
   1  -6  -9    6.09    1.88
   1  -6  -9    7.35    2.42
   1  -6  -8    1.78    1.20
  -1   6  -8    1.24    0.97
   1   6  -8    0.63    0.61
  -1  -6  -8    1.77    1.47
   1  -6  -8    0.57    0.87
   1  -6  -7   41.52    4.99
   1  -6  -7   29.82    4.09
  -1   6  -7   33.74    4.46
  -1  -6  -7   34.80    4.34
   1   6  -7   40.23    4.88
   1  -6  -6   39.25    4.61
  -1  -6  -6   43.53    4.67
  -1   6  -6   36.96    4.83
   1   6  -6   48.65    5.56
  -1  -6  -6   39.72    4.77
   1  -6  -6   45.16    5.15
   1   6  -5   80.02    6.97
  -1  -6  -5   83.03    6.05
  -1   6  -5   76.84    6.62
  -1  -6  -5   83.71    7.04
   1  -6  -5   82.24    6.99
   1  -6  -5   80.11    6.21
   1  -6  -4   63.63    5.43
  -1   6  -4   61.11    5.98
   1   6  -4   68.58    6.42
  -1  -6  -4   54.70    5.67
   1  -6  -4   74.49    6.49
  -1  -6  -4   68.35    5.31
  -1  -6  -3   42.41    3.90
   1  -6  -3   38.77    4.64
   1   6  -3   50.32    5.29
  -1   6  -3   48.42    5.47
   1  -6  -3   43.72    4.39
  -1  -6  -3   43.61    4.98
  -1  -6  -2   48.67    5.32
  -1  -6  -2   41.90    3.72
   1   6  -2   40.87    5.09
   1  -6  -2   44.05    5.00
  -1   6  -2   52.55    5.57
   1  -6  -2   53.00    4.72
   1   6  -1   19.15    3.35
   1  -6  -1   25.81    3.05
  -1   6  -1   21.98    3.57
  -1  -6  -1   19.54    2.51
  -1  -6  -1   20.55    3.53
   1  -6  -1   19.68    3.43
  -1  -6   0   29.39    2.80
  -1   6   0   26.76    4.06
   1  -6   0   31.27    4.15
   1  -6   0   27.59    3.17
  -1  -6   0   29.44    3.91
   1   6   0   25.65    4.09
   1   6   1   20.67    3.52
   1  -6   1   18.58    2.48
  -1   6   1   15.58    2.84
  -1  -6   1   19.70    3.13
   1  -6   1   21.52    3.38
  -1  -6   1   24.37    2.40
  -1  -6   2   44.39    4.59
  -1   6   2   54.59    5.76
   1  -6   2   55.54    4.15
   1   6   2   51.53    5.52
   1  -6   2   41.22    4.68
  -1  -6   2   39.96    2.76
   1  -6   3   38.79    3.41
   1   6   3   51.30    5.45
  -1  -6   3   43.27    4.79
  -1  -6   3   39.60    2.42
  -1   6   3   40.61    4.95
   1  -6   3   43.88    4.85
  -1  -6   4   61.84    5.70
   1   6   4   67.67    6.37
  -1   6   4   70.71    6.66
   1  -6   4   64.57    5.72
   1  -6   4   60.71    4.03
   1   6   5   76.65    6.99
  -1   6   5   79.53    7.06
   1  -6   5   77.31    4.53
  -1  -6   5   89.24    6.57
   1  -6   5   75.85    6.28
   1  -6   6   43.39    3.35
  -1   6   6   56.98    5.93
   1   6   6   50.31    5.70
   1  -6   6   43.92    4.78
  -1  -6   6   41.82    4.40
  -1   6   7   48.56    5.58
   1   6   7   37.78    4.93
   1  -6   7   34.58    2.98
  -1  -6   7   34.70    4.16
   1  -6   7   39.38    4.42
  -1   6   8    0.19    1.56
  -1  -6   8    1.87    1.03
   1  -6   8    1.83    0.86
   1   6   8   -0.31    1.00
   1   6   9    8.57    2.50
   1  -6   9    4.34    1.57
  -1   6   9    6.97    2.69
  -1  -6   9    6.56    1.56
   1   6  10    6.00    1.77
  -1   6  10    5.98    2.41
  -1  -6  10    5.23    1.50
   1  -6  10    7.72    2.08
   1  -6  11    5.62    1.83
  -1   6  11    3.95    1.51
  -1  -6  11    5.53    1.72
   1   6  11    4.10    2.44
  -1   6  12   13.38    3.08
   1   6  12   13.04    3.29
   1   6  12   13.23    3.03
   1  -6  12   14.15    2.52
   1   6  13   12.16    3.09
   1   6  13   14.57    3.21
  -1   6  13   10.28    2.94
   1   6  14    6.04    2.03
   1   6  14    8.82    3.09
  -1   6  14    5.39    2.35
   1   6  15    6.73    2.45
  -1   6  15    2.91    2.04
   1   6  15    3.82    1.46
   1   6  16    0.87    0.74
  -1   6  16    1.89    1.10
  -1   6  17    1.07    0.79
   1   6  17    3.12    2.12
  -1   6  17    3.64    1.86
   1   6  17    2.34    1.91
  -1   6  18    0.45    0.91
  -1   6  18    1.52    0.82
   1   6  18   -0.91    1.60
   1   6  18   -0.74    1.70
  -1   6  19    2.53    1.84
  -1   6  19    1.35    0.90
   1   6  19    1.40    1.56
   1   6  19   -1.71    1.70
  -1   6  20   -1.82    2.07
   1   6  20    0.66    1.46
   1   6  20   -0.52    1.94
  -1   6  20    1.41    1.26
   1   6  21    1.40    2.15
  -1   6  21    4.78    1.86
  -1   6  21    3.52    2.37
   1   6  21    1.23    0.82
  -1   6  22    2.24    1.32
   1   6  22    7.34    3.25
  -1   6  23    3.84    2.10
   1   6  23    0.64    1.01
   1   6  24    0.62    1.91
  -1   6  24   -1.76    2.28
   1   6  25    3.79    2.36
  -1   6  25    3.77    2.66
   1   6  26    1.51    2.15
  -1   6  26    1.95    1.24
  -1  -7 -25    6.08    2.87
   1  -7 -25    2.26    2.43
   1  -7 -24    4.17    2.01
  -1  -7 -24    3.75    1.53
  -1  -7 -23   16.78    3.68
   1  -7 -23   19.32    4.22
  -1  -7 -22    7.88    3.29
   1  -7 -22    8.25    2.86
   1  -7 -21    1.30    1.81
  -1  -7 -21    5.37    2.63
  -1  -7 -20    9.77    3.53
   1  -7 -20    9.50    3.14
   1  -7 -19    5.98    2.69
  -1  -7 -19   12.24    3.72
  -1  -7 -18   -1.06    2.17
   1  -7 -18   -0.08    1.09
   1  -7 -17   10.62    2.76
  -1  -7 -17    6.78    2.91
   1  -7 -16   24.66    4.78
  -1  -7 -16   30.23    4.76
  -1  -7 -15   -0.95    1.56
   1  -7 -15    6.14    2.86
   1  -7 -14    9.53    2.72
  -1  -7 -14   15.31    3.64
  -1  -7 -13   21.22    4.12
   1   7 -13   21.56    4.00
   1  -7 -13   20.41    3.87
   1  -7 -12   13.09    3.49
   1  -7 -12    7.82    2.01
  -1   7 -12   11.67    3.02
  -1  -7 -12   14.29    3.39
   1   7 -12   10.35    3.05
   1  -7 -11    5.26    1.20
  -1   7 -11    5.16    2.35
   1   7 -11    0.45    1.86
   1  -7 -11    2.60    1.93
  -1  -7 -11    2.22    1.82
   1  -7 -10   56.95    6.32
  -1  -7 -10   67.18    6.68
   1  -7 -10   64.08    6.52
   1   7 -10   66.42    6.54
  -1   7 -10   53.99    6.25
   1   7  -9   51.79    5.88
   1  -7  -9   50.68    5.81
   1  -7  -9   40.97    5.62
  -1  -7  -9   31.15    4.56
  -1   7  -9   36.71    4.96
   1  -7  -8    1.84    1.12
   1   7  -8    1.68    1.21
  -1   7  -8    3.00    2.32
   1  -7  -8    3.44    2.32
  -1  -7  -8    3.05    1.53
  -1   7  -7   44.66    5.65
   1   7  -7   47.12    5.90
   1  -7  -7   38.87    4.88
   1  -7  -7   58.56    6.29
  -1  -7  -7   39.89    4.82
   1   7  -6   95.53    8.09
  -1   7  -6  116.00    8.98
   1  -7  -6   88.49    7.86
  -1  -7  -6  102.02    7.28
   1  -7  -6   96.22    7.32
  -1  -7  -5   34.47    4.15
   1   7  -5   36.75    5.05
   1  -7  -5   37.85    4.45
  -1   7  -5   28.23    4.47
   1  -7  -5   27.52    4.55
  -1   7  -4   58.95    6.41
   1   7  -4   66.72    6.85
   1  -7  -4   69.29    6.14
   1  -7  -4   60.79    6.51
  -1  -7  -4   65.31    5.68
  -1  -7  -4   62.38    6.46
   1   7  -3  137.75   10.03
  -1  -7  -3  143.71    7.87
  -1  -7  -3  132.56    9.16
   1  -7  -3  136.39    8.14
   1  -7  -3  147.35    9.94
  -1   7  -3  113.48    8.78
   1  -7  -2   49.41    4.85
  -1   7  -2   53.56    6.06
  -1  -7  -2   49.38    4.44
  -1  -7  -2   53.70    6.02
   1  -7  -2   55.00    5.89
   1   7  -2   63.63    6.50
  -1  -7  -1    2.34    1.07
   1   7  -1    3.34    2.05
   1  -7  -1    2.96    0.77
  -1  -7  -1    3.27    0.85
   1  -7  -1    3.59    1.52
  -1   7  -1    4.48    2.20
   1  -7   0   25.57    3.91
  -1  -7   0   25.22    4.14
  -1   7   0   27.26    4.65
   1  -7   0   28.28    3.41
   1   7   0   26.82    4.32
   1  -7   1    3.04    1.36
  -1   7   1    4.75    2.06
  -1  -7   1    3.81    1.78
   1  -7   1    3.79    1.72
   1   7   1    3.94    2.03
  -1  -7   2   56.45    5.90
   1  -7   2   48.54    4.34
   1   7   2   55.53    6.37
  -1   7   2   57.14    6.54
   1  -7   2   47.49    5.51
  -1  -7   3  134.37    8.96
   1   7   3  145.97   10.13
   1  -7   3  135.54    9.20
  -1   7   3  149.38   10.29
   1  -7   4   58.58    5.99
  -1  -7   4   52.46    5.48
   1   7   4   69.85    6.97
  -1   7   4   49.36    6.19
  -1   7   5   35.04    5.04
  -1  -7   5   31.72    4.33
   1   7   5   25.42    4.24
   1  -7   5   36.06    4.81
   1   7   6  100.50    8.71
  -1   7   6   86.38    8.05
  -1  -7   6   91.64    7.24
   1  -7   6   98.23    7.59
  -1   7   7   50.00    6.15
  -1  -7   7   45.87    5.01
   1  -7   7   43.25    5.16
   1   7   7   44.57    5.92
  -1   7   8    2.13    1.75
   1  -7   8   -0.15    1.02
  -1  -7   8    2.06    1.26
  -1  -7   9   45.33    4.88
   1   7   9   45.78    6.08
  -1   7   9   43.00    5.55
   1  -7   9   44.32    5.03
  -1  -7  10   61.35    5.69
   1  -7  10   59.31    5.87
  -1   7  10   54.95    6.47
   1   7  10   70.06    7.34
   1  -7  11    8.04    2.24
   1   7  11    7.27    2.49
  -1   7  11    2.23    0.97
   1   7  12    4.37    0.78
  -1   7  12    8.35    2.15
   1   7  12    8.24    2.74
   1   7  13   11.89    3.64
  -1   7  13   11.43    2.99
   1   7  14   13.72    3.50
   1   7  14    4.65    1.91
  -1   7  14   12.18    2.87
   1   7  15    4.08    2.17
  -1   7  15    3.50    2.01
   1   7  15    3.34    2.35
   1   7  16   26.29    4.76
   1   7  16   27.81    5.05
  -1   7  16   23.78    4.55
  -1   7  17    9.67    2.66
   1   7  17   16.29    3.84
   1   7  17   15.41    3.93
  -1   7  17   13.40    3.34
  -1   7  18    3.40    2.55
   1   7  18    0.23    1.88
  -1   7  18    2.26    1.81
   1   7  18   -3.19    2.37
   1   7  19    5.97    2.27
  -1   7  19   12.85    3.76
  -1   7  19    8.30    2.91
   1   7  19    8.18    2.70
  -1   7  20   10.28    3.57
   1   7  20   10.76    3.04
   1   7  20   10.24    3.44
  -1   7  20   10.73    3.08
   1   7  21    1.86    1.26
  -1   7  21   -0.17    1.54
   1   7  21   -0.63    1.75
  -1   7  22    7.52    3.13
   1   7  22    2.71    2.72
  -1   7  23   12.84    4.05
   1   7  23   19.85    4.46
   1   7  24    6.64    2.89
  -1   7  24    1.38    1.72
  -1   7  25    1.04    2.19
   1   7  25    1.70    2.30
   1  -8 -22    4.21    1.87
  -1  -8 -22    2.14    2.40
   1  -8 -21    1.89    1.38
  -1  -8 -21    0.88    1.04
  -1  -8 -20   -2.53    2.26
   1  -8 -20    5.66    2.42
   1  -8 -19    0.74    1.93
  -1  -8 -19   -1.11    1.79
  -1  -8 -18    2.50    2.43
   1  -8 -18    2.99    2.18
   1  -8 -17    3.08    1.83
  -1  -8 -17    2.28    2.17
  -1  -8 -16    1.46    2.14
   1  -8 -16    0.26    2.03
  -1  -8 -15    1.07    2.00
   1  -8 -15   -1.04    1.44
   1  -8 -14    0.78    0.90
  -1  -8 -14   -0.70    2.03
   1  -8 -13    1.48    2.26
  -1  -8 -13    4.09    1.78
   1   8 -12    0.68    1.16
   1  -8 -12   -0.05    1.36
  -1  -8 -12    0.78    1.60
  -1   8 -11    4.53    2.13
  -1  -8 -11    7.43    2.74
   1  -8 -11    7.81    2.66
   1   8 -11    8.20    2.21
   1   8 -10    0.26    1.57
  -1   8 -10    2.34    1.80
  -1  -8 -10   -0.32    0.85
   1  -8 -10    0.34    1.11
   1  -8 -10    2.08    1.46
   1  -8  -9    2.38    1.08
  -1  -8  -9    0.33    1.26
   1   8  -9    1.94    1.94
  -1   8  -9    2.50    0.82
   1  -8  -9    2.49    1.78
   1  -8  -8    1.97    1.71
   1  -8  -8    1.79    2.13
  -1   8  -8    2.82    2.13
  -1  -8  -8    2.41    1.30
   1   8  -8    0.93    0.97
  -1  -8  -7    3.68    1.85
  -1   8  -7   -0.10    1.13
   1  -8  -7    2.07    0.80
   1  -8  -7    0.61    1.19
   1   8  -7   -1.11    1.81
  -1  -8  -6   34.76    4.46
   1  -8  -6   30.29    4.83
   1   8  -6   25.33    4.64
   1  -8  -6   39.89    5.44
  -1   8  -6   44.91    6.00
   1  -8  -5    7.58    2.22
   1   8  -5    9.77    2.70
  -1   8  -5   11.69    2.53
   1  -8  -4    5.30    1.91
   1   8  -4    0.35    1.09
  -1   8  -4    5.52    2.34
   1  -8  -4    8.95    2.49
  -1   8  -3    9.66    2.81
   1  -8  -3    7.59    2.86
   1   8  -3    7.27    2.27
   1  -8  -3    5.97    1.50
   1   8  -2   33.43    5.39
   1  -8  -2   34.85    5.14
  -1  -8  -2   40.34    5.73
  -1   8  -2   23.61    4.29
   1   8  -1    6.62    1.88
   1  -8  -1    2.51    1.80
  -1   8  -1    1.33    1.82
  -1  -8  -1    6.62    2.52
  -1  -8   0   10.65    2.75
  -1   8   0    8.50    2.64
   1   8   0   13.06    3.62
   1  -8   0   18.50    3.58
  -1   8   1    4.05    1.90
  -1  -8   1    2.94    2.09
   1   8   1    4.89    1.81
   1  -8   1    3.68    2.18
   1   8   2   32.58    5.35
  -1   8   2   36.01    5.11
   1  -8   2   25.65    4.65
  -1  -8   2   27.47    4.44
   1   8   3   14.19    3.71
  -1   8   3   10.44    2.81
   1  -8   3   10.54    2.70
  -1  -8   3    7.89    2.30
  -1   8   4    4.44    2.56
   1   8   4    1.59    1.29
   1  -8   4    6.49    2.40
  -1   8   5   18.79    3.75
   1   8   5   11.26    2.75
  -1  -8   5   13.68    3.04
   1  -8   5   11.58    2.98
  -1   8   6   44.27    6.00
   1  -8   6   37.63    5.05
  -1  -8   6   33.10    5.02
   1   8   6   42.58    5.86
  -1   8   7    3.97    2.47
   1   8   7   -0.01    2.18
   1  -8   7    0.47    1.63
  -1  -8   7   -1.12    1.85
   1   8   8    5.31    2.28
   1  -8   8    6.51    2.58
  -1  -8   8    3.15    1.23
  -1   8   8    1.65    1.77
  -1   8   9    0.83    1.82
   1   8   9   -1.48    1.32
   1  -8   9    0.28    1.70
  -1   8  10    1.17    1.43
   1   8  10   -2.68    2.12
   1   8  11    8.15    2.88
   1   8  11    5.15    1.60
  -1   8  11    4.24    3.09
  -1   8  12   -0.31    1.59
   1   8  12    1.79    2.30
   1   8  12    1.21    1.22
   1   8  13    8.46    3.13
   1   8  13    4.26    2.04
  -1   8  14   -0.54    0.93
   1   8  14    0.89    1.06
   1   8  14    2.04    1.46
  -1   8  15    0.71    2.03
   1   8  15   -0.36    1.68
   1   8  15   -1.09    1.09
   1   8  16    0.74    2.31
  -1   8  16    0.39    1.14
   1   8  16   -0.20    1.24
  -1   8  16    2.23    1.75
  -1   8  17    1.08    1.14
  -1   8  17    0.39    1.24
   1   8  17    2.68    1.99
   1   8  17   -0.60    1.07
  -1   8  18    1.79    2.35
  -1   8  18    3.42    2.36
   1   8  18    2.46    2.60
   1   8  18   -1.31    2.06
  -1   8  19    3.50    2.42
  -1   8  19   -1.89    1.68
   1   8  19    0.27    1.09
   1   8  19    5.68    3.18
  -1   8  20    1.59    1.64
   1   8  20    0.13    1.36
  -1   8  20    0.89    1.04
   1   8  20    1.48    1.97
   1   8  21   -0.93    1.37
  -1   8  21    0.29    1.51
  -1   8  21    1.79    1.79
  -1   8  22   -0.33    1.41
   1   8  22    0.76    1.50
  -1   8  22    2.98    2.39
   1  -9 -20    7.34    3.57
  -1  -9 -20    8.56    3.20
   1  -9 -19    1.55    1.58
  -1  -9 -19    5.77    2.87
   1  -9 -18   -0.09    1.81
  -1  -9 -18   -0.37    1.95
  -1  -9 -17    5.66    2.11
   1  -9 -17   10.45    3.32
   1  -9 -16   11.79    3.69
  -1  -9 -16    9.76    3.52
  -1  -9 -15    2.38    1.80
   1  -9 -15    4.29    1.95
   1  -9 -14   11.23    3.43
  -1  -9 -14    4.21    2.77
  -1  -9 -13   12.19    3.62
   1  -9 -13   16.82    3.91
   1  -9 -12    4.77    1.56
  -1  -9 -12    8.49    2.55
   1   9 -11    2.15    1.51
   1  -9 -11    1.60    1.46
  -1   9 -10   22.65    4.85
   1  -9 -10   24.88    4.71
   1   9 -10   21.42    4.27
  -1   9  -9   13.45    3.94
   1  -9  -9   11.29    3.30
   1   9  -9    7.58    3.18
   1  -9  -9   13.27    3.65
   1   9  -8   -0.78    1.84
   1  -9  -8   -0.86    0.80
  -1   9  -8    2.40    2.47
  -1   9  -7   25.63    4.59
   1  -9  -7   17.17    3.72
   1   9  -7   20.27    4.14
   1   9  -6   50.79    6.69
   1  -9  -6   53.71    6.81
  -1   9  -6   34.44    5.41
   1   9  -5    1.47    0.78
  -1   9  -5    0.03    1.23
   1  -9  -5    2.24    2.03
   1  -9  -4   30.20    5.08
   1   9  -4   25.75    5.16
  -1   9  -4   36.27    5.47
  -1   9  -3   36.11    5.68
   1   9  -3   48.72    6.40
   1  -9  -3   36.83    5.47
  -1   9  -2   18.69    4.47
   1   9  -2   13.67    3.24
   1  -9  -2   16.83    3.58
   1  -9  -1    6.41    2.10
  -1   9  -1    3.50    1.84
   1   9  -1    7.00    2.61
   1   9   0   36.56    5.79
   1  -9   0   25.38    4.27
  -1   9   0   29.44    5.04
   1   9   1    5.06    2.17
  -1   9   1    3.78    1.88
   1  -9   1    7.34    2.81
   1  -9   2   18.41    3.91
   1   9   2   23.74    4.80
  -1   9   2   24.30    4.43
  -1   9   3   38.63    5.97
   1  -9   3   37.48    5.51
   1   9   3   43.83    5.83
   1  -9   4   24.73    4.94
  -1   9   4   26.77    4.93
   1   9   4   31.60    5.58
  -1   9   5    2.77    2.24
   1   9   5    4.97    2.41
   1  -9   5    5.50    2.45
   1   9   6   38.95    5.88
  -1   9   6   51.15    6.78
   1  -9   6   49.90    6.41
  -1   9   7   16.59    4.14
   1   9   7   26.53    4.68
   1  -9   7   29.72    5.03
   1  -9   8    0.75    1.17
  -1   9   8    3.36    2.23
   1   9   8    0.68    1.06
  -1   9   9    8.32    3.58
   1   9   9    8.40    3.22
   1   9   9   12.17    3.10
  -1   9  10   25.95    4.91
   1   9  10   17.31    4.12
   1   9  10   15.01    3.69
   1   9  11    6.50    3.21
  -1   9  11    7.27    2.53
   1   9  11    8.45    2.97
   1   9  12    3.41    1.90
  -1   9  12   -0.16    1.66
   1   9  13    6.71    2.52
   1   9  13   12.88    3.66
  -1   9  13   15.20    3.95
   1   9  14    5.24    2.61
  -1   9  14    3.27    1.40
   1   9  15    5.56    2.98
   1   9  15   10.27    3.71
  -1   9  15    4.40    3.10
  -1   9  15    6.60    2.93
  -1   9  16    7.57    2.94
   1   9  16   17.54    4.49
  -1   9  16   15.22    2.86
   1   9  16   11.64    2.98
   1   9  17    6.72    2.48
   1   9  17    9.92    3.35
  -1   9  17    6.62    2.63
  -1   9  17    6.67    3.26
  -1   9  18    0.38    1.67
   1   9  18    3.35    2.32
  -1   9  18    1.90    1.64
   1   9  18    3.85    2.94
   1   9  19   14.08    3.73
  -1   9  19    4.63    1.53
  -1   9  19    6.22    2.87
   1   9  19    8.16    3.35
   1   9  20    7.59    3.08
   1   9  20    8.02    3.65
  -1   9  20    3.75    1.96
  -1   9  20    7.04    3.69
   1  10 -11   -0.97    1.15
  -1  10 -10    6.32    3.45
   1  10 -10    6.70    3.43
  -1  10  -9    9.28    3.28
   1  10  -9    5.77    2.53
  -1  10  -8   -1.72    1.36
   1  10  -8    1.91    1.83
  -1  10  -7   10.19    3.45
   1  10  -7    7.51    3.18
   1  10  -6   16.62    4.64
   1 -10  -6   18.78    3.78
  -1  10  -6   10.65    3.55
   1  10  -5    3.08    2.10
  -1  10  -5    1.52    1.52
   1 -10  -5    3.87    1.47
   1  10  -4    5.97    2.64
  -1  10  -4   16.80    4.42
   1 -10  -4   13.66    3.69
   1  10  -3    1.35    0.96
  -1  10  -3    2.76    1.77
   1 -10  -3    5.24    2.59
   1  10  -2    4.47    2.18
  -1  10  -2    7.09    2.97
   1 -10  -2    4.76    1.84
   1  10  -1    5.29    2.77
   1 -10  -1    3.44    3.20
  -1  10  -1    0.74    1.20
   1 -10   0    1.56    1.41
  -1  10   0    3.31    2.22
  -1  10   1    4.35    2.61
   1  10   1    0.26    1.11
   1 -10   1    5.95    2.60
  -1  10   2    3.43    1.10
   1 -10   2    3.27    1.25
   1  10   2    3.58    2.23
   1  10   3    4.14    2.40
   1 -10   3    4.92    2.93
  -1  10   3    5.89    2.79
  -1  10   4    7.77    2.91
   1  10   4    7.57    2.62
   1 -10   4   13.06    3.47
   1 -10   5    1.96    2.04
  -1  10   5    3.61    2.59
   1  10   5    3.34    2.45
  -1  10   6   15.41    3.95
   1  10   6    7.81    2.60
   1 -10   6   21.09    4.74
   1  10   7    2.02    2.17
  -1  10   7    4.55    1.40
   1  10   7    0.17    2.00
   1  10   8   -0.58    1.74
   1  10   8    1.67    1.34
  -1  10   8   -0.32    1.53
   1  10   9    7.71    2.62
  -1  10   9    6.92    3.02
   1  10   9    5.29    2.10
   1  10  10    8.86    3.16
  -1  10  10    5.52    2.28
   1  10  10    4.89    2.34
   1  10  11    4.06    1.39
   1  10  11    3.96    1.17
   1  10  12    3.97    3.08
   1  10  12   11.56    3.93
  -1  10  12   10.83    4.45
   1  10  13    9.19    3.69
  -1  10  13    5.71    2.54
   1  10  13    8.07    2.97
  -1  10  14    3.68    2.07
   1  10  14    0.50    1.12
   1  10  14    4.76    2.48
  -1  10  14    4.10    2.76
   1  10  15    6.05    2.93
   1  10  15    5.86    3.36
  -1  10  15   -0.17    0.94
  -1  10  15    1.30    2.08
   1  10  16    1.31    1.59
  -1  10  16    2.41    2.19
   1  10  16    1.92    2.32
  -1  10  16    5.83    3.30
   1  11 -10   -0.48    0.86
   1  11  -9    3.65    2.26
   1  11  -8   -2.53    2.81
  -1  11  -8    0.94    1.59
  -1  11  -7    4.93    2.83
   1  11  -7   12.13    3.58
  -1  11  -6    4.86    1.82
   1  11  -6    4.70    2.25
   1  11  -5    1.80    2.20
  -1  11  -5    2.41    2.12
  -1  11  -4    2.56    2.50
   1  11  -4    8.80    3.05
  -1  11  -3    5.30    2.27
   1  11  -3    7.03    3.62
   1  11  -2    7.66    3.10
  -1  11  -2    3.12    2.45
   1  11  -2    1.65    1.62
  -1  11  -1    7.31    2.75
   1  11  -1    3.04    1.54
   1  11  -1    5.01    2.15
   1  11   0    8.06    2.98
  -1  11   0   11.26    2.94
   1 -11   0   17.59    4.21
   1  11   0    8.05    3.56
  -1  11   1    5.22    3.14
   1 -11   1    5.29    2.53
   1  11   1    5.55    2.82
   1  11   1    6.91    3.07
   1  11   2    2.36    2.76
  -1  11   2    4.22    2.40
   1  11   2    4.61    2.40
   1 -11   2    6.51    2.73
   1  11   3   10.18    3.67
   1  11   3    7.17    2.69
   1 -11   3    6.30    2.51
  -1  11   3    5.13    2.87
   1  11   4    5.40    2.87
   1 -11   4    5.33    1.37
  -1  11   4    5.50    2.80
   1  11   4    7.58    3.45
   1 -11   5    0.58    2.00
   1  11   5    3.82    3.08
   1  11   5    6.74    3.41
  -1  11   5    0.40    1.43
   1  11   6   13.86    3.94
   1  11   6   11.47    3.38
  -1  11   6    9.01    3.13
   1  11   7    8.28    3.14
  -1  11   7    3.64    2.07
   1  11   7    4.95    2.16
   1  11   8   -0.68    1.25
   1  11   8    1.53    1.16
  -1  11   8   -1.42    2.22
  -1  11   9    6.43    2.45
   1  11   9    1.62    1.97
   1  11   9    4.96    3.71
  -1  11  10   13.55    4.21
   1  11  10   12.11    3.71
   1  11  10    6.34    3.68
   2   0 -31   -0.25    1.38
   2   0 -30   15.29    4.08
   2   0 -29   17.48    4.23
   2   0 -28   12.85    3.45
   2   0 -27    7.67    2.71
   2   0 -26   -0.30    1.53
   2   0 -25   37.10    5.47
   2   0 -24   37.58    5.55
   2   0 -23   93.08    8.72
   2   0 -22   20.77    4.18
  -2   0 -22   15.29    3.29
  -2   0 -21   57.25    6.34
   2   0 -21   62.68    6.66
  -2   0 -20   25.74    4.31
   2   0 -20   31.11    4.65
   2   0 -19  382.39   15.57
  -2   0 -19  370.04   15.52
   2   0 -18   11.00    2.85
  -2   0 -18    8.03    2.74
   2   0 -17  169.55    9.78
  -2   0 -17  195.31   10.70
  -2   0 -16   13.72    2.61
   2   0 -16   17.39    3.07
   2   0 -15  314.86   12.75
  -2   0 -15  334.63   13.29
  -2   0 -14   14.01    2.71
   2   0 -14   18.72    2.97
  -2   0 -13 2945.80   36.89
   2   0 -13 2953.68   35.77
   2   0 -12   31.26    3.57
  -2   0 -12   41.13    4.30
  -2   0 -11  206.38    9.13
   2   0 -11  210.80    8.84
   2   0 -10 1678.96   23.73
  -2   0 -10 1693.43   24.99
  -2   0  -9 1261.91   20.44
   2   0  -9 1268.02   13.63
  -2   0  -8  373.15   10.58
   2   0  -8  352.13    9.88
   2   0  -8  375.31    6.99
   2   0  -7 5505.67   25.84
  -2   0  -7 5521.30   38.76
   2   0  -7 5434.73   36.83
   2   0  -6  381.90    9.09
   2   0  -6  390.96    6.56
   2   0  -5 1639.65   16.33
   2   0  -5 1616.43   17.60
   2   0  -3 4589.51   25.97
   2   0  -1  307.59    5.99
   2   0  -1  313.04    5.59
   2   0  -1  304.03    5.95
   2   0   0    3.74    0.64
   2   0   0    3.90    0.66
   2   0   1  301.89    5.40
   2   0   1  305.47    6.01
   2   0   3 4645.68   26.07
   2   0   5 1672.28   17.05
   2   0   5 1666.23   10.29
   2   0   6  385.36    8.64
   2   0   7 5505.18   34.08
   2   0   8  362.48    9.17
   2   0   9 1230.81   17.59
   2   0  10 1708.37   21.50
  -2   0  11  218.81    6.22
   2   0  11  230.01    8.10
  -2   0  12   35.33    2.62
   2   0  12   38.42    3.42
  -2   0  13 3041.01   25.31
   2   0  13 2975.02   31.40
  -2   0  14   19.97    2.15
   2   0  14   16.84    2.30
   2   0  15  321.32   10.87
  -2   0  15  307.78    8.66
  -2   0  16   17.06    2.09
   2   0  16   12.33    2.07
   2   0  17  165.78    8.42
  -2   0  17  158.68    6.72
   2   0  18    8.08    1.99
  -2   0  18    7.27    1.42
   2   0  19  356.50   13.03
   2   0  20   29.96    3.90
   2  -1 -31   -0.30    1.52
   2  -1 -30   -2.22    2.29
   2  -1 -29    0.90    2.53
   2   1 -29   -0.85    1.95
   2   1 -28    2.81    2.03
   2  -1 -28    2.05    2.29
   2   1 -27    5.37    2.72
   2  -1 -27    0.11    1.17
   2   1 -26    2.73    2.25
  -2  -1 -26   -0.09    1.60
   2  -1 -26    1.70    1.04
   2   1 -25   -0.06    1.51
  -2  -1 -25    1.64    1.69
   2  -1 -25    1.93    1.91
  -2  -1 -24    0.38    0.91
   2  -1 -24    2.54    2.02
   2   1 -24    2.51    1.94
   2   1 -23    4.67    2.38
  -2  -1 -23    1.15    1.64
   2  -1 -23    1.82    1.20
  -2  -1 -22   10.17    2.92
   2   1 -22   14.17    2.96
   2  -1 -22    9.49    3.48
  -2  -1 -21    8.05    2.34
   2  -1 -21   11.81    2.97
   2   1 -21    4.78    2.06
   2  -1 -20   24.75    4.02
  -2  -1 -20   30.31    4.62
   2   1 -20   19.79    3.49
   2   1 -19    3.40    1.76
  -2  -1 -19    0.93    1.18
   2  -1 -19    0.51    0.57
   2  -1 -18   27.29    3.96
   2   1 -18   24.96    3.72
  -2  -1 -18   29.75    4.34
  -2  -1 -17    5.47    1.91
   2   1 -17    1.53    0.58
   2  -1 -17    3.01    1.89
   2   1 -16   15.90    2.91
   2  -1 -16   16.82    3.05
  -2  -1 -16   15.54    3.12
  -2  -1 -15   27.97    3.91
   2   1 -15   27.99    3.72
   2  -1 -15   32.55    4.11
   2   1 -14   83.03    6.04
   2  -1 -14  100.25    7.12
  -2  -1 -14   82.78    6.46
  -2  -1 -13   30.43    3.91
   2  -1 -13   25.27    3.51
   2   1 -13   28.19    3.38
   2  -1 -12  396.74   13.19
  -2  -1 -12  387.15   13.35
   2   1 -12  403.62   12.18
   2   1 -11   14.58    2.16
   2  -1 -11   10.99    2.18
   2   1 -11   20.31    2.23
   2  -1 -11   16.92    2.27
  -2  -1 -11   14.08    2.68
  -2  -1 -10   19.34    2.78
   2   1 -10   17.87    2.23
   2  -1 -10   19.17    2.78
   2  -1 -10   15.65    2.02
   2   1 -10   17.45    2.01
  -2  -1  -9   63.30    4.77
   2  -1  -9   70.65    4.17
   2   1  -9   76.28    4.53
   2  -1  -9   69.20    4.90
   2   1  -9   70.12    3.93
   2  -1  -8  117.89    5.24
   2   1  -8  116.71    5.16
   2   1  -8  106.77    4.68
  -2  -1  -8  110.25    5.96
   2  -1  -8   97.83    5.61
   2   1  -7   60.08    3.46
   2   1  -7   59.75    3.42
   2  -1  -7   60.96    3.70
  -2  -1  -7   64.99    4.31
   2  -1  -7   61.91    4.25
   2   1  -6  577.78    9.93
  -2  -1  -6  578.37   12.30
   2   1  -6  573.39   10.30
   2  -1  -6  588.17   12.47
   2  -1  -6  588.33   10.96
   2  -1  -5   16.22    1.70
   2   1  -5   14.01    1.37
   2   1  -5   14.13    1.60
   2  -1  -5   13.31    1.75
  -2  -1  -5   10.02    1.44
   2  -1  -4   83.84    4.21
   2   1  -4   86.99    3.88
  -2  -1  -4   86.72    4.19
   2  -1  -4   80.22    3.83
   2   1  -4   80.40    2.98
   2   1  -3  788.72    7.54
   2  -1  -3  754.74   12.03
   2   1  -3  778.77   11.33
   2   1  -3  776.67    8.41
  -2  -1  -3  749.06   11.38
   2  -1  -3  750.07   11.30
   2   1  -2  100.72    3.07
   2  -1  -2  100.21    4.19
   2   1  -2  101.59    2.82
   2   1  -2   97.61    3.98
   2  -1  -2   96.29    3.92
   2   1  -1   20.84    1.73
   2   1  -1   21.52    1.54
   2  -1  -1   18.33    1.67
   2  -1  -1   23.16    1.92
   2   1   0    1.22    0.37
   2  -1   0    1.31    0.61
   2   1   0    1.28    0.49
   2  -1   0    1.33    0.48
   2   1   1   23.23    1.84
   2  -1   1   19.75    1.77
   2   1   2  100.92    4.11
   2   1   2   99.03    3.86
   2  -1   2  101.86    3.96
   2   1   3  775.27   10.73
   2  -1   3  781.61   11.06
   2   1   3  789.49   11.94
   2   1   4   84.57    4.11
   2  -1   4   81.26    3.71
   2   1   4   86.93    3.60
   2   1   5   12.72    1.39
   2   1   5   14.97    1.81
   2  -1   5   11.80    1.42
   2   1   6  573.36    9.60
   2   1   6  584.06   11.78
   2  -1   6  591.12   10.35
   2  -1   7   59.13    3.35
   2   1   7   59.67    3.08
   2   1   7   60.59    3.91
   2   1   8  109.92    4.32
   2  -1   8   97.64    4.52
   2   1   8  100.15    5.26
   2  -1   9   74.56    4.09
   2   1   9   72.93    4.66
   2   1   9   69.87    3.46
   2   1  10   17.12    2.29
   2  -1  10   21.77    2.34
   2   1  10   20.09    1.90
   2   1  11   15.13    2.29
   2  -1  11   12.83    1.79
   2   1  11   15.77    1.72
   2   1  12  404.88    8.92
   2  -1  12  391.44   10.34
   2   1  12  413.79   12.16
  -2  -1  13   20.34    1.33
   2   1  13   23.47    3.04
   2   1  13   25.10    2.26
   2  -1  13   28.04    2.90
   2  -1  14   92.93    5.45
  -2   1  14   88.61    5.46
  -2  -1  14   77.82    2.78
   2   1  14   94.07    6.19
   2   1  14   93.17    4.42
   2   1  15   26.50    3.54
  -2   1  15   19.65    2.63
   2  -1  15   21.96    2.64
  -2  -1  15   18.70    1.46
   2   1  15   22.94    2.20
  -2  -1  16   15.91    1.41
   2   1  16   17.44    2.03
  -2   1  16   17.52    2.62
   2   1  16   21.93    3.22
   2  -1  16   15.14    2.28
   2   1  17    4.43    1.26
   2   1  17    0.75    1.01
   2  -1  17    3.22    1.43
  -2   1  17    5.03    1.61
  -2   1  18   30.66    3.73
   2  -1  18   22.66    3.00
   2   1  18   23.33    3.45
   2  -1  19    4.88    1.74
   2   1  19    4.00    1.37
  -2   1  19    0.20    0.78
   2   1  20   19.74    3.40
   2   1  21    8.35    2.36
   2   1  22    7.82    2.07
   2  -2 -30    2.80    1.66
   2  -2 -29   35.14    6.17
  -2  -2 -28   11.92    4.06
   2  -2 -28   14.40    3.49
  -2  -2 -27    4.30    2.37
   2  -2 -27    6.57    2.66
   2  -2 -26    5.54    2.98
  -2  -2 -26    4.10    1.93
   2   2 -25   53.56    7.23
  -2  -2 -25   40.49    5.90
   2  -2 -25   56.03    7.00
   2  -2 -24    3.74    0.85
   2   2 -24    6.25    2.54
  -2  -2 -24    6.37    2.03
   2  -2 -23  131.75   10.29
  -2  -2 -23  112.73    9.47
   2   2 -23  105.13    9.08
   2   2 -22    1.71    1.26
   2  -2 -22    4.03    2.08
  -2  -2 -22    3.96    2.41
   2  -2 -21    0.34    1.65
   2   2 -21    0.42    1.18
  -2  -2 -21    1.44    1.36
   2  -2 -20   10.71    3.22
  -2  -2 -20   16.48    3.29
   2   2 -20   11.72    2.57
   2  -2 -19  129.69    9.53
  -2  -2 -19  133.37    9.57
   2   2 -19  137.20    9.05
  -2  -2 -18   34.49    4.81
   2  -2 -18   44.10    5.58
   2   2 -18   37.21    4.49
  -2  -2 -17  170.57   10.36
   2  -2 -17  162.15   10.00
   2   2 -17  163.16    9.27
   2   2 -16    4.09    1.73
  -2  -2 -16    3.37    0.97
   2  -2 -16    5.08    1.85
   2   2 -15   22.83    3.22
   2   2 -15   20.86    2.46
   2  -2 -15   17.23    3.09
  -2  -2 -15   27.40    3.90
   2   2 -14    3.42    0.70
   2  -2 -14    6.05    1.99
   2   2 -14    5.07    1.29
  -2  -2 -14    4.96    1.89
   2   2 -13  562.05   14.35
   2  -2 -13  563.36   16.77
   2   2 -13  562.39   12.85
  -2  -2 -13  555.30   16.73
   2  -2 -13  568.33   15.27
   2   2 -12  132.79    6.19
   2  -2 -12  136.43    7.24
  -2  -2 -12  133.15    7.91
   2   2 -12  133.43    6.56
   2  -2 -12  133.95    7.93
   2   2 -11    3.47    1.03
   2  -2 -11    3.08    1.49
  -2  -2 -11    3.82    1.75
   2   2 -11    4.67    1.17
   2  -2 -11    2.93    1.25
  -2   2 -11    2.20    0.46
   2  -2 -10   93.17    6.18
  -2   2 -10   83.49    2.88
   2  -2 -10   77.33    5.18
   2   2 -10   89.54    4.76
  -2  -2 -10   87.21    6.03
   2   2 -10   82.44    4.69
  -2   2  -9  436.32    7.15
  -2  -2  -9  441.87   12.96
   2   2  -9  423.26    9.85
   2  -2  -9  420.16   11.86
   2   2  -9  418.53   10.57
   2  -2  -9  460.35   13.47
  -2  -2  -8   21.01    2.64
   2  -2  -8   26.16    3.09
   2   2  -8   27.60    2.29
   2  -2  -8   24.49    2.74
  -2   2  -8   28.53    1.95
   2   2  -8   25.97    2.50
   2   2  -7  422.26   10.26
  -2  -2  -7  438.56   11.77
  -2   2  -7  447.85    8.11
   2  -2  -7  444.09   11.65
   2  -2  -7  438.50   12.11
   2   2  -7  449.45    8.24
   2   2  -6   20.28    1.59
  -2   2  -6   17.78    1.69
   2  -2  -6   13.83    2.08
   2  -2  -6   23.07    2.62
   2   2  -6   19.35    2.23
  -2  -2  -6   19.39    2.36
   2   2  -6   20.32    1.23
   2  -2  -5   49.47    3.73
   2   2  -5   53.04    3.56
  -2  -2  -5   52.18    3.63
   2   2  -5   53.00    2.11
  -2   2  -5   55.27    3.09
   2   2  -5   56.98    2.33
   2  -2  -5   45.24    3.61
   2   2  -4  135.58    5.63
   2  -2  -4  128.54    5.84
   2   2  -4  134.40    4.05
  -2  -2  -4  137.28    5.52
   2  -2  -4  140.17    6.06
  -2   2  -4  135.35    4.89
   2  -2  -3 2035.42   22.28
   2   2  -3 2043.43   17.00
   2   2  -3 2000.03   21.73
   2  -2  -3 1990.09   22.56
  -2  -2  -3 2063.73   19.87
   2   2  -2  287.32    6.76
   2   2  -2  284.92    8.17
  -2  -2  -2  288.09    6.75
   2  -2  -2  286.23    8.04
   2  -2  -2  275.96    8.23
   2   2  -1  728.88   11.37
   2  -2  -1  707.63   12.20
   2  -2  -1  722.17   13.14
  -2  -2  -1  734.35    9.70
   2   2  -1  725.46   13.21
   2  -2   0  113.16    5.04
   2  -2   0  126.60    4.92
   2   2   0  122.03    4.92
   2  -2   1  723.14   12.84
   2   2   1  736.94   13.22
   2  -2   1  750.64   11.74
   2   2   1  724.96   12.52
   2   2   2  272.82    8.14
   2  -2   2  266.41    7.07
   2  -2   2  279.65    7.85
   2   2   2  287.12    8.20
   2   2   3 2037.18   22.26
   2   2   3 1991.04   22.59
   2  -2   3 2054.23   21.03
   2   2   4  138.26    5.88
   2  -2   4  131.69    5.37
   2   2   4  136.25    6.08
   2   2   5   58.08    4.16
   2  -2   5   55.83    3.45
   2   2   5   53.45    3.67
   2   2   6   23.61    2.77
   2  -2   6   23.29    2.20
   2   2   6   20.28    2.33
   2   2   7  447.47   12.06
   2   2   7  436.02   10.72
   2  -2   7  440.39    9.99
   2   2   8   28.61    3.09
   2  -2   8   29.37    2.61
   2   2   8   29.10    2.80
   2   2   9  446.19   11.07
   2  -2   9  420.76   10.03
   2   2   9  423.37   12.42
   2  -2  10   89.36    4.71
   2   2  10   88.88    5.77
   2   2  10   86.74    4.95
   2   2  11    1.82    0.66
   2  -2  11    2.82    0.83
   2   2  12  143.93    6.65
   2  -2  12  135.47    6.03
   2   2  12  134.57    7.44
   2  -2  13  555.88   12.72
   2   2  13  577.78   13.48
   2   2  13  586.71   16.12
   2   2  14    2.63    1.43
   2   2  14    5.17    1.41
   2  -2  14    4.00    1.23
   2   2  15   22.44    3.32
   2   2  15   20.30    2.60
   2  -2  15   21.30    2.59
  -2   2  16    4.31    1.74
   2   2  16    4.50    1.60
   2   2  16    3.13    1.17
   2  -2  16    2.34    0.74
   2  -2  17  157.22    7.47
   2   2  17  168.44    9.51
  -2   2  17  157.91    8.94
   2   2  17  165.60    7.72
   2   2  18   29.54    3.34
   2   2  18   32.60    4.30
  -2   2  18   36.08    4.32
  -2   2  19  124.85    8.31
   2   2  19  133.41    8.93
  -2   2  20    8.58    2.26
   2   2  20   12.10    2.80
  -2   2  21    0.50    0.87
   2   2  21    2.49    1.72
   2   2  22    2.55    2.11
   2   2  23  107.02    8.99
   2  -3 -30    0.76    1.37
  -2  -3 -30   -1.39    1.18
  -2  -3 -29    7.39    2.19
   2  -3 -29    1.86    1.45
   2  -3 -28   -0.45    1.40
  -2  -3 -28   -0.85    1.51
   2  -3 -27   -0.43    1.24
  -2  -3 -27   -2.32    1.86
  -2  -3 -26    1.44    2.30
   2  -3 -26    0.35    1.16
  -2  -3 -25   12.97    3.47
   2  -3 -25   10.00    3.00
   2  -3 -24    1.60    1.69
  -2  -3 -24    3.95    2.13
   2  -3 -23    2.29    2.11
  -2  -3 -23    2.57    1.40
   2  -3 -22    0.30    1.16
  -2  -3 -22    1.98    1.70
  -2  -3 -21    8.28    2.76
   2  -3 -21    4.27    2.30
  -2  -3 -20    4.08    2.07
   2  -3 -20    5.12    1.92
   2   3 -20   -0.54    0.63
   2   3 -19    0.95    1.28
   2  -3 -19    0.12    1.08
  -2  -3 -19    1.13    1.36
   2  -3 -18    5.22    2.16
   2   3 -18    6.95    1.85
  -2  -3 -18    4.35    1.57
   2  -3 -17    1.51    0.80
  -2  -3 -17   -0.63    1.36
   2   3 -17    2.28    1.57
   2   3 -16    2.51    1.42
  -2  -3 -16    1.54    1.31
   2  -3 -16    3.50    0.58
   2  -3 -15    4.29    1.93
   2   3 -15    4.40    1.33
  -2  -3 -15    3.51    1.58
   2   3 -15    3.18    1.02
   2   3 -14    6.36    1.57
   2  -3 -14    7.67    2.07
   2  -3 -14    8.31    2.33
   2   3 -14    9.44    1.88
  -2  -3 -14   12.10    2.66
  -2  -3 -13    3.35    1.36
   2   3 -13    2.30    1.11
   2   3 -13    2.84    1.10
   2  -3 -13    1.84    1.32
  -2   3 -13    3.84    1.11
   2  -3 -13    4.36    1.34
   2   3 -12   41.70    3.77
   2  -3 -12   33.73    4.10
   2  -3 -12   36.88    4.14
   2   3 -12   35.25    3.30
  -2   3 -12   38.88    2.74
  -2  -3 -12   40.78    4.57
   2  -3 -11   41.08    4.30
  -2   3 -11   44.10    3.00
   2  -3 -11   39.48    4.35
   2   3 -11   36.91    3.13
  -2  -3 -11   29.77    3.78
   2   3 -11   36.76    3.57
  -2   3 -10   31.78    2.66
  -2  -3 -10   30.43    3.70
   2  -3 -10   28.59    3.40
   2  -3 -10   29.87    3.63
   2   3 -10   35.95    2.72
   2   3 -10   33.18    3.32
   2   3  -9   42.16    3.70
  -2   3  -9   44.91    3.34
   2   3  -9   43.12    2.80
   2  -3  -9   43.13    4.30
  -2  -3  -9   39.87    4.08
   2  -3  -9   41.23    4.22
   2   3  -9   41.24    2.01
  -2   3  -8    2.31    0.94
   2   3  -8    1.84    0.91
   2   3  -8    1.94    0.64
   2  -3  -8    3.24    1.44
  -2  -3  -8    0.73    0.62
   2  -3  -8    1.98    1.18
   2   3  -7   21.72    1.79
  -2   3  -7   26.62    2.63
   2  -3  -7   15.87    2.45
  -2  -3  -7   26.14    3.05
   2  -3  -7   24.59    3.01
   2   3  -7   25.06    2.92
   2   3  -6    1.94    0.82
  -2   3  -6    2.53    0.81
   2  -3  -6    1.42    0.83
   2  -3  -6    1.54    0.94
  -2  -3  -6    0.79    0.61
  -2   3  -5  140.17    6.24
   2  -3  -5  160.16    7.68
   2  -3  -5  156.15    7.23
  -2  -3  -5  154.18    6.70
   2   3  -5  148.56    6.91
  -2  -3  -4   15.16    1.95
  -2   3  -4   14.48    1.95
   2   3  -4   14.65    2.26
   2  -3  -4   10.19    1.73
   2  -3  -4   12.59    2.09
  -2  -3  -3   10.27    1.52
  -2   3  -3   10.34    1.88
   2  -3  -3   10.21    1.81
   2   3  -3   13.50    2.14
   2  -3  -3    9.81    1.74
   2  -3  -2   67.88    4.32
   2  -3  -2   61.81    4.49
   2   3  -2   73.03    4.86
  -2  -3  -2   68.71    3.58
  -2   3  -2   71.38    4.63
   2  -3  -1  989.60   15.98
   2  -3  -1  997.96   18.03
  -2  -3  -1  990.74   12.51
   2   3  -1  959.47   17.73
  -2   3  -1  996.54   17.26
   2   3   0  110.06    5.98
  -2  -3   0  113.10    3.66
   2  -3   0  115.23    6.07
   2  -3   0  108.18    5.10
   2  -3   1 1025.86   17.55
   2   3   1  999.31   18.15
   2  -3   1 1020.29   15.28
   2   3   2   67.53    4.74
   2  -3   2   67.29    3.84
   2  -3   2   69.13    4.53
   2  -3   3   12.38    1.87
   2  -3   3   11.74    1.58
   2   3   3   12.22    2.03
   2   3   3   10.18    1.89
   2   3   4   14.45    2.05
   2  -3   4   15.02    1.76
   2   3   4   17.98    2.53
   2  -3   4   14.28    2.11
   2  -3   5  144.81    6.45
   2   3   5  151.30    7.22
   2   3   5  153.30    7.50
   2   3   6    2.00    0.82
   2   3   6    3.08    1.20
   2  -3   6    1.69    0.59
   2  -3   7   23.01    2.53
   2   3   7   21.76    2.75
   2   3   7   21.70    3.07
   2   3   8    0.53    0.57
   2   3   8    0.35    0.38
   2   3   9   43.12    4.01
   2  -3   9   39.56    3.39
   2   3   9   38.75    4.14
   2   3  10   29.66    3.44
   2   3  10   21.84    3.18
   2  -3  10   28.35    2.87
   2   3  11   33.35    4.00
   2  -3  11   34.83    3.12
   2   3  11   34.78    3.78
   2   3  12   33.07    4.05
   2  -3  12   36.78    3.23
   2   3  12   35.48    3.80
   2   3  13    2.17    1.53
   2  -3  13    1.15    0.29
   2   3  13    4.27    1.61
   2   3  14    5.30    1.61
   2  -3  14    7.31    1.48
   2   3  14    8.85    2.07
   2  -3  15    3.62    1.14
   2   3  15    3.74    1.35
   2   3  15    6.42    1.86
   2   3  16    3.42    1.11
   2   3  16    4.35    1.36
   2  -3  16    1.74    1.03
   2   3  17    3.45    1.71
   2   3  17    1.13    0.92
  -2   3  18    3.54    1.01
   2   3  18    3.95    1.89
   2   3  18    2.34    1.69
  -2   3  18    4.19    1.89
  -2   3  19    0.90    1.07
   2   3  19    1.23    1.95
  -2   3  19    0.93    1.33
   2   3  20    4.06    1.88
  -2   3  20    3.47    1.81
  -2   3  20    3.40    1.84
  -2   3  21    7.74    2.37
   2   3  21    8.97    2.70
  -2   3  22   -0.41    1.27
   2   3  22    0.85    1.55
   2   3  23    1.89    1.64
   2   3  24    0.34    1.69
   2  -4 -29   20.28    4.60
  -2  -4 -29   26.43    5.14
  -2  -4 -28   -0.27    2.14
   2  -4 -28   11.90    3.76
   2  -4 -27    0.77    1.19
  -2  -4 -27    3.95    1.09
  -2  -4 -26    2.24    2.60
   2  -4 -26    3.87    1.75
  -2  -4 -25   37.30    6.19
   2  -4 -25   43.14    6.41
   2  -4 -24    2.78    2.54
  -2  -4 -24    1.57    0.80
  -2  -4 -23   30.97    4.99
   2  -4 -23   41.57    6.03
  -2  -4 -22    2.48    1.56
   2  -4 -22   -0.13    1.77
  -2  -4 -21    0.27    1.52
   2  -4 -21    0.33    0.97
  -2  -4 -20    5.08    2.44
   2  -4 -20    5.18    2.30
   2  -4 -19  112.03    8.94
  -2  -4 -19  127.21    9.93
  -2  -4 -18   36.12    5.00
   2  -4 -18   31.80    5.02
  -2  -4 -17  134.09    9.48
   2  -4 -17  134.13    9.58
  -2  -4 -16    3.68    1.64
   2  -4 -16    1.60    1.45
   2  -4 -15   30.03    4.45
  -2  -4 -15   30.04    4.53
   2  -4 -15   27.88    4.21
   2   4 -15   23.38    3.34
   2  -4 -14   53.77    5.62
   2  -4 -14   56.21    5.77
  -2  -4 -14   59.68    6.18
   2   4 -14   46.52    4.51
   2  -4 -13  373.62   14.65
   2   4 -13  328.07   12.01
  -2  -4 -13  338.28   13.98
   2  -4 -13  334.75   13.77
   2  -4 -12   98.07    7.44
  -2  -4 -12  108.24    7.56
   2  -4 -12  121.15    8.20
  -2   4 -12  110.82    6.04
   2   4 -12  110.84    6.94
   2  -4 -11   57.21    5.55
  -2   4 -11   46.52    3.98
   2   4 -11   63.54    5.11
  -2  -4 -11   57.41    5.46
   2  -4 -11   51.07    5.24
  -2   4 -10    2.90    0.96
   2  -4 -10    1.63    1.43
  -2  -4 -10    3.21    1.50
   2   4 -10    2.40    0.59
   2   4 -10    3.91    1.32
   2  -4 -10    2.31    1.41
   2  -4  -9  344.16   12.90
   2   4  -9  354.41   12.12
   2  -4  -9  350.46   13.18
  -2   4  -9  354.99   11.24
  -2  -4  -9  382.49   13.18
  -2   4  -8   54.52    4.44
   2  -4  -8   50.32    4.83
  -2  -4  -8   55.42    4.84
   2   4  -8   58.48    5.02
   2  -4  -8   47.01    4.72
   2  -4  -7  100.54    6.69
  -2   4  -7   97.39    6.01
  -2  -4  -7   93.41    6.09
   2   4  -7  100.09    6.48
   2  -4  -7  101.49    6.97
  -2  -4  -6   48.65    4.26
  -2   4  -6   44.55    4.00
   2  -4  -6   49.99    4.50
   2   4  -6   45.61    4.38
   2  -4  -6   49.43    4.75
  -2   4  -5   31.69    3.45
  -2  -4  -5   25.18    2.96
   2   4  -5   29.71    3.50
   2  -4  -5   32.22    3.52
   2  -4  -5   32.40    3.87
  -2  -4  -4  112.62    5.78
   2   4  -4  109.57    6.70
  -2   4  -4  123.17    6.84
   2  -4  -4  108.93    6.79
   2  -4  -4  116.07    6.54
  -2  -4  -3  299.15    9.03
   2  -4  -3  297.16   11.50
   2   4  -3  312.58   11.36
   2  -4  -3  312.19   10.30
  -2   4  -3  297.55   10.80
   2   4  -2   42.52    4.29
  -2  -4  -2   37.15    2.97
   2  -4  -2   46.55    4.35
   2  -4  -2   33.27    3.22
  -2   4  -2   37.25    3.90
   2   4  -1 1381.55   24.22
  -2  -4  -1 1437.77   16.57
   2  -4  -1 1480.23   24.38
  -2   4  -1 1472.83   24.25
   2  -4  -1 1419.49   20.85
   2  -4   0  165.02    6.90
   2  -4   0  160.38    7.89
   2   4   0  148.50    7.93
  -2   4   0  159.00    8.08
  -2  -4   0  158.58    4.95
   2   4   1 1441.68   24.81
   2  -4   1 1423.38   23.62
  -2  -4   1 1465.34   13.01
   2  -4   1 1445.24   20.04
  -2   4   1 1447.01   24.43
   2   4   2   36.69    3.99
   2  -4   2   41.22    3.94
  -2   4   2   41.83    4.39
   2  -4   2   34.94    3.05
  -2   4   3  310.56   11.63
   2   4   3  330.87   11.89
   2  -4   3  313.86   10.87
   2  -4   3  325.55    9.22
   2  -4   4  107.72    5.35
   2   4   4  112.11    6.97
  -2   4   4  117.65    7.20
   2  -4   4  112.88    6.36
   2   4   5   27.79    3.58
   2  -4   5   26.43    2.73
   2  -4   5   26.84    3.12
  -2   4   5   31.50    3.75
   2   4   6   47.38    4.63
  -2   4   6   47.11    4.64
   2  -4   6   47.89    4.11
   2  -4   6   48.92    3.68
   2   4   6   46.05    4.66
   2   4   7   90.07    6.42
   2   4   7   96.70    6.82
  -2   4   7   90.24    6.57
   2  -4   7   97.00    5.84
   2  -4   8   55.67    4.39
  -2   4   8   50.25    5.05
   2   4   8   54.48    5.08
   2   4   8   51.63    5.05
   2   4   9  347.61   12.97
   2   4   9  375.78   14.04
   2  -4   9  357.76   11.12
  -2   4   9  358.99   13.40
  -2   4  10    2.16    1.25
   2   4  10   -0.12    0.94
   2   4  10    2.75    1.19
   2  -4  10    2.90    1.24
   2   4  11   54.99    5.15
  -2   4  11   49.15    5.24
   2   4  11   53.95    5.36
   2  -4  11   52.19    4.18
   2   4  12  110.63    7.54
   2   4  12   90.45    7.23
   2  -4  12  109.01    6.22
  -2   4  12  118.13    8.06
  -2   4  13  319.10   13.49
   2   4  13  332.93   13.35
   2   4  13  337.30   14.12
   2  -4  13  335.62   10.88
   2   4  14   50.22    5.23
   2   4  14   52.39    5.70
   2  -4  14   46.81    4.11
  -2   4  14   60.50    5.91
   2   4  15   28.11    4.01
   2   4  15   25.90    4.02
  -2   4  15   30.28    4.31
   2  -4  15   22.52    2.94
   2   4  16    1.19    0.98
   2   4  16    2.08    1.64
  -2   4  16    5.01    2.44
   2   4  17  122.63    9.15
   2   4  17  131.06    8.80
  -2   4  17  131.38    9.16
  -2   4  18   35.23    4.95
   2   4  18   32.75    4.24
  -2   4  18   45.08    5.67
   2   4  18   38.62    5.14
  -2   4  19  118.81    9.39
  -2   4  19  107.96    8.88
   2   4  19  120.13    8.74
   2   4  19  116.66    9.17
  -2   4  20    5.52    2.40
   2   4  20    7.58    2.83
  -2   4  20    5.10    1.89
   2   4  21   -0.35    1.07
  -2   4  21    2.31    1.64
  -2   4  21    2.60    2.35
  -2   4  22   -0.52    1.61
   2   4  22    4.81    2.57
  -2   4  23   29.37    4.92
   2   4  23   34.16    5.15
   2   4  24    1.96    0.82
   2   4  25   39.72    6.12
  -2  -5 -28    2.27    1.93
   2  -5 -28   -1.18    1.28
  -2  -5 -27    7.06    3.22
   2  -5 -27    0.74    1.14
   2  -5 -26   -0.47    1.15
  -2  -5 -26    1.96    1.22
   2  -5 -25    5.80    2.58
  -2  -5 -25    9.59    3.51
  -2  -5 -24    4.84    2.36
   2  -5 -24    1.26    1.39
   2  -5 -23   -1.33    1.22
  -2  -5 -23    6.85    2.82
  -2  -5 -22    3.91    1.93
   2  -5 -22    4.64    2.40
  -2  -5 -21    1.03    1.49
   2  -5 -21    1.31    1.44
  -2  -5 -20    1.24    1.90
   2  -5 -20    0.81    1.89
   2  -5 -19    7.40    2.43
  -2  -5 -19    9.85    2.67
  -2  -5 -18    0.81    1.43
   2  -5 -18   -2.12    1.74
  -2  -5 -17    3.39    1.88
   2  -5 -17    5.29    1.60
  -2  -5 -16    8.21    2.77
   2  -5 -16    9.91    2.90
   2  -5 -15    1.09    1.01
   2  -5 -15    1.30    0.80
   2  -5 -14    2.87    1.90
  -2  -5 -14    1.02    0.90
   2  -5 -14    4.88    2.08
   2   5 -14    4.36    1.80
   2  -5 -13   49.04    5.64
  -2  -5 -13   51.28    5.70
   2  -5 -13   58.16    5.98
   2   5 -13   52.02    5.22
   2   5 -12   20.13    3.35
  -2   5 -12   20.93    3.07
   2  -5 -12   16.12    3.25
   2  -5 -12   21.35    3.75
  -2  -5 -12   18.04    3.23
   2  -5 -11    0.36    0.80
  -2  -5 -11    3.27    1.54
   2  -5 -11    1.36    0.66
  -2   5 -11    0.60    1.12
   2   5 -11    2.24    1.00
  -2  -5 -10   16.97    3.13
   2  -5 -10   12.42    2.88
  -2   5 -10   14.35    2.58
   2  -5 -10   20.83    3.42
   2   5 -10   20.88    3.16
   2  -5  -9   11.30    2.70
  -2  -5  -9   10.38    2.30
   2   5  -9   12.90    2.70
  -2   5  -9   13.42    2.54
   2  -5  -9   11.04    2.84
   2   5  -8    4.36    1.86
   2  -5  -8    7.00    2.01
  -2  -5  -8    6.01    1.61
   2  -5  -8    3.26    1.82
  -2   5  -8    5.82    1.80
   2   5  -7    0.05    1.26
  -2   5  -7   -0.12    0.50
   2  -5  -7    0.16    1.40
  -2  -5  -7    0.79    0.94
   2  -5  -7    0.89    1.18
   2  -5  -6    5.78    1.69
  -2  -5  -6    2.97    1.21
  -2   5  -6    6.32    1.90
   2   5  -6    3.66    1.31
   2  -5  -6    3.93    1.49
  -2  -5  -5   20.63    2.91
   2  -5  -5   25.72    3.43
  -2   5  -5   21.22    3.17
   2  -5  -5   18.38    3.11
   2   5  -5   17.79    2.87
  -2  -5  -4   65.94    4.82
   2   5  -4   74.27    6.16
  -2   5  -4   63.90    5.52
   2  -5  -4   69.72    5.42
   2  -5  -4   54.18    5.19
   2  -5  -3   66.77    5.16
   2  -5  -3   62.01    5.66
   2   5  -3   68.11    5.97
  -2  -5  -3   68.35    4.61
  -2   5  -3   72.79    6.02
   2  -5  -2    4.60    1.53
   2   5  -2    3.45    0.96
  -2   5  -2    4.09    1.60
   2  -5  -2    5.33    1.62
  -2  -5  -2    3.25    0.79
  -2  -5  -1  280.03    8.12
  -2   5  -1  263.59   11.34
   2  -5  -1  289.92   11.85
   2   5  -1  276.92   11.75
   2  -5  -1  267.55    9.77
   2  -5   0   31.84    3.90
   2   5   0   30.95    4.08
   2  -5   0   29.24    3.18
  -2   5   0   36.18    4.27
  -2  -5   0   31.25    2.50
   2  -5   1  271.80    9.46
  -2   5   1  259.76   11.59
   2  -5   1  268.12   11.34
   2   5   1  263.23   11.77
  -2  -5   1  266.47    6.40
  -2  -5   2    6.62    1.67
   2  -5   2    5.28    1.31
  -2   5   2    7.27    1.98
   2   5   2    3.65    1.41
  -2  -5   2    3.86    0.69
   2  -5   2    4.58    1.56
   2   5   3   73.66    6.38
   2  -5   3   68.86    4.63
  -2   5   3   74.72    6.38
  -2  -5   3   68.65    5.26
   2  -5   3   63.47    5.39
  -2   5   4   74.56    6.30
   2   5   4   77.15    6.38
  -2  -5   4   65.41    5.06
   2  -5   4   65.21    4.43
   2  -5   4   72.26    5.65
  -2  -5   5   19.99    2.83
  -2   5   5   17.20    3.17
   2  -5   5   17.79    2.82
   2  -5   5   21.71    2.64
   2   5   5   18.46    3.18
   2  -5   6    6.91    2.03
   2   5   6    4.24    1.57
   2  -5   6    5.35    1.38
  -2   5   6    3.36    1.73
   2  -5   7    0.25    0.98
   2   5   7    0.13    0.60
  -2   5   7   -0.68    1.02
   2  -5   7   -0.07    0.70
   2   5   8    6.18    1.87
   2  -5   8    5.12    1.19
  -2   5   8    3.38    0.57
   2  -5   8    5.75    1.73
   2   5   8    4.85    1.62
   2  -5   9    9.73    2.06
   2  -5   9   14.04    2.23
  -2   5   9    9.79    2.81
   2   5   9   14.56    2.97
   2   5   9   11.18    2.64
   2   5  10   10.69    2.61
   2  -5  10   16.80    2.79
  -2   5  10   10.10    2.74
   2   5  10   17.10    3.11
   2  -5  11    1.49    1.15
   2   5  11   -1.40    1.79
  -2   5  11    1.92    1.55
   2   5  11    0.18    1.19
   2   5  12   15.86    3.30
   2   5  12   20.57    3.82
  -2   5  12   20.27    3.71
   2  -5  12   24.07    3.13
   2   5  13   55.07    5.99
   2  -5  13   50.53    4.54
   2   5  13   56.20    5.87
  -2   5  13   63.93    6.41
   2   5  14    5.78    1.88
   2  -5  14    5.59    1.64
  -2   5  14    4.78    1.36
   2   5  14    3.27    2.04
   2   5  15    0.68    1.11
   2   5  15    0.44    0.86
  -2   5  15    0.16    1.04
   2   5  16    6.39    2.31
   2   5  16    9.95    2.62
  -2   5  16    8.86    2.68
  -2   5  17    3.23    2.29
   2   5  17    3.26    1.50
   2   5  17    2.34    1.22
   2   5  18    2.63    1.85
   2   5  18    2.03    2.31
  -2   5  18    2.54    1.81
   2   5  19    9.85    3.01
  -2   5  19    4.22    1.79
   2   5  19    8.19    2.57
  -2   5  19    8.48    2.78
   2   5  20   -0.76    0.98
  -2   5  20    0.78    0.99
  -2   5  20    0.66    1.19
   2   5  20    0.13    1.30
   2   5  21    1.00    0.85
  -2   5  21    1.63    1.44
  -2   5  21    1.32    0.95
  -2   5  22    7.92    2.68
   2   5  22   11.21    4.04
   2   5  23    3.15    2.41
  -2   5  23    0.41    1.46
  -2   5  24    3.09    1.35
   2   5  24    2.76    1.62
   2   5  25    3.70    1.65
   2   5  26    1.35    1.81
   2  -6 -26    0.73    1.29
  -2  -6 -26    0.88    1.52
  -2  -6 -25   15.95    4.24
   2  -6 -25   17.78    4.20
   2  -6 -24   10.50    3.60
  -2  -6 -24    9.88    3.28
   2  -6 -23    8.54    2.61
  -2  -6 -23    6.35    2.73
  -2  -6 -22    9.71    2.84
   2  -6 -22   14.73    3.34
  -2  -6 -21    7.06    2.68
   2  -6 -21    7.06    2.12
   2  -6 -20    7.19    2.81
  -2  -6 -20    1.63    1.45
   2  -6 -19   79.28    8.12
  -2  -6 -19   87.02    8.56
  -2  -6 -18    4.41    2.22
   2  -6 -18    1.71    1.46
  -2  -6 -17   43.06    5.76
   2  -6 -17   36.50    5.56
   2  -6 -16    7.57    2.59
  -2  -6 -16    8.39    1.89
   2  -6 -15   60.51    6.64
  -2  -6 -15   65.67    6.63
   2  -6 -15   63.23    6.92
  -2  -6 -14   31.91    4.96
   2  -6 -14   32.19    5.00
   2   6 -14   30.46    4.40
   2  -6 -14   24.94    4.48
   2  -6 -13  347.93   15.45
   2   6 -13  359.12   15.03
  -2  -6 -13  365.37   15.43
   2  -6 -13  340.83   15.60
   2  -6 -12    7.19    2.53
   2  -6 -12    7.17    1.89
  -2   6 -12    5.14    2.03
   2   6 -12    9.31    2.69
  -2  -6 -12    3.21    2.06
  -2  -6 -11   61.79    6.17
   2   6 -11   50.29    5.59
   2  -6 -11   58.29    6.31
   2  -6 -11   50.69    5.93
  -2   6 -11   53.40    5.51
   2  -6 -10   31.33    4.79
  -2   6 -10   16.85    2.90
   2   6 -10   26.48    4.20
  -2  -6 -10   30.15    4.31
   2  -6 -10   18.12    3.13
  -2  -6  -9  283.42   12.66
  -2   6  -9  275.33   12.56
   2  -6  -9  282.18   13.03
   2  -6  -9  258.45   13.05
   2   6  -9  239.10   11.98
   2  -6  -8  158.73    9.92
  -2   6  -8  165.35    9.75
   2  -6  -8  146.75    9.07
  -2  -6  -8  143.08    8.84
   2   6  -8  134.75    9.11
   2  -6  -7  255.27   11.97
  -2   6  -7  259.28   12.16
  -2  -6  -7  245.25   11.12
   2  -6  -7  250.11   12.49
   2   6  -7  231.63   11.74
   2   6  -6    2.08    1.03
  -2   6  -6    4.60    1.60
   2  -6  -6    4.44    0.89
  -2  -6  -6    3.52    1.38
   2  -6  -6    4.47    2.55
   2  -6  -5   38.44    4.46
   2   6  -5   41.89    5.03
  -2  -6  -5   36.26    4.01
   2  -6  -5   26.93    4.28
  -2   6  -5   41.18    4.82
  -2  -6  -4  296.91   10.90
   2   6  -4  302.79   13.42
  -2   6  -4  309.52   13.48
   2  -6  -4  293.43   13.36
   2  -6  -4  299.29   11.92
   2  -6  -3  207.47   11.04
  -2  -6  -3  222.55    8.92
   2  -6  -3  206.36    9.78
  -2   6  -3  227.92   11.53
   2   6  -3  234.36   11.83
   2  -6  -2  127.83    8.76
   2  -6  -2  134.36    7.66
  -2   6  -2  129.75    8.76
  -2  -6  -2  136.57    6.67
   2   6  -2  122.40    8.52
   2  -6  -1  241.53   10.17
   2   6  -1  281.36   12.80
  -2   6  -1  201.72   10.88
   2  -6  -1  222.22   11.19
  -2  -6  -1  262.92    8.58
   2  -6   0   21.32    3.52
  -2  -6   0   20.83    2.23
   2   6   0   22.01    3.95
  -2   6   0   24.13    3.83
   2  -6   0   21.46    3.01
  -2  -6   1  236.89    6.81
   2  -6   1  254.07   11.86
   2  -6   1  243.30    9.61
   2   6   1  241.09   12.25
  -2   6   1  255.54   12.18
   2  -6   2  139.12    8.74
  -2   6   2  122.10    8.44
  -2  -6   2  121.67    4.14
   2  -6   2  126.95    6.82
   2   6   2  139.25    9.41
   2   6   3  233.01   11.90
   2  -6   3  223.88   11.08
  -2   6   3  234.83   12.00
   2  -6   3  217.54    8.87
   2   6   4  309.48   13.88
  -2   6   4  295.71   13.58
   2  -6   4  331.52   13.63
   2  -6   4  310.28   10.44
  -2   6   5   40.37    5.16
   2  -6   5   42.69    3.92
   2  -6   5   28.45    3.92
   2   6   5   40.90    5.14
   2   6   6    3.71    1.53
  -2   6   6    8.00    2.41
   2  -6   6    6.98    1.72
   2  -6   6    6.50    1.52
   2   6   7  253.35   12.97
   2  -6   7  241.92    9.06
  -2   6   7  265.76   13.00
   2  -6   7  239.67   11.27
   2   6   8  161.16   10.17
   2  -6   8  151.73    7.27
  -2   6   8  146.00    9.83
   2  -6   8  161.48    9.20
   2   6   8  161.27   10.24
   2   6   9  275.99   13.45
  -2   6   9  281.19   13.63
   2   6   9  244.51   12.76
   2  -6   9  274.38   12.05
   2  -6   9  251.76    9.54
   2   6  10   22.17    4.15
  -2   6  10   22.47    3.89
   2   6  10   25.36    4.51
   2  -6  10   26.74    3.77
  -2   6  11   46.67    5.73
   2   6  11   57.72    6.39
   2   6  11   51.86    6.09
   2  -6  11   63.99    5.80
   2   6  12    4.11    1.91
  -2   6  12    9.17    3.12
   2   6  12    7.39    2.17
   2  -6  12    7.35    1.98
   2   6  13  374.11   16.29
  -2   6  13  350.78   16.04
   2   6  13  394.83   16.99
  -2   6  14   28.91    4.51
   2   6  14   33.43    5.16
   2   6  14   37.38    5.24
   2   6  15   68.56    7.29
  -2   6  15   67.84    7.10
   2   6  15   70.43    7.37
   2   6  16    8.31    2.84
   2   6  16    6.79    2.59
  -2   6  16    5.15    2.66
  -2   6  17   54.76    6.61
   2   6  17   49.62    6.30
   2   6  17   49.35    6.30
  -2   6  18    1.57    1.02
   2   6  18    3.51    1.96
   2   6  18    4.93    2.69
   2   6  19   77.11    7.95
  -2   6  19   73.87    7.97
  -2   6  19   79.25    8.17
   2   6  19   71.62    7.65
  -2   6  20   11.40    3.49
   2   6  20    7.06    2.36
   2   6  20    7.76    2.68
  -2   6  20    8.48    2.65
  -2   6  21    5.92    2.06
  -2   6  21    4.64    2.58
   2   6  21    7.70    2.56
   2   6  22    8.56    3.08
  -2   6  22    9.51    3.51
  -2   6  22   13.40    3.78
  -2   6  23   10.22    3.18
   2   6  23   10.82    3.53
   2   6  24   11.82    3.29
  -2   6  24    5.62    2.30
  -2   6  25    9.68    3.36
   2   6  25   29.37    5.48
   2   6  26    2.62    2.58
  -2  -7 -24   -6.27    3.24
   2  -7 -24    0.46    1.55
  -2  -7 -23    4.83    1.98
   2  -7 -23    3.78    2.32
   2  -7 -22   -0.69    1.29
  -2  -7 -22   -0.91    0.95
   2  -7 -21    5.21    1.96
  -2  -7 -21    4.89    1.97
   2  -7 -20   14.61    3.74
  -2  -7 -20   17.12    3.90
  -2  -7 -19   -0.75    1.88
   2  -7 -19    0.05    1.51
  -2  -7 -18   11.10    3.38
   2  -7 -18   11.57    3.63
  -2  -7 -17    3.01    2.12
   2  -7 -17    1.40    1.25
   2  -7 -16    6.68    2.64
  -2  -7 -16    3.13    1.83
  -2  -7 -15   -0.58    1.66
   2  -7 -15    0.45    0.87
   2  -7 -14   40.05    5.66
  -2  -7 -14   42.45    6.02
   2  -7 -14   36.63    5.70
   2   7 -13    7.34    2.32
   2  -7 -13    9.35    3.05
   2  -7 -13    8.76    2.63
  -2  -7 -13    5.21    2.43
   2   7 -12   43.79    5.47
  -2  -7 -12   40.64    5.62
   2  -7 -12   54.19    6.58
   2  -7 -12   47.63    6.24
   2   7 -11   26.91    4.56
   2  -7 -11   44.15    5.72
  -2  -7 -11   38.34    5.19
   2  -7 -11   44.25    5.83
  -2   7 -11   34.62    4.77
   2  -7 -10   30.76    4.64
  -2  -7 -10   21.09    3.96
   2   7 -10   29.16    4.63
   2  -7 -10   29.76    4.82
  -2   7 -10   37.42    5.25
  -2  -7  -9   41.93    5.07
   2  -7  -9   43.09    5.25
   2  -7  -9   31.66    4.82
  -2   7  -9   28.30    4.41
   2   7  -9   35.04    4.87
   2  -7  -8   87.10    7.84
   2  -7  -8   96.28    7.89
   2   7  -8   94.07    8.00
  -2  -7  -8   83.26    6.99
  -2   7  -8   77.37    7.26
  -2  -7  -7   -0.33    0.69
   2   7  -7   -0.93    1.22
   2  -7  -7    2.25    1.73
  -2   7  -7    3.41    1.87
   2  -7  -7    0.51    1.27
   2   7  -6  101.07    8.30
  -2   7  -6   99.94    8.16
   2  -7  -6   94.35    7.52
   2  -7  -6  102.96    8.42
  -2  -7  -6   86.59    6.71
  -2   7  -5   93.70    8.00
   2   7  -5   87.41    7.90
  -2  -7  -5   69.77    6.04
   2  -7  -5   90.75    7.22
   2  -7  -5   78.42    7.57
   2  -7  -4    7.64    2.16
   2   7  -4    1.94    1.67
  -2  -7  -4    4.79    1.62
  -2   7  -4    3.05    1.37
   2  -7  -4    8.96    2.52
   2  -7  -3  210.72   11.87
   2  -7  -3  210.15   10.44
  -2  -7  -3  208.20    9.54
  -2   7  -3  195.88   11.39
   2   7  -3  200.72   11.72
   2   7  -2   16.45    3.04
   2  -7  -2   10.44    2.81
   2  -7  -2   10.68    2.11
  -2   7  -2   14.31    3.21
  -2  -7  -2    9.38    1.98
   2  -7  -1   14.12    3.05
   2   7  -1   20.57    3.72
  -2   7  -1   17.66    3.87
   2  -7  -1   19.29    3.03
   2   7   0    4.84    2.03
   2  -7   0    0.59    0.85
  -2   7   0    5.48    2.02
   2  -7   0    4.98    1.86
   2   7   1   17.28    3.96
  -2   7   1   19.10    3.39
   2  -7   1   23.57    4.06
   2  -7   1   22.36    3.17
  -2   7   2   14.33    3.23
   2  -7   2   13.01    2.54
   2   7   2   14.28    3.33
   2  -7   2   11.05    2.86
   2   7   3  184.20   11.19
  -2   7   3  197.83   11.66
   2  -7   3  199.47   11.24
   2  -7   3  189.09    8.75
   2   7   4   11.12    2.90
   2  -7   4    5.80    2.36
  -2   7   4    8.53    2.42
   2  -7   5  102.57    8.03
   2   7   5   84.71    7.72
  -2   7   5   92.79    8.30
  -2   7   6  109.31    8.69
   2   7   6   89.07    8.04
   2  -7   6   93.51    7.71
   2   7   7    1.49    1.44
  -2   7   7    2.06    0.90
   2  -7   7    2.47    1.85
   2   7   8   89.08    8.22
   2  -7   8   64.61    6.48
  -2   7   8   84.55    7.75
   2   7   8   87.61    8.28
   2   7   9   37.90    5.35
   2   7   9   35.75    4.88
   2  -7   9   28.70    4.13
  -2   7   9   44.35    5.83
   2   7  10   30.78    4.84
  -2   7  10   27.54    4.69
   2  -7  10   25.46    3.88
   2   7  10   30.17    4.72
   2   7  11   44.93    6.00
   2   7  11   32.01    4.80
   2  -7  11   34.01    4.72
  -2   7  11   43.11    5.97
  -2   7  12   47.83    6.15
   2   7  12   42.16    5.89
   2   7  12   43.72    5.94
   2   7  13    2.85    1.77
  -2   7  13    4.61    1.99
   2   7  14   30.89    5.50
   2   7  14   38.41    5.21
  -2   7  14   27.40    4.84
   2   7  15    0.65    1.20
  -2   7  15    4.76    2.14
   2   7  15    0.83    1.64
   2   7  16    7.47    2.94
  -2   7  16    7.17    2.24
   2   7  16    7.40    2.84
  -2   7  17    1.64    2.10
   2   7  17    4.14    2.27
   2   7  17   -0.38    2.03
   2   7  18   11.37    3.52
  -2   7  18    7.17    2.76
   2   7  18   14.73    3.70
  -2   7  19    2.17    2.57
   2   7  19    3.24    1.92
   2   7  19    4.03    2.28
  -2   7  19    1.67    2.02
   2   7  20   21.42    4.84
  -2   7  20   19.17    4.12
   2   7  20   15.20    4.17
  -2   7  20   17.14    4.50
  -2   7  21    1.95    1.26
  -2   7  21    2.25    1.53
   2   7  21   -0.31    1.54
  -2   7  22    1.03    1.36
   2   7  22    2.85    2.00
  -2   7  22    0.88    1.66
   2   7  23    1.36    1.40
  -2   7  23   -1.42    1.98
   2   7  24    3.03    2.08
  -2   7  24    0.48    1.31
   2  -8 -22   11.67    3.61
  -2  -8 -22    4.41    2.72
  -2  -8 -21   -2.78    2.26
   2  -8 -21    2.53    1.80
  -2  -8 -20    2.68    1.55
   2  -8 -20   -0.14    1.38
  -2  -8 -19    4.51    2.27
   2  -8 -19    5.74    2.64
   2  -8 -18   -0.21    1.68
  -2  -8 -18    2.98    2.49
  -2  -8 -17    7.40    1.89
   2  -8 -17    6.84    2.53
  -2  -8 -16   14.84    3.78
   2  -8 -16   12.63    3.68
   2  -8 -15   -0.01    0.89
  -2  -8 -15    2.49    1.84
  -2  -8 -14    5.82    2.14
   2  -8 -14    3.03    2.08
  -2  -8 -13   13.80    3.47
   2   8 -13   15.16    4.38
   2  -8 -13   19.04    3.99
   2  -8 -13   18.87    4.26
   2  -8 -12    0.61    0.97
   2   8 -12    3.04    2.37
  -2  -8 -12   -0.22    1.47
   2  -8 -12   -0.26    0.95
   2  -8 -11    1.63    1.46
   2  -8 -11    0.91    1.06
   2   8 -11    3.85    2.76
  -2   8 -11    4.73    3.10
  -2  -8 -11    1.52    1.16
  -2  -8 -10    3.72    2.13
   2  -8 -10    2.62    1.61
  -2   8 -10    8.12    2.94
   2  -8 -10    2.78    1.15
   2   8 -10    2.24    1.78
  -2  -8  -9   22.19    4.32
   2  -8  -9   30.91    5.01
  -2   8  -9   27.63    4.77
   2   8  -9   24.35    4.42
   2  -8  -9   24.70    4.22
  -2   8  -8    2.11    1.45
   2   8  -8    3.99    1.62
  -2  -8  -8    1.84    1.83
   2  -8  -8    5.73    3.01
   2  -8  -8    1.03    1.53
   2   8  -7   31.02    4.94
  -2  -8  -7   36.30    4.97
   2  -8  -7   23.58    4.16
   2  -8  -7   27.59    4.72
  -2   8  -7   32.17    5.08
   2  -8  -6    7.36    2.09
   2   8  -6    9.49    2.87
  -2   8  -6    3.48    2.53
   2  -8  -6    7.67    3.06
  -2   8  -5    7.64    2.80
   2   8  -5    5.06    2.06
   2  -8  -5    9.44    2.82
   2  -8  -5    7.39    1.98
  -2   8  -4   35.27    5.24
   2  -8  -4   36.34    4.66
   2  -8  -4   36.37    5.12
   2   8  -4   36.10    5.19
   2  -8  -3   95.16    8.73
   2   8  -3  106.14    8.92
  -2   8  -3  101.00    8.84
   2  -8  -3  110.90    8.18
   2  -8  -2    0.70    0.87
   2   8  -2    1.45    1.54
  -2   8  -2    0.58    1.76
   2  -8  -2    0.88    1.44
   2   8  -1    4.28    2.39
  -2   8  -1   10.01    2.74
   2  -8  -1    9.68    2.64
   2  -8   0    8.09    2.30
  -2   8   0    4.85    2.47
   2   8   0    8.45    2.54
   2  -8   1    5.77    1.98
  -2   8   1   11.47    3.11
   2   8   1   10.07    2.80
   2   8   2    3.23    1.30
   2  -8   2    2.98    1.98
  -2   8   2    0.50    1.32
   2   8   3  119.48    9.69
  -2   8   3  111.27    9.22
   2  -8   3  108.02    8.80
   2   8   4   34.21    5.50
  -2   8   4   40.88    5.67
   2  -8   4   38.42    5.52
  -2   8   5    6.79    2.52
   2  -8   5    6.28    2.44
   2   8   5    7.68    3.32
   2  -8   6   10.22    3.25
   2   8   6    8.65    2.51
   2   8   6   10.31    2.66
  -2   8   6   11.60    3.26
   2   8   7   32.45    5.47
  -2   8   7   26.72    4.85
   2   8   7   20.99    4.16
   2  -8   7   32.28    4.70
   2  -8   8    1.09    0.91
  -2   8   8    0.29    1.85
   2   8   8    3.09    2.23
   2   8   8    6.53    2.37
  -2   8   9   27.32    4.48
   2   8   9   29.99    4.76
   2   8   9   21.34    4.36
   2  -8   9   23.91    3.85
   2  -8  10    2.52    1.76
  -2   8  10    1.89    1.02
   2   8  10    4.33    2.25
   2   8  10    4.15    1.92
   2   8  11    4.23    2.18
  -2   8  11    3.72    2.49
   2   8  11    4.28    2.21
   2   8  12    1.03    0.86
   2   8  12    0.73    1.88
  -2   8  12    1.49    1.61
   2   8  13   17.61    3.83
  -2   8  13   17.72    3.97
   2   8  13   14.63    3.73
  -2   8  14    3.49    2.67
   2   8  14    3.34    1.53
   2   8  14    5.58    1.73
   2   8  15   -1.95    1.20
  -2   8  15    1.35    1.58
   2   8  15   -2.06    2.16
   2   8  16    8.23    2.88
  -2   8  16   11.65    3.26
   2   8  16   10.97    3.12
   2   8  17    9.99    3.53
   2   8  17    8.76    3.76
  -2   8  17   13.23    3.70
   2   8  18    0.95    2.18
  -2   8  18   -0.07    1.13
  -2   8  18    1.00    1.78
   2   8  18    0.85    1.06
  -2   8  19    5.29    3.00
  -2   8  19    1.30    1.25
   2   8  19    2.62    2.02
   2   8  19    1.31    0.95
  -2   8  20    0.01    1.50
   2   8  20    2.72    2.20
   2   8  20    2.01    3.48
  -2   8  20    3.82    2.80
  -2   8  21    0.25    1.16
  -2   8  21    1.56    1.37
   2   8  21    1.23    2.11
   2   8  21   -0.15    1.78
   2   8  22    5.48    2.32
  -2   8  22    8.52    3.15
  -2   8  22    6.38    2.81
   2  -9 -19    0.17    2.32
  -2  -9 -19    4.40    3.32
  -2  -9 -18    4.31    2.02
   2  -9 -18   -0.83    1.12
   2  -9 -17   -1.28    1.81
  -2  -9 -17   -0.26    2.05
  -2  -9 -16   -2.79    2.18
   2  -9 -16    4.63    1.95
   2  -9 -15   -0.47    1.55
  -2  -9 -15    0.92    2.44
  -2  -9 -14    2.96    2.38
   2  -9 -14    6.63    2.41
  -2  -9 -13    1.85    1.33
   2  -9 -13   -0.17    1.47
   2   9 -12    2.45    1.44
   2  -9 -12   -0.10    1.97
   2  -9 -11    1.31    0.92
   2  -9 -11   -1.04    1.85
  -2   9 -10   10.07    3.42
   2  -9 -10    5.62    2.82
   2   9 -10    3.57    2.59
   2  -9 -10   10.90    3.21
  -2   9  -9    0.65    1.62
   2   9  -9   -0.62    1.59
   2  -9  -9    0.36    2.08
   2  -9  -9    1.23    2.26
   2   9  -8    0.86    1.97
  -2   9  -8    1.97    1.32
   2  -9  -8    1.62    1.61
   2  -9  -8    6.32    2.41
   2   9  -7    1.39    2.01
  -2   9  -7    0.21    1.07
   2  -9  -7   -0.29    1.39
   2   9  -6   12.45    3.53
  -2   9  -6    8.36    2.72
   2  -9  -6   11.95    3.42
   2   9  -5    7.84    2.52
  -2   9  -5    9.62    3.33
   2  -9  -5    5.99    2.81
   2  -9  -4    4.10    2.00
   2   9  -4    8.01    3.03
  -2   9  -4   10.40    3.40
  -2   9  -3    8.36    2.84
   2  -9  -3   11.48    3.24
   2   9  -3    6.04    2.18
  -2   9  -2    3.59    1.79
   2  -9  -2    2.73    2.03
   2   9  -2   -0.75    1.84
  -2   9  -1    0.99    1.04
   2  -9  -1    2.03    2.05
   2   9  -1    3.36    1.47
  -2   9   0    8.23    2.61
   2  -9   0    9.90    3.45
   2   9   0    5.99    3.38
   2  -9   1    2.22    1.82
  -2   9   1   -0.98    1.30
   2   9   1    0.45    1.37
  -2   9   2    3.46    1.44
   2   9   2    0.43    1.36
   2  -9   2    1.37    1.87
   2  -9   3    5.02    2.28
   2   9   3    9.46    2.86
  -2   9   3   11.52    3.45
  -2   9   4    6.48    2.87
   2   9   4    9.79    2.91
   2  -9   4    9.52    3.20
   2   9   4    5.62    2.48
  -2   9   5   13.12    3.48
   2   9   5    5.84    2.69
   2  -9   5    7.52    2.19
   2   9   5    9.19    2.91
  -2   9   6    3.90    1.43
   2   9   6    5.80    2.25
   2  -9   6    6.68    2.12
   2   9   6    7.66    2.46
   2  -9   7    0.50    1.46
   2   9   7    1.68    1.29
  -2   9   7    0.32    1.62
   2   9   7    0.93    0.93
   2   9   8    3.94    1.79
   2   9   8    1.26    1.73
  -2   9   8    2.80    2.21
   2  -9   8    1.94    1.00
   2   9   9    2.06    1.66
   2   9   9   -2.27    1.83
  -2   9   9   -1.54    2.32
   2  -9   9   -0.32    1.53
   2   9  10    6.06    2.76
  -2   9  10    6.29    2.71
   2   9  10    7.26    2.57
   2   9  11   -0.02    1.56
   2   9  11    2.21    1.90
  -2   9  11    4.75    2.11
   2   9  12    1.04    1.46
  -2   9  12    3.75    2.56
   2   9  12    0.14    1.13
  -2   9  13    3.85    1.97
   2   9  13    2.88    1.94
   2   9  13    1.95    1.38
   2   9  14    3.07    1.52
  -2   9  14   -0.58    1.30
   2   9  14    2.11    1.45
   2   9  15    0.49    1.33
   2   9  15    1.98    2.29
  -2   9  15    0.72    2.34
   2   9  16    0.21    1.47
   2   9  16    1.04    1.57
  -2   9  16   -1.43    2.35
   2   9  17    0.28    1.53
  -2   9  17    0.11    1.75
  -2   9  17   -0.17    1.93
   2   9  17    0.22    1.25
   2   9  18    4.72    2.58
  -2   9  18   -2.90    2.98
   2   9  18    5.42    2.59
  -2   9  18    1.05    1.97
   2   9  19    1.44    1.43
   2   9  19    2.23    2.85
  -2   9  19   -2.99    2.79
  -2   9  19    2.59    3.01
   2 -10 -16    1.88    2.36
   2  10 -11    5.16    2.56
   2  10 -10   -0.51    1.28
   2 -10  -9    1.24    1.27
  -2  10  -9    9.52    2.96
   2  10  -9   12.68    3.87
   2  10  -8    1.95    1.21
   2 -10  -8    2.14    1.60
  -2  10  -8    3.45    2.32
   2  10  -7   29.01    5.06
   2 -10  -7   39.76    6.04
  -2  10  -7   27.26    4.89
  -2  10  -6    6.04    3.12
   2  10  -6    3.81    2.64
   2 -10  -6    6.58    3.24
  -2  10  -5    1.61    2.16
   2 -10  -5    5.73    2.68
   2  10  -5    1.60    1.56
  -2  10  -4   14.36    3.99
   2  10  -4    8.97    2.95
   2 -10  -4    5.86    2.38
   2  10  -3   17.29    3.99
   2  10  -3   16.53    4.15
   2 -10  -3   12.68    3.80
  -2  10  -3   21.88    4.34
   2  10  -2   10.77    3.07
   2  10  -2   10.76    3.74
   2 -10  -2    7.32    2.83
  -2  10  -2   13.08    3.91
  -2  10  -1    0.25    1.19
   2  10  -1    0.15    1.18
   2 -10  -1    3.27    2.12
   2  10  -1    1.71    1.42
   2  10   0    5.04    2.39
  -2  10   0    1.16    1.47
   2  10   0    1.92    1.92
   2 -10   0    0.78    1.58
  -2  10   1   -1.36    2.23
   2  10   1    5.97    2.87
   2 -10   1    2.00    1.47
   2  10   1    1.29    2.18
   2  10   2   13.45    3.78
   2 -10   2   12.52    3.62
   2  10   2    5.71    2.41
  -2  10   2    8.11    2.50
   2  10   3   15.45    4.08
   2 -10   3   17.47    4.29
   2  10   3   18.96    4.11
  -2  10   3   18.88    4.96
   2  10   4    4.45    2.36
   2 -10   4    9.61    2.93
   2  10   4    7.87    2.76
  -2  10   5    1.71    1.68
   2  10   5    5.09    2.55
   2  10   5    2.48    2.00
   2 -10   5    7.04    3.32
   2  10   6    3.71    1.79
  -2  10   6    6.80    2.84
   2 -10   6    4.77    2.65
   2  10   6    3.76    2.81
   2 -10   7   40.15    6.47
   2  10   7   28.04    5.15
  -2  10   7   45.70    6.66
   2  10   7   28.48    5.15
   2  10   8    5.42    2.53
  -2  10   8    3.06    2.17
   2  10   8    9.86    3.36
   2  10   9    6.03    2.15
   2  10   9    8.15    2.77
  -2  10   9   10.89    3.57
   2  10  10    3.71    2.19
  -2  10  10    3.62    2.02
   2  10  10    0.40    1.25
   2  10  11   10.39    3.16
   2  10  11    8.12    3.02
  -2  10  11   12.65    3.54
  -2  10  12    4.08    2.43
   2  10  12    4.99    2.85
   2  10  12    0.40    1.55
   2  10  13    5.53    2.04
   2  10  13    9.49    3.46
  -2  10  13   15.46    4.45
   2  10  14    5.86    2.66
   2  10  14    1.66    0.90
  -2  10  14    3.54    1.87
   2  10  15   -0.91    1.81
   2  10  15    0.60    1.00
  -2  10  16   -1.46    0.94
   2  10  16   -0.92    1.25
   2  10  16    2.01    1.83
  -2  10  16   -1.40    1.83
   2  11 -10    3.17    3.09
   2  11  -9    2.44    2.21
  -2  11  -8    4.86    2.38
   2  11  -8    1.54    2.34
   2  11  -7    2.22    2.13
  -2  11  -7    1.32    1.52
   2 -11  -6    2.87    1.82
   2  11  -6    0.80    1.07
  -2  11  -6   -0.56    1.48
  -2  11  -5    3.35    1.86
   2 -11  -5   -1.34    1.87
   2  11  -5   -0.57    1.64
   2 -11  -4   -0.92    1.44
   2  11  -4    0.24    1.72
  -2  11  -4    2.09    2.36
  -2  11  -3    1.65    2.01
   2  11  -3   -0.01    1.26
   2 -11  -3    2.10    1.92
   2 -11  -2    0.71    1.94
  -2  11  -2   -0.55    1.96
   2  11  -2   -1.71    1.41
  -2  11  -1    2.31    2.30
   2  11  -1    4.34    2.05
   2 -11  -1    2.59    2.39
   2  11  -1   -0.39    1.80
   2 -11   0    1.70    1.95
  -2  11   0    2.29    1.46
   2  11   0   -0.84    1.23
   2  11   0   -0.42    1.35
   2  11   1    2.62    2.67
   2  11   1    0.81    1.45
   2 -11   1    2.13    2.42
  -2  11   1    0.66    1.20
  -2  11   2   -1.25    1.99
   2  11   2   -1.02    1.92
   2  11   2   -0.54    1.26
   2 -11   2    2.02    1.13
   2  11   3    2.01    1.20
  -2  11   3    1.77    1.62
   2  11   3   -1.12    1.73
   2 -11   3   -0.29    1.18
   2  11   4    0.39    1.23
   2  11   4    1.69    1.48
   2 -11   4    1.65    1.54
  -2  11   4    0.77    1.32
   2  11   5   -2.63    2.30
   2  11   5    0.51    1.35
  -2  11   5    3.34    2.27
   2 -11   5    3.34    2.51
  -2  11   6    2.24    2.02
   2  11   6   -0.12    2.16
   2  11   6    5.41    2.74
   2  11   7    0.07    1.33
   2  11   7    1.33    1.14
  -2  11   7    0.99    1.70
   2  11   8   -0.90    2.14
   2  11   8    5.19    3.25
  -2  11   8    2.62    2.72
   2  11   9   -0.34    1.35
  -2  11   9    0.38    2.01
   2  11   9    1.45    1.26
   2  11  10    4.29    2.82
   2  11  10    3.18    2.27
  -2  11  10    2.05    1.53
   3   0 -31   -0.95    1.75
   3   0 -30   -2.23    2.45
   3   0 -29    0.50    1.10
   3   0 -28    3.74    2.58
   3   0 -27   -2.08    1.86
   3   0 -26   -1.09    0.92
   3   0 -25   -0.45    1.44
   3   0 -24   -0.85    1.35
   3   0 -23    0.97    1.08
   3   0 -22    2.01    1.92
   3   0 -21   -1.47    1.88
   3   0 -20    0.92    1.36
   3   0 -19   -0.26    1.16
   3   0 -18   -0.72    1.11
   3   0 -17    1.09    1.28
   3   0 -16    0.33    1.10
   3   0 -15   -0.49    0.58
   3   0 -14    0.96    1.35
   3   0 -13   -0.27    0.59
   3   0 -12   -0.10    0.63
   3   0 -12    0.78    0.92
   3   0 -11    0.42    0.95
   3   0 -11   -0.22    0.37
   3   0 -10    0.30    0.49
   3   0 -10    0.56    0.85
   3   0  -9    0.09    0.91
   3   0  -9   -0.17    0.19
   3   0  -8    0.22    0.89
   3   0  -8    0.21    0.36
   3   0  -7    0.09    0.67
   3   0  -7    0.28    0.20
   3   0  -6    0.27    0.31
   3   0  -6    0.09    0.34
   3   0  -6   -0.09    0.23
   3   0  -5   -0.02    0.35
   3   0  -5    0.67    0.36
   3   0  -5   -0.08    0.26
   3   0  -4    0.21    0.41
   3   0  -4   -0.01    0.25
   3   0  -4    0.17    0.33
   3   0  -3   -0.13    0.24
   3   0  -3   -0.05    0.22
   3   0  -3    0.14    0.29
   3   0  -2    0.28    0.31
   3   0  -2    0.18    0.36
   3   0  -2   -0.22    0.25
   3   0  -1   -0.33    0.30
   3   0  -1    0.09    0.23
   3   0   0    0.03    0.21
   3   0   0    0.44    0.30
   3   0   1    0.41    0.38
   3   0   1    0.07    0.22
   3   0   2    0.17    0.22
   3   0   2    0.19    0.24
   3   0   3   -0.10    0.23
   3   0   3    0.25    0.24
   3   0   4    0.29    0.31
   3   0   4    0.39    0.37
   3   0   5   -0.03    0.16
   3   0   5    0.57    0.28
   3   0   6   -0.03    0.14
   3   0   6    0.46    0.66
   3   0   7    0.62    0.80
   3   0   7    0.14    0.21
   3   0   8    0.11    0.20
   3   0   8    0.09    0.24
   3   0   9    0.01    0.47
   3   0   9   -0.02    0.10
   3   0  10   -0.18    0.22
   3   0  10    0.87    0.67
   3   0  11    0.12    0.42
   3   0  12   -0.08    0.55
   3   0  13   -0.22    0.35
  -3   0  14   -0.43    0.46
   3   0  14    0.19    0.39
   3   0  15   -0.34    0.54
  -3   0  15    0.23    0.55
  -3   0  16   -0.60    0.87
   3   0  16    0.03    0.37
  -3   0  17    0.81    0.68
   3   0  17    0.57    0.53
   3   0  18    0.44    0.77
   3   0  19   -0.54    1.07
   3   0  20   -0.44    1.08
   3   0  21    0.07    0.86
   3  -1 -30    5.46    3.05
   3  -1 -29    8.26    3.39
   3   1 -29   -5.36    2.29
   3  -1 -28   12.47    3.65
   3   1 -28    4.16    2.29
   3   1 -27   12.33    3.62
   3  -1 -27    4.56    2.05
   3  -1 -26    4.60    2.13
   3   1 -26    6.76    2.69
   3  -1 -25   16.39    3.44
   3   1 -25   15.80    3.55
   3  -1 -24   17.31    3.71
   3   1 -24   15.70    3.45
   3  -1 -23   69.49    7.37
   3   1 -23   70.94    7.48
   3  -1 -22   20.09    3.83
  -3  -1 -22   27.92    4.65
   3   1 -22   17.62    3.67
   3   1 -21    3.32    1.93
   3  -1 -21    2.15    1.55
  -3  -1 -21    5.16    2.42
   3   1 -20   28.45    4.22
  -3  -1 -20   29.48    4.80
   3  -1 -20   30.95    4.60
   3   1 -19   81.43    7.13
   3  -1 -19   67.73    6.83
  -3  -1 -19   73.24    7.16
   3   1 -18   10.19    2.59
   3  -1 -18    6.27    2.19
  -3  -1 -18   10.53    2.47
  -3  -1 -17  112.74    8.31
   3   1 -17  102.51    7.49
   3  -1 -17  106.49    7.91
  -3  -1 -16   31.22    4.36
   3   1 -16   38.09    4.55
   3  -1 -16   38.14    4.76
   3  -1 -15   12.23    2.39
  -3  -1 -15   11.73    2.70
   3   1 -15   12.70    2.47
   3   1 -14   38.19    4.06
  -3  -1 -14   40.39    4.67
   3  -1 -14   40.60    4.57
   3  -1 -14   45.99    4.02
  -3  -1 -13  302.36   12.34
   3   1 -13  328.17   11.62
   3  -1 -13  314.68   12.24
   3  -1 -13  320.02   10.07
   3  -1 -12  208.88    8.11
   3  -1 -12  221.67   10.01
   3   1 -12  221.40    9.20
  -3  -1 -12  209.67   10.05
   3   1 -12  219.94    8.16
  -3  -1 -11   38.56    4.14
   3  -1 -11   37.51    4.03
   3   1 -11   42.03    3.72
   3  -1 -11   36.08    3.14
   3   1 -11   40.08    3.49
   3  -1 -10  137.50    6.17
  -3  -1 -10  139.64    7.61
   3  -1 -10  145.05    7.60
   3   1 -10  149.23    6.81
   3   1 -10  142.25    6.24
  -3  -1  -9  396.24   12.34
   3  -1  -9  416.28   10.49
   3   1  -9  405.05   10.63
   3  -1  -9  388.73   12.08
   3   1  -9  392.80   10.28
   3   1  -8  120.07    5.51
   3   1  -8  111.22    5.45
  -3  -1  -8  104.57    6.08
   3  -1  -8  110.52    6.09
   3  -1  -8  110.45    5.29
   3   1  -7  267.41    4.47
   3  -1  -7  267.78    8.04
   3   1  -7  271.78    8.30
   3  -1  -7  250.63    8.99
   3   1  -7  263.64    7.78
   3   1  -6  722.66    8.00
   3  -1  -6  738.95   13.11
   3  -1  -6  720.79   14.58
   3   1  -6  736.09   13.24
   3   1  -6  745.74   12.16
   3   1  -5   44.87    3.18
   3  -1  -5   38.75    3.23
   3  -1  -5   42.59    3.07
   3   1  -5   40.42    2.01
   3   1  -5   40.12    2.63
   3  -1  -4  508.13   11.42
   3   1  -4  512.69    7.57
   3   1  -4  523.19    9.06
   3   1  -4  514.64   10.75
   3  -1  -4  513.00   10.49
   3  -1  -3 2447.45   22.43
   3   1  -3 2430.66   18.49
   3   1  -3 2441.69   17.42
   3  -1  -3 2463.65   24.07
   3   1  -3 2419.80   22.81
   3   1  -2 1001.14   11.81
   3   1  -2  991.99   14.35
   3  -1  -2  982.37   14.87
   3  -1  -2  973.64   14.11
   3   1  -2 1004.66   11.55
   3  -1  -1  562.03   10.81
   3   1  -1  577.20    9.32
   3   1  -1  560.17   10.75
   3  -1  -1  565.18   10.93
   3   1   0  546.86    9.78
   3   1   0  562.18   10.58
   3  -1   0  576.57   10.76
   3  -1   0  546.97   10.62
   3   1   1  586.07   10.55
   3  -1   1  569.11   10.75
   3   1   1  562.55   10.53
   3   1   2  969.61   13.49
   3   1   2  965.84   14.20
   3  -1   2 1000.97   14.32
   3   1   3 2420.34   23.31
   3   1   3 2464.40   21.28
   3  -1   3 2415.58   22.92
   3   1   4  527.31    9.84
   3  -1   4  510.65   10.72
   3   1   4  524.59   11.25
   3  -1   5   43.30    3.10
   3   1   5   45.58    3.49
   3   1   5   45.19    2.84
   3  -1   6  731.01   13.12
   3   1   6  739.03   11.57
   3   1   6  716.16   14.22
   3  -1   7  271.64    8.29
   3   1   7  265.18    8.87
   3   1   7  272.04    7.02
   3   1   8  113.12    5.92
   3  -1   8  106.58    5.31
   3   1   8  114.50    4.60
   3  -1   9  422.57   10.77
   3   1   9  411.40    8.76
   3   1  10  139.75    5.18
   3  -1  10  134.82    6.28
   3   1  10  135.83    6.95
   3  -1  11   40.55    3.62
   3   1  11   41.69    3.91
   3   1  11   37.58    2.62
   3   1  12  214.01    9.17
   3   1  12  218.27    6.51
   3  -1  12  207.55    8.37
   3   1  13  313.10    7.83
   3  -1  13  305.84   10.44
   3   1  13  328.52   11.79
   3   1  14   40.09    2.82
   3   1  14   39.89    4.11
   3  -1  14   41.54    3.90
   3   1  15   10.58    1.43
   3   1  15   15.75    2.75
   3  -1  15   10.51    2.02
  -3   1  16   33.53    3.58
   3   1  16   29.92    2.46
   3   1  16   41.05    4.43
   3  -1  16   37.53    3.86
   3   1  17  102.75    7.25
   3  -1  17  103.22    6.65
  -3   1  17   95.84    6.23
   3   1  18    6.76    2.04
  -3   1  18    6.64    1.58
   3  -1  18    6.46    1.65
  -3   1  19   65.91    5.39
   3   1  19   67.08    6.27
   3  -1  19   62.35    5.41
   3  -1  20   26.98    3.80
   3   1  20   23.42    3.73
   3   1  21    2.26    1.11
   3   1  22   20.48    3.86
   3  -2 -30    0.77    1.45
   3  -2 -29    2.83    2.56
   3  -2 -28    2.25    2.84
   3  -2 -27    5.07    2.66
   3  -2 -26    1.37    0.92
  -3  -2 -25   -0.87    1.35
   3  -2 -25    0.89    1.43
  -3  -2 -24    0.97    1.58
   3  -2 -24    1.76    0.98
   3   2 -23    8.37    3.21
   3  -2 -23   10.98    2.94
  -3  -2 -23    6.11    2.67
  -3  -2 -22    2.69    1.47
   3   2 -22    0.25    1.34
   3  -2 -22    1.40    0.76
  -3  -2 -21   21.20    4.11
   3   2 -21   14.06    3.01
   3  -2 -21   22.23    4.23
   3   2 -20    6.70    2.29
   3  -2 -20    4.93    1.92
  -3  -2 -20    4.06    1.72
   3  -2 -19   14.24    3.08
  -3  -2 -19   10.81    3.12
   3   2 -19   11.63    2.59
  -3  -2 -18    3.61    2.30
   3  -2 -18    1.59    1.40
   3   2 -18    0.57    0.98
  -3  -2 -17    0.73    1.28
   3  -2 -17    0.91    1.18
   3   2 -17    0.82    0.94
   3  -2 -16   12.61    2.52
   3   2 -16   11.43    2.26
   3   2 -16   16.30    2.32
  -3  -2 -16   10.58    2.80
   3   2 -15   23.26    3.22
  -3  -2 -15   24.60    3.66
   3  -2 -15   24.58    3.46
   3   2 -15   28.52    3.16
   3  -2 -15   20.38    3.59
  -3  -2 -14    1.76    1.46
   3   2 -14    1.90    1.09
   3   2 -14    1.50    0.71
   3  -2 -14    0.23    0.98
   3  -2 -14    1.12    0.83
   3   2 -13    0.58    0.64
   3  -2 -13    1.48    1.24
   3  -2 -13    2.45    1.50
  -3  -2 -13   -0.37    1.12
   3   2 -13   -0.16    0.53
  -3  -2 -12   25.77    3.53
   3   2 -12   28.08    3.19
   3  -2 -12   27.96    3.38
   3   2 -12   29.44    3.12
   3  -2 -12   29.49    3.89
   3   2 -11  135.83    6.34
  -3  -2 -11  125.69    7.63
   3  -2 -11  133.57    7.24
   3  -2 -11  145.01    8.25
   3   2 -11  132.83    6.57
   3   2 -10   44.90    3.51
   3   2 -10   44.30    3.73
  -3  -2 -10   43.32    4.29
   3  -2 -10   41.22    4.31
  -3   2 -10   41.56    2.09
   3  -2 -10   38.98    3.76
   3   2  -9   16.02    2.31
   3  -2  -9   10.91    2.22
   3   2  -9   15.48    1.84
  -3   2  -9   12.37    1.22
   3  -2  -9   16.40    2.72
  -3  -2  -9    9.67    1.88
   3  -2  -8   54.17    4.55
   3   2  -8   48.98    3.86
   3  -2  -8   47.24    4.02
  -3   2  -8   44.73    2.57
   3   2  -8   44.26    3.02
  -3  -2  -8   44.59    4.03
   3   2  -7   27.12    2.20
   3  -2  -7   27.59    3.09
  -3  -2  -7   30.64    3.23
   3  -2  -7   23.33    2.73
   3   2  -7   25.38    1.38
  -3   2  -7   28.22    2.10
   3   2  -7   28.07    2.87
   3  -2  -6  144.50    7.03
   3  -2  -6  136.53    6.59
   3   2  -6  150.89    4.59
  -3  -2  -6  142.24    6.64
   3   2  -6  137.25    3.70
   3   2  -6  147.12    6.47
   3  -2  -5  162.97    7.22
   3   2  -5  176.11    4.52
   3   2  -5  179.73    4.74
  -3  -2  -5  169.37    6.88
   3   2  -5  176.08    7.03
   3  -2  -5  160.73    6.99
   3   2  -4   28.17    2.83
   3  -2  -4   31.18    3.00
   3  -2  -4   31.43    3.04
   3   2  -4   27.12    2.01
   3   2  -4   29.85    1.76
   3  -2  -3 1026.28   17.23
   3   2  -3 1036.01   13.23
   3   2  -3 1047.59    9.87
   3   2  -3 1035.37   16.73
   3  -2  -3 1036.28   17.37
   3   2  -2  457.05    9.34
   3   2  -2  475.14   11.36
   3  -2  -2  464.90   11.28
   3  -2  -2  467.59   11.54
   3   2  -1  218.20    7.58
   3  -2  -1  230.16    7.92
   3   2  -1  223.44    6.82
   3  -2  -1  236.07    7.79
   3   2   0  218.36    7.57
   3  -2   0  209.18    7.24
   3   2   0  202.09    6.71
   3  -2   0  220.02    7.65
   3   2   1  237.61    7.52
   3  -2   1  218.94    7.66
   3   2   1  226.15    7.68
   3  -2   1  223.23    7.33
   3  -2   2  477.87   11.29
   3   2   2  481.55   11.14
   3   2   2  467.18   11.26
   3  -2   2  490.96   10.92
   3   2   3 1032.83   16.62
   3   2   3 1024.11   16.77
   3  -2   3 1053.66   16.65
   3   2   4   28.77    2.79
   3  -2   4   26.03    2.67
   3   2   4   28.65    2.68
   3  -2   5  165.46    6.70
   3   2   5  161.69    7.08
   3   2   5  166.77    6.69
   3   2   6  138.99    6.13
   3  -2   6  127.73    6.00
   3   2   6  140.79    6.82
   3   2   7   29.82    2.87
   3  -2   7   20.83    2.41
   3   2   7   27.12    3.15
   3   2   8   49.70    3.74
   3  -2   8   39.67    3.38
   3   2   8   48.92    4.20
   3  -2   9   15.60    2.11
   3   2   9   13.76    2.02
   3   2   9   14.58    2.33
   3   2  10   42.55    3.49
   3  -2  10   42.01    3.58
   3   2  10   42.95    4.19
   3  -2  11  145.64    6.77
   3   2  11  138.50    6.54
   3   2  11  142.86    7.85
   3   2  12   32.32    3.16
   3   2  12   26.94    3.42
   3  -2  12   22.56    2.81
   3  -2  13    0.70    0.72
   3   2  13   -0.38    0.54
   3   2  13   -0.05    0.65
   3  -2  14    1.36    0.71
   3   2  14    1.16    1.10
   3   2  14    0.62    0.60
   3   2  15   25.64    3.66
   3  -2  15   21.30    2.88
   3   2  15   20.19    2.56
   3   2  16   16.71    2.35
   3   2  16   15.64    2.69
   3  -2  16   13.03    2.21
   3   2  17   -0.25    0.68
   3  -2  17    0.68    0.46
   3   2  18    0.57    0.54
  -3   2  18    0.05    0.54
  -3   2  19    7.94    2.09
   3   2  19    8.11    2.41
   3   2  20    1.98    1.05
  -3   2  20    5.72    1.87
   3   2  21   13.97    3.33
   3   2  22    3.61    2.01
   3   2  23   12.25    3.08
   3   2  24    3.10    1.70
   3  -3 -29   16.49    4.02
   3  -3 -28   15.57    3.93
  -3  -3 -27   29.97    5.49
   3  -3 -27   30.95    5.25
   3  -3 -26   27.49    5.31
  -3  -3 -26   18.17    4.08
  -3  -3 -25   26.95    4.73
   3  -3 -25   30.03    4.96
  -3  -3 -24    2.88    1.78
   3  -3 -24    0.66    0.81
  -3  -3 -23   40.44    5.74
   3  -3 -23   34.42    5.22
  -3  -3 -22    6.51    2.49
   3  -3 -22    2.59    1.71
  -3  -3 -21    3.17    1.25
   3  -3 -21    4.47    2.60
  -3  -3 -20    7.69    3.06
   3  -3 -20    2.91    1.15
   3  -3 -19   34.27    4.85
  -3  -3 -19   32.50    4.73
  -3  -3 -18   44.68    5.34
   3  -3 -18   48.29    5.79
   3   3 -18   46.72    5.28
   3  -3 -17   45.04    5.48
  -3  -3 -17   40.32    5.48
   3   3 -17   44.69    4.76
   3   3 -16   34.78    3.95
   3  -3 -16   38.99    4.69
  -3  -3 -16   37.23    4.94
   3  -3 -16   32.09    4.58
   3   3 -16   30.69    3.72
   3  -3 -15   58.91    5.97
  -3  -3 -15   66.19    6.32
   3   3 -15   62.01    5.12
   3  -3 -15   57.52    5.55
   3   3 -15   61.53    5.02
  -3  -3 -14   17.20    3.45
   3  -3 -14   18.55    3.46
   3   3 -14   15.24    2.35
   3   3 -14   12.52    2.35
   3  -3 -14   13.53    2.52
   3  -3 -13  257.28   11.92
   3   3 -13  269.53   10.36
   3  -3 -13  262.63   11.42
  -3  -3 -13  227.95   11.18
   3   3 -13  273.68    9.50
   3   3 -12  442.07   11.36
  -3   3 -12  427.05    8.96
   3  -3 -12  436.87   15.24
   3  -3 -12  435.99   14.49
   3   3 -12  452.43   13.28
  -3  -3 -12  446.65   15.21
   3   3 -11   38.49    3.86
  -3   3 -11   39.01    2.90
   3  -3 -11   42.23    4.71
   3   3 -11   41.39    3.24
  -3  -3 -11   40.27    4.45
   3  -3 -11   43.75    4.41
  -3   3 -10  152.83    5.91
  -3  -3 -10  135.71    7.84
   3  -3 -10  153.04    8.60
   3   3 -10  160.00    7.77
   3   3 -10  148.09    5.62
   3  -3 -10  146.95    8.12
   3   3  -9  649.24    7.81
  -3  -3  -9  656.35   16.88
  -3   3  -9  699.89   13.13
   3   3  -9  687.66   10.95
   3   3  -9  689.57   16.16
   3  -3  -9  668.31   17.19
   3   3  -8   19.11    2.64
   3   3  -8   23.11    1.74
  -3   3  -8   23.04    2.41
   3   3  -8   26.36    1.93
   3  -3  -8   26.19    3.35
   3  -3  -8   18.03    2.80
  -3  -3  -8   22.35    2.93
  -3  -3  -7  497.32   13.57
   3  -3  -7  496.74   14.40
   3   3  -7  511.34   13.62
   3   3  -7  522.32    7.29
  -3   3  -7  535.78   11.84
   3   3  -7  513.09    8.94
   3  -3  -7  510.38   14.64
  -3   3  -6  604.74   13.00
   3  -3  -6  574.34   15.05
  -3  -3  -6  593.34   14.14
   3   3  -6  572.19    6.29
   3  -3  -6  577.42   15.15
   3   3  -6  615.51   14.84
   3   3  -6  598.33   10.40
   3   3  -5   76.77    5.27
   3  -3  -5   71.93    5.21
   3   3  -5   72.48    3.82
  -3  -3  -5   64.15    4.45
  -3   3  -5   72.85    4.62
   3  -3  -5   63.27    4.90
  -3  -3  -4 1084.35   17.40
   3   3  -4 1056.93   15.41
   3  -3  -4 1042.07   19.20
   3  -3  -4 1070.81   20.01
   3   3  -4 1067.18   19.25
   3   3  -3 2094.84   27.04
   3   3  -3 2077.66   22.52
   3  -3  -3 2140.48   27.86
  -3  -3  -3 2091.68   22.78
   3  -3  -2  348.78   10.64
   3   3  -2  345.58    9.47
   3  -3  -2  371.93   11.45
   3   3  -2  350.43   11.02
   3  -3  -1  600.70   14.48
   3   3  -1  592.05   14.31
   3  -3  -1  592.00   13.46
   3   3  -1  578.12   12.79
   3   3   0  469.30   12.76
   3  -3   0  485.21   12.91
   3  -3   0  455.72   11.53
   3   3   0  473.51   11.89
   3   3   1  571.62   13.42
   3  -3   1  571.54   12.74
   3   3   1  584.16   14.41
   3  -3   1  586.16   13.94
   3  -3   2  323.06   10.42
   3  -3   2  335.53    9.75
   3   3   2  349.52   11.16
   3   3   2  335.52   10.60
   3   3   3 2128.28   27.62
   3  -3   3 2106.78   24.54
   3  -3   3 2044.64   26.26
   3   3   3 2114.06   27.11
   3  -3   4 1048.37   18.44
   3  -3   4 1081.23   17.47
   3   3   5   68.26    4.97
   3   3   5   78.75    5.53
   3  -3   5   65.90    4.63
   3   3   6  590.39   14.78
   3   3   6  602.33   15.56
   3  -3   6  600.42   14.02
   3  -3   7  545.34   13.41
   3   3   7  519.94   14.02
   3  -3   8   23.28    2.77
   3   3   8   20.98    2.85
   3   3   8   20.90    3.06
   3   3   9  704.35   16.59
   3   3   9  678.61   17.45
   3  -3   9  678.89   15.23
   3   3  10  150.42    7.74
   3   3  10  157.75    8.61
   3  -3  10  149.91    7.20
   3   3  11   37.17    4.34
   3   3  11   46.56    4.31
   3  -3  11   45.45    4.02
   3  -3  12  441.72   12.67
   3   3  12  418.38   14.67
   3   3  12  442.96   13.77
   3   3  13  245.47   11.42
   3  -3  13  259.78    9.88
   3   3  13  242.50   10.20
   3  -3  14   18.29    2.63
   3   3  14   21.14    3.09
   3   3  14   17.64    3.20
   3   3  15   67.38    5.53
   3  -3  15   63.33    5.03
   3   3  15   58.26    5.93
   3   3  16   34.56    4.03
   3   3  16   35.34    4.61
   3  -3  16   36.12    3.73
   3   3  17   42.96    4.53
   3  -3  17   42.42    4.15
   3   3  17   48.61    5.55
   3   3  18   45.76    4.87
   3   3  18   54.78    5.87
  -3   3  19   28.56    4.54
   3   3  19   41.66    5.36
   3   3  20    7.26    1.90
  -3   3  20    6.38    2.02
   3   3  21    8.14    2.55
  -3   3  21    1.88    1.28
  -3   3  21    3.85    2.37
  -3   3  22    6.74    2.44
   3   3  22   11.38    3.33
   3   3  23   49.75    6.18
   3   3  24    4.53    2.38
   3   3  25   21.02    3.90
   3  -4 -29    4.17    2.50
  -3  -4 -28    3.70    2.22
   3  -4 -28    0.76    0.81
   3  -4 -27    8.72    3.12
  -3  -4 -27    7.19    2.59
   3  -4 -26    1.51    1.92
  -3  -4 -26    1.06    1.82
   3  -4 -25   10.27    2.73
  -3  -4 -25   17.23    3.91
   3  -4 -24    1.88    1.43
  -3  -4 -24    1.11    0.89
   3  -4 -23    0.60    1.24
  -3  -4 -23   -0.27    1.05
   3  -4 -22    1.68    1.44
  -3  -4 -22    4.23    2.45
  -3  -4 -21    8.74    3.06
   3  -4 -21    8.83    3.04
  -3  -4 -20    1.06    1.05
   3  -4 -20    0.05    1.87
  -3  -4 -19   27.08    4.62
   3  -4 -19   15.64    3.56
   3  -4 -18    5.80    2.30
  -3  -4 -18    4.20    2.15
  -3  -4 -17    0.26    0.97
   3  -4 -17   -0.28    0.72
   3  -4 -16    0.73    1.09
   3  -4 -16    5.32    2.04
  -3  -4 -16    5.98    1.91
  -3  -4 -15   12.26    3.04
   3  -4 -15   17.48    3.24
   3  -4 -15   15.21    3.03
   3   4 -15   19.47    3.09
   3   4 -14    0.24    0.89
   3  -4 -14   -0.20    0.84
   3  -4 -14   -0.47    0.61
  -3  -4 -14    0.94    1.00
   3  -4 -13   10.17    2.48
  -3  -4 -13   17.12    2.80
   3   4 -13   15.93    2.71
   3  -4 -13   18.66    3.25
   3   4 -12    8.91    2.27
  -3   4 -12    5.15    1.33
  -3  -4 -12    7.19    2.03
   3  -4 -12   10.85    2.28
   3  -4 -12   10.13    2.32
   3  -4 -11   33.83    4.36
  -3   4 -11   45.30    3.88
   3   4 -11   39.07    4.16
  -3  -4 -11   39.37    4.56
   3  -4 -11   34.70    4.54
   3   4 -10   75.13    5.85
   3  -4 -10   75.00    6.42
   3  -4 -10   69.27    6.20
  -3   4 -10   77.74    5.24
  -3  -4 -10   73.09    6.03
   3   4 -10   67.31    3.39
   3   4  -9   31.11    2.48
  -3   4  -9   36.49    3.74
   3   4  -9   35.54    4.16
   3  -4  -9   39.72    4.51
  -3  -4  -9   41.44    4.38
   3  -4  -9   36.90    4.37
   3  -4  -8   49.61    5.00
   3   4  -8   45.40    4.48
   3   4  -8   52.21    3.43
  -3   4  -8   48.89    4.21
  -3  -4  -8   43.44    4.34
   3  -4  -8   48.40    4.88
   3   4  -7   39.75    4.14
  -3   4  -7   38.51    3.80
  -3  -4  -7   30.01    3.40
   3  -4  -7   35.74    4.26
   3  -4  -7   34.45    4.09
   3   4  -7   44.65    3.44
   3  -4  -6   53.65    5.13
   3  -4  -6   50.19    4.73
  -3  -4  -6   57.11    4.59
   3   4  -6   49.97    4.70
   3   4  -6   52.82    3.84
  -3   4  -6   44.52    4.07
  -3   4  -5  218.33    9.21
  -3  -4  -5  202.90    8.36
   3   4  -5  218.41    8.05
   3  -4  -5  205.52    9.89
   3  -4  -5  220.03    9.68
   3   4  -5  206.30    9.55
   3  -4  -4  128.21    7.18
  -3   4  -4  128.16    7.13
   3   4  -4  140.73    6.64
   3   4  -4  131.62    7.60
  -3  -4  -4  133.52    6.44
   3  -4  -4  128.28    7.67
  -3  -4  -3   94.27    5.05
   3   4  -3  101.84    6.71
   3  -4  -3   87.72    5.88
   3  -4  -3  101.63    6.69
   3   4  -3   98.90    5.77
  -3   4  -3  102.78    6.34
  -3   4  -2  259.75   10.26
   3  -4  -2  274.23   11.02
  -3  -4  -2  261.21    8.05
   3   4  -2  260.40    9.53
   3  -4  -2  262.73    9.85
   3   4  -2  271.85   10.92
   3   4  -1  278.99   11.00
   3  -4  -1  298.70   10.37
  -3   4  -1  303.57   11.17
   3   4  -1  309.08   10.50
   3  -4  -1  295.72   11.35
   3  -4   0   98.85    5.76
   3   4   0  100.86    6.65
   3   4   0   99.79    6.10
   3  -4   0   83.80    6.04
   3  -4   1  303.93   10.03
   3   4   1  294.95   10.84
   3   4   1  302.62   11.54
   3  -4   1  283.55   10.85
   3  -4   2  276.04    9.42
   3   4   2  267.18   11.07
   3   4   2  268.17   10.46
   3  -4   2  256.89   10.24
   3   4   3   93.74    6.39
   3  -4   3   93.16    5.47
   3  -4   3   90.70    6.07
   3   4   3  103.61    6.61
   3   4   4  126.30    7.60
   3   4   4  135.16    7.74
   3  -4   4  134.76    7.34
   3  -4   4  139.35    6.66
   3  -4   5  218.21    9.33
   3   4   5  217.86    9.95
   3  -4   5  217.63    8.49
   3   4   5  194.56    9.49
   3   4   6   59.25    5.26
   3   4   6   52.26    5.11
   3  -4   6   53.21    4.66
   3  -4   6   47.24    3.99
   3   4   7   35.60    4.24
   3  -4   7   34.20    3.73
   3   4   7   30.99    3.89
   3   4   8   43.75    4.72
   3   4   8   51.76    5.09
   3  -4   8   46.98    4.37
   3   4   9   32.78    4.07
   3   4   9   36.29    4.32
   3  -4   9   34.36    3.70
   3   4  10   82.54    6.52
   3  -4  10   76.07    5.53
   3   4  10   69.66    6.23
   3   4  11   39.58    4.76
   3   4  11   42.27    4.67
   3  -4  11   46.30    4.26
   3  -4  12   11.20    2.20
   3   4  12    6.40    1.88
   3   4  12   10.57    2.36
   3   4  13   12.03    2.78
   3   4  13   16.61    2.97
   3  -4  13   17.74    2.77
   3   4  14    0.06    1.31
   3  -4  14   -0.10    0.67
   3   4  14    1.70    0.80
   3  -4  15   15.10    2.68
   3   4  15   15.98    2.80
   3   4  15   19.90    3.68
   3   4  16    9.03    2.90
   3   4  16    3.93    2.04
  -3   4  17    1.01    1.55
   3   4  17   -0.31    0.81
   3   4  17    0.03    1.12
   3   4  18    3.16    1.56
   3   4  18    3.63    1.33
  -3   4  19   28.22    4.56
   3   4  19   25.53    4.31
   3   4  19   18.64    3.36
  -3   4  20    1.18    1.37
  -3   4  20    2.53    1.80
   3   4  20    1.15    2.12
   3   4  21    8.29    2.95
  -3   4  21    7.07    2.25
  -3   4  21   13.50    3.32
   3   4  22    6.17    2.48
  -3   4  22    5.17    2.26
   3   4  23    5.71    2.63
  -3   4  23    0.76    1.47
   3   4  24    5.40    2.62
   3   4  25   11.70    3.57
   3   4  26    1.39    1.18
   3  -5 -28    2.75    1.23
  -3  -5 -28    0.46    1.22
  -3  -5 -27    5.10    2.35
   3  -5 -27    7.15    2.21
   3  -5 -26    2.69    1.58
  -3  -5 -26    3.36    2.21
  -3  -5 -25   14.31    3.95
   3  -5 -25   20.69    4.56
   3  -5 -24    4.78    2.59
  -3  -5 -24    9.18    3.22
   3  -5 -23    2.92    1.20
  -3  -5 -23    8.71    2.91
   3  -5 -22   11.07    3.22
  -3  -5 -22    5.65    2.61
   3  -5 -21    3.71    1.99
  -3  -5 -21    3.47    0.91
   3  -5 -20   10.94    3.17
  -3  -5 -20   17.07    3.79
  -3  -5 -19   31.50    4.95
   3  -5 -19   27.61    4.59
   3  -5 -18   12.90    3.72
  -3  -5 -18   20.82    4.34
   3  -5 -17   27.86    4.53
  -3  -5 -17   34.00    5.03
  -3  -5 -16   21.30    4.09
   3  -5 -16   25.57    4.36
   3  -5 -16   34.59    4.87
   3   5 -15   36.14    4.44
   3  -5 -15   30.63    4.66
  -3  -5 -15   34.69    4.98
   3  -5 -15   45.02    5.49
   3   5 -14   44.27    5.22
   3  -5 -14   52.69    5.80
  -3  -5 -14   49.30    5.81
   3  -5 -14   52.97    5.99
   3   5 -13  153.31    9.11
   3  -5 -13  150.15   10.02
  -3  -5 -13  132.67    9.24
   3  -5 -13  161.67   10.28
   3  -5 -12   68.73    6.60
  -3  -5 -12   86.74    7.27
   3   5 -12   81.20    6.72
   3  -5 -12   93.25    7.81
  -3   5 -12   79.87    6.15
   3   5 -11   36.24    4.56
   3  -5 -11   36.16    4.56
   3  -5 -11   29.22    4.36
  -3  -5 -11   35.03    4.61
  -3   5 -11   29.67    3.72
  -3   5 -10   33.21    3.92
  -3  -5 -10   32.82    4.23
   3  -5 -10   33.23    4.45
   3  -5 -10   38.37    4.68
   3   5 -10   32.93    4.19
   3   5  -9  140.04    8.69
   3  -5  -9  118.53    8.45
  -3   5  -9  123.04    7.65
  -3  -5  -9  118.37    7.75
   3   5  -9  121.45    6.26
   3  -5  -9  139.71    8.66
   3  -5  -8   16.33    3.09
   3   5  -8   23.98    2.74
  -3   5  -8   14.54    2.67
  -3  -5  -8   19.63    3.06
   3   5  -8   22.55    3.36
   3  -5  -8   24.41    3.72
  -3   5  -7   73.03    5.82
  -3  -5  -7   79.70    6.03
   3  -5  -7   70.92    6.06
   3   5  -7   80.49    6.51
   3   5  -7   66.88    4.89
  -3   5  -6   58.94    5.32
  -3  -5  -6   43.35    4.32
   3   5  -6   54.55    5.38
   3  -5  -6   55.44    5.60
   3   5  -6   56.35    4.65
   3  -5  -6   53.09    5.22
   3   5  -5    7.82    2.02
   3  -5  -5    6.18    1.71
   3  -5  -5    5.33    1.67
   3   5  -5    5.68    1.86
  -3  -5  -5    8.06    1.77
  -3   5  -5    9.41    2.27
  -3   5  -4   48.76    4.83
   3  -5  -4   42.92    4.81
  -3  -5  -4   46.92    4.04
   3  -5  -4   37.95    4.19
   3   5  -4   43.45    4.66
   3   5  -4   45.83    4.33
  -3   5  -3  146.99    8.48
   3   5  -3  154.88    8.88
   3   5  -3  149.03    7.95
   3  -5  -3  158.53    9.16
   3  -5  -3  142.59    7.84
  -3  -5  -3  147.89    6.79
   3   5  -2    9.47    2.20
  -3   5  -2   13.25    2.76
  -3  -5  -2   10.52    1.69
   3  -5  -2    9.20    1.91
   3   5  -2   16.11    2.95
   3  -5  -2    8.79    2.22
  -3   5  -1  173.95    9.43
  -3  -5  -1  174.67    6.53
   3   5  -1  182.04    9.70
   3  -5  -1  184.20    9.76
   3  -5  -1  176.86    8.55
   3   5  -1  167.15    8.62
  -3   5   0   89.39    6.71
   3  -5   0   85.44    5.88
   3   5   0   97.84    6.80
   3  -5   0   88.82    6.64
   3   5   0   87.66    6.71
   3   5   1  161.02    8.84
   3   5   1  166.11    9.40
   3  -5   1  173.17    9.15
  -3   5   1  171.61    9.58
   3  -5   1  164.16    8.06
   3   5   2    9.22    2.20
  -3   5   2   13.10    2.80
   3  -5   2    9.25    2.30
   3   5   2   14.03    2.85
   3  -5   2   12.63    2.24
   3   5   3  143.15    8.87
   3  -5   3  148.30    7.43
   3  -5   3  146.24    8.42
   3   5   3  152.60    8.75
  -3   5   3  153.02    8.97
  -3   5   4   46.46    5.13
   3  -5   4   49.45    4.89
   3   5   4   31.38    4.21
   3  -5   4   51.28    4.34
   3   5   4   45.26    4.79
   3  -5   5    2.49    1.34
   3   5   5    2.16    0.90
   3   5   5    5.40    2.08
  -3   5   5    6.27    2.07
   3  -5   5    4.12    1.14
   3   5   6   63.23    5.87
   3   5   6   58.83    5.79
  -3   5   6   50.22    5.44
   3  -5   6   52.47    5.08
   3  -5   6   52.67    4.38
   3  -5   7   58.97    4.81
   3  -5   7   65.87    5.59
   3   5   7   64.65    5.92
  -3   5   7   66.05    6.00
   3   5   7   69.38    6.22
  -3   5   8   21.40    3.65
   3  -5   8   16.79    2.56
   3   5   8   25.48    3.97
   3   5   8   20.08    3.49
   3  -5   8   20.89    3.08
   3  -5   9  132.16    7.95
   3   5   9  126.83    8.63
   3   5   9  135.72    9.10
  -3   5   9  136.18    9.16
   3  -5   9  125.02    7.03
   3   5  10   35.53    4.56
   3   5  10   35.08    4.70
  -3   5  10   44.35    5.21
   3  -5  10   38.67    4.32
  -3   5  11   28.68    4.40
   3   5  11   34.78    4.53
   3   5  11   30.78    4.63
   3  -5  11   26.74    3.45
   3   5  12   85.89    7.50
   3   5  12   80.89    7.16
  -3   5  12   89.13    7.75
   3  -5  12   80.84    6.22
   3   5  13  167.46   10.27
   3   5  13  150.41    9.94
   3  -5  13  149.21    8.47
  -3   5  13  170.17   10.78
   3  -5  14   51.00    5.03
  -3   5  14   54.44    5.88
   3   5  14   45.95    5.72
   3   5  14   50.95    5.83
   3   5  15   41.09    5.38
   3   5  15   33.16    4.75
  -3   5  15   40.26    5.44
   3   5  16   32.66    4.61
   3   5  16   23.71    4.34
  -3   5  16   25.24    4.33
   3   5  17   29.50    4.61
   3   5  17   31.95    4.61
  -3   5  17   41.87    5.66
   3   5  18   17.96    3.87
  -3   5  18   14.38    3.31
   3   5  18   15.02    3.46
  -3   5  19   24.24    4.55
   3   5  19   40.94    5.86
   3   5  19   30.27    4.93
   3   5  20   24.28    4.44
  -3   5  20   21.09    4.41
  -3   5  21    4.52    2.55
  -3   5  21    3.30    1.99
   3   5  21    6.14    2.45
   3   5  22    4.78    2.19
  -3   5  22    6.71    2.54
  -3   5  22    5.18    1.83
   3   5  23   12.84    3.20
  -3   5  23   14.25    3.84
  -3   5  24    7.43    3.21
   3   5  24   10.64    3.05
   3   5  25   15.57    4.16
   3   5  26    4.96    2.15
   3   5  27    5.60    3.27
  -3  -6 -26   -1.68    2.08
   3  -6 -26    1.73    3.00
   3  -6 -25    4.57    2.67
  -3  -6 -25    5.58    2.76
  -3  -6 -24    3.66    1.70
   3  -6 -24    4.56    1.66
   3  -6 -23   -0.63    1.84
  -3  -6 -23   -2.51    2.11
   3  -6 -22    3.21    3.03
  -3  -6 -22    2.24    1.25
   3  -6 -21    9.29    2.75
  -3  -6 -21    3.48    2.11
   3  -6 -20    3.71    2.09
  -3  -6 -20   -1.96    1.82
   3  -6 -19   15.09    3.71
  -3  -6 -19   22.33    4.45
  -3  -6 -18   12.87    3.52
   3  -6 -18    7.44    2.20
   3  -6 -17    4.77    2.40
   3  -6 -17    7.49    1.61
   3  -6 -16   14.33    3.59
  -3  -6 -16   11.21    2.49
   3  -6 -16   14.86    3.45
   3  -6 -15   33.04    4.88
   3  -6 -15   33.05    5.26
  -3  -6 -15   33.29    5.10
   3  -6 -14    6.90    2.81
  -3  -6 -14    3.47    1.55
   3  -6 -14    9.77    2.87
   3   6 -14    5.94    2.14
   3   6 -13   84.71    7.53
  -3  -6 -13   76.86    7.03
   3  -6 -13   69.31    7.05
   3  -6 -13   82.33    7.67
  -3  -6 -12    4.26    1.66
   3   6 -12    6.72    2.20
   3  -6 -12    6.82    2.46
   3  -6 -12    1.06    0.99
   3  -6 -11   50.04    5.75
   3   6 -11   50.62    5.51
  -3   6 -11   48.34    5.36
   3  -6 -11   49.65    5.91
  -3  -6 -11   40.97    5.02
  -3   6 -10   19.79    3.41
  -3  -6 -10   14.57    3.17
   3   6 -10   14.45    3.10
   3  -6 -10   15.81    3.26
   3  -6 -10   13.17    3.12
   3  -6  -9   13.15    2.95
  -3   6  -9   17.63    3.28
  -3  -6  -9    9.67    2.60
   3   6  -9   15.08    3.08
   3   6  -8   28.13    4.05
   3  -6  -8   31.29    4.58
   3  -6  -8   24.71    3.85
  -3   6  -8   32.97    4.46
  -3  -6  -8   24.10    3.57
   3   6  -8   26.75    3.48
  -3   6  -7   48.47    5.34
  -3  -6  -7   47.50    4.98
   3  -6  -7   50.34    5.61
   3  -6  -7   51.01    5.32
   3   6  -7   54.97    5.16
   3   6  -7   53.02    5.73
   3   6  -6   12.70    2.54
  -3   6  -6   10.28    2.64
  -3  -6  -6    9.64    1.99
   3  -6  -6    8.89    2.15
   3   6  -6   10.60    2.77
   3  -6  -6   12.64    2.44
  -3   6  -5   52.46    5.55
  -3  -6  -5   49.78    4.70
   3  -6  -5   56.41    5.35
   3   6  -5   53.34    5.76
   3   6  -5   46.08    4.84
   3  -6  -5   49.43    5.56
   3   6  -4   13.20    2.68
   3   6  -4   10.18    2.67
  -3  -6  -4   10.49    2.22
   3  -6  -4    9.98    2.53
   3  -6  -4    8.77    2.80
  -3   6  -4    7.83    2.40
   3   6  -3   58.16    5.49
  -3  -6  -3   66.44    4.91
  -3   6  -3   63.43    6.18
   3   6  -3   54.16    5.63
   3  -6  -3   61.50    5.58
   3  -6  -3   70.35    6.35
   3   6  -2   81.78    6.43
   3   6  -2   83.56    7.08
  -3   6  -2   62.26    5.92
  -3  -6  -2   77.95    5.11
   3  -6  -2   67.88    5.63
   3  -6  -2   83.87    7.13
  -3   6  -1   58.59    5.92
   3   6  -1   58.74    5.56
   3   6  -1   57.10    5.85
  -3  -6  -1   49.56    3.79
   3  -6  -1   54.51    5.91
   3  -6  -1   50.75    4.77
   3  -6   0    3.01    1.86
   3   6   0    2.19    0.61
  -3   6   0    1.36    1.86
   3  -6   0    1.65    1.15
   3   6   0    0.95    1.19
  -3   6   1   52.20    5.75
   3   6   1   60.30    6.15
   3   6   1   47.91    5.26
   3  -6   1   45.81    5.18
   3  -6   1   47.68    4.66
   3   6   2   71.26    6.57
  -3   6   2   70.60    6.46
   3  -6   2   77.04    5.77
   3   6   2   72.68    6.43
   3  -6   2   63.40    5.93
   3   6   3   49.30    5.37
   3   6   3   66.00    6.47
   3  -6   3   59.06    5.86
  -3   6   3   52.68    5.79
   3  -6   3   55.78    4.86
   3   6   4   12.72    3.29
   3   6   4    8.01    2.24
   3  -6   4    6.87    1.71
  -3   6   4   10.85    2.64
   3  -6   4    9.53    2.45
   3  -6   5   49.56    5.27
   3   6   5   65.96    6.30
  -3   6   5   58.31    6.05
   3  -6   5   48.41    4.47
   3   6   5   55.36    5.83
  -3   6   6   14.17    3.29
   3   6   6   16.71    3.29
   3   6   6   13.07    2.92
   3  -6   6   11.96    2.19
   3  -6   6    8.85    2.10
  -3   6   7   58.25    6.15
   3   6   7   54.05    6.11
   3   6   7   51.04    5.61
   3  -6   7   56.21    4.91
   3  -6   7   45.01    4.97
   3  -6   8   22.19    3.51
  -3   6   8   22.06    4.03
   3   6   8   30.75    4.72
   3   6   8   30.58    4.40
   3  -6   8   29.53    3.55
   3  -6   9   17.72    2.80
   3   6   9   11.90    2.97
  -3   6   9    9.46    2.50
   3   6   9   19.25    3.60
   3  -6   9   13.80    2.98
  -3   6  10   12.42    3.09
   3   6  10   19.84    3.92
   3  -6  10   13.60    2.63
   3  -6  10   19.66    3.11
   3   6  10   16.78    3.39
   3   6  11   51.35    6.00
   3  -6  11   54.70    5.06
  -3   6  11   54.36    6.29
   3  -6  11   50.73    5.38
   3   6  11   48.87    5.95
   3   6  12    2.25    0.78
   3  -6  12    4.44    1.97
  -3   6  12    3.69    2.08
  -3   6  13   69.17    7.22
   3   6  13   73.37    7.17
   3   6  13   82.58    7.71
   3  -6  13   67.69    6.07
   3   6  14    1.77    1.76
  -3   6  14    0.37    0.73
   3   6  15   29.25    5.14
  -3   6  15   29.01    4.70
   3   6  15   22.17    4.02
  -3   6  16   10.56    2.75
   3   6  16   11.31    2.86
   3   6  16   10.11    2.85
   3   6  17    7.55    1.96
   3   6  17   12.88    3.39
  -3   6  17    5.44    2.24
   3   6  18   11.77    3.14
   3   6  18   19.71    4.05
  -3   6  18   15.76    3.21
   3   6  19   20.21    4.02
  -3   6  19   26.03    4.87
   3   6  19   25.33    4.74
   3   6  20    2.11    1.87
   3   6  20    0.45    1.60
  -3   6  20    4.40    1.60
  -3   6  21    1.42    1.43
  -3   6  21    7.17    3.21
   3   6  21    3.01    2.21
  -3   6  22   -1.75    1.98
  -3   6  22    3.14    1.78
   3   6  22    3.37    1.55
  -3   6  23    2.02    1.48
   3   6  23    1.99    1.88
   3   6  24    5.01    2.92
  -3   6  24    3.11    1.80
  -3   6  25    3.68    1.97
   3   6  25    2.03    1.55
   3   6  26    1.31    1.73
   3  -7 -24    0.93    2.26
  -3  -7 -24    4.61    1.95
   3  -7 -23   13.08    3.78
  -3  -7 -23    4.92    2.46
   3  -7 -22    9.47    2.51
  -3  -7 -22   14.73    4.06
   3  -7 -21    4.09    2.34
  -3  -7 -21    3.44    2.76
  -3  -7 -20    6.27    2.15
   3  -7 -20    0.82    1.97
  -3  -7 -19    7.86    1.82
   3  -7 -19   14.92    4.30
   3  -7 -18    3.26    1.60
  -3  -7 -18    2.52    2.51
  -3  -7 -17   19.74    3.79
   3  -7 -17   17.97    4.05
   3  -7 -16   25.82    4.50
  -3  -7 -16   22.04    3.96
   3  -7 -16   23.38    4.59
   3  -7 -15    8.31    2.53
   3  -7 -15   16.80    3.53
  -3  -7 -15   10.15    2.79
  -3  -7 -14    7.78    2.94
   3   7 -14   10.63    2.90
   3  -7 -14   15.32    3.65
   3  -7 -14    9.09    3.08
   3   7 -13   34.60    5.03
   3  -7 -13   40.30    5.59
  -3  -7 -13   38.87    5.43
   3  -7 -13   32.58    5.20
   3  -7 -12   15.69    3.43
   3   7 -12   11.00    2.66
   3  -7 -12   10.19    2.57
   3   7 -11    1.59    1.34
  -3  -7 -11   -0.43    1.46
  -3   7 -11    2.05    1.05
   3  -7 -11   -0.01    1.24
   3  -7 -11    1.23    0.85
  -3  -7 -10   17.71    3.38
   3  -7 -10   23.73    4.67
  -3   7 -10   20.82    3.96
   3  -7 -10   18.88    3.73
   3   7 -10   25.23    4.28
   3  -7  -9   58.85    6.61
  -3   7  -9   54.39    6.14
   3  -7  -9   58.38    6.22
   3   7  -9   63.17    6.71
  -3  -7  -9   55.54    5.83
   3   7  -8   15.62    3.17
  -3  -7  -8    8.34    2.06
  -3   7  -8   12.68    3.00
   3  -7  -8    6.66    1.76
   3  -7  -8    9.26    2.20
   3   7  -7   12.71    2.96
   3   7  -7   18.63    3.68
  -3  -7  -7   21.66    3.60
  -3   7  -7   18.10    3.66
   3  -7  -7   23.43    3.60
   3  -7  -7   17.46    3.86
  -3   7  -6   45.86    5.48
  -3  -7  -6   46.06    4.99
   3   7  -6   41.54    5.50
   3  -7  -6   48.82    5.56
   3  -7  -6   38.85    5.19
   3   7  -6   45.99    5.18
   3   7  -5    9.62    2.34
   3   7  -5   20.34    3.90
  -3   7  -5   15.72    3.34
  -3  -7  -5   10.80    2.33
   3  -7  -5   19.14    4.01
   3  -7  -5   15.02    2.64
   3   7  -4   66.32    6.26
  -3   7  -4   65.33    6.96
  -3  -7  -4   68.67    5.73
   3  -7  -4   63.05    6.02
   3   7  -4   73.75    7.32
   3  -7  -4   64.66    6.75
  -3   7  -3   65.46    6.90
   3  -7  -3   69.13    6.26
   3  -7  -3   64.07    6.54
   3   7  -3   72.42    6.74
  -3  -7  -3   70.46    5.48
   3   7  -2   49.08    5.48
   3  -7  -2   50.99    5.97
   3   7  -2   49.24    5.99
  -3   7  -2   58.11    6.30
   3  -7  -2   47.99    5.19
   3   7  -1  153.23   10.42
   3  -7  -1  163.54   10.55
  -3   7  -1  153.96   10.34
   3  -7  -1  154.41    9.04
   3   7  -1  146.72    9.80
   3   7   0  111.83    8.70
   3  -7   0  102.49    7.38
   3  -7   0  116.43    8.91
  -3   7   0   98.29    8.12
   3   7   0  118.07    8.76
   3  -7   1  152.49    8.77
  -3   7   1  163.50   10.51
   3  -7   1  161.26   10.66
   3   7   1  148.87    9.85
   3   7   1  154.18   10.32
   3   7   2   50.45    6.02
   3  -7   2   54.10    5.88
   3  -7   2   61.88    5.51
  -3   7   2   45.47    5.92
   3   7   2   47.97    5.55
   3   7   3   81.08    7.30
   3   7   3   92.49    8.12
  -3   7   3   67.92    7.04
   3  -7   3   82.57    7.37
   3  -7   3   67.37    5.84
   3   7   4   77.69    7.57
  -3   7   4   79.53    7.59
   3  -7   4   64.35    5.63
   3  -7   4   73.84    7.07
   3   7   4   69.78    6.90
   3   7   5   10.98    2.48
   3   7   5   21.94    4.20
   3  -7   5   16.29    2.95
   3  -7   5   16.70    3.37
  -3   7   5   15.29    3.24
   3   7   6   35.39    5.19
   3   7   6   35.75    4.89
   3  -7   6   48.13    5.74
  -3   7   6   38.66    5.40
  -3   7   7   18.49    3.69
   3   7   7   21.66    3.86
   3  -7   7   17.46    3.36
   3   7   7   25.16    4.50
   3   7   8    8.67    2.63
   3   7   8    6.63    2.68
  -3   7   8    6.77    2.63
   3  -7   8   11.34    2.91
   3  -7   9   68.83    6.65
   3   7   9   64.67    6.87
  -3   7   9   70.10    7.40
   3   7   9   66.29    7.01
   3   7  10   20.43    4.05
   3   7  10   22.87    4.03
  -3   7  10   19.40    4.23
   3  -7  10   24.30    4.42
   3  -7  11    4.15    2.01
   3   7  11    0.33    1.13
  -3   7  11    1.30    1.42
   3   7  11    1.06    1.86
   3  -7  12    5.22    2.05
   3   7  12    7.17    3.03
  -3   7  12    3.21    1.10
   3   7  12    6.18    2.67
   3   7  13   30.89    5.12
   3   7  13   39.41    5.51
  -3   7  13   23.50    4.38
  -3   7  14    3.61    2.25
   3   7  14    7.93    2.52
   3   7  14   12.32    3.05
   3   7  15    9.04    2.71
  -3   7  15    9.83    2.97
   3   7  15    7.77    2.56
  -3   7  16   17.79    4.45
   3   7  16   27.08    4.94
   3   7  16   22.55    4.74
   3   7  17    7.93    2.92
   3   7  17   13.55    3.84
  -3   7  17   15.43    3.77
  -3   7  18   -0.31    0.94
   3   7  18    0.73    1.13
   3   7  18    3.28    1.89
  -3   7  19    6.96    3.14
   3   7  19   15.04    3.59
   3   7  19   10.44    3.67
   3   7  20    4.96    2.36
   3   7  20    8.13    2.77
  -3   7  20    7.90    3.23
   3   7  21    5.18    1.96
  -3   7  21    9.68    3.25
  -3   7  21    5.62    2.58
   3   7  22   12.59    3.65
  -3   7  22    9.25    3.85
  -3   7  22    4.42    2.58
   3   7  23    4.67    1.24
  -3   7  23    2.42    1.52
   3   7  24    2.21    1.66
  -3   7  24   11.04    3.92
   3  -8 -22    2.22    1.81
  -3  -8 -22   11.11    3.82
   3  -8 -21   -1.87    1.57
  -3  -8 -21    1.08    1.81
  -3  -8 -20    1.90    2.57
   3  -8 -20    4.16    2.20
  -3  -8 -19   -1.38    2.67
   3  -8 -19    1.29    1.11
   3  -8 -18    1.29    2.04
  -3  -8 -18    1.97    2.04
  -3  -8 -17    7.73    3.06
   3  -8 -17    7.71    2.14
  -3  -8 -16   -1.01    1.46
   3  -8 -16    2.24    2.05
   3  -8 -15   14.61    3.77
  -3  -8 -15   13.36    3.32
   3  -8 -15   10.52    2.95
  -3  -8 -14    3.54    2.90
   3  -8 -14    0.36    1.57
   3  -8 -14    2.15    1.80
   3   8 -13   26.15    5.06
   3  -8 -13   31.42    5.44
  -3  -8 -13   27.07    4.80
   3  -8 -13   26.32    4.73
   3  -8 -12   11.09    2.95
  -3  -8 -12    6.99    2.42
   3   8 -12    7.07    2.45
   3  -8 -12    5.33    2.56
   3   8 -11   -0.49    0.89
  -3  -8 -11    2.70    1.07
   3  -8 -11    1.31    1.43
   3  -8 -11   -0.13    1.54
   3  -8 -10    3.75    1.81
  -3  -8 -10    4.30    0.98
  -3   8 -10    3.69    2.41
   3   8 -10    3.09    1.95
   3  -8 -10    6.29    2.28
   3  -8  -9   17.20    3.83
  -3   8  -9   19.72    4.08
  -3  -8  -9   18.62    3.76
   3   8  -9   17.29    3.45
   3  -8  -9   17.84    3.84
  -3   8  -8    6.08    2.59
  -3  -8  -8    4.46    2.08
   3  -8  -8    4.80    1.98
   3   8  -8    6.82    2.66
   3  -8  -8    6.64    2.51
   3   8  -7   11.63    2.96
  -3   8  -7   15.09    3.35
   3  -8  -7    6.80    2.30
   3  -8  -7    9.14    2.34
   3  -8  -6    0.17    1.86
   3   8  -6   -0.94    1.28
   3   8  -6    0.46    2.26
   3  -8  -6    1.03    0.91
  -3   8  -6    1.93    1.25
   3  -8  -5    6.79    2.52
  -3   8  -5    6.27    2.40
   3   8  -5    9.17    3.13
   3  -8  -5    7.40    2.08
   3   8  -5    5.99    1.56
  -3   8  -4   22.05    4.10
   3  -8  -4   26.13    4.51
   3  -8  -4   29.07    4.64
   3   8  -4   23.30    4.05
   3   8  -4   24.74    4.04
   3   8  -3   12.80    3.34
   3  -8  -3   12.32    2.95
  -3   8  -3    8.00    2.63
   3  -8  -3   10.86    2.58
   3   8  -3   10.08    2.90
   3  -8  -2    4.58    2.60
   3  -8  -2    1.87    1.93
  -3   8  -2    2.20    2.26
   3   8  -2    2.43    2.13
   3   8  -2    0.14    0.97
   3   8  -1   12.26    3.17
   3   8  -1   15.26    3.77
   3  -8  -1   15.83    3.18
  -3   8  -1   10.30    2.88
   3  -8  -1   19.29    3.84
   3   8   0   -0.06    0.96
   3   8   0    1.28    1.57
  -3   8   0    0.15    1.88
   3  -8   0   -1.21    2.04
  -3   8   1   20.47    4.20
   3   8   1   11.92    3.05
   3   8   1   15.15    3.87
   3  -8   1   13.41    3.31
   3   8   2    3.65    2.31
   3   8   2    1.56    2.33
  -3   8   2    1.51    1.91
   3  -8   2    3.54    1.95
   3   8   3   11.74    2.99
   3   8   3    8.87    2.72
  -3   8   3    8.44    2.72
   3  -8   3   12.15    2.93
   3   8   4   28.48    5.25
   3   8   4   24.89    4.44
   3  -8   4   17.05    3.84
  -3   8   4   17.71    4.05
   3   8   5   10.15    2.97
   3   8   5    7.30    2.68
  -3   8   5    7.71    2.53
   3  -8   5   11.91    3.38
  -3   8   6    4.03    2.20
   3   8   6   -0.88    1.52
   3   8   6    2.40    1.64
   3  -8   6    2.71    1.62
   3  -8   7   16.61    3.45
   3   8   7    5.85    1.79
   3   8   7   12.43    3.49
  -3   8   7   13.01    3.11
   3   8   8    5.44    2.23
   3  -8   8    8.54    2.59
   3   8   8    5.42    2.29
  -3   8   8    4.75    2.32
  -3   8   9   17.65    3.81
   3   8   9   15.32    3.80
   3   8   9   21.44    3.96
   3  -8   9   14.50    3.59
  -3   8  10    4.76    2.17
   3   8  10    3.97    2.05
   3   8  10    2.25    1.46
   3  -8  10    7.25    2.49
   3   8  11    1.27    2.78
  -3   8  11    0.93    0.96
   3   8  11    2.51    1.20
   3  -8  11    1.23    1.77
  -3   8  12    4.06    2.28
   3   8  12    5.80    1.85
   3   8  12    9.96    3.26
   3   8  13   26.25    5.09
   3   8  13   18.68    3.99
  -3   8  13   30.69    5.21
   3   8  14    2.09    1.50
   3   8  14    3.24    1.28
  -3   8  14    2.41    1.68
   3   8  15    4.98    2.85
   3   8  15   11.91    3.03
  -3   8  15    6.21    1.18
  -3   8  16    6.30    3.06
   3   8  16    4.42    2.40
   3   8  16    0.91    0.92
   3   8  17    2.20    1.74
  -3   8  17    4.44    1.94
   3   8  17    5.76    3.16
   3   8  18   -0.67    1.82
  -3   8  18    0.46    1.78
   3   8  18    2.30    2.38
   3   8  19   -0.61    1.26
   3   8  19   -0.05    0.82
  -3   8  20   -0.35    1.60
   3   8  20    1.04    1.56
   3   8  20    2.70    2.29
  -3   8  20    1.93    1.26
   3   8  21   -1.34    1.93
  -3   8  21   -0.94    1.77
  -3   8  21    4.63    3.39
   3   8  22    7.22    3.43
  -3   8  22    2.24    1.67
  -3   8  22    4.90    3.70
  -3  -9 -19    6.75    3.48
   3  -9 -19    7.26    3.12
   3  -9 -18    2.50    3.05
  -3  -9 -18   -2.20    1.28
   3  -9 -17    4.94    2.70
  -3  -9 -17    0.60    1.08
  -3  -9 -16    3.92    2.22
   3  -9 -16    0.95    1.86
  -3  -9 -15    4.99    3.20
   3  -9 -15    6.05    2.12
   3  -9 -14    3.87    2.71
   3  -9 -14    5.79    2.05
   3  -9 -13    7.78    2.42
   3  -9 -13    7.34    3.13
   3   9 -12    4.22    2.81
   3  -9 -12    4.44    2.34
   3  -9 -12    5.50    2.51
   3  -9 -11   10.43    3.38
   3   9 -11    5.16    2.01
   3  -9 -11    4.57    2.21
   3   9 -10   10.77    3.43
   3  -9 -10    9.60    3.12
   3  -9 -10   12.91    3.58
  -3   9  -9   35.10    5.42
   3   9  -9   42.08    6.28
   3  -9  -9   23.34    4.29
   3  -9  -9   35.37    5.73
   3  -9  -8   15.27    4.11
  -3   9  -8   18.06    4.33
   3  -9  -8    9.56    3.05
   3   9  -8   17.53    4.08
   3   9  -7   30.49    5.17
  -3   9  -7   23.68    4.53
   3  -9  -7   22.32    4.21
   3  -9  -7   24.00    4.60
  -3   9  -6   21.90    4.36
   3  -9  -6   18.12    3.71
   3   9  -6   26.25    4.73
   3  -9  -5   20.50    4.26
  -3   9  -5   17.32    3.57
   3   9  -5   26.58    5.02
   3   9  -4   41.50    5.84
   3   9  -4   43.02    6.16
  -3   9  -4   48.52    6.25
   3  -9  -4   31.16    5.47
   3  -9  -3   50.05    6.45
   3   9  -3   48.90    6.51
  -3   9  -3   37.45    5.68
   3   9  -3   49.63    6.29
   3   9  -2   18.61    4.20
  -3   9  -2   20.22    4.56
   3   9  -2   16.02    3.70
   3  -9  -2   11.74    3.20
  -3   9  -1   36.59    5.54
   3   9  -1   32.91    5.43
   3  -9  -1   38.76    5.50
   3   9  -1   37.85    5.64
   3   9   0   25.25    4.97
  -3   9   0   26.31    4.87
   3  -9   0   13.35    3.56
   3   9   0   20.80    4.39
   3  -9   1   39.90    5.75
   3   9   1   46.67    6.47
  -3   9   1   47.89    6.58
   3   9   1   39.57    5.57
  -3   9   2   12.55    3.53
   3   9   2   16.51    3.56
   3  -9   2    8.89    2.78
   3   9   2   13.20    3.37
   3   9   3   46.76    6.19
   3   9   3   49.46    6.47
  -3   9   3   64.09    7.58
   3  -9   3   48.44    6.24
   3  -9   4   40.63    6.16
   3   9   4   30.77    5.21
  -3   9   4   44.31    6.37
   3   9   4   40.74    5.80
   3   9   5   18.33    4.31
   3   9   5   21.86    4.41
  -3   9   5   21.21    4.30
   3  -9   5   17.18    4.23
  -3   9   6   25.77    4.96
   3   9   6   22.10    4.30
   3   9   6   30.86    5.02
   3  -9   6   28.55    4.91
   3  -9   7   26.81    4.78
   3   9   7   29.77    5.08
   3   9   7   21.57    4.51
  -3   9   7   23.48    4.87
   3   9   8   18.73    4.48
  -3   9   8   15.87    3.56
   3  -9   8   15.92    4.14
   3   9   8   14.59    3.73
   3   9   9   32.51    5.64
  -3   9   9   48.39    6.49
   3  -9   9   34.52    5.79
   3   9   9   39.65    5.93
   3   9  10    4.75    2.01
   3   9  10   13.02    3.67
  -3   9  10   13.05    3.75
   3   9  11    2.17    2.61
   3   9  11    6.81    3.07
  -3   9  11    4.02    2.01
   3   9  12    0.26    1.21
   3   9  12    4.69    2.20
  -3   9  12    5.71    2.15
   3   9  13    8.46    3.03
   3   9  13    9.13    3.16
  -3   9  13    3.18    2.98
   3   9  14    3.39    2.37
   3   9  14    3.41    2.49
  -3   9  14   -0.22    0.99
   3   9  15    9.62    2.96
   3   9  15    1.65    1.09
  -3   9  15    8.19    3.33
   3   9  16    1.59    1.28
  -3   9  16    3.31    1.67
   3   9  16    1.22    1.07
   3   9  17   -0.64    1.75
   3   9  17    1.12    1.96
  -3   9  17    1.25    1.10
  -3   9  18    2.26    2.88
   3   9  18   -0.24    1.40
   3   9  18    1.90    1.99
   3   9  19    8.32    2.79
  -3   9  19    9.70    3.94
   3   9  19   10.09    3.97
  -3   9  19    4.54    2.12
   3 -10 -15   -0.06    1.63
   3 -10 -12    2.04    0.94
   3 -10 -11    8.66    3.10
   3  10 -11    8.58    2.90
   3  10 -10   12.73    4.01
   3 -10 -10    5.56    2.56
   3  10  -9    6.23    2.74
   3 -10  -9    2.39    1.40
   3  10  -8    8.72    3.26
  -3  10  -8    9.86    3.31
   3 -10  -8   14.63    4.44
   3 -10  -7    1.53    1.58
   3  10  -7    2.49    1.85
  -3  10  -7    0.41    2.25
   3  10  -6    0.03    1.50
  -3  10  -6    3.04    1.27
   3 -10  -6    0.62    2.08
   3  10  -5   15.78    4.05
   3 -10  -5   12.78    3.23
  -3  10  -5   10.24    3.88
  -3  10  -4   20.05    4.97
   3 -10  -4   19.14    4.04
   3  10  -4   19.53    4.52
   3  10  -3   42.93    6.38
  -3  10  -3   32.66    5.84
   3 -10  -3   41.88    6.22
   3  10  -3   34.34    5.25
   3  10  -2    9.24    2.94
  -3  10  -2    4.58    2.74
   3  10  -2   13.75    3.40
   3 -10  -2   11.81    3.58
  -3  10  -1    1.36    1.77
   3  10  -1    3.72    2.42
   3  10  -1    3.30    2.46
   3 -10  -1    4.35    2.35
   3  10   0    2.82    2.65
   3  10   0    4.22    1.43
  -3  10   0    4.94    1.82
   3 -10   0    3.88    1.58
   3  10   1    5.74    2.10
   3 -10   1    3.86    1.84
  -3  10   1    4.94    2.78
   3  10   1    4.33    2.53
   3  10   2    8.10    3.30
   3  10   2    9.54    3.59
  -3  10   2    5.46    2.90
   3 -10   2    9.78    3.00
   3  10   3   28.87    5.43
  -3  10   3   37.61    6.04
   3 -10   3   33.05    5.90
   3  10   3   40.56    6.25
   3  10   4   21.82    4.21
   3  10   4   26.47    5.18
  -3  10   4   12.88    4.10
   3 -10   4   29.04    5.12
   3  10   5   16.95    4.00
   3  10   5   21.23    4.72
  -3  10   5   24.26    4.44
   3 -10   5   13.57    3.89
   3  10   6   -2.08    1.28
  -3  10   6    3.78    2.39
   3 -10   6    0.18    1.48
   3  10   6    5.43    2.95
   3  10   7   -0.52    1.42
  -3  10   7    3.45    3.11
   3 -10   7   -1.94    1.99
   3  10   7    0.16    1.11
   3  10   8   12.79    3.61
  -3  10   8    8.51    3.12
   3  10   8    8.60    3.59
   3  10   9    1.97    1.19
   3  10   9   13.84    4.01
  -3  10   9    8.83    3.05
  -3  10  10    0.97    1.13
   3  10  10    0.79    0.71
   3  10  11   16.26    4.01
  -3  10  11    7.69    2.80
   3  10  11   16.22    4.29
  -3  10  12    1.69    2.47
   3  10  12    2.74    0.94
   3  10  12    2.87    1.49
   3  10  13    1.78    1.57
  -3  10  13    1.16    1.74
   3  10  13    1.29    2.06
   3  10  14   -0.31    1.51
  -3  10  14   -0.31    1.84
  -3  10  15    2.82    1.52
   3  10  15   -0.58    1.54
   3  11  -9    6.28    2.68
   3 -11  -9    2.28    1.77
  -3  11  -8    6.10    4.08
   3 -11  -8   14.14    4.35
   3  11  -8    8.80    3.38
  -3  11  -7    9.04    3.34
   3 -11  -7    8.46    3.46
   3  11  -7    3.42    1.11
   3  11  -6    6.70    3.07
   3 -11  -6   -0.69    0.95
  -3  11  -6    4.68    2.66
   3  11  -5    3.66    3.21
  -3  11  -5    2.42    1.27
   3 -11  -5    6.15    2.09
   3 -11  -4    6.33    1.98
  -3  11  -4   -0.53    2.04
   3  11  -4    9.05    3.73
   3 -11  -3   -0.10    1.24
   3  11  -3   -1.55    2.21
  -3  11  -3    1.76    1.91
  -3  11  -2   -0.51    1.23
   3  11  -2    0.55    1.89
   3  11  -1    2.43    1.60
  -3  11  -1   -1.04    1.21
   3 -11  -1    4.49    2.34
   3  11  -1    0.72    1.25
  -3  11   0    1.73    1.22
   3  11   0   -1.32    1.54
   3 -11   0   -2.36    2.44
   3  11   0   -0.70    1.23
  -3  11   1   -1.45    1.37
   3  11   1    2.96    2.21
   3 -11   1    1.23    2.23
   3  11   1   -0.04    1.75
  -3  11   2    4.37    1.81
   3  11   2    6.21    2.88
   3 -11   2   -0.02    1.14
   3  11   2    7.00    3.53
   3  11   3    0.38    2.06
   3 -11   3   -0.63    1.55
   3  11   3   -2.18    1.70
  -3  11   3    2.37    1.17
   3  11   4    9.29    3.27
  -3  11   4    7.09    2.76
   3  11   4    5.80    2.37
   3 -11   4    6.64    3.51
  -3  11   5    3.40    2.27
   3 -11   5   -0.25    1.66
   3  11   5    2.95    2.15
   3  11   5    2.40    1.87
  -3  11   6    0.71    1.76
   3 -11   6    6.43    2.90
   3  11   6    5.79    2.52
   3  11   6    1.47    2.06
   3  11   7   14.36    3.68
  -3  11   7   15.79    3.81
   3  11   7   11.11    3.41
   3  11   8    8.06    3.26
   3  11   8    8.27    3.24
  -3  11   8    8.80    2.53
   3  11   9    1.91    2.29
  -3  11   9    3.21    2.28
   3  11   9    4.61    2.82
   4   0 -30    0.72    1.51
   4   0 -29   -0.27    1.48
   4   0 -28    0.80    1.87
   4   0 -27   27.07    4.77
   4   0 -26   49.75    6.70
   4   0 -25   11.49    3.56
   4   0 -24   12.80    3.44
   4   0 -23   26.93    4.54
   4   0 -22   34.30    5.18
   4   0 -21   38.84    5.29
   4   0 -20   54.84    5.98
   4   0 -19   75.08    6.97
   4   0 -18  106.12    8.08
   4   0 -17  375.95   14.93
   4   0 -16   88.59    7.06
   4   0 -15  164.28    9.13
   4   0 -14  131.19    5.81
   4   0 -14  133.28    8.02
   4   0 -13   71.61    5.77
   4   0 -13   70.92    4.09
   4   0 -12   58.99    3.70
   4   0 -12   66.57    5.44
   4   0 -11  782.92   12.96
   4   0 -11  767.46   17.72
   4   0 -10   55.53    4.66
   4   0 -10   56.93    3.49
   4   0  -9  782.99   16.72
   4   0  -9  779.58   12.76
   4   0  -8  185.21    7.83
   4   0  -8  187.78    6.12
   4   0  -7   35.85    3.34
   4   0  -7   34.98    3.17
   4   0  -7   34.22    2.57
   4   0  -6   78.80    4.74
   4   0  -6   82.14    3.99
   4   0  -6   84.69    4.79
   4   0  -5  255.66    8.23
   4   0  -5  259.94    7.20
   4   0  -5  253.28    8.24
   4   0  -4   83.44    4.05
   4   0  -4   91.25    4.85
   4   0  -4   88.71    4.75
   4   0  -3 1060.59   15.84
   4   0  -3 1057.63   14.29
   4   0  -3 1016.04   15.51
   4   0  -2  698.91   11.90
   4   0  -2  689.39   12.50
   4   0  -2  688.02   12.67
   4   0  -1  398.70    9.36
   4   0  -1  385.40    9.46
   4   0  -1  383.68    9.02
   4   0   0  440.88    9.83
   4   0   0  463.12    9.98
   4   0   1  387.05    9.28
   4   0   1  408.03    9.11
   4   0   2  644.24   11.31
   4   0   2  692.03   12.73
   4   0   3  990.17   13.47
   4   0   3 1022.60   16.03
   4   0   4   92.58    4.01
   4   0   4   87.44    4.85
   4   0   5  260.41    6.55
   4   0   5  259.72    8.52
   4   0   6   84.79    5.00
   4   0   6   80.99    3.58
   4   0   7   36.71    2.35
   4   0   7   33.08    3.11
   4   0   8  179.88    5.00
   4   0   8  185.59    7.80
   4   0   9  798.45   16.55
   4   0   9  803.38   10.11
   4   0  10   46.50    4.04
   4   0  10   50.04    2.43
   4   0  11  784.69   17.22
   4   0  11  743.35    8.79
   4   0  12   52.06    2.07
   4   0  12   63.13    5.05
   4   0  13   69.20    5.45
   4   0  14  115.89    7.19
   4   0  15  159.03    8.57
   4   0  16   94.17    6.77
  -4   0  16   82.13    4.69
   4   0  17  351.80   13.62
  -4   0  17   78.01    3.29
   4   0  18  102.82    7.66
   4   0  19   68.42    6.31
   4   0  20   41.03    5.24
   4   0  21   34.89    4.76
   4   0  22   33.15    4.70
   4  -1 -30   -2.28    2.71
   4  -1 -29    0.36    1.58
   4   1 -28   -7.03    2.58
   4  -1 -28   -1.07    2.24
   4   1 -27   -0.49    1.46
   4  -1 -27   -1.11    1.58
   4  -1 -26   -1.28    1.57
   4   1 -26    0.24    1.79
   4  -1 -25    5.65    2.00
   4   1 -25    4.55    1.93
   4   1 -24   18.25    3.84
   4  -1 -24   12.57    3.63
   4   1 -23    5.20    1.93
   4  -1 -23    0.31    0.94
   4   1 -22    8.29    2.26
   4  -1 -22    7.59    2.50
   4  -1 -21    1.77    1.40
   4   1 -21    3.00    2.31
   4  -1 -20    0.78    0.64
   4   1 -20    1.33    1.34
   4  -1 -19   23.65    4.29
   4   1 -19   18.84    3.29
   4  -1 -18   32.40    4.50
   4   1 -18   23.49    3.82
   4   1 -17   13.20    2.93
   4  -1 -17   16.73    3.01
   4  -1 -16  170.04    9.84
   4   1 -16  172.94    9.58
   4  -1 -16  154.84    7.89
   4   1 -15    1.20    0.75
   4  -1 -15    2.40    1.22
   4  -1 -15    0.96    0.57
   4  -1 -14   30.38    3.28
   4   1 -14   34.82    3.97
   4  -1 -14   30.30    3.99
   4  -1 -13   23.42    2.82
   4   1 -13   24.56    3.22
   4  -1 -13   31.38    4.02
   4  -1 -12   30.61    3.92
   4   1 -12   29.03    3.38
   4   1 -12   25.52    1.63
   4  -1 -12   29.61    3.10
   4   1 -12   33.16    3.42
   4   1 -11   54.79    2.48
   4  -1 -11   63.36    5.30
   4   1 -11   61.16    4.64
   4  -1 -11   65.63    4.59
   4   1 -11   62.03    4.56
   4   1 -10  410.05    6.68
   4   1 -10  436.30   11.94
   4  -1 -10  425.91   13.39
   4   1 -10  441.58   12.22
   4  -1 -10  438.16   11.69
   4  -1  -9    8.95    2.10
   4   1  -9    9.77    1.70
   4   1  -9    6.03    0.84
   4   1  -9    6.77    1.58
   4  -1  -9    8.09    1.63
   4   1  -8  129.71    4.03
   4  -1  -8  129.71    6.03
   4   1  -8  137.11    6.54
   4   1  -8  122.01    5.86
   4  -1  -8  131.30    7.10
   4   1  -7   23.15    1.78
   4  -1  -7   24.52    2.59
   4   1  -7   20.40    2.47
   4  -1  -7   22.45    2.87
   4   1  -7   24.82    2.47
   4   1  -6   88.97    3.58
   4   1  -6   85.65    5.07
   4  -1  -6   94.42    5.55
   4  -1  -6  102.04    5.14
   4   1  -6   92.46    4.67
   4  -1  -5   63.72    4.07
   4  -1  -5   56.94    4.20
   4   1  -5   60.18    3.04
   4   1  -5   62.79    4.17
   4   1  -5   59.78    3.71
   4  -1  -4  247.63    7.98
   4  -1  -4  240.87    8.56
   4   1  -4  246.02    6.42
   4   1  -4  237.49    7.11
   4   1  -4  250.32    8.15
   4  -1  -3   28.69    2.68
   4   1  -3   26.77    2.22
   4   1  -3   28.35    2.38
   4  -1  -3   29.51    2.91
   4   1  -3   32.95    2.91
   4   1  -2   55.43    3.31
   4  -1  -2   57.75    3.87
   4   1  -2   50.29    3.63
   4  -1  -2   51.73    3.71
   4   1  -2   51.96    3.21
   4   1  -1   17.90    1.89
   4  -1  -1   12.29    1.78
   4  -1  -1   12.69    1.85
   4   1  -1   16.07    1.97
   4  -1   0  137.59    6.03
   4  -1   0  155.76    6.28
   4   1   0  141.43    5.57
   4   1   1   11.75    1.66
   4  -1   1   14.76    1.95
   4   1   1   15.44    1.92
   4   1   2   54.60    3.67
   4  -1   2   59.12    3.90
   4   1   2   47.57    3.30
   4  -1   3   26.30    2.71
   4   1   3   33.72    2.79
   4   1   3   26.39    2.70
   4   1   4  243.77    8.36
   4  -1   4  249.67    8.29
   4   1   4  254.75    7.58
   4  -1   5   55.90    3.92
   4   1   5   56.46    3.49
   4   1   6   99.23    4.62
   4  -1   6   94.58    5.22
   4   1   6   91.80    5.44
   4   1   7   18.49    1.98
   4   1   7   24.17    2.82
   4  -1   7   23.19    2.71
   4   1   8  130.00    5.31
   4   1   8  124.97    6.64
   4  -1   8  127.02    6.36
   4  -1   9    5.53    1.24
   4   1   9    6.13    1.46
   4   1   9    8.72    1.45
   4   1  10  445.20    9.77
   4   1  10  404.29   12.50
   4  -1  10  410.46   11.97
   4   1  11   59.81    3.58
   4  -1  11   60.16    4.63
   4   1  12   34.25    2.64
   4  -1  12   30.62    3.47
   4   1  12   32.00    3.82
   4   1  13   26.61    2.42
   4   1  13   28.41    3.59
   4  -1  13   29.60    3.49
  -4  -1  13   22.55    1.44
   4   1  14   32.21    2.61
   4   1  14   27.15    3.69
   4  -1  14   29.23    3.56
   4   1  15    1.94    0.73
   4  -1  15    2.56    1.08
   4   1  15    2.01    1.24
   4   1  16  168.75    9.40
   4  -1  16  166.94    8.87
   4  -1  17   11.24    2.26
   4   1  17   10.35    2.61
   4   1  18   36.79    4.64
   4  -1  18   27.70    3.70
  -4   1  18   27.63    3.47
   4  -1  19   15.32    2.90
   4   1  19   24.62    3.57
   4  -1  20    0.49    0.67
   4   1  20    4.91    2.20
   4   1  21    3.75    1.59
   4   1  22    9.74    2.92
   4   1  23    6.00    2.30
   4  -2 -30    2.53    2.14
   4  -2 -29    2.53    2.45
   4  -2 -28    0.10    1.27
   4  -2 -27    8.94    3.17
   4  -2 -26   19.96    4.40
   4  -2 -25   36.64    5.54
   4  -2 -24    5.96    2.22
   4  -2 -23    0.97    1.58
   4   2 -23    6.20    3.21
   4   2 -22   28.62    4.26
   4  -2 -22   29.54    5.02
   4  -2 -21   32.53    5.21
   4   2 -21   30.30    4.53
   4   2 -20    1.81    1.20
   4  -2 -20    0.64    1.04
   4   2 -19   66.05    6.34
   4  -2 -19   69.44    7.06
  -4  -2 -19   83.15    7.66
   4   2 -18    6.87    1.96
   4  -2 -18    7.85    2.40
  -4  -2 -18    7.97    2.49
   4   2 -17    6.21    1.96
   4  -2 -17    5.39    1.71
   4  -2 -17    3.66    2.25
  -4  -2 -17    8.68    2.38
  -4  -2 -16  147.79    9.62
   4  -2 -16  119.46    8.57
   4  -2 -16  137.40    8.26
   4   2 -16  118.84    7.66
   4   2 -16  132.37    7.46
   4  -2 -15   76.74    6.02
  -4  -2 -15   79.05    6.74
   4   2 -15   84.67    5.84
   4   2 -15   77.51    6.01
   4  -2 -15   78.65    6.74
  -4  -2 -14   36.28    4.64
   4   2 -14   37.41    3.98
   4  -2 -14   30.56    3.74
   4   2 -14   27.16    3.23
   4  -2 -14   34.77    4.56
   4   2 -13   68.89    5.11
  -4  -2 -13   71.51    6.20
   4  -2 -13   66.34    5.30
   4  -2 -13   65.68    6.04
   4   2 -13   80.13    5.62
  -4  -2 -12  140.61    8.54
   4  -2 -12  122.84    7.94
   4  -2 -12  133.02    7.51
   4   2 -12  141.00    7.02
   4   2 -12  143.34    7.41
   4  -2 -11   29.71    3.55
  -4   2 -11   26.26    1.70
   4   2 -11   29.50    2.95
  -4  -2 -11   33.25    4.10
   4  -2 -11   35.86    4.14
   4   2 -11   32.02    3.43
   4  -2 -10  177.11    9.05
  -4   2 -10  172.89    4.91
   4  -2 -10  170.52    8.38
   4   2 -10  180.56    8.06
  -4  -2 -10  183.42    9.22
   4   2 -10  181.53    7.22
   4  -2  -9   50.67    4.72
   4   2  -9   48.11    4.03
   4  -2  -9   49.96    4.30
   4   2  -9   48.87    3.50
   4  -2  -8    8.33    1.65
   4   2  -8    9.08    1.68
   4   2  -8   10.54    1.56
   4   2  -8   10.50    1.06
   4  -2  -8   10.52    2.16
   4   2  -7    3.02    1.65
   4   2  -7    3.76    1.05
   4   2  -7    3.30    0.65
   4  -2  -7    3.67    0.85
   4  -2  -7    3.79    1.31
   4   2  -6    3.14    1.05
   4  -2  -6    3.64    1.49
   4   2  -6    3.96    0.76
   4   2  -6    4.14    0.97
   4  -2  -6    2.01    0.48
   4  -2  -5   17.66    2.56
   4   2  -5   24.35    2.03
   4   2  -5   23.04    2.79
   4  -2  -5   18.05    2.46
   4   2  -5   20.49    1.86
   4   2  -4  565.14   13.39
   4  -2  -4  547.98   13.80
   4   2  -4  561.01    9.40
   4   2  -4  574.49   10.30
   4  -2  -4  565.42   13.62
   4   2  -3  157.98    5.01
   4   2  -3  156.97    5.76
   4  -2  -3  175.81    7.62
   4  -2  -3  159.81    7.17
   4   2  -3  154.28    6.98
   4  -2  -2   74.00    4.86
   4   2  -2   71.40    4.74
   4  -2  -2   77.80    4.94
   4   2  -2   78.41    4.20
   4   2  -1   53.12    3.99
   4  -2  -1   66.67    4.55
   4   2  -1   64.20    3.88
   4  -2  -1   55.13    4.14
   4   2   0   63.66    4.39
   4  -2   0   58.88    4.21
   4  -2   0   59.30    4.21
   4   2   0   57.82    3.78
   4  -2   1   50.51    3.96
   4   2   1   55.31    4.01
   4   2   1   60.04    4.02
   4  -2   1   62.18    4.29
   4   2   2   78.02    4.77
   4  -2   2   78.50    4.97
   4   2   2   69.67    4.49
   4  -2   2   72.89    4.64
   4   2   3  164.57    6.95
   4   2   3  155.22    6.92
   4  -2   3  170.13    7.26
   4   2   4  574.44   13.05
   4  -2   4  547.31   13.23
   4   2   4  551.28   13.44
   4  -2   5   16.97    2.37
   4   2   5   13.50    2.17
   4   2   5   16.14    2.16
   4  -2   6    2.55    0.83
   4   2   6    3.30    1.33
   4   2   6    3.10    1.13
   4   2   7    4.09    0.83
   4  -2   7    4.22    1.29
   4   2   7    3.43    1.16
   4  -2   8   10.62    1.85
   4   2   8   10.55    1.80
   4   2   8    8.08    1.86
   4  -2   9   50.19    4.19
   4   2   9   55.08    4.11
   4   2   9   52.44    4.74
   4   2  10  178.41    7.50
   4  -2  10  175.06    7.91
   4   2  10  169.12    8.70
   4   2  11   34.08    3.30
   4  -2  11   32.88    3.46
   4   2  11   32.68    3.79
   4   2  12  135.84    6.71
   4  -2  12  143.79    7.41
   4   2  12  134.82    8.05
   4   2  13   66.83    4.69
   4  -2  13   67.44    5.25
   4   2  13   70.67    5.92
   4   2  14   34.52    3.39
   4   2  14   39.93    4.59
   4  -2  14   35.17    3.97
   4   2  15   87.19    6.83
   4   2  15   79.10    5.17
   4  -2  15   71.62    5.67
   4   2  16  125.76    8.58
   4   2  16  125.20    6.63
   4  -2  16  133.05    7.94
   4   2  17    5.19    1.56
   4  -2  17    1.76    0.82
   4   2  17    3.64    1.60
   4   2  18    5.64    1.85
   4  -2  18    7.89    2.24
   4   2  19   69.17    6.66
   4  -2  19   63.00    5.80
   4   2  20    3.87    1.71
  -4   2  20    1.94    1.02
   4   2  21   26.22    4.32
   4   2  22   28.17    4.66
   4   2  23   -0.60    0.83
   4   2  24    1.69    1.71
   4  -3 -29   -1.84    1.62
   4  -3 -28   -0.75    1.78
   4  -3 -27    4.03    2.74
   4  -3 -26    0.38    1.48
   4  -3 -25   -0.08    1.55
   4  -3 -24    1.24    1.62
   4  -3 -23    3.05    2.41
  -4  -3 -23    4.17    2.44
  -4  -3 -22   -0.77    1.41
   4  -3 -22    0.26    0.94
  -4  -3 -21    0.70    1.45
   4  -3 -21    0.96    0.82
   4  -3 -20    1.29    1.33
  -4  -3 -20   -0.51    1.96
   4  -3 -19    3.82    1.95
  -4  -3 -19    2.22    1.06
   4  -3 -18    8.41    2.48
   4  -3 -18    4.56    2.11
  -4  -3 -18    3.90    1.37
   4  -3 -17   15.90    3.31
  -4  -3 -17   17.02    3.50
   4  -3 -17   17.81    3.51
   4   3 -16    8.84    2.23
  -4  -3 -16    6.75    2.49
   4   3 -16    4.69    1.63
   4  -3 -16    8.09    2.54
   4  -3 -16    8.85    2.37
   4  -3 -15   32.85    4.31
  -4  -3 -15   31.21    4.52
   4   3 -15   29.55    3.63
   4  -3 -15   34.18    4.85
   4   3 -15   30.24    3.83
   4  -3 -14    0.70    1.12
   4   3 -14    2.15    1.08
   4  -3 -14    1.73    1.59
  -4  -3 -14    2.51    1.75
   4   3 -14    1.78    1.21
   4  -3 -13   12.81    3.12
   4  -3 -13   20.17    3.40
   4   3 -13   11.35    2.32
   4   3 -13   16.83    2.50
  -4  -3 -13   14.53    2.75
   4  -3 -12   22.21    3.45
  -4   3 -12   25.07    2.35
  -4  -3 -12   29.38    4.11
   4   3 -12   23.24    2.60
   4   3 -12   27.39    3.47
   4  -3 -12   23.49    3.38
   4   3 -11    5.92    1.81
  -4   3 -11    6.73    1.31
  -4  -3 -11    7.14    1.69
   4  -3 -11   11.19    2.59
   4  -3 -11    5.37    1.81
   4   3 -11    6.93    1.35
  -4  -3 -10   14.11    2.54
  -4   3 -10    9.90    1.57
   4   3 -10   11.98    1.70
   4  -3 -10   13.26    2.93
   4   3 -10   14.32    2.49
   4  -3 -10    9.98    2.35
  -4  -3  -9   26.02    3.49
  -4   3  -9   25.87    2.61
   4   3  -9   27.19    2.37
   4   3  -9   30.60    3.49
   4  -3  -9   24.48    3.35
   4   3  -9   26.24    1.75
   4  -3  -9   33.62    3.99
   4  -3  -8    0.63    0.64
   4   3  -8    2.70    0.71
  -4  -3  -8    2.34    0.38
   4  -3  -8    2.70    1.09
   4   3  -8    2.34    0.61
   4   3  -8    4.36    1.21
  -4   3  -8    3.36    0.84
   4   3  -7   30.05    2.00
  -4   3  -7   35.14    3.22
   4   3  -7   31.76    2.35
   4  -3  -7   27.67    3.56
   4  -3  -7   27.76    3.57
   4   3  -7   31.90    3.52
  -4  -3  -7   31.32    3.37
   4   3  -6  263.43   10.16
   4   3  -6  255.83    7.34
   4   3  -6  262.51    5.39
   4  -3  -6  257.22   10.35
   4  -3  -6  253.78   10.39
   4   3  -5   30.16    3.41
   4   3  -5   32.63    2.73
   4  -3  -5   31.81    3.67
   4  -3  -5   29.91    3.67
   4   3  -5   29.07    1.69
   4  -3  -4   13.59    2.40
   4   3  -4   11.53    2.10
   4  -3  -4   11.79    2.14
   4   3  -4    7.89    1.40
   4   3  -4   10.05    0.99
   4   3  -3   45.64    2.29
   4  -3  -3   53.45    4.46
   4  -3  -3   58.01    4.89
   4   3  -3   43.72    3.42
   4   3  -3   49.12    4.30
   4  -3  -2   38.09    3.71
   4  -3  -2   40.55    3.94
   4   3  -2   38.03    3.19
   4   3  -2   43.87    4.07
   4  -3  -1   77.61    5.22
   4   3  -1   66.99    5.10
   4   3  -1   75.83    4.79
   4  -3  -1   66.06    5.05
   4   3   0  243.15    8.76
   4   3   0  244.41    9.68
   4  -3   0  237.62    8.98
   4  -3   0  239.44    9.53
   4  -3   1   72.94    5.00
   4  -3   1   76.90    5.33
   4   3   1   68.01    5.22
   4   3   1   69.59    4.82
   4  -3   2   36.80    3.64
   4   3   2   37.92    3.56
   4  -3   2   38.84    3.60
   4   3   2   34.79    3.57
   4   3   3   48.34    4.28
   4  -3   3   54.61    4.46
   4  -3   3   44.70    3.99
   4   3   3   43.09    4.03
   4  -3   4   11.20    2.05
   4   3   4   10.14    2.11
   4   3   4    9.49    1.96
   4  -3   4   12.08    2.09
   4   3   5   25.99    3.16
   4   3   5   28.54    3.38
   4  -3   5   30.50    3.37
   4   3   6  262.18   10.09
   4   3   6  255.48   10.34
   4  -3   6  267.38    9.94
   4   3   7   29.61    3.55
   4  -3   7   28.11    3.23
   4   3   7   29.95    3.60
   4   3   8    1.57    0.74
   4  -3   8    1.39    0.88
   4   3   9   25.93    3.26
   4   3   9   28.38    3.69
   4  -3   9   31.08    3.48
   4  -3  10   10.74    2.12
   4   3  10   10.33    2.12
   4   3  10   12.14    2.54
   4   3  11    4.62    1.33
   4  -3  11    5.25    1.61
   4   3  11    2.89    1.52
   4   3  12   25.35    3.22
   4   3  12   25.12    3.79
   4  -3  12   24.21    3.19
   4   3  13   10.78    2.26
   4   3  13   12.69    2.57
   4  -3  13   15.10    2.62
   4   3  14    2.24    1.46
   4   3  14    1.16    0.84
   4  -3  14    1.32    0.57
   4   3  15   32.00    3.83
   4  -3  15   28.74    3.67
   4   3  15   32.76    4.50
   4  -3  16    2.47    1.36
   4   3  16    4.88    1.37
   4   3  16    7.06    1.86
   4   3  17   24.15    3.14
   4  -3  17   19.16    3.04
   4   3  17   15.30    3.37
   4   3  18    6.10    2.03
   4   3  19    3.14    1.24
   4   3  20   -0.70    1.45
  -4   3  21   -0.26    1.12
   4   3  21    0.44    1.66
   4   3  22    0.17    1.22
   4   3  23   -0.74    0.86
   4   3  24   -0.10    0.86
   4   3  25    1.17    1.90
   4  -4 -28    3.30    2.78
   4  -4 -27   11.63    3.41
   4  -4 -26   18.80    4.23
  -4  -4 -25   14.22    3.84
   4  -4 -25   12.86    3.62
   4  -4 -24    4.44    1.97
  -4  -4 -24    1.93    2.09
  -4  -4 -23   12.42    3.57
   4  -4 -23    7.67    2.40
  -4  -4 -22   10.53    3.36
   4  -4 -22   12.13    3.13
  -4  -4 -21   38.26    5.43
   4  -4 -21   41.86    5.92
   4  -4 -20   19.71    3.91
  -4  -4 -20   17.99    3.98
   4  -4 -19    4.11    2.30
  -4  -4 -19    4.49    1.57
   4  -4 -18    9.97    2.78
  -4  -4 -18    8.15    2.58
   4  -4 -18    6.29    2.20
   4  -4 -17    6.39    2.82
   4  -4 -17    4.11    1.49
  -4  -4 -17    3.85    1.95
   4  -4 -16   62.19    6.30
  -4  -4 -16   52.03    5.99
   4   4 -16   61.34    5.88
   4  -4 -16   61.22    6.57
   4  -4 -15  364.44   15.65
   4   4 -15  327.39   13.17
  -4  -4 -15  345.90   15.23
   4  -4 -15  349.22   14.94
   4  -4 -14   53.55    5.84
   4   4 -14   56.77    5.40
   4  -4 -14   51.64    5.73
  -4  -4 -14   53.51    5.81
   4  -4 -13   31.23    4.55
   4  -4 -13   22.03    3.63
   4   4 -13   28.01    3.86
  -4  -4 -13   27.24    4.07
   4  -4 -12   91.54    7.52
   4  -4 -12   87.06    7.11
   4   4 -12   99.80    7.04
  -4  -4 -12   94.78    7.51
   4   4 -11  118.45    7.63
   4  -4 -11  114.77    8.11
  -4   4 -11   91.99    5.79
  -4  -4 -11  109.73    7.71
   4  -4 -11  125.32    8.50
   4   4 -10  100.06    7.06
   4  -4 -10  103.68    7.46
  -4   4 -10   97.28    5.94
  -4  -4 -10   96.96    6.94
   4  -4 -10   91.44    7.19
   4   4  -9   67.98    3.79
  -4   4  -9   70.92    5.13
  -4  -4  -9   67.73    5.76
   4  -4  -9   73.35    6.23
   4  -4  -9   61.62    5.77
   4   4  -9   61.47    5.43
  -4   4  -8   10.08    1.95
  -4  -4  -8   12.08    2.43
   4  -4  -8   14.09    2.77
   4   4  -8    9.46    1.43
   4   4  -8   13.81    2.70
   4  -4  -8   10.87    2.43
   4   4  -7  117.30    7.45
  -4  -4  -7  128.75    7.42
  -4   4  -7  123.33    6.89
   4  -4  -7  121.02    7.84
   4  -4  -7  104.14    7.28
   4   4  -7  117.89    5.58
   4   4  -6   11.04    2.42
   4   4  -6    9.38    1.68
  -4  -4  -6   12.48    2.22
  -4   4  -6   13.73    2.46
   4  -4  -6   10.09    2.10
   4  -4  -6   10.79    2.30
   4   4  -5   61.64    4.29
   4   4  -5   67.06    5.58
  -4  -4  -5   59.67    4.67
  -4   4  -5   64.67    5.11
   4  -4  -5   60.57    5.44
   4  -4  -5   54.68    5.01
   4   4  -4  209.41    8.29
   4  -4  -4  192.87    9.25
   4  -4  -4  209.07   10.06
   4   4  -4  197.36    9.61
  -4   4  -4  205.06    9.15
   4  -4  -3   81.33    5.87
   4   4  -3   85.13    6.24
   4   4  -3   96.77    5.72
   4  -4  -3   85.46    6.40
   4  -4  -2    6.69    1.90
   4   4  -2    5.52    1.48
   4  -4  -2    7.41    1.82
   4   4  -2    8.26    1.70
   4  -4  -1    4.16    1.76
   4   4  -1    6.13    1.65
   4   4  -1    4.47    1.77
   4  -4  -1    4.00    1.41
   4  -4   0   11.84    2.19
   4   4   0   10.98    2.38
   4  -4   0   10.30    2.00
   4   4   0    9.80    1.90
   4  -4   1    3.92    1.54
   4   4   1    2.54    1.18
   4  -4   1    2.98    1.09
   4   4   1    3.03    1.50
   4   4   2    7.60    1.89
   4  -4   2    8.80    1.93
   4   4   2   10.90    2.12
   4  -4   2    8.13    1.82
   4   4   3   95.16    6.52
   4  -4   3   77.00    5.36
   4   4   3   91.10    6.34
   4  -4   3   84.42    6.06
   4   4   4  239.47   10.64
   4   4   4  200.69    9.53
   4  -4   4  213.72    9.01
   4  -4   4  214.63    9.66
   4  -4   5   58.14    4.79
   4   4   5   59.50    5.28
   4   4   5   63.70    5.48
   4  -4   5   59.84    5.12
   4  -4   6   11.98    2.30
   4   4   6   10.32    2.23
   4  -4   6   12.09    2.24
   4   4   6    9.49    2.17
   4   4   7  107.90    7.19
   4   4   7  100.97    7.06
   4  -4   7  108.30    6.93
   4  -4   8   13.51    2.53
   4   4   8   13.48    2.53
   4   4   8    9.61    2.52
   4   4   9   66.59    5.87
   4   4   9   64.76    5.64
   4  -4   9   74.03    5.69
   4   4  10   97.62    7.06
   4  -4  10   91.60    6.43
   4   4  10   81.92    6.76
   4   4  11  105.42    7.85
   4   4  11  106.86    7.43
   4  -4  11  110.88    7.07
   4   4  12  101.63    7.31
   4  -4  12   91.89    6.62
   4  -4  13   22.66    3.27
   4   4  13   30.65    3.95
   4   4  13   26.32    4.01
   4  -4  14   51.94    5.07
   4   4  14   53.22    6.02
   4   4  14   68.33    6.18
   4   4  15  349.94   14.05
   4   4  15  339.06   14.93
   4  -4  15  334.03   12.83
   4   4  16   58.58    5.69
   4   4  16   64.94    6.75
   4  -4  16   51.28    5.09
   4   4  17    0.68    0.61
   4   4  17    1.55    1.15
   4   4  18    6.08    2.44
   4   4  18    9.09    2.69
   4   4  19    4.96    2.35
   4   4  20   13.17    3.09
  -4   4  21   31.67    5.16
   4   4  21   47.59    6.01
  -4   4  22    9.00    2.26
  -4   4  22    8.11    2.50
   4   4  22    8.89    2.53
   4   4  23   13.23    3.52
   4   4  24    0.84    1.45
   4   4  25   13.25    3.69
   4   4  26   11.85    3.54
   4  -5 -27    0.49    0.86
   4  -5 -26    2.68    1.05
   4  -5 -25    2.26    1.14
  -4  -5 -25    2.03    2.10
  -4  -5 -24   14.15    3.65
   4  -5 -24    6.52    3.40
  -4  -5 -23   -1.00    1.77
   4  -5 -23    4.04    1.81
   4  -5 -22   10.59    2.97
  -4  -5 -22    1.91    1.71
  -4  -5 -21   -0.28    1.15
   4  -5 -21    2.04    1.51
   4  -5 -20    4.43    2.04
  -4  -5 -20    6.74    2.75
  -4  -5 -19    1.04    0.79
   4  -5 -19    8.03    3.00
   4  -5 -18   12.29    3.41
  -4  -5 -18   11.33    3.40
   4  -5 -18    8.75    2.73
   4  -5 -17   40.94    5.76
   4  -5 -17   47.97    6.08
  -4  -5 -17   47.35    5.85
   4  -5 -16   33.74    4.86
   4  -5 -16   31.17    4.65
  -4  -5 -16   44.06    5.80
   4  -5 -15   62.59    6.65
  -4  -5 -15   72.24    7.24
   4  -5 -15   65.42    6.80
   4   5 -15   70.74    6.64
   4   5 -14    3.67    1.95
   4  -5 -14    3.41    1.81
  -4  -5 -14    7.42    2.86
   4  -5 -14    2.85    1.52
   4   5 -13   57.13    5.84
   4  -5 -13   47.21    5.53
   4  -5 -13   55.52    6.19
  -4  -5 -13   53.88    5.89
   4   5 -12   54.80    5.79
   4  -5 -12   50.02    5.58
  -4  -5 -12   50.83    5.69
   4  -5 -12   52.35    5.76
   4  -5 -11    4.52    2.15
   4   5 -11    2.43    1.35
  -4   5 -11    4.76    1.72
   4  -5 -11    5.23    1.82
  -4  -5 -11    2.72    1.30
   4  -5 -10   24.86    4.20
   4   5 -10   30.15    4.22
  -4   5 -10   32.40    3.90
  -4  -5 -10   28.86    4.15
   4  -5 -10   38.97    4.58
   4  -5  -9   21.40    3.69
  -4  -5  -9   19.58    3.29
  -4   5  -9   19.65    3.13
   4   5  -9   24.78    3.75
   4  -5  -9   15.11    3.20
   4   5  -9   26.09    2.94
   4  -5  -8    7.71    1.81
   4   5  -8    7.70    1.59
  -4   5  -8    7.21    1.80
   4   5  -8   10.61    2.38
  -4  -5  -8    7.54    1.86
   4   5  -7   18.24    3.20
   4   5  -7   17.94    2.35
  -4  -5  -7   18.02    3.05
   4  -5  -7   19.62    3.39
   4  -5  -7   15.04    3.06
  -4   5  -7   11.60    2.28
   4   5  -6    5.38    1.79
   4  -5  -6    5.82    2.32
  -4  -5  -6    4.12    1.53
  -4   5  -6    7.18    1.78
   4  -5  -6    4.07    1.63
   4   5  -6    9.86    2.00
   4   5  -5    6.78    1.70
  -4  -5  -5    6.71    1.66
   4   5  -5   12.99    2.53
   4  -5  -5    8.49    2.19
  -4   5  -5   10.57    2.52
   4  -5  -5    9.84    2.46
  -4  -5  -4   36.68    3.70
   4   5  -4   43.39    4.32
  -4   5  -4   45.29    4.74
   4  -5  -4   43.77    4.70
   4   5  -4   40.18    4.73
   4  -5  -4   44.81    4.99
   4  -5  -3   11.44    2.30
   4   5  -3    9.97    2.08
  -4   5  -3    9.26    2.24
   4   5  -3   12.82    2.46
   4  -5  -3   13.12    2.74
   4  -5  -2    1.77    1.31
   4   5  -2    1.82    1.26
   4  -5  -2    0.17    0.74
   4   5  -2    1.09    0.66
  -4   5  -2    1.53    1.17
  -4   5  -1   33.94    4.27
   4   5  -1   34.94    4.43
   4   5  -1   38.17    4.20
   4  -5  -1   39.29    4.25
   4  -5  -1   37.43    4.57
   4  -5   0   13.95    2.56
   4  -5   0   16.79    2.80
  -4   5   0   16.83    2.91
   4   5   0   16.03    2.57
   4   5   0   15.95    3.24
   4  -5   1   36.43    4.03
   4  -5   1   34.93    4.32
   4   5   1   41.33    4.68
  -4   5   1   35.60    4.42
   4   5   1   38.99    4.31
   4  -5   2    0.52    0.71
   4  -5   2    1.29    1.08
   4   5   2   -0.32    0.52
   4   5   2    0.17    0.58
   4  -5   3    9.32    2.50
   4  -5   3   10.86    2.25
   4   5   3   13.56    3.12
   4   5   3    5.24    1.78
   4   5   4   46.80    4.97
   4  -5   4   41.60    4.25
   4   5   4   52.47    5.28
   4  -5   4   49.65    5.08
   4  -5   5   10.04    2.26
   4   5   5   10.92    2.74
   4   5   5   14.25    2.76
   4  -5   5   11.99    2.42
   4   5   6    9.88    2.40
   4  -5   6    6.55    1.86
   4   5   6    8.67    2.44
   4  -5   6    5.91    1.78
   4   5   7   16.52    3.18
   4  -5   7   19.52    3.31
   4   5   7   14.34    2.90
   4  -5   7   16.00    2.63
   4   5   8   10.31    2.50
   4   5   8    8.94    1.97
   4  -5   8    7.12    1.91
   4  -5   8    6.43    1.88
   4   5   9   20.29    3.24
   4  -5   9   21.86    3.35
   4  -5   9   17.42    2.93
   4   5   9   16.16    3.17
   4   5  10   33.76    4.56
   4   5  10   30.97    4.19
   4  -5  10   26.37    3.99
   4  -5  11    1.85    1.31
   4   5  11    5.01    1.63
   4   5  11    2.72    1.79
   4  -5  12   55.90    5.48
   4   5  12   47.70    5.79
   4   5  12   66.78    6.35
   4   5  13   46.09    5.74
   4   5  13   49.69    5.65
   4  -5  13   54.88    5.39
   4  -5  14    1.87    1.47
   4   5  14    4.37    1.41
   4   5  14    3.39    1.34
   4   5  15   69.51    7.01
   4   5  15   83.14    7.60
   4  -5  15   60.23    5.85
   4   5  16   50.21    5.89
  -4   5  16   44.58    5.67
   4   5  16   42.66    5.55
   4   5  17   45.14    5.59
  -4   5  17   32.63    5.20
   4   5  17   40.85    5.69
   4   5  18   11.67    3.38
   4   5  18   14.79    3.62
  -4   5  18   16.95    3.53
   4   5  19    1.99    1.12
   4   5  19    2.17    1.24
  -4   5  19    4.56    2.50
   4   5  20    8.70    2.73
  -4   5  20    2.99    2.01
  -4   5  21    0.06    0.92
   4   5  21    0.17    0.78
   4   5  22    3.94    2.07
  -4   5  22    6.41    2.73
  -4   5  22    5.09    2.41
  -4   5  23    0.10    1.41
   4   5  23    5.20    2.53
   4   5  24    7.56    2.84
   4   5  25    0.51    1.73
   4   5  26    1.92    1.79
   4   5  27    4.14    2.61
  -4  -6 -26    3.38    2.18
   4  -6 -26    3.99    1.83
   4  -6 -25    5.11    3.01
  -4  -6 -25    6.43    2.45
  -4  -6 -24    9.61    3.19
   4  -6 -24    3.99    2.10
  -4  -6 -23   10.18    3.31
   4  -6 -23    9.55    3.57
  -4  -6 -22    3.44    1.86
   4  -6 -22    9.68    3.06
  -4  -6 -21   31.62    5.22
   4  -6 -21   17.08    3.99
  -4  -6 -20   67.03    7.61
   4  -6 -20   53.01    6.86
   4  -6 -19    4.21    2.24
  -4  -6 -19    3.10    2.46
   4  -6 -18    4.93    2.10
   4  -6 -18    3.77    1.36
  -4  -6 -18    2.73    1.82
  -4  -6 -17   43.93    6.08
   4  -6 -17   37.71    5.42
   4  -6 -17   32.87    5.27
  -4  -6 -16   10.00    2.96
   4  -6 -16   10.17    2.75
   4  -6 -16    7.81    2.55
  -4  -6 -15  190.74   11.88
   4   6 -15  207.21   12.07
   4  -6 -15  187.34   11.91
   4  -6 -15  190.34   12.14
   4   6 -14   47.61    5.79
   4  -6 -14   61.43    6.88
  -4  -6 -14   46.54    6.04
   4  -6 -14   40.97    5.71
   4   6 -13   11.02    2.64
   4  -6 -13    3.86    1.73
   4  -6 -13   13.03    3.61
  -4  -6 -13    7.03    2.27
   4   6 -12   12.87    3.17
   4  -6 -12   13.63    3.15
   4  -6 -12   19.28    3.84
  -4  -6 -12   13.45    2.90
   4   6 -11  212.32   11.80
   4  -6 -11  211.96   11.83
  -4   6 -11  207.25   11.14
  -4  -6 -11  212.36   11.77
   4  -6 -11  206.61   12.11
   4   6 -10   41.47    5.24
  -4  -6 -10   40.65    5.01
   4  -6 -10   51.37    5.76
   4  -6 -10   47.12    5.73
  -4   6 -10   41.87    4.97
   4   6  -9   96.09    7.81
  -4   6  -9   87.34    7.17
  -4  -6  -9   91.09    7.32
   4  -6  -9   90.72    7.72
   4  -6  -9   89.93    7.84
  -4  -6  -8   23.81    3.53
   4   6  -8   18.46    3.52
  -4   6  -8   24.66    3.71
   4   6  -8   24.42    3.54
   4  -6  -8   22.08    3.69
   4  -6  -8   23.64    4.05
   4   6  -7    8.07    2.19
   4   6  -7    7.88    2.09
  -4  -6  -7    5.72    1.84
  -4   6  -7    7.35    2.27
   4  -6  -7    3.62    1.68
   4  -6  -7    6.04    2.08
   4   6  -6   86.75    7.42
   4   6  -6   79.44    6.19
  -4   6  -6   83.58    7.12
  -4  -6  -6   89.52    6.59
   4  -6  -6   73.48    6.53
   4  -6  -6   92.82    7.83
   4   6  -5  148.31    9.63
  -4  -6  -5  140.94    7.98
  -4   6  -5  131.14    8.89
   4   6  -5  138.07    8.28
   4  -6  -5  138.31    8.84
   4  -6  -5  136.33    9.44
   4  -6  -4    3.72    2.32
   4   6  -4    2.39    0.97
  -4   6  -4    3.85    1.72
   4  -6  -4    4.54    1.99
  -4  -6  -4    2.52    1.47
   4   6  -4    4.42    1.54
  -4   6  -3   72.03    6.61
   4   6  -3   54.83    5.69
   4   6  -3   76.18    6.21
   4  -6  -3   64.60    5.83
   4  -6  -3   78.36    7.11
  -4   6  -2   10.99    2.57
   4   6  -2    7.17    2.30
   4  -6  -2   13.71    3.47
   4  -6  -2   14.32    2.88
   4   6  -2   15.66    2.88
  -4   6  -1   84.30    7.31
   4  -6  -1   83.81    6.53
   4   6  -1   80.34    7.07
   4   6  -1   83.95    6.77
   4  -6  -1   88.35    7.41
   4  -6   0  111.40    8.16
   4  -6   0  106.29    7.25
  -4   6   0  118.63    8.56
   4   6   0  108.16    7.80
   4   6   0  123.76    8.65
   4   6   1   84.61    7.24
  -4   6   1   74.25    6.71
   4   6   1   81.95    7.00
   4  -6   1   77.55    6.98
   4  -6   1   72.17    5.98
   4  -6   2   12.29    2.90
  -4   6   2   11.98    3.07
   4  -6   2   13.68    2.75
   4   6   2    7.72    1.94
   4   6   2   14.53    2.99
   4   6   3   68.89    6.52
   4   6   3   74.30    6.99
   4  -6   3   64.99    5.69
  -4   6   3   70.19    6.80
   4  -6   3   83.12    7.06
   4  -6   4    2.33    1.56
   4   6   4    0.87    0.75
  -4   6   4    3.35    1.83
   4  -6   4    2.32    0.66
   4   6   4    3.63    1.65
   4   6   5  133.33    9.06
   4   6   5  132.53    9.27
  -4   6   5  136.87    9.37
   4  -6   5  135.78    8.07
   4  -6   5  148.98    9.25
  -4   6   6   82.68    7.36
   4   6   6   98.43    7.94
   4   6   6   88.55    7.61
   4  -6   6   82.92    7.11
   4  -6   6   79.03    6.23
   4  -6   7    7.66    2.68
   4   6   7    7.56    2.24
   4   6   7   11.11    2.73
   4  -6   7    4.17    1.55
  -4   6   7    7.08    2.66
   4   6   8   20.19    3.73
   4   6   8   23.14    3.76
  -4   6   8   22.77    3.76
   4  -6   8   21.67    3.63
   4  -6   8   19.07    3.18
  -4   6   9   90.93    7.96
   4   6   9  100.12    8.24
   4   6   9   92.35    8.02
   4  -6   9   85.92    6.78
   4  -6   9  108.23    7.95
   4   6  10   46.96    5.66
   4   6  10   40.98    5.47
  -4   6  10   35.65    5.02
   4  -6  10   38.97    4.73
   4  -6  10   39.15    4.87
   4   6  11  216.98   12.36
  -4   6  11  205.06   12.22
   4  -6  11  198.59   10.57
   4  -6  11  203.26   11.18
   4   6  11  219.56   12.42
   4  -6  12   14.89    3.08
   4   6  12   21.05    4.04
   4   6  12   19.74    3.80
  -4   6  12   22.68    4.43
   4  -6  12   17.09    3.28
   4   6  13   12.32    2.75
  -4   6  13    7.67    2.65
   4  -6  13    7.28    2.18
   4   6  13    9.22    2.70
   4   6  14   50.40    6.19
   4   6  14   46.13    5.95
   4  -6  14   39.72    5.23
  -4   6  14   47.69    5.94
  -4   6  15  201.14   12.71
   4   6  15  199.80   12.40
   4   6  15  207.53   12.54
  -4   6  16   11.09    2.71
   4   6  16   10.28    2.59
   4   6  16    7.45    2.33
   4   6  17   31.93    5.38
  -4   6  17   35.79    5.53
   4   6  17   35.65    5.31
   4   6  18    3.78    1.91
   4   6  18    4.43    2.22
  -4   6  18    8.64    2.29
   4   6  19    3.77    2.09
   4   6  19    2.86    1.00
  -4   6  19    3.56    1.99
  -4   6  20   61.36    7.58
   4   6  20   52.80    7.07
  -4   6  21   23.89    4.82
   4   6  21   17.53    3.87
   4   6  22    5.08    2.01
  -4   6  22    7.60    3.35
  -4   6  22    8.92    2.65
  -4   6  23   17.66    4.50
  -4   6  23    7.52    2.80
   4   6  23   14.14    3.80
  -4   6  24    2.76    2.17
   4   6  24   14.42    3.79
   4   6  25    6.32    2.50
   4   6  26    3.45    1.32
  -4  -7 -24    1.44    2.47
   4  -7 -24   -1.14    1.84
   4  -7 -23   -0.80    2.33
  -4  -7 -23   -2.10    1.82
  -4  -7 -22    0.49    1.87
   4  -7 -22    0.29    2.13
  -4  -7 -21    1.91    2.15
   4  -7 -21    1.14    1.50
  -4  -7 -20   12.84    3.97
   4  -7 -20    4.85    2.73
   4  -7 -19   15.94    3.70
  -4  -7 -19    7.43    2.87
   4  -7 -18   15.57    3.63
  -4  -7 -18   18.72    4.31
   4  -7 -18   13.64    3.54
   4  -7 -17    7.08    2.33
  -4  -7 -17    1.37    1.19
   4  -7 -17    5.25    2.29
  -4  -7 -16    7.04    3.10
   4  -7 -16   11.98    3.40
   4  -7 -16   10.68    3.06
   4  -7 -15    3.92    2.05
  -4  -7 -15    4.01    1.54
   4  -7 -15    5.06    2.63
   4   7 -14    3.06    1.84
   4  -7 -14    6.69    2.93
  -4  -7 -14    6.67    3.00
   4  -7 -14    1.77    1.72
   4  -7 -13   23.16    4.54
   4   7 -13   22.22    4.19
  -4  -7 -13   27.31    4.66
   4  -7 -13   23.15    4.61
   4  -7 -12    5.90    2.77
   4   7 -12    3.26    1.97
  -4  -7 -12    3.56    1.06
   4  -7 -12    1.51    1.19
   4   7 -11   15.92    3.36
  -4  -7 -11   17.38    3.86
   4  -7 -11   14.82    3.72
   4  -7 -11   19.86    3.88
   4   7 -10   38.14    5.41
  -4   7 -10   37.45    5.32
  -4  -7 -10   44.51    5.37
   4  -7 -10   48.96    5.99
   4  -7 -10   55.66    6.60
   4   7  -9    3.45    2.02
  -4  -7  -9    0.45    1.26
  -4   7  -9    0.62    1.06
   4  -7  -9    1.90    0.81
   4  -7  -9    0.66    1.33
  -4   7  -8   36.67    5.18
  -4  -7  -8   38.67    4.76
   4  -7  -8   42.27    5.37
   4  -7  -8   37.40    5.52
   4   7  -8   49.85    5.88
   4  -7  -7    1.05    1.12
   4   7  -7    4.87    2.30
  -4  -7  -7    0.84    1.02
  -4   7  -7    2.36    1.38
   4  -7  -7    0.79    0.76
   4   7  -6   17.96    3.58
   4   7  -6   12.12    2.46
  -4   7  -6   17.93    3.63
  -4  -7  -6   10.98    2.68
   4  -7  -6   16.07    2.87
   4  -7  -6   18.91    3.52
   4   7  -5   11.00    2.57
  -4  -7  -5    7.06    1.98
   4   7  -5   10.18    2.82
   4  -7  -5   12.02    3.02
   4  -7  -5    8.90    2.46
  -4   7  -5    8.25    2.34
   4  -7  -4    3.30    2.12
  -4   7  -4    5.23    1.78
   4   7  -4    3.17    1.65
   4  -7  -4    6.62    2.21
   4   7  -4    5.44    2.08
  -4   7  -3    9.16    2.80
   4   7  -3    8.30    2.91
   4  -7  -3    5.43    2.17
   4   7  -3    4.53    1.90
   4  -7  -3    4.77    2.21
   4  -7  -2    9.31    2.50
   4  -7  -2    6.61    1.86
   4   7  -2    3.75    1.90
   4   7  -2    8.76    1.93
  -4   7  -2    6.03    1.85
   4   7  -1    2.67    0.67
  -4   7  -1    2.04    1.41
   4  -7  -1    3.66    1.78
   4  -7  -1    1.34    0.97
   4   7   0    7.81    2.80
   4   7   0   14.33    3.14
   4  -7   0   11.09    2.45
  -4   7   0    9.74    3.23
   4  -7   0    9.30    2.95
   4  -7   1    3.85    1.74
   4   7   1    7.77    3.15
   4  -7   1    5.22    1.99
  -4   7   1    4.11    1.82
   4   7   1    8.68    2.32
   4  -7   2    6.19    2.12
   4   7   2    6.32    2.35
   4   7   2    6.53    2.51
  -4   7   2    4.74    2.38
   4  -7   2    8.85    2.84
   4  -7   3    8.22    2.59
   4   7   3    9.41    2.81
   4  -7   3    5.47    1.89
  -4   7   3    6.87    2.73
   4   7   3    5.92    2.31
   4   7   4    1.99    0.74
   4  -7   4    2.47    1.07
   4   7   4    1.66    1.67
   4  -7   4    2.08    1.63
   4   7   5   14.98    3.40
   4  -7   5   16.77    3.29
   4   7   5   13.00    3.00
  -4   7   5   12.75    3.18
   4  -7   5   17.04    3.58
   4   7   6   14.46    3.03
  -4   7   6   16.07    3.68
   4   7   6   17.72    3.96
   4  -7   6   11.25    2.66
   4  -7   6   13.71    3.10
   4   7   7    1.57    1.66
   4   7   7    2.06    0.80
  -4   7   7    1.42    1.76
   4  -7   7    2.10    2.01
  -4   7   8   40.23    5.56
   4   7   8   37.43    5.34
   4   7   8   36.15    5.28
   4  -7   8   37.37    5.11
  -4   7   9    0.89    0.79
   4   7   9    2.82    1.65
   4   7   9    0.75    1.00
   4  -7   9    0.34    0.95
   4   7  10   49.11    6.21
   4   7  10   49.50    6.39
  -4   7  10   44.93    5.98
   4  -7  10   45.14    5.52
   4   7  11   16.54    3.32
   4   7  11   19.58    4.03
  -4   7  11   22.01    4.62
   4  -7  11   17.66    3.44
   4   7  12    3.36    1.58
   4  -7  12    3.12    1.87
   4   7  12    3.46    2.44
  -4   7  12    4.29    2.41
   4   7  13   20.54    4.61
  -4   7  13   25.08    4.76
   4   7  13   23.46    4.26
   4   7  14    3.60    1.64
   4   7  14    1.59    1.16
   4   7  15    7.53    3.05
   4   7  15    5.29    2.34
  -4   7  15    1.43    2.13
   4   7  16    8.04    2.76
   4   7  16    8.86    3.02
  -4   7  16   14.87    3.95
   4   7  17    6.82    2.60
   4   7  17    5.41    2.59
  -4   7  17    1.94    1.31
   4   7  18   16.24    4.09
   4   7  18   15.08    3.47
  -4   7  18   16.34    4.17
   4   7  19   14.95    4.09
   4   7  19   11.75    3.71
  -4   7  19   21.98    4.78
   4   7  20    8.86    3.05
  -4   7  20    6.22    2.92
   4   7  21    1.46    1.27
  -4   7  21    3.64    1.60
   4   7  22    7.12    2.19
  -4   7  22    1.60    1.78
  -4   7  22    5.50    3.09
  -4   7  23    2.59    2.17
  -4   7  23    1.53    1.34
   4   7  23    3.34    1.97
  -4   7  24   -2.21    2.13
   4   7  24   -1.24    1.93
  -4  -8 -22    4.04    1.80
   4  -8 -22    6.89    3.31
  -4  -8 -21   11.44    4.27
   4  -8 -21    4.40    2.87
  -4  -8 -20   11.31    3.61
   4  -8 -20    5.71    2.94
  -4  -8 -19   11.80    3.89
   4  -8 -19   16.06    4.49
   4  -8 -18   17.42    4.32
  -4  -8 -18   11.72    3.22
   4  -8 -17   -0.78    1.14
  -4  -8 -17    1.39    2.14
   4  -8 -17    2.50    2.54
   4  -8 -16   15.54    3.64
  -4  -8 -16    8.19    3.00
   4  -8 -16    9.56    3.61
  -4  -8 -15    3.37    1.74
   4  -8 -15    1.40    1.23
   4  -8 -15    0.99    2.37
   4   8 -14   -2.36    1.24
   4  -8 -14    2.62    1.61
  -4  -8 -14    0.77    1.29
   4  -8 -14    1.53    1.11
   4   8 -13    1.45    1.21
  -4  -8 -13    5.16    2.73
   4  -8 -13    7.10    2.18
  -4  -8 -12    0.47    1.22
   4  -8 -12    2.65    1.42
   4  -8 -12    2.12    1.54
   4   8 -12    3.54    2.40
   4   8 -11    7.96    2.66
  -4  -8 -11    5.68    2.68
   4  -8 -11    3.48    1.26
   4  -8 -11    6.67    2.95
   4   8 -10   61.32    7.00
  -4   8 -10   63.05    7.52
  -4  -8 -10   59.41    6.77
   4  -8 -10   68.75    7.56
   4  -8 -10   63.29    7.14
  -4  -8  -9    6.07    2.07
  -4   8  -9    4.93    2.10
   4  -8  -9    5.83    1.96
   4  -8  -9    7.38    2.37
   4  -8  -8    5.63    1.27
   4   8  -8   10.03    2.80
  -4   8  -8    7.57    2.98
   4  -8  -8    3.37    2.22
   4   8  -7   42.16    5.71
  -4   8  -7   38.48    5.64
   4  -8  -7   39.77    5.39
   4  -8  -7   34.06    5.20
   4   8  -6   50.98    6.29
  -4   8  -6   42.80    5.88
   4  -8  -6   51.97    6.15
   4  -8  -6   57.56    6.81
   4   8  -5   24.29    4.43
   4  -8  -5   19.91    3.94
   4  -8  -5   14.12    3.63
   4   8  -5   18.49    3.71
  -4   8  -5   12.75    3.36
  -4   8  -4    5.96    2.28
   4   8  -4    9.45    3.07
   4  -8  -4    9.03    2.61
   4   8  -4    8.36    2.53
   4  -8  -4    8.55    2.68
  -4   8  -3    2.81    1.81
   4   8  -3    5.23    2.70
   4  -8  -3    5.19    1.80
   4   8  -3    3.87    1.93
   4  -8  -3    3.49    0.96
   4  -8  -2    6.58    1.84
   4   8  -2    5.98    2.14
   4   8  -2    8.43    3.16
  -4   8  -2    8.88    2.64
   4  -8  -2    3.64    1.64
   4  -8  -1   65.78    6.40
   4   8  -1   55.55    6.40
   4   8  -1   69.80    7.27
  -4   8  -1   73.08    7.79
   4  -8  -1   55.94    6.66
   4  -8   0   73.38    7.56
   4   8   0   80.33    7.70
  -4   8   0   76.41    7.72
   4   8   0   59.25    6.63
   4  -8   0   66.43    6.38
   4  -8   1   59.58    6.86
   4   8   1   68.19    7.37
   4   8   1   71.24    7.32
  -4   8   1   64.75    7.12
   4   8   2    6.71    2.79
   4   8   2    3.22    1.78
  -4   8   2    3.75    1.04
   4  -8   2    6.76    2.63
   4   8   3    1.79    1.01
  -4   8   3    3.87    1.87
   4   8   3    6.44    2.49
   4  -8   3    4.61    2.26
   4   8   4    2.56    2.27
  -4   8   4   10.95    2.38
   4   8   4    4.12    2.31
   4  -8   4    8.51    2.35
   4   8   5   19.14    4.29
  -4   8   5   27.29    4.75
   4  -8   5   16.10    3.40
   4   8   5   21.35    4.23
   4   8   6   46.33    6.07
   4   8   6   51.89    6.42
  -4   8   6   43.49    6.08
   4  -8   6   55.37    6.55
   4   8   7   39.57    5.74
  -4   8   7   37.36    5.70
   4  -8   7   52.08    6.31
   4   8   7   42.77    5.98
   4   8   8   10.86    3.26
   4   8   8    9.10    3.36
  -4   8   8   11.17    3.28
   4  -8   8    1.84    1.35
   4  -8   9   13.10    3.56
  -4   8   9    9.78    3.08
   4   8   9   12.33    2.75
   4   8   9   10.91    2.93
   4   8  10   60.39    7.23
   4   8  10   60.39    6.94
  -4   8  10   56.97    7.07
   4  -8  10   46.95    6.08
  -4   8  11    4.13    1.17
   4   8  11    4.27    1.34
   4   8  11    4.12    2.03
   4  -8  11    5.63    2.64
   4   8  12    5.22    2.26
  -4   8  12   -2.11    1.86
   4   8  12    5.16    2.92
   4   8  13    5.23    2.00
  -4   8  13    6.30    2.28
   4   8  13    3.30    1.90
   4   8  14    4.04    2.19
  -4   8  14   -0.10    1.45
   4   8  14    2.43    2.23
   4   8  15    1.96    1.30
  -4   8  15    3.34    2.74
   4   8  15    2.32    1.76
   4   8  16   13.91    3.89
  -4   8  16    9.86    3.39
   4   8  16    9.86    3.17
   4   8  17   -0.37    1.75
   4   8  17   -0.13    1.13
  -4   8  17    0.61    2.65
  -4   8  18   11.79    3.43
   4   8  18    5.37    2.89
   4   8  18    9.91    2.99
   4   8  19    7.02    2.65
   4   8  19    9.71    3.31
  -4   8  19    9.71    2.71
  -4   8  20    7.36    3.09
   4   8  20    9.33    4.05
   4   8  20    5.83    2.75
  -4   8  21   12.49    4.08
   4   8  21    1.70    1.17
   4   8  22    0.27    1.23
  -4   8  22    2.51    2.92
  -4   8  22    4.66    2.49
  -4  -9 -19    1.61    2.33
   4  -9 -19    2.71    1.71
  -4  -9 -18    0.58    1.63
   4  -9 -18   -2.07    1.77
  -4  -9 -17    4.84    2.36
   4  -9 -17    3.87    1.98
   4  -9 -16   -1.85    2.06
   4  -9 -16    1.68    1.06
   4  -9 -15   -0.45    1.45
   4  -9 -15    1.48    1.26
   4  -9 -14    7.54    3.79
   4  -9 -14    0.84    1.33
   4  -9 -13    5.33    2.77
   4   9 -13   10.78    4.58
   4  -9 -13    6.29    2.49
   4  -9 -12    6.50    2.19
   4  -9 -12   10.41    3.11
   4  -9 -11   -1.60    1.25
   4   9 -11    0.71    1.94
   4  -9 -11    0.58    1.53
   4  -9 -10   -0.15    1.42
   4  -9 -10    0.03    0.87
   4   9 -10    0.63    1.20
   4   9  -9    2.44    1.50
  -4   9  -9    6.77    2.91
   4  -9  -9    5.98    2.50
   4  -9  -9    5.91    2.37
   4  -9  -8    9.29    3.16
   4   9  -8   10.43    2.63
  -4   9  -8    9.14    3.19
   4  -9  -8   14.05    4.03
  -4   9  -7    3.06    1.47
   4  -9  -7    5.88    2.47
   4   9  -7    6.69    2.19
   4  -9  -7    2.27    1.14
  -4   9  -6    0.25    1.43
   4  -9  -6    3.00    1.15
   4   9  -6    0.41    1.29
   4  -9  -6    2.03    1.11
   4   9  -5   -1.36    1.05
  -4   9  -5    0.03    1.26
   4   9  -4    5.36    1.73
   4   9  -4    3.22    2.35
  -4   9  -4    1.76    1.63
   4  -9  -4    6.08    1.78
   4  -9  -3    5.23    2.17
   4   9  -3    5.43    2.32
  -4   9  -3    3.38    1.97
   4   9  -3    1.19    1.45
   4   9  -2    0.95    2.26
   4   9  -2    1.85    1.78
  -4   9  -2    2.23    1.76
   4  -9  -2    0.36    1.40
   4   9  -1    6.75    2.53
  -4   9  -1    7.36    2.17
   4   9  -1    5.48    2.15
   4  -9  -1    7.08    2.42
   4   9   0   20.90    4.30
  -4   9   0   15.33    3.89
   4   9   0   12.76    3.46
   4  -9   0   10.61    3.13
   4   9   1   11.67    3.32
  -4   9   1    5.96    2.75
   4   9   1    4.25    1.72
   4  -9   1    8.79    2.85
   4   9   2   -0.30    1.07
   4  -9   2    0.99    1.38
   4   9   2    1.90    1.84
  -4   9   2    2.08    1.01
   4   9   3    5.52    2.54
   4   9   3    6.27    2.95
  -4   9   3    2.76    1.98
   4  -9   3    4.41    1.80
   4  -9   4    4.46    1.27
  -4   9   4    6.70    2.87
   4   9   4    6.53    2.41
   4   9   4    5.77    2.39
   4   9   5   -0.78    1.85
   4  -9   5    0.94    0.94
   4   9   5   -0.71    1.77
  -4   9   5   -0.63    0.96
   4   9   6    2.33    1.16
   4   9   6    1.24    1.30
  -4   9   6   -0.88    2.09
   4  -9   6    4.74    1.84
  -4   9   7    5.55    2.13
   4   9   7    9.40    2.94
   4   9   7    6.81    2.99
   4  -9   7    3.12    2.38
   4   9   8    9.83    3.11
   4  -9   8    7.61    2.18
  -4   9   8    9.38    2.70
   4   9   8    8.83    2.87
   4   9   9    8.26    3.25
   4   9   9    7.25    3.21
  -4   9   9    6.15    2.61
   4  -9   9    4.71    2.06
   4   9  10    2.95    1.80
  -4   9  10    1.07    1.53
   4   9  10    2.11    2.25
   4  -9  10   -1.01    2.11
   4   9  11    0.03    0.98
   4   9  11    2.81    1.96
  -4   9  11    3.47    2.67
   4   9  12   18.09    4.34
  -4   9  12   13.30    4.14
   4   9  12    9.02    2.95
   4   9  13    7.14    1.85
  -4   9  13    9.51    3.10
   4   9  13    5.17    2.32
  -4   9  14    2.34    2.37
   4   9  14    6.14    2.85
   4   9  14    4.30    2.65
  -4   9  15    2.86    1.30
   4   9  15    1.00    1.25
   4   9  15    4.29    1.90
   4   9  16    3.27    2.60
  -4   9  16   -1.56    2.21
   4   9  16    2.00    2.52
  -4   9  17    0.01    2.24
   4   9  17    0.66    1.67
   4   9  17    0.55    1.06
  -4   9  18   -1.57    2.12
   4   9  18    0.81    2.38
   4   9  18    0.07    0.80
   4   9  19    0.87    1.40
   4   9  19    4.87    2.35
  -4   9  19    2.80    2.47
   4 -10 -15   -0.65    2.57
   4 -10 -14    3.94    2.72
   4 -10 -14    5.71    3.07
   4 -10 -13    2.78    2.32
   4 -10 -13    2.26    2.00
   4  10 -12    8.69    4.10
   4 -10 -12   -1.60    1.84
   4  10 -11    8.55    3.28
   4 -10 -11    3.16    2.29
   4  10 -10   12.10    3.73
   4 -10 -10    9.17    2.89
   4  10  -9   10.94    3.58
   4 -10  -9   20.21    4.46
   4  10  -8    3.52    2.31
  -4  10  -8    2.87    1.85
   4 -10  -8    5.38    3.14
  -4  10  -7    2.85    2.36
   4  10  -7    4.14    2.58
   4 -10  -7    0.69    2.04
   4 -10  -6    9.60    2.98
   4  10  -6    9.74    3.51
  -4  10  -6   11.93    4.32
   4  10  -5   13.50    3.84
  -4  10  -5   14.54    4.28
   4 -10  -5   14.65    3.59
  -4  10  -4    7.17    2.13
   4 -10  -4   10.39    3.37
   4  10  -4    5.57    1.44
   4  10  -3    1.68    1.00
  -4  10  -3    0.15    1.86
   4 -10  -3    1.81    2.27
   4  10  -2    2.85    2.48
   4  10  -2    3.02    1.13
  -4  10  -2    4.69    2.53
   4 -10  -2    4.37    2.48
   4  10  -1   12.29    3.70
   4  10  -1    7.29    3.17
   4 -10  -1    8.69    2.22
  -4  10  -1    7.51    2.37
   4  10   0   13.12    3.67
   4  10   0   17.67    4.04
  -4  10   0   21.26    4.48
   4 -10   0   18.63    4.11
   4  10   1    2.31    0.85
   4  10   1    8.41    3.53
   4 -10   1    5.54    1.82
  -4  10   1    4.98    2.41
   4 -10   2    2.06    1.28
   4  10   2    3.62    2.34
   4  10   2    0.48    1.44
  -4  10   2    1.08    1.18
   4  10   3    2.18    1.88
   4 -10   3    0.83    1.15
  -4  10   3    2.22    1.85
   4  10   4    5.20    2.82
   4  10   4    9.53    3.52
   4 -10   4   11.10    3.07
  -4  10   4    5.54    2.17
   4  10   5    8.90    2.90
   4  10   5    7.12    2.47
  -4  10   5   12.95    3.33
   4 -10   5    5.86    2.39
   4  10   6    4.93    2.26
   4  10   6   14.98    4.11
  -4  10   6    7.23    3.26
   4 -10   6    7.11    2.96
   4  10   7    3.94    2.04
   4  10   7    2.55    2.19
  -4  10   7    4.74    2.23
   4 -10   7    7.04    3.40
   4  10   8   10.31    3.37
   4 -10   8    8.07    3.29
   4  10   8    5.66    2.70
  -4  10   8    6.70    2.55
   4  10   9   20.12    4.01
   4  10   9   21.69    4.41
  -4  10   9   13.34    3.64
   4  10  10   15.98    4.35
  -4  10  10    8.75    3.15
   4  10  10    7.59    2.57
   4  10  11    9.68    3.47
   4  10  11    4.93    2.64
  -4  10  11   14.30    4.01
   4  10  12    2.92    2.47
  -4  10  12    4.05    2.46
   4  10  12    0.03    1.18
   4  10  13   -1.52    1.22
   4  10  13    3.05    2.12
  -4  10  13    1.61    1.31
   4  10  14   -1.48    1.28
   4  10  14    0.94    1.39
   4  10  15    1.31    1.40
  -4  10  15    1.19    1.66
   4  11  -9    1.76    2.36
   4 -11  -9    3.15    2.81
   4  11  -8    1.35    1.53
   4 -11  -8    3.28    2.54
   4 -11  -7    4.15    1.54
   4  11  -7    5.25    2.18
  -4  11  -7    0.87    1.40
   4  11  -6    5.14    2.24
  -4  11  -6   -1.72    2.20
   4 -11  -6    4.94    2.18
   4  11  -5    0.09    1.18
  -4  11  -5   -2.29    1.44
   4 -11  -5   -0.78    2.18
   4  11  -4    4.27    2.77
  -4  11  -4    1.53    1.96
   4 -11  -4    3.38    2.67
   4  11  -3    7.26    2.94
  -4  11  -3    2.58    2.19
   4 -11  -3    2.19    1.97
   4  11  -2    1.01    1.61
  -4  11  -2    0.28    2.46
   4 -11  -2    1.01    1.59
  -4  11  -1    6.20    2.89
   4  11  -1    4.78    2.61
   4 -11  -1    2.73    1.92
   4  11   0    2.64    1.69
  -4  11   0    2.80    1.82
   4 -11   0   -0.31    1.01
   4  11   0    3.01    2.37
   4  11   1    3.42    2.16
  -4  11   1    4.88    2.24
   4 -11   1    7.69    2.75
   4  11   1    3.80    2.22
   4  11   2   -0.12    1.39
  -4  11   2   -0.56    2.24
   4  11   2    2.00    2.01
   4 -11   2    1.85    1.49
   4  11   3   -0.53    1.43
   4  11   3    2.32    2.09
  -4  11   3   -0.43    1.79
   4 -11   3    1.84    2.99
   4  11   4    1.19    1.39
   4  11   4    0.29    2.22
   4 -11   4   -1.34    1.62
  -4  11   4    0.37    1.67
   4  11   5    0.16    1.17
   4  11   5   -2.66    2.51
   4 -11   5   -0.71    1.51
  -4  11   5    1.28    2.05
   4  11   6    0.37    2.32
  -4  11   6    3.61    3.43
   4  11   6    3.06    2.43
   4 -11   6    6.88    3.38
   4  11   7    5.13    2.80
   4  11   7    4.93    2.50
  -4  11   7    0.06    1.36
   4  11   8    4.99    2.41
  -4  11   8   -1.77    2.04
   4  11   8    0.40    1.87
   4  11   9   -0.19    1.68
  -4  11   9    1.84    1.61
   4  11   9    4.75    2.72
   5   0 -30    0.65    1.14
   5   0 -29    0.31    1.55
   5   0 -28   -1.04    1.55
   5   0 -27    0.11    1.99
   5   0 -26   -1.64    1.40
   5   0 -25    1.98    0.91
   5   0 -24   -2.46    2.05
   5   0 -23    1.17    1.80
   5   0 -22   -0.39    1.09
   5   0 -21   -0.80    1.49
   5   0 -20    0.47    1.54
   5   0 -19    0.06    1.14
   5   0 -18   -0.18    0.78
   5   0 -17    0.15    0.76
   5   0 -16   -0.86    1.10
   5   0 -15    0.30    1.01
   5   0 -14    0.18    0.59
   5   0 -14   -0.42    0.48
   5   0 -13    0.30    1.11
   5   0 -13   -0.21    0.35
   5   0 -12    0.76    1.22
   5   0 -12   -0.02    0.54
   5   0 -11    0.33    0.59
   5   0 -11    0.27    0.55
   5   0 -10    0.32    1.15
   5   0 -10   -0.49    0.73
   5   0  -9    0.61    0.66
   5   0  -9   -0.20    0.81
   5   0  -8   -0.01    0.25
   5   0  -8   -0.33    0.49
   5   0  -7    0.04    0.25
   5   0  -7   -0.01    0.67
   5   0  -7   -0.16    0.48
   5   0  -6    0.48    0.52
   5   0  -6    0.39    0.91
   5   0  -6    0.02    0.51
   5   0  -5   -0.05    0.55
   5   0  -5   -0.17    0.67
   5   0  -5   -0.31    0.55
   5   0  -4    0.19    0.60
   5   0  -4    0.44    0.28
   5   0  -4    0.44    0.60
   5   0  -3    0.36    0.54
   5   0  -3    0.43    0.61
   5   0  -3   -0.21    0.28
   5   0  -2   -0.04    0.32
   5   0  -2   -0.04    0.36
   5   0  -2    0.63    0.86
   5   0  -1    0.85    0.71
   5   0  -1   -0.30    0.65
   5   0  -1    0.09    0.28
   5   0   0    0.24    0.43
   5   0   0    0.22    0.52
   5   0   1    0.21    0.72
   5   0   1    0.16    0.49
   5   0   2    0.36    0.40
   5   0   2    0.25    0.38
   5   0   3    0.11    0.44
   5   0   3    0.01    0.23
   5   0   4   -0.07    0.37
   5   0   4    0.19    0.48
   5   0   5    0.18    0.45
   5   0   5    0.34    0.61
   5   0   6    0.12    0.45
   5   0   6   -0.39    0.56
   5   0   7    0.16    0.46
   5   0   7    0.01    0.37
   5   0   8   -0.27    0.65
   5   0   8    0.02    0.38
   5   0   9    0.11    0.43
   5   0   9    0.15    0.21
   5   0  10    0.54    0.86
   5   0  10    0.01    0.43
   5   0  11   -0.04    0.65
   5   0  11   -0.26    0.31
   5   0  12   -0.37    0.46
   5   0  12   -0.09    0.25
   5   0  13   -0.04    0.18
   5   0  13    0.18    0.96
   5   0  14    0.00    0.94
   5   0  15    0.55    0.82
   5   0  16    0.19    1.38
   5   0  17   -0.77    0.86
   5   0  18    1.16    1.85
   5   0  19    1.09    0.99
   5   0  20    0.74    1.90
   5   0  21   -0.80    0.96
   5   0  22   -0.78    1.55
   5  -1 -30    0.48    1.50
   5  -1 -29   11.17    3.65
   5  -1 -28    6.10    2.64
   5   1 -27    0.48    1.73
   5  -1 -27   16.56    4.16
   5   1 -26   28.97    5.44
   5  -1 -26   35.80    5.82
   5   1 -25   29.61    4.92
   5  -1 -25   27.26    4.59
   5   1 -24    3.92    2.41
   5  -1 -24    2.54    0.91
   5  -1 -23    3.84    1.88
   5   1 -23    1.15    1.86
   5   1 -22   15.84    3.24
   5  -1 -22   12.63    3.74
   5   1 -21   21.44    4.00
   5  -1 -21   26.51    4.48
   5  -1 -20   -0.95    1.70
   5   1 -20   -0.01    1.01
   5   1 -19   17.00    3.33
   5  -1 -19   23.03    3.86
   5   1 -18   29.14    4.03
   5  -1 -18   21.76    3.69
   5   1 -17   27.80    3.94
   5  -1 -17   23.47    3.91
   5  -1 -16  230.82    9.79
   5   1 -16  232.39   11.20
   5  -1 -16  247.31   12.24
   5   1 -15  202.62   10.18
   5  -1 -15  190.70   10.46
   5  -1 -15  184.08    8.50
   5  -1 -14  132.39    8.56
   5  -1 -14  132.45    7.05
   5   1 -14  130.35    7.92
   5  -1 -13   53.30    4.46
   5   1 -13   65.48    5.37
   5   1 -13   61.03    5.11
   5  -1 -13   61.45    5.63
   5   1 -12   71.47    3.32
   5  -1 -12   76.34    6.20
   5   1 -12   82.38    5.79
   5  -1 -12   80.75    5.46
   5   1 -12   80.16    5.82
   5   1 -11  149.14    7.68
   5   1 -11  138.33    4.73
   5  -1 -11  147.34    8.45
   5   1 -11  155.37    7.88
   5  -1 -11  144.16    7.10
   5   1 -10  303.68   10.66
   5   1 -10  302.57    7.19
   5  -1 -10  329.24   10.50
   5  -1 -10  292.77   11.65
   5   1 -10  301.57   10.66
   5   1  -9   20.43    1.87
   5  -1  -9   20.77    2.65
   5  -1  -9   22.95    3.15
   5   1  -9   21.96    2.75
   5   1  -9   20.02    2.80
   5   1  -8   16.99    1.82
   5   1  -8   11.71    1.91
   5  -1  -8   19.16    2.64
   5  -1  -8   14.17    2.15
   5   1  -8   16.57    2.36
   5  -1  -7   12.19    2.21
   5   1  -7   13.16    1.66
   5   1  -7    9.29    1.69
   5  -1  -7   14.43    2.17
   5   1  -7   13.77    2.36
   5  -1  -6  715.29   14.76
   5   1  -6  716.98   14.36
   5   1  -6  710.46   11.93
   5  -1  -6  725.36   16.53
   5   1  -6  715.30   15.68
   5   1  -5  259.69    7.63
   5   1  -5  254.19    8.35
   5  -1  -5  265.42    9.80
   5  -1  -5  251.12    8.71
   5   1  -5  256.94    9.25
   5  -1  -4 1153.68   18.72
   5  -1  -4 1180.48   20.17
   5   1  -4 1136.11   17.20
   5   1  -4 1108.97   15.94
   5   1  -4 1158.96   19.20
   5  -1  -3  173.75    7.27
   5  -1  -3  174.33    7.60
   5   1  -3  178.95    6.79
   5   1  -3  180.98    6.52
   5   1  -3  172.63    7.32
   5   1  -2   26.30    2.49
   5   1  -2   23.64    2.70
   5  -1  -2   23.11    2.73
   5   1  -2   22.78    2.39
   5  -1  -2   27.80    2.87
   5  -1  -1   33.34    3.18
   5  -1  -1   29.14    3.04
   5   1  -1   32.34    2.87
   5   1  -1   32.01    3.12
   5  -1   0   30.96    3.13
   5  -1   0   23.62    2.79
   5   1   0   24.86    2.58
   5   1   0   26.92    2.87
   5  -1   1   28.33    2.99
   5   1   1   31.38    3.02
   5   1   1   31.07    2.90
   5  -1   2   20.05    2.47
   5   1   2   26.55    2.89
   5   1   2   27.40    2.84
   5   1   3  187.11    7.60
   5   1   3  181.51    7.01
   5  -1   3  174.36    7.52
   5   1   4 1162.50   19.45
   5  -1   4 1166.98   19.72
   5   1   4 1138.52   17.76
   5   1   5  269.05    9.48
   5  -1   5  291.08    9.86
   5   1   5  280.07    8.65
   5   1   6  730.74   15.99
   5  -1   6  684.66   15.37
   5   1   6  709.30   13.68
   5  -1   7    9.00    1.81
   5   1   7   12.51    2.22
   5   1   7   14.33    1.91
   5   1   8   12.51    1.78
   5  -1   8   14.02    2.45
   5   1   9   22.66    2.42
   5  -1   9   21.60    2.89
   5   1   9   22.91    3.09
   5   1  10  309.47    8.79
   5   1  10  319.18   11.78
   5  -1  10  313.28   11.11
   5   1  11  148.07    6.06
   5   1  11  142.30    7.97
   5  -1  11  149.06    7.92
   5  -1  12   75.42    5.76
   5   1  12   77.16    5.93
   5   1  12   78.81    4.31
   5   1  13   52.82    5.11
   5  -1  13   58.90    5.12
   5   1  13   58.82    3.74
   5   1  14  121.60    7.96
   5  -1  14  122.81    7.60
   5   1  14  117.76    5.23
   5   1  15  188.74   10.01
   5  -1  15  195.62    9.84
   5   1  15  177.72    6.35
   5   1  16  236.54   11.49
   5  -1  16  237.85   11.11
   5  -1  17   25.88    3.76
   5   1  17   30.86    4.14
   5   1  18   26.21    4.21
   5  -1  18   22.66    3.53
   5   1  19   22.85    4.10
   5  -1  19   24.89    3.97
   5  -1  20   -0.57    1.08
   5   1  20    1.20    1.06
   5  -1  21   28.32    4.38
   5   1  21   18.05    3.46
   5   1  22   14.88    3.54
   5   1  23    1.75    1.72
   5  -2 -29    0.76    2.17
   5  -2 -28    2.22    2.46
   5  -2 -27    4.16    2.59
   5  -2 -26   14.71    3.82
   5  -2 -25   10.98    3.29
   5  -2 -24    9.23    3.16
   5  -2 -23   19.25    3.68
   5  -2 -22    5.82    2.36
   5  -2 -21    3.97    1.46
   5   2 -21    3.10    0.88
   5  -2 -20   16.20    3.59
   5   2 -20    7.15    2.35
   5   2 -19   88.18    7.47
   5  -2 -19   71.12    7.02
   5   2 -18   16.10    3.00
   5  -2 -18   23.16    3.62
   5  -2 -18   24.07    3.89
   5  -2 -17   22.17    3.90
   5  -2 -17   20.53    3.21
   5   2 -17   22.65    3.79
   5   2 -17   25.00    3.65
   5  -2 -16   49.09    5.60
   5   2 -16   42.45    4.69
   5  -2 -16   50.64    5.15
   5   2 -16   56.37    5.27
   5  -2 -15  356.51   14.75
   5   2 -15  340.88   12.77
   5   2 -15  368.50   13.09
   5  -2 -15  355.97   13.09
   5  -2 -14   72.66    5.94
   5   2 -14   62.60    5.35
   5   2 -14   71.49    5.70
   5   2 -13  156.74    8.06
   5  -2 -13  172.67    9.72
   5  -2 -13  155.35    8.53
   5   2 -13  168.24    8.66
   5   2 -12   14.42    2.56
   5   2 -12   12.88    2.30
   5  -2 -12   13.39    2.80
   5  -2 -12    7.31    1.83
   5   2 -11   44.20    3.90
   5  -2 -11   51.47    5.12
   5  -2 -11   46.13    4.50
   5   2 -11   43.14    4.33
   5   2 -10    1.05    1.25
   5  -2 -10    0.74    0.84
   5   2 -10    1.31    0.44
   5   2 -10    1.01    0.85
   5  -2 -10    2.33    1.29
   5  -2  -9    5.34    1.37
   5  -2  -9    4.08    1.21
   5   2  -9    4.72    0.76
   5   2  -9    4.95    1.28
   5   2  -9    4.62    1.31
   5   2  -8   52.78    3.75
   5   2  -8   56.43    3.06
   5  -2  -8   52.60    4.80
   5   2  -8   56.08    4.68
   5  -2  -8   50.36    4.47
   5   2  -7  337.51    7.90
   5  -2  -7  346.93   12.37
   5   2  -7  339.93    9.17
   5  -2  -7  346.20   11.59
   5   2  -7  357.89   11.68
   5  -2  -6  209.73    9.41
   5   2  -6  228.09    7.35
   5   2  -6  227.76    6.77
   5  -2  -6  213.93    9.04
   5   2  -6  222.90    9.19
   5   2  -5   51.50    3.43
   5  -2  -5   52.43    4.70
   5   2  -5   55.89    3.53
   5   2  -5   54.45    4.52
   5  -2  -5   60.88    4.81
   5  -2  -4   50.48    4.32
   5   2  -4   53.28    3.51
   5   2  -4   44.77    4.06
   5  -2  -4   48.79    4.35
   5   2  -4   49.57    3.26
   5  -2  -3  182.73    8.06
   5  -2  -3  181.63    8.31
   5   2  -3  172.62    6.55
   5   2  -3  185.86    6.34
   5   2  -3  181.01    7.94
   5  -2  -2   86.20    5.57
   5   2  -2   92.24    4.94
   5   2  -2   89.58    5.59
   5  -2  -2   86.94    5.58
   5   2  -2   86.09    4.34
   5   2  -1   51.49    4.27
   5   2  -1   47.38    3.69
   5  -2  -1   53.93    4.39
   5  -2  -1   43.34    3.83
   5   2   0  249.42    9.27
   5  -2   0  254.51    9.52
   5  -2   0  261.79    9.59
   5   2   0  246.41    8.67
   5   2   1   51.54    4.18
   5  -2   1   46.80    4.09
   5   2   1   45.11    3.70
   5  -2   1   45.72    4.01
   5  -2   2   84.25    5.48
   5   2   2   87.41    5.39
   5  -2   2   81.13    5.34
   5   2   2   85.42    5.30
   5   2   3  195.99    8.08
   5  -2   3  169.90    7.83
   5   2   3  187.80    8.08
   5   2   4   48.04    4.00
   5  -2   4   52.25    4.37
   5   2   4   46.31    4.12
   5   2   5   59.68    4.51
   5  -2   5   60.64    4.77
   5   2   5   60.34    4.77
   5   2   6  225.36    8.66
   5  -2   6  209.73    8.90
   5   2   6  222.35    9.37
   5   2   7  343.47   10.66
   5  -2   7  334.21   11.35
   5   2   7  348.24   12.07
   5   2   8   62.38    4.52
   5  -2   8   64.66    5.05
   5   2   8   50.29    4.62
   5   2   9    7.61    1.94
   5   2   9    9.18    1.89
   5  -2   9    7.51    1.73
   5  -2  10    2.08    1.20
   5   2  10    1.41    0.53
   5   2  10    1.21    0.62
   5   2  11   49.36    4.08
   5  -2  11   48.79    4.52
   5   2  11   40.89    4.41
   5   2  12   12.16    1.96
   5   2  12   11.65    2.42
   5  -2  12   12.50    2.36
   5   2  13  160.46    7.53
   5  -2  13  166.00    8.71
   5   2  13  168.13    9.52
   5   2  14   72.11    5.04
   5   2  14   73.81    6.36
   5  -2  14   69.91    5.76
   5  -2  15  342.04   13.05
   5   2  15  350.37   11.17
   5   2  15  362.90   14.57
   5   2  16   50.37    4.30
   5   2  16   52.62    5.54
   5  -2  16   46.25    4.97
   5   2  17   16.42    3.20
   5  -2  17   19.69    2.97
   5   2  18   17.17    3.20
   5  -2  18   17.07    3.18
   5   2  19   88.63    8.08
   5  -2  19   76.41    6.67
   5   2  20   14.68    3.49
   5   2  21    5.43    1.94
   5   2  22    4.84    2.09
   5   2  23   22.60    4.06
   5   2  24    3.59    1.13
   5  -3 -29    6.60    2.50
   5  -3 -28   11.09    3.61
   5  -3 -27   38.93    6.13
   5  -3 -26    7.34    1.98
   5  -3 -25   45.85    6.73
   5  -3 -24    2.34    2.15
   5  -3 -23   -1.44    1.60
   5  -3 -22   58.52    7.00
   5  -3 -21   70.56    7.53
   5  -3 -20   33.49    5.31
   5  -3 -19   66.07    6.76
   5  -3 -19   62.79    6.84
   5  -3 -18    9.67    2.94
   5  -3 -18    8.57    2.55
   5  -3 -17   17.78    3.21
   5  -3 -17    9.63    2.85
   5   3 -17   15.58    2.86
   5  -3 -16   87.20    7.29
   5   3 -16  102.04    7.33
   5  -3 -16   82.26    7.56
   5  -3 -15  297.82   13.87
   5   3 -15  302.64   12.56
   5  -3 -15  288.94   12.73
   5   3 -14   62.57    5.03
   5  -3 -14   58.07    5.91
   5  -3 -14   52.24    5.30
   5   3 -14   67.92    5.85
   5   3 -13   10.57    2.51
   5  -3 -13   11.47    2.34
   5   3 -13    8.16    1.77
   5  -3 -13    8.57    2.31
   5  -3 -12   41.10    4.65
   5   3 -12   41.39    4.58
   5   3 -12   38.47    3.61
   5  -3 -12   45.85    5.11
   5   3 -11   77.50    6.06
  -5   3 -11   67.75    4.16
   5   3 -11   82.37    4.77
   5  -3 -11   75.21    6.51
   5  -3 -11   71.29    6.12
   5  -3 -10  122.92    7.87
   5   3 -10  117.11    3.94
   5  -3 -10  120.96    8.11
   5   3 -10  112.79    5.35
  -5   3 -10  122.44    5.74
   5   3 -10  125.80    7.52
   5   3  -9   36.92    2.93
   5  -3  -9   31.77    3.85
   5  -3  -9   37.87    4.38
   5   3  -9   29.40    2.18
   5   3  -9   37.84    4.20
   5   3  -8    6.18    1.21
   5  -3  -8   12.04    2.41
   5   3  -8   13.55    2.41
   5  -3  -8    6.65    1.92
   5   3  -8    8.82    1.35
   5   3  -7   85.01    4.35
   5   3  -7   91.00    4.13
   5  -3  -7   83.93    6.25
   5   3  -7   83.67    6.09
   5  -3  -7   84.85    6.36
   5   3  -6  304.84   11.51
   5   3  -6  314.24    8.72
   5   3  -6  309.86    7.32
   5  -3  -6  327.08   12.28
   5  -3  -6  314.53   11.86
   5   3  -5  324.00    9.23
   5  -3  -5  336.52   12.32
   5   3  -5  330.18    7.51
   5   3  -5  323.25   11.83
   5  -3  -5  319.23   11.91
   5   3  -4  151.00    8.03
   5   3  -4  163.80    6.94
   5  -3  -4  155.16    8.19
   5   3  -4  156.03    5.13
   5  -3  -4  148.79    8.10
   5  -3  -3  113.02    7.00
   5  -3  -3  119.71    7.20
   5   3  -3  112.77    5.88
   5   3  -3  120.11    7.09
   5   3  -3  107.18    4.42
   5   3  -2  262.32   10.36
   5  -3  -2  278.21   10.86
   5   3  -2  267.18    9.18
   5  -3  -2  271.88   10.57
   5  -3  -1  867.22   19.20
   5   3  -1  850.42   18.72
   5   3  -1  871.64   17.01
   5  -3  -1  902.43   18.92
   5  -3   0  606.88   16.06
   5   3   0  615.08   14.62
   5  -3   0  637.77   15.93
   5   3   0  608.32   15.86
   5  -3   1  831.81   18.73
   5   3   1  861.55   18.90
   5   3   1  873.64   18.01
   5  -3   1  890.71   18.71
   5  -3   2  272.90   10.57
   5   3   2  274.42   10.66
   5   3   2  258.34    9.98
   5  -3   2  266.07   10.17
   5   3   3  111.84    6.88
   5  -3   3  119.85    6.98
   5  -3   3  109.04    6.56
   5   3   3   94.44    6.13
   5   3   4  147.10    7.88
   5   3   4  141.88    7.68
   5  -3   4  160.85    8.19
   5  -3   4  163.84    8.02
   5   3   5  317.47   11.39
   5  -3   5  322.67   11.69
   5   3   5  326.03   11.95
   5   3   6  327.81   11.64
   5  -3   6  313.45   11.41
   5   3   6  301.25   11.72
   5   3   7   83.92    5.91
   5  -3   7   86.58    6.10
   5   3   7   86.32    6.33
   5   3   8   10.95    2.63
   5  -3   8    8.79    1.94
   5   3   8   13.51    2.42
   5   3   9   28.43    3.39
   5  -3   9   27.77    3.51
   5   3   9   26.77    3.70
   5  -3  10  124.00    7.52
   5   3  10  105.45    7.42
   5   3  10  130.01    7.53
   5   3  11   70.13    5.49
   5   3  11   73.54    6.31
   5  -3  11   74.69    5.96
   5   3  12   41.23    4.27
   5  -3  12   37.98    4.23
   5   3  12   35.19    4.41
   5   3  13   13.42    2.57
   5  -3  13   10.71    2.29
   5   3  13   12.25    3.00
   5   3  14   72.19    6.54
   5   3  14   52.95    4.97
   5  -3  14   66.15    5.80
   5  -3  15  283.01   12.21
   5   3  15  274.55   11.59
   5  -3  16   86.01    6.86
   5   3  16   83.21    7.44
   5   3  16   86.49    6.53
   5   3  17   13.10    2.54
   5   3  17   14.55    3.03
   5  -3  17   12.34    2.93
   5   3  18    7.11    2.52
   5  -3  18   11.58    2.74
   5   3  19   74.83    7.63
   5   3  20   28.44    4.50
   5   3  21   75.68    7.67
   5   3  22   69.13    7.65
   5   3  23    0.61    1.21
   5   3  24    4.80    2.65
   5   3  25   52.55    7.25
   5   3  26    9.76    3.76
   5  -4 -28   -0.10    1.79
   5  -4 -27   -0.40    1.13
   5  -4 -26    2.49    1.20
   5  -4 -25    4.77    2.55
   5  -4 -24   25.46    4.88
   5  -4 -23    7.48    2.68
   5  -4 -22    4.01    1.42
   5  -4 -21   13.53    3.59
   5  -4 -20   34.11    5.43
   5  -4 -20   24.41    4.62
   5  -4 -19    2.83    1.35
   5  -4 -19    3.31    2.11
   5  -4 -18    2.19    1.00
   5  -4 -18    5.56    2.37
  -5  -4 -17  132.81   10.09
   5  -4 -17  140.23   10.13
   5  -4 -17  139.39    9.82
  -5  -4 -16   52.10    6.09
   5  -4 -16   49.88    5.92
   5  -4 -16   46.37    5.61
   5   4 -16   48.65    5.48
   5   4 -15   21.04    3.70
  -5  -4 -15   17.78    3.32
   5  -4 -15   11.53    3.03
   5  -4 -15   11.79    3.05
   5   4 -14   11.58    2.78
   5  -4 -14    5.47    2.61
  -5  -4 -14    8.05    2.76
   5  -4 -14   10.38    2.69
   5  -4 -13   51.56    5.79
   5  -4 -13   43.03    5.17
  -5  -4 -13   52.57    5.81
   5   4 -13   49.72    5.20
   5  -4 -12   80.24    7.12
  -5  -4 -12   80.42    7.08
   5  -4 -12   78.04    6.92
   5   4 -12   73.10    6.24
   5  -4 -11   24.04    3.96
  -5   4 -11   21.80    2.84
   5  -4 -11   22.02    3.48
   5   4 -11   20.89    3.32
  -5   4 -10    5.66    1.53
   5   4 -10    7.72    2.32
   5  -4 -10    9.10    2.56
   5  -4 -10    8.61    2.40
   5   4  -9   80.63    6.42
   5   4  -9   68.87    4.05
   5  -4  -9   70.16    6.25
  -5   4  -9   71.90    5.39
   5  -4  -9   80.95    6.61
   5   4  -8   17.39    2.95
   5   4  -8   16.32    1.99
  -5   4  -8   16.97    2.66
   5  -4  -8   15.11    2.96
   5  -4  -8   20.53    3.36
   5   4  -7   36.47    4.32
   5  -4  -7   43.26    4.75
  -5   4  -7   41.85    4.08
   5  -4  -7   38.62    4.45
   5   4  -7   39.10    3.41
   5   4  -6  126.49    7.94
   5  -4  -6  120.32    7.70
   5   4  -6  126.15    6.23
   5  -4  -6  128.78    8.25
   5   4  -5   49.72    4.94
   5  -4  -5   44.29    4.65
   5   4  -5   42.11    1.86
   5   4  -5   46.15    3.93
   5  -4  -5   42.50    4.70
   5   4  -4   50.99    4.95
   5   4  -4   48.96    2.32
   5   4  -4   57.49    4.53
   5  -4  -4   58.59    5.32
   5  -4  -3    4.57    1.53
   5   4  -3    4.53    1.28
   5   4  -3    3.95    0.76
   5   4  -3    4.54    1.64
   5  -4  -3    3.51    1.14
   5   4  -2   14.43    2.74
   5   4  -2   20.00    2.83
   5  -4  -2   19.29    3.06
   5  -4  -2   12.42    2.30
   5  -4  -1    4.48    1.64
   5   4  -1    3.52    0.96
   5   4  -1    6.09    1.73
   5  -4  -1    3.04    1.27
   5   4   0   79.62    6.19
   5  -4   0   72.04    5.67
   5  -4   0   73.84    5.97
   5   4   0   89.49    6.04
   5   4   1    3.42    1.67
   5  -4   1    1.73    1.02
   5   4   1    2.43    1.08
   5  -4   1    4.10    1.48
   5   4   2   23.84    3.54
   5  -4   2   16.87    2.63
   5  -4   2   15.00    2.78
   5   4   2   21.21    3.06
   5   4   3    4.02    1.87
   5   4   3    5.94    1.81
   5  -4   3    4.38    1.77
   5  -4   3    4.44    1.75
   5  -4   4   63.22    5.47
   5   4   4   56.82    5.41
   5  -4   4   57.35    4.96
   5   4   4   51.31    5.01
   5  -4   5   47.75    4.79
   5   4   5   46.11    4.87
   5  -4   5   43.43    4.50
   5   4   5   53.42    5.18
   5   4   6  118.54    7.63
   5  -4   6  147.81    8.44
   5  -4   6  128.00    7.63
   5   4   6  122.97    8.03
   5   4   7   46.48    4.93
   5  -4   7   44.10    4.63
   5   4   7   41.44    4.82
   5   4   8   13.21    2.83
   5  -4   8   12.19    2.41
   5  -4   9   68.36    5.92
   5   4   9   85.26    6.73
   5   4   9   76.57    6.55
   5   4  10    8.49    2.33
   5   4  10    5.81    1.71
   5  -4  10    4.02    1.50
   5  -4  11   23.87    3.46
   5   4  11   24.86    3.80
   5   4  11   24.85    3.67
   5  -4  12   82.38    6.49
   5   4  12   87.58    6.97
   5   4  12   70.82    6.57
   5  -4  13   55.17    5.33
   5   4  13   53.17    5.42
   5   4  13   42.76    5.29
   5   4  14   11.17    2.46
   5   4  14    4.55    1.41
   5  -4  14    9.41    2.26
   5  -4  15   16.11    2.95
   5   4  15   15.05    3.27
   5   4  15   16.43    3.22
   5  -4  16   44.99    5.13
   5   4  16   46.67    5.46
   5   4  16   50.87    5.92
   5   4  17  129.79    8.94
   5   4  17  127.70    9.66
   5   4  18    6.65    2.43
   5   4  18    4.42    1.72
   5   4  19    1.77    1.47
   5   4  20   28.13    4.78
   5   4  21   14.33    3.54
   5   4  22    6.10    1.69
   5   4  23   12.57    3.70
   5   4  24   10.78    3.26
   5   4  25    1.96    1.88
   5   4  26   -0.24    1.81
   5  -5 -27    4.70    2.64
   5  -5 -26    2.00    1.88
   5  -5 -25    3.59    2.50
   5  -5 -24   14.61    4.25
   5  -5 -23   -0.53    1.66
   5  -5 -22    1.07    1.41
   5  -5 -21   22.25    4.17
   5  -5 -20   38.95    6.04
  -5  -5 -20   41.70    5.75
   5  -5 -20   57.53    7.31
  -5  -5 -19    1.99    0.95
   5  -5 -19    0.92    1.73
  -5  -5 -18    1.24    2.01
   5  -5 -18    5.25    1.60
   5  -5 -18    3.63    2.39
   5  -5 -17   20.66    4.02
  -5  -5 -17   21.12    4.00
   5  -5 -17   24.42    4.69
   5   5 -16    1.99    1.53
  -5  -5 -16    1.81    2.20
   5  -5 -16    1.02    1.57
   5  -5 -16    1.38    1.21
  -5  -5 -15   82.57    7.82
   5  -5 -15   71.54    7.07
   5  -5 -15   77.85    7.58
   5   5 -15   74.38    6.85
  -5  -5 -14   23.60    4.06
   5  -5 -14   28.79    4.63
   5   5 -14   31.93    4.47
   5  -5 -14   26.83    4.22
   5   5 -13    3.90    1.71
   5  -5 -13    2.29    1.54
  -5  -5 -13    0.04    1.54
   5  -5 -13    3.36    1.91
   5  -5 -12   13.02    3.28
  -5  -5 -12   18.82    3.62
   5  -5 -12   17.50    3.42
   5   5 -12   25.25    3.99
   5   5 -11   87.75    7.19
  -5   5 -11   85.64    6.61
  -5  -5 -11   94.27    7.49
   5  -5 -11   95.90    7.81
   5  -5 -11   95.51    7.96
   5   5 -10   24.77    3.73
  -5   5 -10   19.44    3.16
  -5  -5 -10   15.78    3.06
   5  -5 -10   19.53    3.53
   5  -5 -10   16.49    3.54
   5   5  -9   64.49    6.19
  -5   5  -9   65.45    5.69
   5  -5  -9   60.67    6.32
   5  -5  -9   60.21    6.30
   5   5  -8    8.73    2.01
   5  -5  -8   15.51    3.32
  -5   5  -8   13.40    2.82
   5  -5  -8   15.95    2.99
   5   5  -8   16.73    2.49
   5   5  -7   19.53    3.37
  -5   5  -7   12.55    2.37
   5  -5  -7   12.06    2.72
   5   5  -7   11.34    2.21
   5  -5  -7   13.56    2.82
   5   5  -6  175.60    9.93
  -5   5  -6  167.64    9.43
   5  -5  -6  163.98    9.68
   5  -5  -6  168.81   10.13
   5   5  -6  168.65    8.10
   5   5  -5   96.29    7.40
   5   5  -5   87.52    6.03
  -5   5  -5  110.78    7.52
   5  -5  -5  100.96    7.41
   5  -5  -5   95.75    7.60
   5  -5  -4    2.08    1.51
   5   5  -4    5.05    1.91
   5   5  -4    7.17    1.87
  -5   5  -4    5.51    1.75
   5  -5  -4    6.70    1.85
   5   5  -3   27.43    3.52
   5   5  -3   18.53    3.25
   5  -5  -3   19.99    3.42
  -5   5  -3   26.23    3.77
   5   5  -2   20.38    3.10
   5   5  -2   22.99    3.52
   5  -5  -2   23.45    3.52
   5  -5  -1   34.40    4.36
   5   5  -1   35.68    4.26
   5   5  -1   40.03    4.38
   5  -5  -1   44.02    4.98
   5   5   0  127.36    8.47
   5   5   0  118.09    7.59
   5  -5   0  113.31    7.54
   5  -5   0  119.74    8.34
   5   5   1   36.77    4.49
   5   5   1   38.44    4.33
   5  -5   1   39.98    4.39
   5  -5   1   41.03    4.73
   5   5   2   17.74    3.01
   5   5   2   23.05    3.50
   5  -5   2   21.75    3.30
   5  -5   2   14.97    2.95
   5  -5   3   25.81    3.41
   5   5   3   30.28    3.93
   5   5   3   21.74    3.52
   5  -5   3   26.99    3.90
   5  -5   4    9.57    2.29
   5   5   4    9.63    2.13
   5   5   4    4.26    1.67
   5  -5   4    8.88    2.28
   5   5   5   95.49    7.39
   5   5   5   82.74    6.94
   5  -5   5  103.74    7.68
   5  -5   5   98.57    6.96
   5   5   6  162.98    9.83
   5   5   6  157.88    9.55
   5  -5   6  166.93    9.09
   5  -5   6  163.06    9.48
   5   5   7   19.14    3.61
   5   5   7   18.93    3.46
   5  -5   7   16.73    2.78
   5  -5   7   19.05    3.16
   5   5   8   14.44    3.14
   5   5   8   19.55    3.42
   5  -5   8   12.34    2.56
   5  -5   8   13.60    2.49
   5   5   9   61.39    6.10
   5   5   9   58.09    5.87
   5  -5   9   72.70    6.16
   5  -5   9   57.00    5.67
   5   5  10   20.63    3.76
   5   5  10   23.25    3.68
   5  -5  10   28.68    4.10
   5   5  11  103.39    7.99
   5   5  11  100.86    8.24
   5  -5  11  107.30    7.90
   5   5  12   21.40    3.72
   5  -5  12   17.95    3.41
   5   5  12   17.72    3.82
   5   5  13    1.60    1.03
   5   5  13    1.42    1.28
   5  -5  13    1.23    1.40
   5   5  14   30.47    4.43
   5   5  14   31.58    4.85
   5  -5  14   30.19    4.23
   5   5  15   70.49    6.75
   5   5  15   84.88    7.79
   5  -5  15   69.89    6.48
   5   5  16    0.20    1.32
   5  -5  16    0.95    0.71
   5   5  16   -0.44    0.76
   5   5  17   32.64    4.94
   5   5  17   22.64    4.23
   5   5  18    5.64    2.25
   5   5  18    2.69    1.52
   5   5  19    6.72    2.24
  -5   5  20   45.97    6.48
   5   5  20   52.41    6.47
   5   5  21   30.59    4.87
  -5   5  21   17.30    4.20
  -5   5  22    1.06    2.01
   5   5  22    1.08    1.35
   5   5  23    3.51    1.96
  -5   5  23    1.24    1.31
  -5   5  23    2.70    1.92
   5   5  24   16.87    3.68
   5   5  25    7.43    3.30
   5   5  26    1.88    1.41
   5   5  27    2.24    1.62
   5  -6 -25    1.75    1.84
   5  -6 -24    3.21    3.11
   5  -6 -23    1.95    2.07
   5  -6 -22    5.15    2.86
   5  -6 -21    0.74    1.88
   5  -6 -20    3.02    1.81
  -5  -6 -20    0.79    1.13
   5  -6 -20   -1.25    1.38
  -5  -6 -19    1.57    1.38
   5  -6 -19    0.08    1.60
   5  -6 -19   -1.06    1.62
   5  -6 -18   -0.46    1.52
  -5  -6 -18    0.85    1.87
   5  -6 -18    3.62    1.93
   5  -6 -17    6.96    2.69
  -5  -6 -17    6.03    1.87
   5  -6 -17    4.11    2.23
   5  -6 -16   13.66    3.47
  -5  -6 -16   11.34    3.30
   5  -6 -16    9.52    3.04
   5   6 -15   23.51    4.21
  -5  -6 -15   18.67    3.76
   5  -6 -15   16.46    3.98
   5  -6 -15   19.51    4.04
   5   6 -14    5.19    2.77
  -5  -6 -14    7.10    2.40
   5  -6 -14    4.61    1.62
   5  -6 -14    6.31    2.15
   5   6 -13   10.71    3.07
  -5  -6 -13   11.53    2.85
   5  -6 -13   12.35    3.16
   5  -6 -13    2.37    1.84
   5   6 -12   26.86    4.34
  -5  -6 -12   27.36    4.65
   5  -6 -12   28.66    4.76
   5  -6 -12   30.80    4.99
   5   6 -11    5.03    2.05
   5  -6 -11    4.76    2.14
  -5  -6 -11    7.91    2.24
   5  -6 -11    9.16    3.05
   5  -6 -10    3.96    2.21
   5   6 -10    4.39    2.22
  -5  -6 -10    3.89    1.87
  -5   6 -10    4.21    1.86
   5  -6 -10    5.93    2.30
   5   6  -9   23.27    4.13
  -5   6  -9   21.47    3.72
   5  -6  -9   22.23    4.04
   5  -6  -9   25.11    4.25
  -5   6  -8   15.32    3.29
   5   6  -8   17.62    3.60
   5  -6  -8   16.64    3.79
   5  -6  -8   15.68    3.14
   5   6  -7   41.42    5.19
  -5   6  -7   46.93    5.25
   5  -6  -7   38.04    5.19
   5  -6  -7   37.37    4.91
   5   6  -7   45.25    4.64
   5   6  -6    3.99    2.06
  -5   6  -6    3.80    1.78
   5   6  -6    2.15    1.06
   5  -6  -6    2.11    1.26
   5  -6  -6    4.30    2.07
   5  -6  -5    8.64    2.84
   5   6  -5    8.47    2.09
   5   6  -5    7.94    2.54
  -5   6  -5    5.72    1.87
   5  -6  -5    4.05    1.79
   5   6  -4   49.96    5.90
   5   6  -4   54.85    5.29
  -5   6  -4   52.32    5.78
   5  -6  -4   50.17    5.36
   5  -6  -4   50.28    5.73
   5   6  -3   13.49    3.21
  -5   6  -3   19.25    3.50
   5  -6  -3   12.94    2.75
   5   6  -3   13.59    2.74
   5  -6  -3   12.96    3.11
   5   6  -2   35.04    4.69
   5   6  -2   39.61    4.63
  -5   6  -2   33.68    4.42
   5  -6  -2   36.86    4.62
   5  -6  -2   36.26    4.96
   5   6  -1   35.25    4.74
   5   6  -1   27.62    3.75
  -5   6  -1   31.90    4.55
   5  -6  -1   29.24    3.98
   5  -6  -1   33.32    4.80
   5  -6   0   26.83    3.91
   5   6   0   27.72    4.41
   5   6   0   29.33    3.98
  -5   6   0   34.75    4.53
   5  -6   0   27.58    4.51
   5   6   1   37.83    4.92
  -5   6   1   36.66    4.88
   5   6   1   35.35    4.55
   5  -6   1   30.35    4.23
   5  -6   1   38.11    4.89
   5  -6   2   38.68    4.93
   5   6   2   34.52    4.80
   5   6   2   31.39    4.21
  -5   6   2   32.28    4.68
   5  -6   2   30.17    4.10
   5   6   3   14.81    3.20
  -5   6   3   14.99    3.28
   5  -6   3   13.20    2.94
   5  -6   3   14.47    3.01
   5   6   3   16.79    3.12
   5  -6   4   49.47    5.56
   5   6   4   45.06    5.26
   5   6   4   54.85    5.93
  -5   6   4   54.32    6.13
   5  -6   4   49.60    5.17
   5  -6   5    4.16    1.22
  -5   6   5    9.19    2.44
   5  -6   5    7.00    1.74
   5   6   5    6.38    2.48
   5   6   5    8.17    2.13
   5  -6   6    3.12    1.47
   5   6   6    4.19    1.91
   5   6   6    5.65    1.80
   5  -6   6    2.33    1.57
   5   6   7   35.90    4.79
   5   6   7   43.18    5.34
   5  -6   7   39.13    4.56
   5  -6   7   45.73    5.53
   5   6   8   19.64    3.65
   5   6   8   19.38    3.96
   5  -6   8   15.96    3.06
   5  -6   8   17.08    3.54
   5  -6   9   18.54    3.63
   5   6   9   25.04    4.11
   5   6   9   17.90    3.60
   5  -6   9   19.06    3.23
   5  -6  10    2.33    1.33
   5   6  10    4.35    1.68
   5  -6  10    2.13    1.55
   5  -6  11   10.87    2.73
   5   6  11    7.08    2.93
   5   6  11    5.01    1.36
  -5   6  11    5.95    2.00
   5  -6  11    3.99    1.91
   5   6  12   29.61    4.64
   5   6  12   35.19    5.12
  -5   6  12   25.43    4.67
   5  -6  12   21.74    3.57
   5  -6  12   32.07    4.65
   5   6  13   11.55    3.16
   5  -6  13    6.22    2.12
   5   6  13   14.61    3.21
   5  -6  13    9.14    2.84
  -5   6  13    3.54    2.05
   5  -6  14    6.16    2.52
   5   6  14    5.01    2.42
  -5   6  14    3.13    2.01
   5   6  14    4.57    1.77
  -5   6  15   21.79    4.23
   5   6  15   18.75    4.19
   5   6  15   13.79    3.26
   5   6  16    8.18    2.76
   5   6  16    6.89    2.46
  -5   6  16    7.51    2.82
   5   6  17    6.40    2.40
   5   6  17    4.89    1.60
  -5   6  17    6.91    2.87
   5   6  18    1.32    1.46
  -5   6  18    4.56    1.88
   5   6  18    2.42    2.29
   5   6  19    1.14    0.82
  -5   6  19    0.45    1.12
   5   6  20   -0.20    1.66
  -5   6  20    5.25    3.00
  -5   6  21    8.14    3.66
   5   6  21   -1.43    1.77
  -5   6  22    1.11    1.54
   5   6  22    1.25    1.10
   5   6  23   -1.57    2.22
  -5   6  23   -2.39    2.74
  -5   6  24    5.41    2.56
   5   6  24    0.38    1.77
   5   6  25   -1.37    1.98
   5  -7 -24    1.09    1.34
   5  -7 -23    3.17    3.48
   5  -7 -22    6.60    2.26
   5  -7 -21    9.83    3.11
   5  -7 -20   14.07    3.68
   5  -7 -19   15.18    4.01
  -5  -7 -19   22.75    4.46
   5  -7 -19   21.72    4.39
   5  -7 -18   13.50    3.25
  -5  -7 -18   13.09    3.69
   5  -7 -18   11.19    3.59
  -5  -7 -17   16.64    3.86
   5  -7 -17   16.49    3.84
   5  -7 -17    9.61    3.50
   5  -7 -16   13.70    3.46
   5  -7 -16   17.99    3.89
  -5  -7 -15    4.19    1.30
   5  -7 -15    5.06    2.73
   5  -7 -15    7.33    2.11
   5   7 -14   13.05    3.47
  -5  -7 -14   12.18    3.27
   5  -7 -14    3.09    1.97
   5  -7 -14    3.41    1.76
   5   7 -13    9.44    3.13
  -5  -7 -13   13.92    3.45
   5  -7 -13    9.57    2.98
   5  -7 -13   16.29    3.82
   5   7 -12   13.54    3.42
  -5  -7 -12   12.02    3.20
   5  -7 -12    9.11    2.49
   5  -7 -12   13.97    3.67
   5   7 -11   51.01    6.51
  -5  -7 -11   58.27    6.79
   5  -7 -11   48.69    6.14
   5  -7 -11   60.09    6.88
   5   7 -10   67.17    7.33
   5  -7 -10   67.28    7.10
  -5   7 -10   72.15    7.17
   5  -7 -10   62.75    6.82
   5   7  -9   43.38    5.99
  -5   7  -9   41.41    5.57
   5  -7  -9   42.06    5.61
   5  -7  -9   61.72    6.43
   5   7  -8   45.62    5.94
  -5   7  -8   53.75    6.16
   5  -7  -8   46.44    5.42
   5  -7  -8   50.99    6.18
  -5   7  -7   52.38    6.19
   5  -7  -7   56.10    6.63
   5  -7  -7   62.52    6.44
   5   7  -7   57.54    6.49
  -5   7  -6   19.40    3.66
   5   7  -6   22.54    3.64
   5  -7  -6   23.02    4.36
   5   7  -6   24.99    4.04
   5  -7  -6   25.43    4.18
   5   7  -5   54.34    5.77
  -5   7  -5   50.41    6.02
   5   7  -5   59.93    6.78
   5  -7  -5   52.19    5.86
   5  -7  -5   44.43    5.71
  -5   7  -4   18.56    3.78
   5   7  -4   19.12    4.07
   5   7  -4   15.96    3.00
   5  -7  -4   20.29    4.01
   5  -7  -4   21.31    3.92
   5   7  -3    1.57    0.97
   5  -7  -3    2.46    1.48
  -5   7  -3    3.09    1.67
   5  -7  -3    4.46    2.42
   5   7  -3    3.60    1.46
   5   7  -2   24.09    3.98
   5  -7  -2   23.48    4.26
   5  -7  -2   28.09    4.64
   5   7  -2   18.22    4.03
  -5   7  -2   18.03    3.80
   5   7  -1   50.50    6.12
   5   7  -1   41.73    5.13
  -5   7  -1   63.74    6.72
   5  -7  -1   57.57    5.85
   5  -7  -1   44.03    5.68
   5   7   0    9.61    2.71
  -5   7   0    7.00    2.42
   5   7   0    4.06    2.06
   5  -7   0    9.67    2.47
   5  -7   0    6.37    2.51
   5   7   1   46.12    5.98
   5   7   1   43.13    5.35
  -5   7   1   53.07    6.29
   5  -7   1   49.47    5.49
   5  -7   1   36.36    5.16
   5  -7   2   21.09    3.79
   5   7   2   19.65    3.61
  -5   7   2   14.63    3.33
   5   7   2   21.62    3.97
   5  -7   2   21.63    3.59
   5   7   3    6.43    2.14
   5   7   3    3.84    1.52
   5  -7   3    4.53    2.14
  -5   7   3    4.83    2.10
   5  -7   3    5.12    1.98
   5  -7   4   19.55    3.69
   5   7   4    9.76    2.47
  -5   7   4   18.15    3.81
   5   7   4   12.16    2.97
   5  -7   4   18.18    3.35
   5   7   5   58.65    6.69
  -5   7   5   54.37    6.35
   5  -7   5   48.84    5.57
   5  -7   5   52.62    6.02
   5   7   5   61.91    6.67
   5  -7   6   24.00    3.84
   5   7   6   25.37    4.36
   5   7   6   22.34    3.63
  -5   7   6   21.26    4.02
   5  -7   6   25.88    4.24
   5  -7   7   51.19    5.67
   5   7   7   50.16    6.05
   5   7   7   50.31    6.02
  -5   7   7   45.70    6.08
   5  -7   7   59.87    6.61
   5   7   8   50.60    6.04
  -5   7   8   41.18    5.84
   5  -7   8   40.73    5.60
   5   7   8   44.28    5.68
   5   7   9   46.26    5.99
   5   7   9   37.90    5.35
   5  -7   9   47.22    5.84
  -5   7   9   49.03    6.26
   5   7  10   76.12    7.89
   5   7  10   65.82    7.29
  -5   7  10   73.21    7.59
   5  -7  10   71.37    7.08
   5   7  11   50.17    6.19
   5   7  11   58.73    6.94
  -5   7  11   47.25    6.09
   5  -7  11   49.53    6.23
   5  -7  12    3.68    1.23
   5   7  12   14.79    3.10
   5   7  12   12.32    3.07
  -5   7  12    8.12    2.55
   5  -7  13   11.86    3.04
   5   7  13   11.60    2.84
   5   7  13   15.88    3.62
  -5   7  13    9.90    2.78
  -5   7  14    5.97    1.77
   5   7  14    4.75    2.35
   5   7  15    2.72    1.12
   5   7  15    1.32    1.31
  -5   7  15    3.84    2.44
   5   7  16   24.20    4.53
   5   7  16   23.38    4.36
  -5   7  16   22.46    4.67
   5   7  17   19.24    4.15
   5   7  17   25.31    4.87
  -5   7  17   14.97    3.84
   5   7  18   18.38    4.12
   5   7  18   13.80    4.03
  -5   7  18   14.74    3.80
   5   7  19   13.30    3.76
   5   7  19   20.41    4.35
  -5   7  19   15.15    3.96
   5   7  20    8.51    3.21
  -5   7  20   18.40    4.70
  -5   7  21   13.23    3.81
   5   7  21   19.37    4.64
   5   7  22    2.44    2.46
  -5   7  22    8.13    2.83
  -5   7  23   -1.28    1.45
  -5   7  23    1.91    1.97
   5   7  23    2.72    2.29
  -5   7  24    2.11    1.87
   5   7  24    2.50    2.69
   5  -8 -21   -2.49    1.79
   5  -8 -20   -0.21    2.25
   5  -8 -19   -1.24    1.60
   5  -8 -18    1.46    2.37
   5  -8 -18    1.80    1.22
   5  -8 -17    2.23    2.93
   5  -8 -17    4.86    3.13
   5  -8 -16   -0.20    1.03
   5  -8 -16    1.46    1.51
   5  -8 -15   14.87    3.56
   5  -8 -15    6.95    2.43
   5   8 -14    0.24    0.95
   5  -8 -14    2.23    2.14
   5  -8 -14    0.51    2.42
   5   8 -13    1.03    1.06
   5  -8 -13    0.48    1.09
   5  -8 -13    1.48    2.25
   5   8 -12    6.76    2.93
   5  -8 -12   10.34    3.28
   5  -8 -12    4.30    1.51
   5   8 -11    4.40    1.86
   5  -8 -11    1.53    1.70
   5  -8 -11    3.88    2.21
   5   8 -10    0.90    1.16
   5  -8 -10    2.62    2.00
   5  -8 -10    4.36    2.18
   5   8  -9    1.64    1.04
   5  -8  -9    2.35    1.68
  -5   8  -9    2.63    2.56
   5  -8  -9    1.54    0.68
   5  -8  -8   12.33    3.61
   5   8  -8    9.39    3.40
  -5   8  -8   11.11    3.25
   5  -8  -8   10.21    3.08
   5   8  -7   10.46    3.26
   5  -8  -7    7.50    2.60
  -5   8  -7   10.08    3.62
   5  -8  -7    5.49    2.06
   5  -8  -6   16.04    3.62
   5   8  -6   15.05    3.32
  -5   8  -6    6.21    2.61
   5  -8  -6   15.31    3.57
   5   8  -5   -0.82    1.30
   5   8  -5    3.56    2.75
  -5   8  -5    3.13    2.12
   5  -8  -5    4.14    1.71
   5  -8  -5    2.93    1.82
   5  -8  -4    6.91    2.68
   5   8  -4    5.63    2.17
  -5   8  -4    5.65    2.51
   5   8  -4    6.81    1.78
   5  -8  -4    4.29    2.07
  -5   8  -3    5.08    2.12
   5   8  -3    5.61    1.86
   5  -8  -3    1.68    1.93
   5  -8  -3    6.90    2.72
   5   8  -3    4.06    2.03
   5   8  -2    8.07    3.08
  -5   8  -2    5.32    1.88
   5  -8  -2    7.54    2.81
   5  -8  -2    8.27    3.29
   5   8  -2    9.14    2.36
   5   8  -1    1.18    1.23
  -5   8  -1    0.39    0.82
   5   8  -1   -0.31    1.13
   5  -8  -1   -0.15    0.81
   5  -8  -1    0.20    1.03
   5   8   0   43.83    5.95
  -5   8   0   37.36    5.40
   5   8   0   43.25    5.75
   5  -8   0   50.45    6.15
   5  -8   0   47.22    6.24
   5   8   1   -0.10    1.74
  -5   8   1    0.81    1.40
   5  -8   1    2.33    2.40
   5   8   1    1.02    1.21
   5  -8   1   -0.32    1.02
   5   8   2    8.28    2.61
   5   8   2    8.01    2.90
   5  -8   2    0.53    1.34
   5  -8   2    5.60    2.18
  -5   8   2    4.31    2.23
   5   8   3    1.95    1.25
   5   8   3    0.62    1.22
  -5   8   3    3.48    1.98
   5  -8   3    2.69    2.17
   5   8   4    4.78    2.06
   5   8   4    7.03    2.65
   5  -8   4   12.88    3.45
  -5   8   4    9.87    2.91
   5   8   5    3.37    1.96
   5   8   5   -0.40    1.17
  -5   8   5    0.28    1.27
   5  -8   5    1.02    1.24
   5   8   6   12.01    3.19
   5  -8   6   10.75    2.56
   5   8   6    7.65    2.54
  -5   8   6   12.99    2.96
  -5   8   7    8.17    3.00
   5   8   7    5.24    2.05
   5   8   7    8.24    2.91
   5  -8   7    3.43    1.06
   5   8   8   14.94    3.84
  -5   8   8   14.78    3.62
   5   8   8    6.57    2.22
   5  -8   8    6.79    2.88
  -5   8   9    2.63    1.46
   5  -8   9    2.05    1.62
   5   8   9   -1.11    2.36
   5   8   9    0.77    1.24
   5   8  10    0.33    1.10
   5  -8  10   -2.19    1.92
   5   8  10    2.92    2.23
  -5   8  10    3.59    1.81
   5   8  11    5.07    2.35
  -5   8  11    6.37    2.46
   5   8  11    3.70    2.14
   5  -8  11   -0.48    1.25
   5   8  12    5.77    2.29
  -5   8  12    4.06    2.76
   5   8  12    6.91    2.32
   5   8  13    1.15    1.42
   5   8  13    2.23    2.01
  -5   8  13   -1.15    2.47
   5   8  14    0.20    1.40
  -5   8  14    1.56    1.90
   5   8  14    0.80    0.97
   5   8  15    9.50    3.22
   5   8  15   17.85    4.47
  -5   8  15   10.97    3.31
   5   8  16   -0.45    1.05
   5   8  16    0.93    1.65
  -5   8  16   -1.52    1.74
  -5   8  17    0.18    1.57
   5   8  17    1.86    1.88
   5   8  17    2.75    1.82
   5   8  18   -0.27    1.85
   5   8  18   -0.73    1.60
  -5   8  18    0.95    1.96
   5   8  19    3.02    1.97
   5   8  19   -0.89    2.56
  -5   8  19    2.21    2.58
   5   8  20   -1.84    1.56
  -5   8  20   -1.00    2.88
  -5   8  21    0.32    2.27
   5   8  21   -1.34    2.30
   5  -9 -18   11.58    3.13
   5  -9 -17    3.50    2.08
   5  -9 -17    3.30    1.41
   5  -9 -16   19.13    4.62
   5  -9 -16   16.69    4.14
   5  -9 -15    7.33    2.89
   5  -9 -15    4.34    2.54
   5  -9 -14    4.76    3.11
   5  -9 -14    4.84    2.34
   5   9 -13    4.63    2.10
   5  -9 -13    1.03    1.47
   5  -9 -13    2.30    1.63
   5   9 -12   10.71    3.03
   5  -9 -12   10.94    3.29
   5  -9 -12   11.48    3.44
   5   9 -11   19.43    4.61
   5  -9 -11   18.83    4.31
   5  -9 -11   17.51    4.29
   5   9 -10   19.20    4.56
   5  -9 -10   15.09    3.55
   5  -9 -10   14.59    3.49
   5   9  -9   20.56    4.15
   5  -9  -9   24.37    4.64
   5  -9  -9   15.04    3.66
   5   9  -8    6.77    1.91
  -5   9  -8    8.08    3.25
   5  -9  -8    8.29    2.99
   5  -9  -8   10.82    2.89
  -5   9  -7   37.60    5.88
   5   9  -7   31.11    5.33
   5  -9  -7   29.25    4.62
   5  -9  -7   33.31    5.40
  -5   9  -6    4.95    1.98
   5   9  -6    4.79    1.11
   5  -9  -6    8.35    2.66
   5   9  -5   48.33    6.50
  -5   9  -5   32.93    5.37
   5  -9  -5   34.10    5.10
   5  -9  -5   37.45    5.76
   5   9  -4   13.17    2.83
  -5   9  -4   11.98    3.10
   5  -9  -4   13.92    3.85
   5  -9  -4   13.02    3.89
   5   9  -3    1.88    1.81
   5   9  -3    0.23    1.84
  -5   9  -3    2.65    2.21
   5  -9  -3    0.38    1.46
   5   9  -2   12.97    3.28
   5   9  -2   16.89    3.77
  -5   9  -2   13.68    4.07
   5  -9  -2    4.03    1.76
   5   9  -1   68.99    7.83
   5   9  -1   60.45    7.23
  -5   9  -1   58.89    7.22
   5  -9  -1   60.91    7.07
   5   9   0   15.96    3.51
   5   9   0   11.19    3.19
  -5   9   0    9.52    3.06
   5  -9   0   14.16    3.77
   5   9   1   53.75    6.95
   5   9   1   44.19    6.26
  -5   9   1   50.51    6.82
   5  -9   1   57.44    6.96
   5   9   2   10.51    3.03
   5   9   2   11.95    3.26
  -5   9   2   14.58    4.10
   5  -9   2   12.22    3.77
   5   9   3    1.55    0.79
  -5   9   3    3.03    2.76
   5  -9   3    2.62    1.88
   5   9   4    8.68    2.59
   5   9   4   12.69    3.51
   5  -9   4    9.86    2.75
   5   9   5   45.02    5.93
   5   9   5   50.02    6.37
  -5   9   5   35.21    5.70
   5  -9   5   40.31    6.07
  -5   9   6    9.48    2.93
   5   9   6    9.27    2.88
   5   9   6    9.77    2.95
   5  -9   6    3.19    1.86
   5   9   7   25.07    4.48
   5   9   7   34.15    5.66
  -5   9   7   34.52    5.37
   5  -9   7   27.07    4.92
  -5   9   8   13.82    3.64
   5   9   8   10.05    3.29
   5   9   8   11.59    2.98
   5  -9   8   13.22    3.35
   5   9   9   15.90    3.88
  -5   9   9   18.32    4.44
   5  -9   9   16.13    3.49
   5   9   9    9.03    3.06
   5   9  10   15.85    3.79
  -5   9  10   17.51    4.07
   5   9  10   18.85    4.08
   5  -9  10   21.42    4.29
   5   9  11   20.95    4.89
  -5   9  11   11.23    3.33
   5   9  11   19.00    4.15
   5   9  12    6.80    2.82
  -5   9  12   12.49    3.56
   5   9  12    9.44    3.20
  -5   9  13    3.98    2.51
   5   9  13    6.42    3.10
   5   9  13    1.79    1.06
   5   9  14    0.77    2.06
   5   9  14   -0.41    2.22
  -5   9  14    5.36    2.97
   5   9  15    6.52    2.98
   5   9  15    6.96    2.74
  -5   9  15    4.35    2.93
   5   9  16   12.15    3.61
   5   9  16   19.76    4.78
  -5   9  16   15.72    4.22
  -5   9  17    8.80    3.67
   5   9  17    2.17    1.97
   5   9  17    8.92    3.66
   5   9  18    5.75    2.48
   5   9  18    1.68    1.94
  -5   9  18    7.48    2.37
   5 -10 -14   -0.29    1.02
   5 -10 -14    1.23    2.37
   5 -10 -13    3.94    2.39
   5 -10 -13    1.86    1.97
   5  10 -12    1.60    1.53
   5 -10 -12    2.64    2.24
   5 -10 -12    1.75    1.15
   5  10 -11    3.99    3.17
   5 -10 -11   -0.83    1.76
   5  10 -10    5.90    2.78
   5 -10 -10    0.88    2.02
   5  10  -9    0.11    1.74
   5 -10  -9    6.09    3.71
   5  10  -8    0.45    1.99
  -5  10  -8    1.12    2.69
   5 -10  -8    3.53    2.74
   5  10  -7    1.22    1.23
  -5  10  -7    6.59    3.24
   5 -10  -7    4.66    2.39
   5  10  -6    1.57    1.58
  -5  10  -6    0.05    1.00
   5 -10  -6   -1.33    1.79
   5  10  -5    7.24    3.00
  -5  10  -5    2.25    1.77
   5 -10  -5    5.15    2.14
  -5  10  -4   -0.38    1.66
   5 -10  -4   -0.73    1.76
   5  10  -4   -1.91    1.96
  -5  10  -3    6.20    3.20
   5  10  -3   -0.46    1.77
   5 -10  -3    5.23    1.71
  -5  10  -2    2.45    1.76
   5  10  -2    5.89    2.62
   5 -10  -2    1.96    1.31
   5  10  -1   15.57    4.02
  -5  10  -1    6.67    2.45
   5 -10  -1    6.67    2.90
   5  10  -1    9.38    2.79
   5 -10   0   -1.24    1.19
   5  10   0   -0.23    0.90
  -5  10   0    3.35    2.05
   5  10   0    2.82    2.19
   5  10   1   11.43    3.46
  -5  10   1   18.91    4.38
   5  10   1    8.11    3.29
   5 -10   1    8.31    3.15
   5  10   2   -0.29    1.61
  -5  10   2    1.70    0.91
   5 -10   2    5.85    2.31
   5  10   2    5.00    1.72
   5  10   3    9.03    3.68
  -5  10   3    6.31    2.75
   5 -10   3    3.93    2.59
   5  10   3    2.52    1.32
   5  10   4    0.62    1.98
  -5  10   4    0.44    1.24
   5 -10   4   -0.15    1.30
   5  10   4   -1.43    1.03
   5  10   5   11.01    3.00
  -5  10   5    4.95    1.43
   5  10   5    4.87    2.49
   5 -10   5    3.97    3.07
   5  10   6    0.25    1.83
  -5  10   6    1.31    2.19
   5 -10   6   -0.95    1.93
   5  10   6    0.01    1.63
   5  10   7    7.82    2.49
  -5  10   7    2.24    2.06
   5 -10   7    4.13    2.06
   5  10   7    3.46    2.43
   5  10   8    1.99    1.87
   5  10   8    2.16    1.82
  -5  10   8   -0.86    1.24
   5 -10   8    0.76    1.90
   5  10   9    2.45    2.22
   5  10   9    0.93    1.96
  -5  10   9    0.72    1.41
   5  10  10    2.44    2.09
  -5  10  10    6.19    2.32
   5  10  10    0.03    1.60
   5  10  11    6.09    2.46
  -5  10  11    1.43    1.97
   5  10  11    2.03    1.59
   5  10  12    0.59    1.26
  -5  10  12   -2.84    1.96
   5  10  12    1.40    1.76
   5  10  13    0.06    1.95
  -5  10  13   -1.74    2.32
   5  10  13   -0.27    2.02
   5  10  14   -3.08    2.69
   5  10  14   -1.07    2.00
  -5  10  14    0.95    1.65
   5  11  -7    3.98    2.68
   5 -11  -7   -1.44    1.64
   5  11  -6    1.96    1.87
  -5  11  -6   -0.89    1.59
   5 -11  -6    3.76    2.05
   5  11  -5    4.66    2.78
  -5  11  -5   11.56    3.91
   5 -11  -5    6.23    3.47
   5  11  -4   -1.16    1.55
  -5  11  -4    0.90    1.77
   5 -11  -4    2.14    1.94
   5  11  -3   -0.05    1.42
  -5  11  -3   -1.74    1.14
   5 -11  -3   -1.30    1.55
   5  11  -2    0.03    1.18
  -5  11  -2    2.15    1.72
   5 -11  -2    2.64    2.40
   5  11  -1    0.24    1.87
  -5  11  -1    0.52    1.32
   5 -11  -1    0.75    1.25
   5  11   0   13.87    4.39
  -5  11   0   16.39    4.06
   5 -11   0   10.50    3.81
   5  11   0    7.55    3.05
  -5  11   1    2.29    1.59
   5  11   1    3.74    3.35
   5 -11   1   -2.13    1.97
   5  11   1    2.56    2.79
   5  11   2    1.86    1.30
  -5  11   2    0.06    1.82
   5  11   2    1.58    1.82
   5 -11   2   -0.13    1.28
   5  11   3    1.71    2.90
   5  11   3   -0.62    1.53
  -5  11   3    4.68    2.98
   5 -11   3    1.03    2.07
   5  11   4   -0.46    0.82
  -5  11   4   -0.29    1.23
   5  11   4    1.45    2.43
   5 -11   4    0.65    1.32
   5  11   5    0.69    1.43
  -5  11   5   10.60    3.43
   5  11   5   11.39    3.67
   5 -11   5    0.86    1.77
   5  11   6    3.65    1.96
  -5  11   6   -0.14    0.95
   5  11   6    4.78    2.61
   5 -11   6   -1.15    2.31
   5  11   7    0.63    1.85
   5  11   7    1.08    1.22
  -5  11   7   -0.11    1.71
   5 -11   7   -1.20    2.07
   6   0 -30    7.94    3.70
   6   0 -29    5.40    2.67
   6   0 -28   90.23    9.54
   6   0 -27   22.73    4.86
   6   0 -26   -1.18    1.77
   6   0 -25    8.88    2.96
   6   0 -24   72.61    8.08
   6   0 -23    7.14    2.16
   6   0 -22   69.26    7.35
   6   0 -21   13.53    3.34
   6   0 -20    2.78    2.05
   6   0 -19   14.39    3.08
   6   0 -18    8.00    2.02
   6   0 -17   74.28    6.77
   6   0 -16  937.60   23.68
   6   0 -15  174.30   10.06
   6   0 -14  463.03   12.21
   6   0 -14  499.50   16.43
   6   0 -13   92.74    6.89
   6   0 -13   85.05    5.16
   6   0 -12   61.62    5.53
   6   0 -12   69.18    4.60
   6   0 -11   90.71    6.45
   6   0 -11   77.18    4.89
   6   0 -10  382.54   13.03
   6   0 -10  394.79   10.86
   6   0  -9  267.23    9.00
   6   0  -9  260.90   10.61
   6   0  -8  113.32    5.81
   6   0  -8  109.45    6.71
   6   0  -7  110.17    5.75
   6   0  -7   97.21    6.16
   6   0  -7   97.90    6.31
   6   0  -6  398.28   11.02
   6   0  -6  379.58   12.17
   6   0  -6  394.63   12.16
   6   0  -5 1141.57   18.62
   6   0  -5 1116.77   20.30
   6   0  -5 1082.14   19.78
   6   0  -4  599.81   13.43
   6   0  -4  615.53   14.74
   6   0  -4  603.94   14.55
   6   0  -3  681.55   14.27
   6   0  -3  653.76   15.08
   6   0  -3  640.38   14.70
   6   0  -2 3071.05   31.41
   6   0  -2 3067.42   32.40
   6   0  -2 3131.51   31.96
   6   0  -1 1102.44   18.69
   6   0  -1 1095.95   19.50
   6   0  -1 1081.91   18.76
   6   0   0  364.04   10.91
   6   0   0  364.56   10.65
   6   0   1 1088.40   18.13
   6   0   1 1068.08   18.90
   6   0   2 3149.69   32.58
   6   0   2 3048.52   30.20
   6   0   3  662.98   13.80
   6   0   3  688.38   15.58
   6   0   4  628.56   15.22
   6   0   4  605.36   13.08
   6   0   5 1124.34   17.60
   6   0   5 1097.39   20.68
   6   0   6  358.72   11.96
   6   0   6  379.75    9.94
   6   0   7  103.85    6.53
   6   0   7   98.52    5.02
   6   0   8  104.18    5.05
   6   0   8   97.56    6.55
   6   0   9  265.43   10.85
   6   0   9  276.14    8.06
   6   0  10  389.36    9.28
   6   0  10  401.74   13.68
   6   0  11   91.80    6.62
   6   0  11   96.98    4.47
   6   0  12   61.90    3.48
   6   0  12   57.63    5.43
   6   0  13   78.42    3.73
   6   0  13   80.79    6.42
   6   0  14  488.08   16.29
   6   0  15  177.21    9.93
   6   0  16  882.51   22.98
   6   0  17   66.65    6.35
   6   0  18    5.14    1.67
   6   0  19   15.86    3.29
   6   0  20    3.11    1.48
   6   0  21   16.84    3.41
   6   0  22   84.36    8.04
   6   0  23    3.77    1.97
   6  -1 -29    1.62    1.78
   6  -1 -28    0.15    1.58
   6  -1 -27    2.86    2.45
   6   1 -26   -2.96    2.03
   6  -1 -26   10.28    3.60
   6   1 -25    6.14    2.46
   6  -1 -25    5.48    2.16
   6   1 -24    3.05    1.97
   6  -1 -24    2.44    1.54
   6   1 -23    9.51    2.50
   6  -1 -23    8.49    2.44
   6   1 -22    4.28    2.30
   6  -1 -22    6.94    2.54
   6  -1 -21   24.02    4.11
   6   1 -21   20.84    3.98
   6   1 -20   41.04    5.45
   6  -1 -20   57.84    6.56
   6   1 -19   16.15    3.16
   6  -1 -19   18.55    3.47
   6   1 -18    6.87    2.35
   6  -1 -18   11.64    3.14
   6  -1 -17   10.24    3.02
   6   1 -17   12.47    2.77
   6   1 -16   20.38    3.51
   6  -1 -16   20.03    3.46
   6  -1 -16   13.84    2.82
   6   1 -15   54.40    5.47
   6  -1 -15   56.41    6.03
   6  -1 -15   54.38    4.73
   6   1 -14  164.90    9.28
   6  -1 -14  163.55    9.72
   6  -1 -14  165.12    8.25
   6  -1 -13   22.70    3.59
   6  -1 -13   22.23    2.95
   6   1 -13   27.14    3.65
   6   1 -13   19.11    2.96
   6  -1 -12   38.54    4.57
   6   1 -12   44.33    4.44
   6  -1 -12   37.49    3.84
   6   1 -12   46.06    3.17
   6   1 -12   47.56    4.67
   6   1 -11   45.08    4.45
   6  -1 -11   41.51    4.66
   6  -1 -11   34.76    3.82
   6   1 -11   38.25    4.12
   6   1 -11   43.42    3.13
   6  -1 -10    1.75    0.70
   6   1 -10    3.38    0.95
   6   1 -10    3.49    1.23
   6   1 -10    1.56    0.83
   6  -1  -9   30.34    3.76
   6   1  -9   28.13    2.54
   6   1  -9   24.72    3.04
   6   1  -9   24.80    3.22
   6  -1  -9   27.10    3.18
   6   1  -8   22.05    2.86
   6   1  -8   24.15    2.39
   6  -1  -8   22.79    3.22
   6   1  -8   23.52    3.22
   6  -1  -8   19.40    2.78
   6   1  -7  177.95    7.90
   6  -1  -7  192.39    8.26
   6  -1  -7  185.03    9.07
   6   1  -7  182.45    6.87
   6   1  -7  195.80    8.88
   6  -1  -6  289.46   10.17
   6   1  -6  315.63    9.02
   6  -1  -6  302.68   11.25
   6   1  -6  299.35   10.03
   6   1  -6  299.71   10.80
   6  -1  -5  427.48   12.26
   6   1  -5  449.83   11.05
   6  -1  -5  421.16   13.18
   6   1  -5  429.11   11.85
   6   1  -5  414.54   12.68
   6   1  -4   69.38    4.68
   6  -1  -4   65.85    4.82
   6   1  -4   73.15    4.44
   6  -1  -4   71.73    5.35
   6   1  -4   72.46    5.11
   6  -1  -3   51.79    4.29
   6   1  -3   59.46    4.05
   6  -1  -3   53.10    4.46
   6   1  -3   51.94    4.04
   6   1  -3   52.59    4.33
   6  -1  -2    0.28    0.35
   6   1  -2    1.50    0.63
   6   1  -2   -0.04    0.71
   6   1  -2    1.45    0.84
   6  -1  -2    1.15    0.70
   6  -1  -1    9.15    1.85
   6  -1  -1   11.00    2.00
   6   1  -1    9.32    1.68
   6   1  -1    9.01    1.96
   6   1   0    3.17    1.06
   6   1   0    1.96    0.86
   6  -1   0    3.48    1.01
   6  -1   0    2.66    0.98
   6   1   1    8.27    1.73
   6  -1   1    9.85    1.87
   6  -1   1    9.47    1.76
   6   1   1   10.49    1.83
   6   1   2    0.87    0.51
   6   1   2    0.82    0.92
   6  -1   2    1.03    0.89
   6   1   3   54.77    4.22
   6  -1   3   46.14    4.24
   6   1   3   51.95    4.30
   6   1   4   61.15    4.80
   6  -1   4   67.60    5.11
   6   1   4   68.01    4.67
   6   1   5  409.98   12.73
   6  -1   5  445.54   13.20
   6   1   5  428.69   11.62
   6  -1   6  286.08   10.54
   6   1   6  311.07    9.81
   6  -1   7  186.31    8.75
   6   1   7  187.42    8.96
   6   1   7  183.07    7.50
   6  -1   8   16.48    2.71
   6   1   8   24.84    3.26
   6   1   8   20.98    2.50
   6   1   9   28.45    3.57
   6  -1   9   24.31    3.30
   6   1   9   31.81    3.06
   6   1  10    3.18    0.87
   6  -1  10    0.99    0.91
   6   1  10    2.24    1.32
   6   1  11   33.84    4.18
   6  -1  11   34.12    3.96
   6   1  11   38.56    3.30
   6   1  12   49.16    5.00
   6  -1  12   42.88    4.53
   6   1  12   50.41    3.76
   6   1  13   21.74    3.41
   6  -1  13   23.43    3.50
   6   1  13   31.28    2.89
   6   1  14  161.75    9.42
   6  -1  14  164.83    9.26
   6   1  14  166.86    6.82
   6   1  15   58.51    5.71
   6  -1  15   57.91    5.66
   6   1  15   43.34    3.43
   6  -1  16   14.25    2.93
   6   1  16   24.77    3.84
   6  -1  17   11.11    2.73
   6   1  17    6.11    1.86
   6   1  18    6.26    2.15
   6  -1  18    7.70    2.18
   6   1  19   15.93    3.45
   6  -1  19   23.43    4.01
   6   1  20   55.01    6.25
   6  -1  20   43.61    5.47
   6   1  21   26.12    4.58
   6  -1  21   23.39    4.19
   6   1  22    5.45    2.43
   6   1  23    9.31    2.98
   6   1  24    4.24    1.52
   6  -2 -29    3.15    2.48
   6  -2 -28   22.40    4.83
   6  -2 -27   -0.32    1.29
   6  -2 -26    5.19    3.00
   6  -2 -25    4.70    2.72
   6  -2 -24   30.60    5.26
   6  -2 -23    3.08    1.54
   6  -2 -22    3.27    1.26
   6   2 -21   -2.98    1.25
   6  -2 -21    4.83    1.96
   6   2 -20    9.76    2.61
   6  -2 -20   16.39    3.60
   6   2 -19    2.88    1.69
   6  -2 -19    0.03    1.08
   6  -2 -18   10.21    3.02
   6   2 -18    8.58    2.33
   6   2 -17   -0.27    0.99
   6  -2 -17    1.02    1.43
   6   2 -17    3.28    1.15
   6  -2 -17   -0.26    1.28
   6   2 -16  140.49    8.63
   6  -2 -16  143.78    9.73
   6  -2 -16  122.11    8.20
   6   2 -16  140.52    8.75
   6  -2 -15   86.83    7.39
   6  -2 -15   67.52    5.99
   6   2 -15   66.34    5.70
   6   2 -15   81.69    6.55
   6   2 -14  311.94   12.06
   6  -2 -14  311.45   13.74
   6  -2 -14  281.38   12.07
   6   2 -14  299.29   12.41
   6  -2 -13   18.38    3.40
   6   2 -13   21.06    3.06
   6  -2 -13   16.63    2.90
   6   2 -13   17.60    3.04
   6   2 -12   64.84    5.28
   6  -2 -12   65.00    6.07
   6   2 -12   72.80    5.92
   6  -2 -12   64.79    5.61
   6   2 -11   41.09    4.01
   6  -2 -11   42.17    4.90
   6  -2 -11   33.40    3.94
   6   2 -11   46.73    4.60
   6   2 -10   38.74    2.71
   6   2 -10   36.94    3.57
   6  -2 -10   34.22    4.30
   6   2 -10   38.22    4.31
   6  -2 -10   31.20    3.90
   6   2  -9    1.41    0.88
   6  -2  -9    0.29    1.06
   6   2  -9    1.91    0.72
   6   2  -9    1.17    0.61
   6  -2  -9    1.55    0.80
   6   2  -8    7.77    1.79
   6  -2  -8   10.91    2.11
   6   2  -8   10.32    1.47
   6   2  -8    9.98    1.86
   6  -2  -8    8.43    2.08
   6   2  -7    7.16    1.20
   6   2  -7    7.63    1.66
   6  -2  -7    6.35    1.56
   6  -2  -7    7.32    2.09
   6   2  -7    6.51    1.37
   6   2  -6  149.90    6.24
   6  -2  -6  155.46    8.51
   6   2  -6  142.83    6.52
   6   2  -6  146.64    7.78
   6  -2  -6  139.67    7.65
   6  -2  -5   37.07    4.15
   6   2  -5   33.94    3.10
   6  -2  -5   28.68    3.42
   6   2  -5   41.61    3.32
   6   2  -5   33.58    3.78
   6   2  -4    4.60    1.60
   6  -2  -4    1.95    1.17
   6   2  -4    2.00    0.77
   6  -2  -4    3.90    1.00
   6   2  -4    1.83    0.68
   6   2  -3   27.58    2.90
   6  -2  -3   29.90    3.45
   6  -2  -3   26.56    3.34
   6   2  -3   27.74    2.83
   6   2  -3   32.06    3.54
   6  -2  -2  294.08   10.94
   6   2  -2  268.03   10.30
   6   2  -2  273.99    9.19
   6   2  -2  281.80    8.94
   6  -2  -2  262.67   10.61
   6   2  -1   44.38    3.68
   6  -2  -1   43.85    4.13
   6  -2  -1   40.16    4.06
   6   2  -1   43.50    4.22
   6   2   0    0.46    0.94
   6  -2   0    0.83    0.78
   6  -2   0    1.45    1.20
   6   2   0   -0.01    0.43
   6   2   1   44.69    4.14
   6  -2   1   40.27    4.02
   6  -2   1   39.43    3.95
   6   2   1   44.77    3.84
   6   2   2  282.53   10.30
   6  -2   2  284.74   10.84
   6   2   2  276.17   10.14
   6  -2   2  282.93   10.66
   6   2   3   26.43    3.14
   6  -2   3   23.71    3.21
   6   2   3   31.72    3.42
   6   2   4    0.79    0.84
   6   2   4    2.17    1.17
   6  -2   4    2.09    1.06
   6   2   5   34.27    3.58
   6   2   5   32.34    3.72
   6  -2   5   31.52    3.62
   6   2   6  134.81    7.10
   6   2   6  138.56    7.88
   6  -2   6  137.45    7.59
   6   2   7    6.10    1.63
   6  -2   7    6.36    1.50
   6   2   8   11.41    2.05
   6   2   8   12.53    2.47
   6  -2   8    7.09    1.93
   6   2   9    1.94    1.20
   6   2   9    1.25    0.87
   6  -2   9    2.24    1.16
   6   2  10   38.18    3.78
   6   2  10   38.55    4.36
   6  -2  10   39.16    4.19
   6   2  11   37.34    3.66
   6   2  11   48.89    5.15
   6  -2  11   41.53    4.55
   6   2  12   63.26    4.85
   6  -2  12   49.33    5.05
   6   2  13   19.07    2.85
   6   2  13   16.77    3.07
   6  -2  13   19.54    2.96
   6   2  14  281.60   10.60
   6   2  14  291.35   13.22
   6  -2  14  295.15   12.64
   6   2  15   64.01    4.97
   6   2  15   70.13    6.76
   6  -2  15   66.06    6.04
   6   2  16  118.08    6.81
   6   2  16  137.62    9.41
   6  -2  16  127.25    8.68
   6  -2  17    1.31    0.59
   6   2  17    0.68    0.99
   6  -2  18   11.00    2.86
   6   2  18   10.64    2.65
   6  -2  19    2.78    1.79
   6   2  19    0.49    0.64
   6   2  20   19.90    3.97
   6  -2  20    9.31    1.92
   6   2  21    3.89    2.62
   6   2  22    5.90    2.49
   6   2  23    0.74    1.09
   6   2  24   35.41    5.70
   6   2  25    3.92    2.21
   6  -3 -28   -0.23    1.00
   6  -3 -27    3.04    1.58
   6  -3 -26    9.25    3.52
   6  -3 -25   15.26    3.98
   6  -3 -24    1.54    0.91
   6  -3 -23   -0.60    2.21
   6  -3 -22    1.72    1.89
   6  -3 -21    4.13    2.34
   6  -3 -20   17.09    3.65
   6  -3 -19   54.01    6.31
   6  -3 -18   20.62    4.06
   6  -3 -18   22.66    4.02
   6  -3 -17   54.71    5.79
   6  -3 -17   75.82    7.37
   6   3 -17   61.81    6.05
   6  -3 -16   34.05    5.05
   6  -3 -16   27.60    4.30
   6   3 -16   27.08    3.94
   6  -3 -15   12.95    3.07
   6  -3 -15    7.80    2.58
   6   3 -15   15.05    3.04
   6   3 -14   88.22    6.30
   6  -3 -14   90.16    7.38
   6   3 -14   96.36    7.19
   6  -3 -14   82.68    7.60
   6   3 -13   31.48    3.44
   6  -3 -13   35.50    4.54
   6  -3 -13   33.10    4.44
   6   3 -13   26.73    3.78
   6  -3 -12   40.96    5.02
   6  -3 -12   42.16    4.90
   6   3 -12   36.34    4.34
   6   3 -12   38.41    3.73
  -6   3 -11   84.16    4.91
   6   3 -11   94.53    5.55
   6  -3 -11   94.21    7.59
   6  -3 -11   94.41    7.16
   6   3 -11   83.42    6.49
   6   3 -10   15.09    2.12
   6   3 -10   16.75    1.94
   6  -3 -10   13.91    2.92
   6  -3 -10   16.09    2.99
   6   3 -10   20.34    3.28
   6  -3  -9   30.90    4.05
   6   3  -9   30.11    2.95
   6   3  -9   28.23    2.55
   6  -3  -9   27.80    3.82
   6   3  -9   31.67    4.08
   6  -3  -8   30.48    3.88
   6   3  -8   34.11    2.95
   6   3  -8   34.51    2.89
   6  -3  -8   30.39    3.83
   6   3  -8   31.25    3.80
   6   3  -7  196.98    6.92
   6  -3  -7  185.98    9.65
   6   3  -7  204.64    7.46
   6   3  -7  216.23   10.24
   6  -3  -6  181.11    9.61
   6   3  -6  194.62    7.43
   6   3  -6  188.30    6.68
   6  -3  -6  189.62    9.66
   6   3  -6  192.54    9.55
   6  -3  -5  257.93   11.34
   6   3  -5  265.86    7.84
   6   3  -5  246.27   10.79
   6   3  -5  266.10    9.01
   6  -3  -5  260.58   11.27
   6   3  -4  169.85    9.04
   6   3  -4  156.45    7.11
   6  -3  -4  163.70    8.92
   6   3  -4  161.97    6.23
   6  -3  -4  159.26    8.60
   6   3  -3  403.17   13.70
   6   3  -3  404.10   11.86
   6  -3  -3  391.61   13.63
   6   3  -3  385.70    9.75
   6  -3  -3  389.17   13.55
   6  -3  -2   56.94    5.07
   6   3  -2   47.16    4.11
   6   3  -2   48.30    4.66
   6  -3  -2   44.94    4.41
   6   3  -1   42.64    4.33
   6  -3  -1   44.84    4.59
   6   3  -1   47.97    4.26
   6  -3  -1   54.98    5.03
   6   3   0   23.08    3.20
   6  -3   0   17.11    2.91
   6   3   0   23.77    3.07
   6  -3   0   22.66    3.33
   6   3   1   40.34    4.27
   6   3   1   47.02    4.32
   6  -3   1   51.31    4.72
   6   3   2   54.75    4.97
   6  -3   2   48.50    4.63
   6   3   2   42.59    4.25
   6  -3   2   44.31    4.38
   6   3   3  399.02   13.28
   6  -3   3  413.49   13.71
   6  -3   3  388.76   13.39
   6   3   3  371.76   12.72
   6  -3   4  164.69    8.72
   6   3   4  155.24    8.30
   6  -3   4  170.88    8.76
   6   3   4  164.75    8.56
   6   3   5  283.54   11.33
   6  -3   5  263.19   11.23
   6   3   5  272.41   11.33
   6   3   6  177.93    8.86
   6  -3   6  173.53    9.04
   6   3   6  176.50    9.29
   6   3   7  217.03    9.86
   6  -3   7  197.91    9.77
   6   3   7  212.81   10.30
   6   3   8   35.02    3.87
   6   3   8   33.52    4.24
   6  -3   8   33.13    4.02
   6   3   9   30.61    3.73
   6  -3   9   26.89    3.57
   6   3   9   34.99    4.30
   6  -3  10   11.29    2.35
   6   3  10   15.90    2.69
   6   3  10   15.07    2.82
   6   3  11   81.79    6.16
   6   3  11   84.15    6.84
   6  -3  11   79.27    6.42
   6   3  12   37.10    4.20
   6   3  12   39.95    4.87
   6  -3  12   46.45    4.89
   6   3  13   26.67    3.48
   6  -3  13   31.66    4.22
   6   3  13   27.22    4.05
   6   3  14   93.27    6.67
   6  -3  14   85.20    6.94
   6   3  14  103.94    8.11
   6   3  15   13.54    2.55
   6   3  15   14.86    2.98
   6  -3  15   14.75    3.01
   6   3  16   26.83    3.68
   6  -3  16   23.49    3.55
   6   3  16   36.05    4.77
   6  -3  17   55.41    5.82
   6   3  17   65.74    6.71
   6   3  18   22.21    4.07
   6  -3  18   17.99    3.44
   6  -3  19   50.04    5.64
   6   3  19   59.39    6.75
   6   3  20   16.80    3.48
   6   3  21    9.28    2.61
   6   3  22    3.74    2.59
   6   3  23    0.85    1.00
   6   3  24    0.84    1.28
   6   3  25   17.48    4.34
   6   3  26    7.47    2.56
   6  -4 -28    9.91    3.29
   6  -4 -27   -0.80    1.40
   6  -4 -26    0.09    1.45
   6  -4 -25    2.74    1.38
   6  -4 -24   21.64    5.01
   6  -4 -23    7.88    2.74
   6  -4 -22    8.19    2.83
   6  -4 -21   14.88    3.86
   6  -4 -20    3.51    1.64
   6  -4 -20    6.60    2.83
   6  -4 -19    3.58    2.69
   6  -4 -19    2.24    1.50
   6  -4 -18  104.77    8.83
   6  -4 -18  108.99    9.02
   6  -4 -17   22.61    4.25
   6  -4 -17   26.47    4.54
   6   4 -17   21.87    3.53
   6   4 -16   15.91    3.20
   6  -4 -16   10.72    2.62
   6  -4 -16   10.46    2.97
   6   4 -15   15.18    3.22
   6  -4 -15   23.50    4.42
   6  -4 -15   12.71    2.98
   6   4 -14   11.46    2.90
   6  -4 -14    5.98    2.15
   6  -4 -14    6.70    2.20
   6  -4 -13   38.23    5.02
   6  -4 -13   40.58    5.25
   6   4 -13   27.40    4.15
   6  -4 -12  180.87   10.85
   6   4 -12  213.59   11.07
   6  -4 -12  185.31   10.86
  -6   4 -11   68.28    5.42
   6  -4 -11   62.19    6.35
   6  -4 -11   72.70    6.63
   6   4 -11   63.07    5.92
   6   4 -10   15.40    2.87
  -6   4 -10   18.42    2.67
   6  -4 -10   11.82    3.12
   6  -4 -10   13.50    3.10
   6   4  -9   48.43    3.73
   6   4  -9   53.69    5.49
  -6   4  -9   44.73    4.31
   6  -4  -9   55.32    5.92
   6  -4  -9   47.91    5.15
   6   4  -8  267.94   12.11
   6   4  -8  229.25    8.42
   6  -4  -8  247.68   11.93
   6  -4  -8  248.42   11.95
   6   4  -7   14.05    2.20
   6  -4  -7   24.27    3.61
   6   4  -7   21.19    3.53
   6  -4  -7   17.52    3.16
   6   4  -6   38.85    4.48
   6   4  -6   33.80    3.48
   6   4  -6   38.25    2.43
   6  -4  -6   31.44    4.16
   6  -4  -6   36.79    4.43
   6   4  -5  288.41   12.32
   6   4  -5  275.56   10.08
   6  -4  -5  303.60   12.78
   6   4  -5  261.93    6.72
   6  -4  -5  297.37   12.83
   6  -4  -4    0.04    1.06
   6   4  -4    0.59    0.54
   6   4  -4    1.39    1.33
   6  -4  -4    1.36    0.67
   6   4  -4    1.21    0.50
   6   4  -3  118.10    7.92
   6  -4  -3  109.53    7.68
   6   4  -3  112.63    4.88
   6   4  -3  116.30    6.89
   6  -4  -3  120.52    8.11
   6   4  -2   69.05    5.93
   6   4  -2   63.55    5.16
   6  -4  -2   68.99    6.04
   6  -4  -2   62.99    5.78
   6   4  -1   48.14    4.82
   6   4  -1   44.18    4.33
   6  -4  -1   50.78    5.15
   6  -4  -1   43.05    4.77
   6   4   0   62.42    5.65
   6  -4   0   73.56    6.02
   6   4   0   71.12    5.55
   6  -4   0   64.62    5.86
   6   4   1   42.16    4.66
   6  -4   1   53.79    5.08
   6   4   1   50.46    4.84
   6  -4   1   47.18    4.95
   6  -4   2   69.82    5.98
   6   4   2   74.13    6.25
   6  -4   2   69.91    5.79
   6   4   2   69.05    5.63
   6  -4   3  101.41    7.32
   6  -4   3  112.19    7.39
   6   4   3  112.53    7.73
   6   4   3   99.11    7.02
   6   4   4    0.50    1.20
   6  -4   4    1.19    0.48
   6  -4   4    1.95    1.37
   6   4   4    0.50    1.05
   6  -4   5  261.42   11.71
   6   4   5  276.94   12.12
   6  -4   5  288.02   12.17
   6   4   5  289.55   12.25
   6  -4   6   34.10    4.33
   6  -4   6   42.31    4.68
   6   4   6   38.09    4.46
   6   4   6   36.85    4.31
   6   4   7   16.42    2.76
   6  -4   7   11.66    2.61
   6   4   7   10.51    2.76
   6  -4   8  271.84   12.07
   6   4   8  262.88   11.83
   6   4   8  267.81   12.36
   6  -4   9   54.47    5.47
   6   4   9   50.71    5.32
   6   4   9   52.56    5.59
   6   4  10   17.89    3.29
   6  -4  10   17.57    2.99
   6   4  10   13.50    2.92
   6   4  11   61.57    5.83
   6  -4  11   58.95    5.70
   6   4  11   72.64    6.82
   6   4  12  193.49   10.56
   6  -4  12  186.82   10.43
   6   4  12  199.89   11.47
   6   4  13   41.30    4.86
   6  -4  13   37.92    4.80
   6   4  13   33.39    4.66
   6   4  14    8.55    2.21
   6  -4  14    6.43    1.83
   6   4  14    6.83    2.19
   6   4  15   19.65    3.31
   6  -4  15   18.22    3.24
   6   4  15   20.88    3.72
   6   4  16   10.96    2.92
   6  -4  16   11.89    2.78
   6   4  16   12.25    3.07
   6   4  17   19.41    3.43
   6  -4  17   15.49    3.15
   6   4  17   24.95    4.12
   6   4  18  107.24    9.07
   6   4  19   -0.14    1.31
   6   4  20    6.92    2.37
   6   4  21   12.68    3.12
   6   4  22   12.26    3.29
   6   4  23    8.74    3.11
   6   4  24   26.10    4.94
   6   4  25    8.90    3.17
   6   4  26    2.48    2.11
   6   4  27    3.84    2.39
   6  -5 -26    5.23    2.16
   6  -5 -25    8.56    2.92
   6  -5 -24    0.15    2.02
   6  -5 -23    2.70    2.74
   6  -5 -22    5.33    2.37
   6  -5 -21    2.85    1.31
   6  -5 -21    2.59    1.86
   6  -5 -20   -0.24    1.29
   6  -5 -20    3.38    2.06
   6  -5 -19    1.30    1.39
   6  -5 -19    3.32    1.72
   6  -5 -18    2.97    1.95
   6  -5 -18    0.57    2.32
   6  -5 -17   12.65    3.28
   6  -5 -17   15.87    3.57
   6   5 -16    4.60    1.90
   6  -5 -16    3.53    2.02
   6  -5 -16    8.04    2.68
   6   5 -15    9.09    2.58
   6  -5 -15    8.89    2.26
   6  -5 -15   13.12    3.20
   6   5 -14    8.80    2.69
   6  -5 -14   14.36    3.27
   6  -5 -14    5.78    3.12
   6  -5 -13   40.71    5.35
   6  -5 -13   27.83    4.71
   6   5 -13   37.90    4.99
   6   5 -12    3.25    1.90
   6  -5 -12    3.90    1.25
   6  -5 -12    4.99    2.13
   6   5 -11    1.67    1.39
   6  -5 -11    4.56    2.25
   6  -5 -11    2.07    0.87
   6   5 -10    5.09    2.32
  -6   5 -10    3.22    1.28
   6  -5 -10    3.97    1.79
   6  -5 -10    2.09    1.71
   6   5  -9   22.29    3.62
   6  -5  -9   11.81    2.88
  -6   5  -9   13.71    2.58
   6  -5  -9   14.68    2.93
   6   5  -8   13.00    2.70
   6   5  -8   13.13    2.42
  -6   5  -8    5.55    2.04
   6  -5  -8   17.04    3.27
   6  -5  -8   13.63    3.14
   6   5  -7    6.44    1.97
  -6   5  -7    7.73    1.74
   6   5  -7    5.50    1.53
   6  -5  -7    4.42    1.94
   6  -5  -7    8.51    2.48
   6  -5  -6    5.61    1.98
   6   5  -6    5.43    1.52
   6  -5  -6    4.07    2.33
  -6   5  -6    4.78    1.46
   6   5  -6    3.08    1.16
   6  -5  -5   15.92    3.17
   6   5  -5   14.11    2.97
   6   5  -5   23.42    3.35
   6  -5  -5   19.27    3.72
   6   5  -4   42.90    5.03
   6  -5  -4   39.46    4.80
   6   5  -4   40.49    4.32
   6  -5  -4   37.10    4.80
   6   5  -3   51.56    5.39
   6  -5  -3   46.71    5.32
   6   5  -3   47.47    4.81
   6  -5  -3   45.84    5.22
   6   5  -2   34.87    4.54
   6  -5  -2   26.15    3.80
   6   5  -2   36.06    4.31
   6  -5  -2   30.96    4.30
   6  -5  -1   10.04    2.98
   6  -5  -1    7.64    2.10
   6   5  -1    9.48    2.37
   6   5  -1    7.78    2.47
   6  -5   0    5.06    1.59
   6   5   0    7.35    1.89
   6   5   0    4.27    1.88
   6  -5   0    9.66    2.57
   6  -5   1    6.51    2.09
   6   5   1   14.33    2.62
   6   5   1   16.29    3.06
   6  -5   1   10.69    2.51
   6   5   2   42.96    4.88
   6  -5   2   32.00    4.17
   6  -5   2   30.21    4.23
   6   5   2   29.88    3.92
   6   5   3   49.44    5.46
   6  -5   3   38.37    4.56
   6   5   3   39.18    4.62
   6  -5   3   44.36    5.02
   6   5   4   35.81    4.71
   6  -5   4   44.79    4.95
   6   5   4   42.27    4.87
   6  -5   4   36.38    4.56
   6  -5   5   19.17    3.00
   6   5   5   20.44    3.46
   6  -5   5   20.37    3.68
   6   5   5   29.24    4.21
   6  -5   6    4.21    1.34
   6   5   6    4.93    1.89
   6   5   6   10.15    2.41
   6  -5   6    5.73    2.17
   6  -5   7   11.77    2.82
   6   5   7    5.55    1.98
   6   5   7    6.49    2.18
   6  -5   7   11.69    2.68
   6   5   8   13.13    2.99
   6  -5   8   11.28    2.62
   6   5   8   13.28    3.12
   6  -5   8   17.14    3.32
   6   5   9   12.17    2.96
   6  -5   9   13.31    2.46
   6   5   9   16.37    3.17
   6  -5   9   14.51    3.15
   6   5  10    6.91    2.13
   6  -5  10    2.47    0.76
   6   5  10    5.35    1.97
   6   5  11    4.01    1.56
   6   5  11    7.11    2.27
   6  -5  11    2.23    1.29
   6   5  12    5.76    1.80
   6   5  12    4.55    1.68
   6  -5  12    4.80    1.89
   6   5  13   33.90    4.84
   6   5  13   36.13    4.98
   6  -5  13   32.68    4.83
   6   5  14    9.16    2.68
   6  -5  14    9.20    3.02
   6   5  14    5.30    2.22
   6   5  15    6.37    2.86
   6  -5  15    6.86    2.67
   6   5  15    8.00    2.68
   6   5  16    0.67    1.08
   6  -5  16    3.34    2.26
   6   5  16    6.16    2.73
   6   5  17    9.76    2.60
   6   5  17   10.49    3.12
   6   5  18    2.85    1.79
   6   5  18    5.52    2.60
   6   5  19    1.44    2.17
   6   5  20    1.42    1.41
   6   5  21    8.25    3.14
   6   5  22    7.82    2.92
  -6   5  22    3.41    1.81
   6   5  23   -0.90    1.96
  -6   5  23   -0.92    1.72
   6   5  24    2.30    1.71
   6   5  25    6.27    2.74
   6   5  26    2.79    2.26
   6  -6 -25    9.69    3.75
   6  -6 -24   10.36    3.15
   6  -6 -23    6.58    3.09
   6  -6 -22   46.39    6.83
   6  -6 -21    9.67    3.19
   6  -6 -21   13.10    3.78
   6  -6 -20    3.33    2.57
   6  -6 -20    1.33    2.28
   6  -6 -19   11.99    3.40
   6  -6 -19    9.19    2.81
   6  -6 -18   74.59    8.11
   6  -6 -18   74.78    8.16
   6  -6 -17    9.06    2.92
   6  -6 -17    6.95    2.31
   6   6 -16    2.06    2.25
   6  -6 -16    0.12    1.44
   6  -6 -16   -1.32    1.60
   6   6 -15    8.08    3.10
   6  -6 -15    3.30    1.16
   6  -6 -15    9.60    2.73
   6   6 -14    0.99    1.92
   6  -6 -14    2.54    2.01
   6  -6 -14    0.47    0.83
   6   6 -13    8.34    2.62
   6  -6 -13    5.26    2.14
   6  -6 -13    8.00    2.36
   6   6 -12   84.34    7.85
   6  -6 -12   78.14    7.53
   6  -6 -12   75.86    7.61
   6  -6 -11   11.12    2.68
   6   6 -11   15.23    3.50
   6  -6 -11   15.95    3.67
   6  -6 -10    4.04    2.26
  -6   6 -10    2.63    1.92
   6   6 -10    0.89    0.96
   6  -6 -10    6.25    2.70
   6   6  -9   16.02    3.59
  -6   6  -9   12.38    2.81
   6  -6  -9   20.52    3.57
   6  -6  -9   16.06    3.62
   6   6  -8  206.56   11.99
  -6   6  -8  193.50   11.14
   6  -6  -8  216.46   12.12
   6  -6  -8  187.61   11.73
   6   6  -7   26.27    4.24
   6  -6  -7   27.18    4.43
  -6   6  -7   29.87    4.36
   6   6  -7   32.86    4.34
   6  -6  -7   28.37    4.52
   6   6  -6   -1.09    0.74
   6  -6  -6    0.70    0.99
   6   6  -6   -0.12    0.83
  -6   6  -6    0.88    1.27
   6  -6  -6    0.46    1.20
   6   6  -5   22.08    3.88
  -6   6  -5   22.41    3.72
   6  -6  -5   31.32    4.77
   6  -6  -5   29.30    4.59
   6   6  -5   21.78    3.39
   6   6  -4   69.17    6.89
  -6   6  -4   95.36    7.85
   6  -6  -4   84.78    7.34
   6   6  -4   92.34    7.05
   6  -6  -4   90.65    8.00
  -6   6  -3    5.82    2.30
   6   6  -3   -0.63    1.67
   6   6  -3    0.82    1.45
   6  -6  -3    4.57    1.88
   6  -6  -3    3.75    1.45
  -6   6  -2  168.32   10.39
   6  -6  -2  151.87    9.69
   6   6  -2  155.82   10.09
   6  -6  -2  164.56   10.57
   6   6  -2  175.98   10.03
   6   6  -1   34.31    4.69
  -6   6  -1   27.14    4.32
   6  -6  -1   35.12    4.65
   6  -6  -1   36.35    4.97
   6   6  -1   33.71    4.41
   6   6   0    3.32    1.64
   6   6   0    3.38    1.50
   6  -6   0    3.23    1.66
   6  -6   0    2.78    1.36
   6   6   1   29.65    4.27
   6   6   1   26.90    4.13
   6  -6   1   33.98    4.59
   6  -6   1   26.49    4.27
   6   6   2  165.24   10.05
   6  -6   2  182.39   10.86
   6   6   2  166.54   10.47
   6  -6   2  165.12   10.19
   6  -6   3    1.68    1.47
   6   6   3    0.11    1.13
   6   6   3    2.58    1.83
   6  -6   3   -0.11    1.11
   6   6   4   83.26    7.26
   6   6   4   91.13    7.78
   6  -6   4   94.31    7.57
   6  -6   4   84.26    7.41
   6   6   5   23.87    3.67
   6   6   5   23.87    3.88
   6  -6   5   25.88    4.05
   6  -6   5   15.78    3.38
   6  -6   6    1.59    1.67
   6   6   6    2.73    1.82
   6   6   6    0.23    0.91
   6  -6   6    0.75    1.42
   6   6   7   34.19    4.85
   6  -6   7   27.80    4.06
   6  -6   7   28.99    4.75
   6   6   7   30.24    4.66
   6   6   8  181.86   11.35
   6  -6   8  181.51   11.09
   6  -6   8  199.10   11.17
   6   6   8  203.18   11.84
   6  -6   9   14.52    2.85
   6   6   9   22.57    4.25
   6  -6   9   13.87    3.18
   6   6   9   20.18    3.71
   6  -6  10    0.95    1.64
   6  -6  10    0.87    1.04
   6   6  10    0.71    2.05
   6   6  10    2.55    1.95
   6  -6  11   13.60    3.54
   6   6  11   14.83    3.26
   6   6  11   17.28    3.61
   6  -6  11   16.82    3.49
   6   6  12   72.55    7.38
   6  -6  12   65.29    6.80
   6   6  12   88.86    8.28
   6  -6  12   75.90    7.32
   6   6  13   11.90    3.31
   6  -6  13    7.16    2.24
   6   6  13    7.62    2.32
   6  -6  13   10.98    2.94
   6   6  14    0.13    1.63
   6  -6  14    3.13    2.29
   6   6  14    2.06    1.82
   6   6  15    2.08    1.31
   6  -6  15    5.87    2.26
   6   6  15    0.99    1.59
   6   6  16    0.51    1.98
   6   6  16    1.41    1.51
   6   6  17    5.76    1.86
  -6   6  17   11.11    3.33
   6   6  17    9.24    2.84
   6   6  18   77.46    8.22
  -6   6  18   69.80    8.02
   6   6  18   86.97    8.75
  -6   6  19    5.21    2.28
   6   6  19    8.05    3.25
  -6   6  20    2.44    2.06
   6   6  20   -0.93    0.95
   6   6  21   14.30    3.75
  -6   6  21   18.36    4.83
  -6   6  22   43.46    6.89
   6   6  22   39.41    6.03
   6   6  23    6.47    2.95
  -6   6  23    3.71    2.51
   6   6  24   15.52    3.80
   6   6  25    7.72    2.58
   6  -7 -23    1.76    1.76
   6  -7 -22    2.17    1.58
   6  -7 -21   13.97    4.01
   6  -7 -20    6.90    2.13
   6  -7 -20    5.23    2.34
   6  -7 -19   12.24    3.62
   6  -7 -19    8.46    3.17
   6  -7 -18   13.06    2.61
   6  -7 -18   14.07    3.36
   6  -7 -17   -1.02    1.16
   6  -7 -17    9.23    2.92
   6  -7 -16   11.39    3.70
   6  -7 -16    4.67    2.04
   6   7 -15    6.72    2.19
   6  -7 -15   10.96    3.18
   6   7 -14    4.87    2.17
   6  -7 -14    4.33    2.44
   6  -7 -14    6.56    2.34
   6  -7 -13   14.11    3.73
   6   7 -13   20.73    3.96
   6  -7 -13   11.71    3.22
   6  -7 -12    9.45    2.72
   6   7 -12    7.42    2.89
   6  -7 -12    6.68    2.89
   6   7 -11    2.16    1.67
   6  -7 -11    3.53    2.11
   6  -7 -11    2.23    1.65
   6  -7 -10   20.88    4.05
   6   7 -10    9.88    2.78
   6  -7 -10   18.05    3.97
   6  -7  -9    3.90    1.84
   6   7  -9    4.33    2.11
   6  -7  -9    2.48    1.73
  -6   7  -9    3.17    2.56
   6   7  -8   33.38    5.10
  -6   7  -8   27.55    4.52
   6  -7  -8   33.69    4.82
   6  -7  -8   31.00    4.86
   6   7  -7    6.30    2.03
  -6   7  -7    6.27    2.24
   6  -7  -7    3.59    2.07
   6  -7  -7    7.14    2.70
   6   7  -6   -1.14    0.82
   6   7  -6    2.84    1.84
  -6   7  -6    4.44    2.64
   6  -7  -6    5.75    2.10
   6  -7  -6    3.30    2.04
   6  -7  -5   12.20    3.26
   6   7  -5   13.58    3.38
   6   7  -5    8.48    2.24
  -6   7  -5   14.67    3.08
   6  -7  -5   11.14    2.85
  -6   7  -4   40.66    5.33
   6   7  -4   45.69    6.06
   6  -7  -4   58.85    6.84
   6  -7  -4   52.08    6.09
   6   7  -4   48.04    5.53
   6   7  -3   20.22    4.16
   6   7  -3   16.24    3.26
  -6   7  -3   24.52    4.34
   6  -7  -3   19.75    3.85
   6  -7  -3   18.97    4.15
   6   7  -2   64.47    6.57
   6   7  -2   59.02    6.81
   6  -7  -2   62.90    6.51
  -6   7  -2   69.40    7.18
   6  -7  -2   58.99    6.74
   6   7  -1    7.60    2.30
   6  -7  -1    0.68    1.24
   6   7  -1    8.10    2.62
   6  -7  -1    7.37    2.00
  -6   7  -1    9.25    2.34
   6   7   0    1.74    1.98
   6   7   0    1.96    1.13
  -6   7   0    2.60    2.27
   6  -7   0    1.42    1.48
   6  -7   0    1.85    1.21
   6  -7   1    6.60    2.35
   6   7   1    7.92    2.77
   6   7   1    6.50    2.51
   6  -7   1    5.08    1.74
  -6   7   1    0.62    0.70
   6   7   2   58.28    6.57
   6  -7   2   60.99    6.84
  -6   7   2   58.62    6.66
   6  -7   2   59.45    6.26
   6   7   2   57.16    6.12
   6  -7   3   19.28    3.85
   6   7   3   32.92    4.64
   6   7   3   27.15    4.56
  -6   7   3   20.71    4.32
   6  -7   3   17.41    3.17
   6   7   4   52.45    6.00
   6   7   4   55.11    6.49
  -6   7   4   52.72    6.40
   6  -7   4   46.75    5.79
   6  -7   4   41.20    5.36
  -6   7   5    7.29    2.53
   6  -7   5   11.46    3.09
   6   7   5   16.83    3.66
   6   7   5   11.32    3.05
   6  -7   5    9.27    2.87
  -6   7   6    0.85    0.92
   6  -7   6    7.11    1.56
   6   7   6    4.59    1.62
   6   7   6    5.22    2.03
   6  -7   6    3.95    1.87
   6  -7   7    6.17    1.95
   6   7   7    5.74    2.26
  -6   7   7    6.01    2.92
   6   7   7    6.66    2.25
   6  -7   7    5.49    2.53
   6   7   8   27.56    4.40
   6   7   8   33.65    5.28
   6  -7   8   30.37    4.66
   6  -7   8   33.80    5.12
  -6   7   8   29.66    4.79
   6  -7   9    3.21    2.36
   6   7   9    2.61    1.98
   6   7   9    3.35    0.62
  -6   7   9    3.32    1.64
   6  -7   9    2.97    1.24
   6  -7  10   18.14    3.56
  -6   7  10   10.67    2.74
   6   7  10   15.07    3.69
   6  -7  11    3.08    1.79
   6   7  11    7.01    2.43
  -6   7  11    3.86    2.52
   6   7  11    2.27    1.24
   6  -7  12    5.02    2.04
   6   7  12    5.13    2.48
   6   7  12    5.79    1.74
  -6   7  12    6.66    2.59
   6  -7  13   15.26    3.50
   6   7  13    8.02    2.88
   6   7  13   20.47    4.26
  -6   7  13   20.18    4.27
  -6   7  14    5.56    2.17
   6   7  14    6.93    2.84
   6   7  14    8.90    3.24
   6   7  15    8.50    3.24
   6   7  15    8.57    2.82
  -6   7  15   14.68    4.11
   6   7  16    3.59    1.95
   6   7  16    8.51    3.64
  -6   7  16   10.07    3.54
   6   7  17    5.49    2.33
   6   7  17    5.43    1.77
  -6   7  17   -0.51    0.99
   6   7  18    7.96    2.17
  -6   7  18   13.68    3.70
   6   7  18   15.80    3.56
  -6   7  19    6.66    2.92
   6   7  19    6.69    2.20
  -6   7  20    7.42    2.71
   6   7  20    6.44    2.85
   6   7  21   10.12    2.91
  -6   7  21    6.86    2.96
   6   7  22    0.75    0.88
  -6   7  22    4.36    2.91
  -6   7  23    1.24    2.09
   6   7  23    3.72    2.60
   6  -8 -21    8.24    2.99
   6  -8 -20    2.17    1.57
   6  -8 -20    0.16    1.29
   6  -8 -19    6.98    2.86
   6  -8 -19    7.82    3.58
   6  -8 -18   17.46    4.38
   6  -8 -18   19.81    4.16
   6  -8 -17    6.18    2.50
   6  -8 -17    6.10    2.18
   6  -8 -16    8.21    2.62
   6  -8 -16    5.67    1.65
   6  -8 -15   13.48    3.53
   6  -8 -15    4.72    2.30
   6   8 -14   10.07    3.13
   6  -8 -14   15.90    3.81
   6  -8 -14   16.07    3.84
   6  -8 -13   22.26    4.43
   6  -8 -13   19.30    4.47
   6   8 -13   17.80    4.32
   6   8 -12   20.97    4.74
   6  -8 -12   19.53    4.29
   6  -8 -12   21.83    4.39
   6   8 -11   12.57    3.99
   6  -8 -11   14.68    3.49
   6  -8 -11   12.19    3.10
   6   8 -10    4.37    2.39
   6  -8 -10    9.80    2.62
   6  -8 -10    7.50    1.81
   6   8  -9    4.68    2.22
   6  -8  -9    9.71    2.31
   6  -8  -9    5.32    2.63
   6   8  -8   54.81    6.69
  -6   8  -8   42.16    5.95
   6  -8  -8   49.73    6.80
   6  -8  -8   50.12    6.26
  -6   8  -7   14.41    3.54
   6   8  -7   23.66    4.29
   6  -8  -7   20.79    4.20
   6  -8  -7   25.28    4.74
   6  -8  -6    5.22    2.16
   6   8  -6    6.72    2.28
  -6   8  -6    7.55    2.38
   6  -8  -6    2.25    1.07
   6   8  -5   18.56    4.13
   6  -8  -5    7.59    3.12
  -6   8  -5   21.49    4.42
   6  -8  -5   21.08    4.09
   6   8  -4   25.79    4.28
   6  -8  -4   25.31    4.63
   6   8  -4   21.83    3.85
  -6   8  -4   19.84    4.18
   6  -8  -4   21.71    4.06
   6   8  -3    3.65    1.91
   6   8  -3    1.60    1.17
  -6   8  -3    0.84    0.92
   6  -8  -3    2.45    2.36
   6  -8  -3   -0.28    1.48
   6   8  -2   32.62    4.66
   6   8  -2   42.09    5.64
   6  -8  -2   33.32    4.98
  -6   8  -2   38.96    5.42
   6  -8  -2   31.56    5.13
   6   8  -1    5.92    1.81
   6   8  -1    7.25    1.65
  -6   8  -1    6.25    2.13
   6  -8  -1    9.92    2.81
   6  -8   0    2.02    1.99
   6   8   0    2.13    1.75
  -6   8   0   -0.31    1.89
   6   8   0    2.26    1.70
   6  -8   0   -0.44    1.60
   6   8   1    8.72    2.83
  -6   8   1    8.87    2.96
   6   8   1    7.42    2.47
   6  -8   1    7.04    2.33
   6  -8   1    9.46    2.46
   6   8   2   28.89    4.55
   6   8   2   36.79    5.39
  -6   8   2   31.16    5.28
   6  -8   2   33.24    4.90
   6  -8   2   37.29    5.47
   6   8   3    0.24    1.74
  -6   8   3    3.63    2.63
   6   8   3    1.23    1.31
   6  -8   3   -0.71    0.97
   6  -8   3    0.81    1.50
   6   8   4   24.43    4.76
   6   8   4   27.09    4.80
  -6   8   4   25.04    4.90
   6  -8   4   26.59    4.69
  -6   8   5   16.96    3.90
   6   8   5    7.05    2.63
   6   8   5   17.37    3.51
   6  -8   5   19.78    4.01
   6   8   6    5.33    1.07
  -6   8   6    6.58    2.75
   6   8   6    4.97    1.88
   6  -8   6    5.15    2.11
   6   8   7   22.06    4.37
  -6   8   7   19.05    4.34
   6   8   7   26.79    5.16
   6  -8   7   18.25    3.94
   6   8   8   45.24    6.17
   6   8   8   61.92    7.31
   6  -8   8   44.35    6.02
  -6   8   8   48.85    6.56
   6   8   9   11.57    3.33
   6   8   9    5.55    1.87
  -6   8   9   14.53    3.54
   6  -8   9    5.48    2.41
   6   8  10   11.72    3.35
   6   8  10    8.42    3.03
  -6   8  10    9.82    2.87
   6  -8  10    6.06    2.18
   6  -8  11   20.93    4.20
  -6   8  11   15.58    4.02
   6   8  11   15.92    3.69
   6   8  11    6.70    2.67
   6  -8  12   16.66    4.04
   6   8  12   30.84    5.03
   6   8  12   21.74    4.25
  -6   8  12   33.25    5.63
   6   8  13   19.08    4.55
   6   8  13   15.81    3.81
  -6   8  13   18.13    4.28
   6   8  14    9.33    3.17
   6   8  14    9.54    3.37
  -6   8  14   14.85    3.31
   6   8  15    6.23    2.51
   6   8  15    6.24    2.71
  -6   8  15   12.74    3.63
   6   8  16    7.98    2.92
   6   8  16    3.25    1.79
  -6   8  16    4.71    3.03
   6   8  17    4.10    1.39
   6   8  17    4.17    2.47
  -6   8  17    6.84    2.88
   6   8  18   22.13    4.68
   6   8  18   17.01    3.73
  -6   8  18   14.14    4.12
   6   8  19    6.96    2.51
  -6   8  19    6.08    2.27
   6   8  19    8.38    3.22
  -6   8  20    3.39    2.15
   6   8  20    5.45    3.32
  -6   8  21    4.50    2.70
   6   8  21    3.47    1.33
   6  -9 -17    0.85    1.74
   6  -9 -17   -2.91    2.25
   6  -9 -16    1.31    2.21
   6  -9 -16    2.24    2.47
   6  -9 -15    0.39    1.53
   6  -9 -15   -1.22    1.60
   6  -9 -14    4.95    2.31
   6  -9 -14    5.29    3.44
   6   9 -13    2.07    1.39
   6  -9 -13    5.30    3.04
   6  -9 -13    2.19    1.93
   6   9 -12    2.96    1.28
   6  -9 -12    6.21    2.80
   6  -9 -12    4.09    2.52
   6   9 -11    0.68    1.47
   6  -9 -11    2.53    1.08
   6  -9 -11    1.61    1.53
   6   9 -10    0.89    1.07
   6  -9 -10    1.83    1.44
   6  -9 -10    2.52    1.98
   6   9  -9    2.54    1.79
   6  -9  -9    1.05    1.58
   6  -9  -9    0.34    1.29
   6  -9  -8    3.21    2.66
   6   9  -8    2.06    1.85
  -6   9  -8    4.02    2.34
   6  -9  -8    1.87    1.54
   6  -9  -7    2.41    1.95
   6   9  -7    6.78    2.97
  -6   9  -7    4.94    1.39
   6  -9  -7    0.69    1.67
  -6   9  -6    0.53    2.04
   6  -9  -6    2.99    2.33
   6  -9  -6    3.05    1.03
   6   9  -5    4.31    2.49
  -6   9  -5    7.86    2.69
   6  -9  -5    4.92    1.92
   6  -9  -5    1.60    1.10
   6   9  -4    3.28    1.69
  -6   9  -4   -1.21    1.02
   6  -9  -4    2.02    1.61
   6  -9  -4   -0.57    1.46
   6   9  -3    3.52    2.01
   6   9  -3    4.44    2.97
  -6   9  -3    2.30    1.70
   6  -9  -3    0.12    2.30
   6  -9  -3    0.37    1.13
   6   9  -2    0.70    1.46
   6   9  -2   -0.22    1.43
  -6   9  -2    1.15    1.64
   6  -9  -2    0.02    2.18
   6   9  -1    7.68    3.04
  -6   9  -1    6.09    2.05
   6  -9  -1    5.28    2.15
   6   9  -1    8.92    2.89
   6   9   0   -0.17    1.16
   6   9   0    3.78    1.85
  -6   9   0    2.83    2.41
   6  -9   0    0.78    1.04
   6   9   1    7.09    2.44
   6   9   1    8.04    2.80
   6  -9   1    5.92    2.46
  -6   9   1    9.79    3.06
   6   9   2   -1.05    1.69
   6   9   2   -1.07    1.91
  -6   9   2    0.90    1.57
   6  -9   2   -3.54    2.66
   6  -9   3   -0.36    1.64
   6   9   3    1.40    0.97
  -6   9   3    4.59    2.01
   6   9   3    1.67    1.98
   6   9   4    0.93    1.43
  -6   9   4    0.45    1.97
   6   9   4   -0.76    1.68
   6  -9   4   -0.28    1.55
   6   9   5    3.51    1.90
   6   9   5    4.47    2.45
  -6   9   5    6.33    2.46
   6  -9   5    6.71    3.15
  -6   9   6    4.49    2.40
   6   9   6    1.54    1.83
   6   9   6    6.10    2.41
   6  -9   6    7.38    3.44
   6   9   7    5.80    2.08
  -6   9   7    5.47    2.57
   6   9   7    5.67    2.33
   6  -9   7    7.68    3.62
   6   9   8    2.08    2.24
   6   9   8    1.76    1.43
  -6   9   8    0.60    1.36
   6  -9   8    0.73    1.10
   6   9   9    3.14    2.39
   6   9   9    0.36    0.96
  -6   9   9    0.64    0.98
   6  -9   9    0.99    1.62
   6   9  10    1.32    1.76
   6   9  10    3.12    2.00
  -6   9  10    3.48    2.79
   6  -9  10    4.54    2.39
   6   9  11   -0.19    1.61
   6   9  11    0.14    1.46
   6   9  12    7.34    3.19
   6   9  12    3.52    2.40
  -6   9  12    5.74    2.46
  -6   9  13    0.64    2.00
   6   9  13    1.42    1.55
   6   9  13    1.08    1.32
   6   9  14    2.64    2.18
   6   9  14    2.46    1.61
  -6   9  14    2.00    1.39
   6   9  15    0.41    2.36
   6   9  15    1.93    1.80
  -6   9  15    2.59    2.51
   6   9  16    1.61    2.18
   6   9  16   -0.05    2.25
  -6   9  16    1.53    2.08
   6   9  17   -0.97    1.88
   6   9  17   -1.96    3.04
  -6   9  17   -3.51    3.00
   6  10 -13   -2.79    1.77
   6 -10 -13   -0.29    2.13
   6  10 -12    1.96    2.24
   6 -10 -12    6.06    2.81
   6 -10 -12    9.57    2.97
   6  10 -11    3.94    2.67
   6 -10 -11    2.09    1.99
   6 -10 -11    0.50    1.15
   6  10 -10   -2.14    1.82
   6 -10 -10   -0.93    1.67
   6  10  -9    0.44    1.29
   6 -10  -9   -1.08    2.00
   6  10  -8   12.64    3.61
   6 -10  -8   12.93    3.90
   6  10  -7    0.58    2.24
  -6  10  -7    2.42    1.97
   6 -10  -7    3.03    2.01
   6  10  -6    7.20    3.27
  -6  10  -6    6.24    2.98
   6 -10  -6    1.70    1.49
   6  10  -5    3.82    2.05
  -6  10  -5    4.29    2.98
   6 -10  -5    4.95    1.81
   6  10  -4    7.26    2.08
  -6  10  -4    7.65    2.93
   6 -10  -4   10.28    3.23
   6  10  -3    3.56    2.95
  -6  10  -3   -0.34    1.08
   6 -10  -3    3.85    2.69
   6  10  -2   11.19    3.03
  -6  10  -2   18.39    4.73
   6 -10  -2   17.31    4.00
   6  10  -1    7.79    2.36
   6 -10  -1    5.02    2.69
   6  10  -1    9.56    3.19
  -6  10  -1    5.53    2.38
   6  10   0    0.42    1.46
  -6  10   0   -2.05    1.48
   6  10   0   -3.94    2.19
   6 -10   0    3.06    2.50
   6  10   1    6.59    3.00
  -6  10   1    7.14    3.14
   6  10   1    4.89    2.48
   6 -10   1    2.53    1.61
   6  10   2   13.22    3.66
   6  10   2   10.89    3.41
  -6  10   2   18.79    4.13
   6 -10   2   20.97    4.31
   6  10   3    4.53    1.77
  -6  10   3    4.66    1.71
   6  10   3    0.82    1.87
   6 -10   3    1.86    2.11
   6  10   4    2.27    2.79
  -6  10   4    8.27    2.76
   6 -10   4    7.03    3.08
   6  10   5    6.05    2.32
  -6  10   5    5.28    2.75
   6  10   5    3.72    1.83
   6 -10   5    4.48    2.48
   6  10   6    4.48    2.25
  -6  10   6    1.40    1.25
   6 -10   6    5.68    2.58
   6  10   6    0.52    2.11
   6  10   7    4.95    2.67
   6  10   7    0.49    2.16
  -6  10   7    2.43    1.53
   6 -10   7    8.02    3.08
   6  10   8   17.41    4.22
   6  10   8   12.92    3.59
  -6  10   8   17.29    4.41
   6 -10   8   10.83    4.04
  -6  10   9    2.57    1.45
   6  10   9   -1.19    1.76
   6  10   9    0.95    1.63
   6 -10   9    1.96    1.19
  -6  10  10    0.23    1.13
   6  10  10    0.98    1.85
   6  10  10    2.07    1.84
   6  10  11    0.15    0.80
  -6  10  11    1.96    1.45
   6  10  12    1.42    1.74
  -6  10  12    5.19    2.92
   6  10  13    0.35    1.43
   6  10  13    1.24    1.07
  -6  10  13   -1.02    1.86
   6  11  -6    5.56    2.53
   6 -11  -6    4.29    1.91
   6  11  -5    4.76    2.78
  -6  11  -5    0.71    1.76
   6 -11  -5   -0.32    1.87
   6  11  -4    3.12    2.32
  -6  11  -4   -0.38    1.93
   6 -11  -4    1.46    1.66
   6  11  -3   -0.37    1.44
  -6  11  -3    0.38    1.28
   6 -11  -3    2.40    1.38
   6  11  -2    1.49    2.35
  -6  11  -2    6.32    2.93
   6 -11  -2    2.53    2.51
   6  11  -1    2.94    1.36
  -6  11  -1    2.51    2.34
   6 -11  -1    2.54    2.64
  -6  11   0    1.97    1.78
   6 -11   0   -1.58    2.44
   6  11   1    1.20    1.97
   6  11   1   -0.65    2.21
  -6  11   1    4.76    2.78
   6 -11   1    5.44    2.80
   6  11   2   -0.79    1.30
   6  11   2    0.55    1.26
  -6  11   2    3.08    3.02
   6 -11   2    2.38    2.08
   6  11   3   -3.64    2.51
   6  11   3   -0.97    1.80
  -6  11   3    2.69    1.55
   6 -11   3    6.21    3.71
   6  11   4   -0.93    1.04
   6  11   4   -1.20    1.46
  -6  11   4    3.15    2.43
   6 -11   4    4.44    2.05
   6  11   5    4.61    2.97
   6  11   5   -1.34    2.38
  -6  11   5   -0.75    1.36
   6 -11   5    1.80    2.04
   6 -11   6    2.03    2.93
   6  11   6    3.73    2.81
   6  11   6    3.17    0.97
   7   0 -29    7.14    3.51
   7   0 -28   -1.45    1.42
   7   0 -27   -1.44    1.10
   7   0 -26   -2.30    2.39
   7   0 -25    1.22    2.14
   7   0 -24    0.65    1.18
   7   0 -23   -1.39    1.51
   7   0 -22   -1.21    1.45
   7   0 -21    1.05    1.16
   7   0 -20    1.06    1.29
   7   0 -19    0.14    0.70
   7   0 -18    0.28    1.85
   7   0 -17    0.11    0.59
   7   0 -16    0.61    1.06
   7   0 -15   -0.51    0.80
   7   0 -14   -0.61    1.24
   7   0 -14    3.87    1.84
   7   0 -13    0.01    0.74
   7   0 -13    0.35    1.46
   7   0 -12   -0.48    0.73
   7   0 -12    1.28    1.12
   7   0 -11    0.53    0.40
   7   0 -11    0.64    1.23
   7   0 -10    0.52    0.80
   7   0 -10    0.40    1.09
   7   0  -9   -0.62    0.60
   7   0  -9   -0.61    0.97
   7   0  -8   -0.48    0.60
   7   0  -8   -0.17    0.51
   7   0  -8   -0.74    0.76
   7   0  -7    0.61    0.52
   7   0  -7    1.33    0.98
   7   0  -7    0.96    1.39
   7   0  -6   -0.26    0.66
   7   0  -6    1.03    0.93
   7   0  -6    0.34    0.47
   7   0  -5    1.12    0.89
   7   0  -5    0.34    0.72
   7   0  -5   -0.34    0.45
   7   0  -4   -0.09    0.40
   7   0  -4    0.71    0.42
   7   0  -4   -0.16    0.68
   7   0  -3    0.09    0.70
   7   0  -3   -0.31    0.38
   7   0  -3    0.15    0.55
   7   0  -2    0.01    0.39
   7   0  -2    0.17    0.48
   7   0  -2    0.36    0.49
   7   0  -1    0.11    0.74
   7   0  -1   -0.23    0.89
   7   0  -1   -0.13    0.78
   7   0   0   -0.12    1.02
   7   0   0    0.76    0.87
   7   0   0   -0.22    0.78
   7   0   1    0.10    0.33
   7   0   1   -0.30    0.56
   7   0   2   -0.40    0.91
   7   0   2   -0.25    0.33
   7   0   3   -0.25    0.74
   7   0   3    0.53    0.31
   7   0   4   -0.08    0.45
   7   0   4    0.39    0.45
   7   0   5    0.28    0.97
   7   0   5    0.13    0.67
   7   0   6    0.05    0.72
   7   0   6    0.40    0.74
   7   0   7   -0.29    0.80
   7   0   7    0.29    0.55
   7   0   8   -0.47    1.02
   7   0   8    0.10    0.67
   7   0   9   -0.08    0.62
   7   0   9   -0.13    0.59
   7   0  10   -0.03    0.70
   7   0  10    0.13    0.51
   7   0  11    0.43    1.41
   7   0  11    0.41    0.60
   7   0  12    0.64    0.97
   7   0  12    0.48    0.69
   7   0  13    0.21    0.92
   7   0  13    0.07    0.37
   7   0  14   -0.25    0.65
   7   0  15    2.23    1.90
   7   0  16    0.47    1.34
   7   0  17   -0.26    0.85
   7   0  18    1.00    1.01
   7   0  19    1.02    1.21
   7   0  20   -0.01    1.00
   7   0  21    0.51    1.09
   7   0  22    1.23    1.39
   7   0  23   -0.46    1.04
   7  -1 -29   -0.37    1.08
   7  -1 -28   49.96    7.12
   7  -1 -27    0.25    1.36
   7  -1 -26    0.63    1.32
   7   1 -25   -2.01    1.39
   7  -1 -25   11.48    3.05
   7   1 -24   66.81    7.76
   7  -1 -24   70.63    7.89
   7   1 -23    1.65    1.62
   7  -1 -23    3.00    1.88
   7  -1 -22   41.50    5.95
   7   1 -22   46.50    6.07
   7   1 -21   22.31    4.20
   7  -1 -21   18.56    3.74
   7   1 -20   34.07    4.98
   7  -1 -20   36.27    5.31
   7   1 -19   24.36    4.08
   7  -1 -19   26.29    4.58
   7   1 -18   34.70    4.76
   7  -1 -18   27.06    4.33
   7   1 -17   23.92    3.78
   7  -1 -17   23.68    4.27
   7   1 -16  313.78   13.74
   7  -1 -16  284.75   13.73
   7   1 -15   62.81    6.11
   7  -1 -15   68.01    6.47
   7  -1 -15   64.12    5.49
   7  -1 -14  456.25   16.71
   7   1 -14  435.18   15.43
   7  -1 -14  440.73   14.31
   7   1 -13   68.73    5.97
   7  -1 -13   61.91    6.20
   7   1 -13   65.05    5.86
   7  -1 -13   62.86    5.34
   7   1 -12   86.73    6.63
   7  -1 -12   99.25    7.38
   7  -1 -12   76.10    5.77
   7   1 -12   95.00    6.84
   7   1 -12   89.29    5.00
   7   1 -11   99.67    5.35
   7   1 -11   97.40    6.80
   7  -1 -11  112.67    7.78
   7  -1 -11   90.60    6.28
   7   1 -11   96.32    6.77
   7   1 -10   28.46    2.94
   7   1 -10   25.21    3.45
   7  -1 -10   28.25    3.85
   7   1 -10   29.57    3.73
   7  -1 -10   20.66    3.02
   7   1  -9   16.45    2.27
   7   1  -9   18.07    2.79
   7  -1  -9   18.93    3.32
   7   1  -9   18.27    2.95
   7  -1  -9   21.60    3.03
   7  -1  -8   89.74    5.97
   7   1  -8   90.31    5.31
   7  -1  -8   73.67    6.07
   7   1  -8   92.32    6.45
   7   1  -8   81.24    5.82
   7  -1  -7   72.14    5.44
   7   1  -7   84.90    5.11
   7  -1  -7   79.62    6.24
   7   1  -7   81.43    5.74
   7   1  -7   69.30    5.66
   7  -1  -6  224.19    9.47
   7   1  -6  225.71    9.45
   7   1  -6  233.81    8.66
   7  -1  -6  221.97   10.22
   7   1  -6  244.12   10.46
   7  -1  -5  283.64   11.32
   7  -1  -5  270.00   10.52
   7   1  -5  273.79    9.56
   7   1  -5  267.49   10.11
   7   1  -5  268.16   10.80
   7   1  -4  174.89    7.69
   7  -1  -4  170.54    8.31
   7  -1  -4  166.44    8.65
   7   1  -4  161.41    7.77
   7   1  -4  163.96    8.45
   7  -1  -3  371.96   12.28
   7   1  -3  360.56   12.25
   7   1  -3  361.42   11.21
   7  -1  -3  346.49   12.29
   7   1  -3  341.36   11.22
   7  -1  -2  617.20   16.31
   7  -1  -2  614.93   15.82
   7   1  -2  607.95   14.52
   7   1  -2  614.36   15.12
   7   1  -2  599.98   15.76
   7  -1  -1   25.42    3.28
   7  -1  -1   28.63    3.64
   7   1  -1   29.15    3.29
   7   1  -1   24.57    3.09
   7   1  -1   23.41    3.03
   7   1   0    3.17    1.00
   7   1   0    3.22    1.19
   7  -1   0    4.31    1.28
   7  -1   0    1.62    0.93
   7  -1   1   23.63    3.19
   7  -1   1   24.67    3.34
   7   1   1   19.36    2.79
   7   1   1   27.57    3.32
   7  -1   2  572.36   15.54
   7   1   2  618.20   15.25
   7   1   2  575.47   15.30
   7  -1   3  358.12   12.44
   7   1   3  367.40   11.77
   7   1   3  363.95   12.27
   7   1   4  156.22    7.51
   7   1   4  161.67    8.19
   7   1   5  284.86   11.19
   7  -1   5  261.33   10.73
   7   1   5  263.56    9.82
   7   1   6  230.69   10.20
   7  -1   6  223.77    9.97
   7   1   6  222.82    8.93
   7   1   7   76.22    6.02
   7  -1   7   75.54    5.95
   7   1   7   75.22    5.17
   7   1   8   81.68    6.24
   7  -1   8   78.62    6.06
   7   1   8   82.72    5.47
   7   1   9   19.13    3.25
   7  -1   9   20.81    3.25
   7   1   9   20.84    2.75
   7   1  10   22.25    3.34
   7  -1  10   28.92    3.72
   7   1  10   30.05    3.25
   7   1  11  106.91    7.59
   7  -1  11   91.64    6.88
   7   1  11   92.75    5.73
   7   1  12   88.77    6.96
   7  -1  12   82.52    6.66
   7   1  12   93.15    5.58
   7   1  13   48.28    5.25
   7   1  13   58.76    4.45
   7  -1  13   59.96    5.82
   7  -1  14  442.65   15.88
   7   1  14  432.61   16.16
   7   1  14  436.79   11.89
   7   1  15   69.52    6.70
   7  -1  15   75.54    6.60
   7   1  16  318.47   14.45
   7  -1  16  327.91   14.32
   7   1  17   26.47    4.34
   7  -1  17   27.58    4.48
   7   1  18   34.15    4.96
   7  -1  18   41.05    5.12
   7  -1  19   28.58    4.58
   7   1  19   25.37    4.34
   7  -1  20   27.15    4.42
   7   1  20   36.48    5.28
   7  -1  21   26.06    4.52
   7   1  21   27.17    4.61
   7  -1  22   38.60    5.69
   7   1  22   43.22    6.07
   7   1  23    1.02    1.82
   7   1  24   72.40    7.90
   7  -2 -29    0.41    1.59
   7  -2 -28    0.05    1.67
   7  -2 -27   -1.56    0.87
   7  -2 -26    1.00    2.19
   7  -2 -25    7.33    2.87
   7  -2 -24    8.40    3.04
   7  -2 -23   12.25    3.07
   7  -2 -22    8.13    3.07
   7  -2 -21   13.27    3.51
   7   2 -20   -3.27    1.49
   7  -2 -20    4.56    1.62
   7   2 -19    0.32    1.33
   7  -2 -19   -0.44    0.90
   7   2 -18   39.48    5.10
   7  -2 -18   43.96    5.80
   7  -2 -17   21.45    3.73
   7   2 -17   21.21    3.54
   7   2 -17   14.40    3.34
   7  -2 -16  218.25   11.26
   7   2 -16  217.65   11.08
   7  -2 -16  210.81   12.04
   7   2 -16  234.41   11.75
   7   2 -15   61.32    5.76
   7  -2 -15   58.44    6.31
   7  -2 -15   67.64    6.05
   7   2 -15   63.56    5.96
   7  -2 -14   53.90    5.80
   7   2 -14   48.59    4.99
   7  -2 -14   59.09    5.75
   7   2 -14   53.15    5.31
   7  -2 -13   35.64    4.65
   7   2 -13   50.19    4.92
   7  -2 -13   43.61    4.90
   7   2 -13   46.50    5.18
   7   2 -12   84.84    6.18
   7  -2 -12  108.30    8.07
   7  -2 -12   98.03    7.10
   7   2 -12   92.29    6.92
   7  -2 -11    8.70    2.05
   7   2 -11   11.05    1.75
   7   2 -11   11.05    2.29
   7  -2 -11    7.28    1.89
   7   2 -11   10.55    2.27
   7   2 -10   50.01    3.60
   7   2 -10   58.35    4.95
   7  -2 -10   55.32    5.58
   7  -2 -10   53.14    5.12
   7   2 -10   62.72    5.80
   7   2  -9  104.27    6.25
   7   2  -9  100.51    5.29
   7  -2  -9   94.66    7.18
   7  -2  -9  104.15    7.09
   7   2  -8  218.43    8.07
   7   2  -8  219.08    9.04
   7  -2  -8  214.99   10.72
   7   2  -8  216.27   10.21
   7  -2  -8  215.19   10.15
   7   2  -7   10.63    2.39
   7  -2  -7    8.25    2.08
   7  -2  -7   12.61    2.82
   7   2  -7    7.92    1.70
   7   2  -7    8.20    1.60
   7  -2  -6   27.71    3.46
   7  -2  -6   24.24    3.70
   7   2  -6   30.84    3.27
   7   2  -6   26.26    2.82
   7   2  -6   25.72    3.49
   7  -2  -5  128.42    7.71
   7  -2  -5  148.32    8.62
   7   2  -5  156.81    7.30
   7   2  -5  152.07    7.00
   7   2  -5  149.95    8.28
   7  -2  -4   24.79    3.37
   7  -2  -4   33.95    3.96
   7   2  -4   28.68    3.14
   7   2  -4   31.02    3.21
   7   2  -4   29.59    3.70
   7  -2  -3  141.56    7.96
   7  -2  -3  138.61    8.11
   7   2  -3  133.83    6.76
   7   2  -3  138.67    7.02
   7   2  -3  142.17    7.92
   7  -2  -2   81.42    6.02
   7  -2  -2   77.94    6.08
   7   2  -2   81.92    5.41
   7   2  -2   81.07    5.89
   7   2  -2   77.37    5.38
   7   2  -1    1.97    0.82
   7  -2  -1    2.15    1.07
   7  -2  -1    2.80    1.16
   7   2  -1    2.20    0.98
   7  -2   0   -0.13    1.00
   7  -2   0   -0.13    0.58
   7   2   0    0.96    0.97
   7   2   0    0.31    0.48
   7   2   1    1.04    0.67
   7  -2   1    2.94    1.14
   7   2   1    2.44    1.16
   7  -2   1    2.67    1.22
   7   2   2   74.31    5.55
   7  -2   2   73.86    5.87
   7  -2   2   77.07    5.97
   7   2   2   74.38    5.59
   7   2   3  158.02    8.14
   7  -2   3  140.48    8.04
   7   2   3  137.90    7.59
   7   2   4   23.68    3.12
   7   2   4   24.72    3.29
   7  -2   4   30.31    3.85
   7   2   5  145.12    7.78
   7   2   5  169.57    8.79
   7  -2   5  145.00    8.29
   7   2   6   31.15    3.65
   7   2   6   26.93    3.57
   7  -2   6   30.89    3.90
   7   2   7    9.91    1.91
   7  -2   7    7.54    1.94
   7   2   7    7.29    1.91
   7   2   8  209.55   10.38
   7  -2   8  228.47   10.63
   7   2   8  223.40    9.67
   7   2   9  102.73    6.55
   7   2   9   99.99    7.34
   7  -2   9  100.39    7.08
   7   2  10   52.21    4.65
   7   2  10   45.41    5.09
   7  -2  10   54.11    5.25
   7   2  11    7.32    1.83
   7  -2  11    6.74    2.32
   7   2  11    6.53    2.27
   7   2  12   86.92    6.08
   7   2  12   98.50    7.55
   7  -2  12   98.31    7.51
   7   2  13   43.78    4.21
   7   2  13   47.85    5.28
   7  -2  13   39.40    4.88
   7   2  14   49.59    5.71
   7   2  14   63.34    5.20
   7  -2  14   63.37    6.15
   7   2  15   61.93    6.37
   7  -2  15   52.95    5.69
   7   2  15   70.09    5.42
   7   2  16  200.60   11.62
   7  -2  16  167.10   10.45
   7   2  17   23.20    4.02
   7  -2  17   23.73    3.75
   7   2  18   31.46    4.79
   7  -2  18   35.71    4.87
   7   2  19    0.49    1.21
   7  -2  19   -0.64    0.74
   7   2  20    7.00    2.42
   7  -2  20    7.10    2.91
   7  -2  21   16.57    3.37
   7   2  21    8.19    2.96
   7   2  22    4.27    2.08
   7   2  23    8.73    2.29
   7   2  24    4.60    2.27
   7   2  25    6.32    2.33
   7  -3 -28   17.40    4.58
   7  -3 -27    1.51    2.12
   7  -3 -26    3.34    1.37
   7  -3 -25    8.35    2.91
   7  -3 -24   44.59    6.48
   7  -3 -23    6.52    2.99
   7  -3 -22    1.13    1.05
   7  -3 -21    0.22    1.50
   7  -3 -20   93.59    8.54
   7  -3 -19   12.83    3.25
   7  -3 -18  227.98   13.30
   7  -3 -18  218.23   12.33
   7   3 -18  225.26   12.28
   7  -3 -17   18.99    3.93
   7  -3 -17   27.50    4.39
   7   3 -17   23.40    3.74
   7  -3 -16   11.65    2.74
   7  -3 -16    7.21    2.13
   7   3 -16    9.49    2.47
   7  -3 -15   19.43    3.87
   7  -3 -15   17.74    3.32
   7   3 -15   18.65    3.57
   7  -3 -14  516.07   18.78
   7   3 -14  502.72   17.60
   7   3 -13    4.01    1.64
   7  -3 -13   12.16    3.04
   7   3 -13   13.72    2.88
   7  -3 -13    8.32    2.36
   7   3 -12  633.36   19.11
   7   3 -12  603.75   15.73
   7  -3 -12  640.09   20.28
   7  -3 -12  603.28   18.77
   7   3 -11   72.85    5.18
   7  -3 -11   69.82    6.67
   7   3 -11   70.68    6.28
   7  -3 -11   67.52    6.16
   7   3 -10   20.86    2.77
   7  -3 -10   18.10    3.49
   7  -3 -10   17.18    3.10
   7   3 -10   20.13    3.45
   7   3  -9   23.64    2.80
   7  -3  -9   21.46    3.86
   7   3  -9   27.39    2.82
   7  -3  -9   24.10    3.70
   7   3  -9   28.35    3.86
   7  -3  -8  574.26   18.10
   7   3  -8  557.77   13.49
   7   3  -8  544.33   12.96
   7  -3  -8  537.38   17.21
   7   3  -8  543.74   16.98
   7   3  -7   14.82    2.70
   7  -3  -7    9.12    2.19
   7   3  -7    8.14    1.54
   7   3  -7   14.75    2.13
   7  -3  -7    7.83    2.19
   7   3  -6  361.80   10.59
   7  -3  -6  356.19   13.78
   7   3  -6  343.92   10.95
   7   3  -6  359.98   13.79
   7   3  -5   39.01    3.69
   7  -3  -5   39.97    4.79
   7   3  -5   40.79    3.51
   7   3  -5   33.03    3.99
   7  -3  -5   36.94    4.35
   7   3  -4    0.23    1.09
   7  -3  -4    2.04    1.62
   7   3  -4    1.29    0.92
   7  -3  -4    1.78    1.51
   7   3  -4    2.91    1.08
   7  -3  -3   18.80    3.22
   7   3  -3   12.26    2.32
   7   3  -3   18.79    2.71
   7  -3  -3   18.13    3.16
   7   3  -3   21.51    2.67
   7   3  -2  599.96   17.44
   7  -3  -2  622.30   17.62
   7   3  -2  611.12   15.46
   7  -3  -2  596.62   17.60
   7   3  -2  616.67   14.05
   7   3  -1   20.93    3.13
   7  -3  -1   18.12    3.19
   7   3  -1   20.69    2.79
   7  -3  -1   25.85    3.74
   7   3   0    1.58    1.10
   7   3   0   -0.08    0.73
   7  -3   0    0.06    0.79
   7  -3   0    0.12    0.62
   7  -3   1   18.46    3.02
   7   3   1   19.34    3.03
   7   3   1   25.53    3.43
   7  -3   1   23.54    3.59
   7  -3   2  604.28   17.56
   7   3   2  634.29   17.47
   7   3   2  597.51   16.69
   7  -3   2  641.01   17.83
   7   3   3   19.63    3.19
   7  -3   3   16.68    2.91
   7   3   3   20.46    3.39
   7  -3   3   16.35    2.94
   7   3   4    0.73    0.88
   7   3   4    2.94    1.29
   7  -3   4    0.98    1.17
   7  -3   4    1.30    1.24
   7   3   5   34.21    4.05
   7  -3   5   38.79    4.52
   7   3   5   46.93    4.81
   7  -3   6  362.93   13.80
   7   3   6  367.25   13.77
   7   3   6  330.65   12.60
   7   3   7   17.41    2.81
   7  -3   7   14.43    2.65
   7   3   8  581.79   16.75
   7  -3   8  547.28   17.27
   7   3   8  548.40   17.54
   7   3   9   24.93    3.54
   7  -3   9   22.95    3.66
   7   3   9   28.14    3.96
   7   3  10   23.26    3.34
   7   3  10   13.78    3.03
   7  -3  10   15.56    3.02
   7   3  11   63.25    5.69
   7  -3  11   68.74    6.37
   7   3  11   81.04    7.11
   7   3  12  627.61   17.88
   7  -3  12  610.50   18.86
   7   3  12  610.94   19.57
   7   3  13    2.88    1.51
   7   3  13    5.15    2.04
   7  -3  13    3.05    1.93
   7   3  14  505.32   16.45
   7  -3  14  512.60   17.86
   7   3  14  507.75   18.52
   7   3  15   17.89    3.17
   7   3  15   17.31    3.49
   7  -3  15   19.60    3.62
   7   3  16    5.79    2.23
   7   3  16    6.98    2.04
   7  -3  16    7.80    2.35
   7   3  17   22.44    4.05
   7  -3  17   24.47    4.42
   7   3  18  244.04   13.77
   7  -3  18  225.57   12.61
   7  -3  19   15.23    3.35
   7   3  19   11.22    3.00
   7   3  20   94.49    8.87
   7   3  21    1.25    1.34
   7   3  22    3.31    2.46
   7   3  23    5.83    2.56
   7   3  24   46.94    6.57
   7   3  25    3.88    1.90
   7   3  26    4.64    3.04
   7  -4 -27    9.37    3.37
   7  -4 -26    0.13    1.52
   7  -4 -25    1.31    1.91
   7  -4 -24   -0.51    2.23
   7  -4 -23    4.13    2.44
   7  -4 -22   12.16    3.09
   7  -4 -21    8.97    2.77
   7  -4 -20   -0.34    1.59
   7  -4 -19   75.07    7.83
   7  -4 -19   80.91    7.98
   7  -4 -18   31.34    5.05
   7  -4 -18   36.16    5.23
   7  -4 -17   -0.51    1.51
   7  -4 -17    3.32    2.26
   7   4 -17    1.53    1.18
   7  -4 -16    3.48    2.21
   7  -4 -16    8.30    2.78
   7   4 -16    5.29    2.28
   7  -4 -15   23.31    4.28
   7  -4 -15   18.44    3.78
   7   4 -15   21.76    3.87
   7  -4 -14   57.78    6.39
   7  -4 -14   56.22    6.37
   7   4 -14   54.32    5.82
   7  -4 -13   50.47    5.77
   7  -4 -13   48.90    5.74
   7   4 -13   49.03    5.57
   7   4 -12   12.83    2.63
   7  -4 -12    8.53    2.77
   7  -4 -12   15.54    3.23
   7  -4 -11  108.77    8.52
   7  -4 -11  109.11    8.53
   7   4 -11  116.55    8.43
   7   4 -10   17.33    3.31
   7  -4 -10   23.79    3.68
   7  -4 -10   19.21    3.65
   7  -4  -9    2.35    1.58
   7   4  -9    5.08    1.58
   7  -4  -9    1.26    0.89
   7   4  -8   38.71    4.80
   7  -4  -8   42.29    4.97
   7  -4  -8   40.86    5.06
   7   4  -8   35.38    3.46
   7   4  -7  275.48   10.07
   7  -4  -7  272.53   13.06
   7  -4  -7  286.75   13.01
   7   4  -7  289.86   12.91
   7   4  -6   29.97    4.09
   7   4  -6   23.98    3.15
   7   4  -6   16.46    2.01
   7  -4  -6   29.16    4.49
   7  -4  -6   31.03    4.39
   7  -4  -5    2.70    1.30
   7   4  -5    5.12    1.90
   7  -4  -5    3.44    1.84
   7   4  -5    2.49    0.91
   7   4  -5    2.44    0.63
   7   4  -4    1.69    1.19
   7   4  -4    3.47    1.38
   7  -4  -4    3.62    1.63
   7  -4  -4    1.89    0.90
   7   4  -4    1.77    0.71
   7   4  -3   39.22    4.84
   7   4  -3   41.27    4.23
   7  -4  -3   43.80    4.92
   7   4  -3   35.00    3.22
   7  -4  -3   40.54    4.74
   7   4  -2    5.30    1.65
   7  -4  -2    4.69    1.59
   7   4  -2    4.29    1.56
   7  -4  -2    4.20    1.83
   7   4  -1    7.28    1.82
   7  -4  -1    5.68    1.92
   7   4  -1    6.71    1.89
   7  -4  -1    6.31    1.76
   7   4   0    0.46    1.58
   7   4   0    0.17    0.80
   7  -4   0    0.31    0.68
   7  -4   0    0.23    0.60
   7   4   1    5.67    1.57
   7  -4   1    2.30    1.34
   7   4   1    6.55    1.95
   7  -4   1    6.24    2.12
   7   4   2    1.42    0.68
   7   4   2    1.32    0.72
   7  -4   2    2.91    1.13
   7  -4   2    1.78    0.50
   7  -4   3   36.79    4.59
   7   4   3   43.22    4.78
   7   4   3   46.25    4.91
   7  -4   3   42.07    4.85
   7   4   4    0.78    1.04
   7   4   4    3.59    1.66
   7  -4   4    1.21    0.93
   7   4   5    4.49    1.86
   7   4   5    2.70    1.93
   7  -4   5    3.23    1.47
   7  -4   5    3.55    1.51
   7   4   6   25.85    3.73
   7  -4   6   28.17    4.06
   7   4   6   29.67    4.22
   7  -4   6   26.49    3.94
   7   4   7  278.44   12.47
   7  -4   7  268.95   12.46
   7   4   7  276.78   12.75
   7  -4   7  275.57   12.51
   7   4   8   40.55    4.86
   7  -4   8   40.89    5.00
   7   4   8   31.49    4.29
   7   4   9    4.14    1.44
   7  -4   9    3.67    1.76
   7   4   9    4.36    1.29
   7   4  10   24.28    3.75
   7  -4  10   20.20    3.33
   7   4  10   32.49    4.46
   7   4  11  116.86    8.22
   7  -4  11  106.44    7.88
   7   4  11  122.22    9.00
   7   4  12   12.35    2.77
   7  -4  12   11.89    2.72
   7   4  12   14.99    3.44
   7   4  13   64.53    6.21
   7   4  13   60.53    6.51
   7   4  14   54.33    5.73
   7  -4  14   50.89    5.82
   7   4  14   47.13    5.80
   7  -4  15   29.50    4.23
   7   4  15   18.45    3.20
   7   4  15   19.90    3.96
   7   4  16    6.70    2.10
   7   4  16    6.97    2.46
   7  -4  16    4.09    1.76
   7   4  17    5.01    0.96
   7   4  17    2.32    1.71
   7  -4  17    3.01    1.45
   7  -4  18   32.85    4.95
   7   4  18   39.17    5.51
   7   4  19   83.57    8.17
   7   4  20    0.16    1.54
   7   4  21    7.17    2.77
   7   4  22   15.48    4.04
   7   4  23   -0.91    1.73
   7   4  24   -0.31    1.54
   7   4  25    2.07    2.38
   7   4  26    1.34    1.41
   7   4  27    7.13    2.87
   7  -5 -26   -1.33    2.21
   7  -5 -25    3.42    2.41
   7  -5 -24   36.51    5.65
   7  -5 -23    4.84    2.81
   7  -5 -22   30.84    5.29
   7  -5 -21    3.15    1.52
   7  -5 -20    1.16    1.54
   7  -5 -20    0.57    1.58
   7  -5 -19   23.58    4.47
   7  -5 -19   19.05    4.33
   7  -5 -18   70.55    7.41
   7  -5 -18   91.32    8.86
   7   5 -17   22.64    4.05
   7  -5 -17   24.25    4.66
   7  -5 -17   23.52    4.39
   7   5 -16    3.06    0.86
   7  -5 -16    2.37    0.87
   7   5 -15   11.70    2.97
   7  -5 -15    5.46    2.14
   7  -5 -15    9.73    2.83
   7   5 -14    5.71    2.20
   7  -5 -14    8.32    2.97
   7  -5 -14    5.78    2.08
   7   5 -13   -1.18    1.80
   7  -5 -13    3.28    2.37
   7  -5 -13   -0.27    0.90
   7  -5 -12  105.51    8.89
   7  -5 -12  107.22    8.88
   7   5 -12  107.34    8.70
   7   5 -11   26.22    3.98
   7  -5 -11   26.32    4.64
   7  -5 -11   18.83    3.99
   7   5 -10    6.88    2.39
  -7   5 -10    2.21    1.04
   7  -5 -10    5.77    2.24
   7  -5 -10    1.52    1.33
   7  -5  -9    9.11    2.59
   7   5  -9    9.20    2.86
  -7   5  -9   10.75    2.46
   7  -5  -9    8.66    2.44
   7   5  -8  117.92    8.77
  -7   5  -8  119.03    8.10
   7  -5  -8  133.53    9.41
   7  -5  -8  127.38    9.35
   7   5  -7   36.16    4.86
   7   5  -7   30.47    3.75
   7  -5  -7   28.96    4.42
   7  -5  -7   38.09    5.22
   7  -5  -6    8.49    2.42
   7   5  -6   10.97    2.38
   7   5  -6    8.48    2.07
   7  -5  -6    7.51    2.34
   7  -5  -5   14.92    3.39
   7   5  -5   15.97    3.25
   7   5  -5   17.49    2.94
   7  -5  -5   17.73    3.25
   7   5  -4   23.80    3.90
   7   5  -4   27.50    3.78
   7  -5  -4   21.45    3.83
   7  -5  -4   29.57    4.22
   7   5  -3   25.11    3.78
   7  -5  -3   35.39    4.72
   7  -5  -3   27.85    4.18
   7   5  -3   30.08    4.33
   7   5  -2  149.74    9.70
   7  -5  -2  140.56    9.19
   7   5  -2  160.00    9.10
   7  -5  -2  136.54    9.37
   7  -5  -1    8.34    2.63
   7   5  -1    6.55    1.92
   7  -5  -1    3.64    1.38
   7  -5   0    3.43    1.55
   7   5   0    0.02    1.07
   7   5   0    0.84    1.01
   7  -5   0    0.59    1.36
   7   5   1    9.55    2.39
   7  -5   1   11.16    2.58
   7   5   1   10.67    2.68
   7  -5   1    7.18    2.07
   7   5   2  176.87   10.16
   7  -5   2  146.76    9.44
   7   5   2  154.11    9.46
   7  -5   2  167.48   10.29
   7   5   3   32.93    4.58
   7  -5   3   31.13    4.12
   7   5   3   32.57    4.43
   7  -5   3   25.10    3.87
   7   5   4   19.46    3.34
   7   5   4   20.37    3.62
   7  -5   4   18.33    3.36
   7  -5   4   22.69    3.80
   7   5   5   16.62    3.30
   7  -5   5   12.34    3.08
   7  -5   5   14.64    3.15
   7   5   5   15.67    3.12
   7   5   6    5.87    2.32
   7  -5   6   11.48    2.81
   7  -5   6   10.05    2.67
   7   5   6    7.93    1.84
   7  -5   7   35.20    4.89
   7  -5   7   33.16    4.62
   7   5   7   38.32    5.08
   7   5   7   30.11    4.38
   7  -5   8  127.57    9.20
   7   5   8  127.88    9.08
   7   5   8  129.39    9.16
   7  -5   8  127.50    8.85
   7   5   9   11.12    2.37
   7  -5   9   11.47    2.86
   7   5   9   11.63    2.92
   7  -5   9    8.30    2.05
   7   5  10    6.26    2.34
   7  -5  10    5.22    1.90
   7   5  10    8.16    2.36
   7  -5  10    2.27    1.91
   7  -5  11   25.55    4.07
   7   5  11   19.39    3.54
   7   5  11   31.55    4.82
   7  -5  12  102.12    8.32
   7   5  12  101.31    8.32
   7   5  12  108.67    8.73
   7   5  13    1.30    1.36
   7  -5  13    0.83    1.85
   7   5  13    2.11    1.49
   7   5  14    1.97    1.95
   7  -5  14    4.39    2.25
   7   5  14    1.92    1.21
   7   5  15    6.75    2.68
   7   5  15    7.73    2.16
   7  -5  15   10.83    2.79
   7   5  16    4.65    1.65
   7  -5  16    4.60    2.29
   7   5  16    5.62    2.53
   7  -5  17   29.83    4.89
   7   5  17   22.60    4.53
   7   5  17   23.24    4.65
   7   5  18   88.53    8.59
   7   5  19   25.77    4.47
   7   5  20    0.98    1.38
   7   5  21    1.11    1.88
   7   5  22   36.94    6.02
   7   5  23    3.91    2.69
   7   5  24   31.47    5.96
   7   5  25    0.11    1.52
   7   5  26   -1.29    1.14
   7  -6 -24    2.21    1.96
   7  -6 -23    1.80    1.74
   7  -6 -22    0.48    0.98
   7  -6 -21    9.76    3.79
   7  -6 -21    7.42    3.18
   7  -6 -20   -1.13    1.07
   7  -6 -20    1.17    0.96
   7  -6 -19   -0.86    1.46
   7  -6 -19    0.05    1.50
   7  -6 -18    0.47    1.14
   7  -6 -18   -0.20    1.46
   7  -6 -17    0.03    1.17
   7  -6 -17   -1.15    1.28
   7   6 -16   -1.24    0.97
   7  -6 -16   -0.16    1.08
   7  -6 -16    0.44    2.19
   7   6 -15   -0.94    1.46
   7  -6 -15    4.01    2.46
   7  -6 -15    1.33    1.70
   7   6 -14    4.99    2.50
   7  -6 -14    5.56    2.21
   7  -6 -14   -0.37    1.65
   7  -6 -13   11.02    3.51
   7   6 -13   18.55    3.81
   7  -6 -13    9.63    3.22
   7   6 -12    3.51    1.63
   7  -6 -12    6.66    2.49
   7  -6 -12    8.17    2.64
   7   6 -11   16.04    3.55
   7  -6 -11   14.32    3.36
   7  -6 -11   16.84    3.86
   7   6 -10    4.78    1.58
  -7   6 -10    1.70    1.07
   7  -6 -10    6.21    2.49
   7  -6 -10    3.42    0.92
   7   6  -9    1.28    1.30
   7  -6  -9   -0.78    2.05
  -7   6  -9    1.90    1.57
   7  -6  -9    1.05    1.83
   7   6  -8    2.17    1.32
  -7   6  -8   -0.11    1.04
   7  -6  -8    0.57    0.82
   7  -6  -8   -0.42    1.29
   7  -6  -7    4.00    1.64
   7   6  -7    4.36    2.21
  -7   6  -7    3.26    1.79
   7  -6  -7    2.70    2.07
   7   6  -6    1.38    1.57
   7   6  -6    1.54    1.35
   7  -6  -6   -0.01    2.03
  -7   6  -6    1.33    1.89
   7  -6  -6    0.58    1.71
   7  -6  -5   17.34    3.66
   7   6  -5   18.37    3.79
  -7   6  -5   20.77    3.82
   7  -6  -5   23.17    4.29
   7   6  -5   13.22    2.57
   7  -6  -4    9.51    2.75
   7   6  -4   12.90    2.87
  -7   6  -4    8.67    2.59
   7   6  -4    7.86    2.02
   7  -6  -4   10.58    2.52
   7  -6  -3    0.02    0.67
   7   6  -3    1.55    0.82
   7  -6  -3   -0.47    0.71
   7   6  -3    2.34    1.47
   7  -6  -2    6.64    2.73
   7   6  -2    4.94    2.00
   7  -6  -2    6.30    2.16
   7   6  -2    5.20    1.65
   7  -6  -1   13.47    3.18
   7   6  -1   10.50    3.02
   7  -6  -1    5.55    2.24
   7   6  -1   11.17    2.54
   7  -6   0    1.69    1.90
   7   6   0    3.68    2.09
   7  -6   0    3.99    2.37
   7   6   0    1.83    0.96
   7   6   1    9.51    2.62
   7  -6   1    8.94    2.16
   7   6   1   12.54    3.26
   7  -6   1   10.52    2.86
   7   6   2    5.48    1.85
   7  -6   2    4.83    1.92
   7   6   2    7.80    2.45
   7  -6   2    6.20    2.65
   7   6   3   -0.11    1.02
   7  -6   3   -1.40    1.70
   7   6   3   -0.18    1.59
   7  -6   3    1.49    2.30
   7   6   4    6.74    2.15
   7  -6   4    2.64    1.63
   7   6   4    7.04    2.16
   7  -6   4    6.54    2.78
   7  -6   5   15.00    3.28
   7   6   5   19.58    3.66
   7  -6   5   19.96    3.95
   7   6   5   19.55    3.74
   7   6   6   -0.08    0.94
   7  -6   6    3.53    0.87
   7   6   6    0.72    1.23
   7  -6   6    5.50    2.74
   7   6   7    4.40    1.68
   7  -6   7    5.86    2.24
   7   6   7    5.46    1.80
   7  -6   7    5.98    2.30
   7   6   8    3.72    1.64
   7  -6   8    1.72    1.72
   7  -6   8    1.95    1.90
   7   6   8    0.97    0.80
   7   6   9    5.16    2.31
   7  -6   9    2.45    1.43
   7  -6   9    2.06    1.18
   7   6   9    2.40    1.67
   7   6  10    7.67    2.56
   7  -6  10    3.22    1.48
   7   6  10    4.29    2.49
   7  -6  10    4.24    2.56
   7  -6  11   12.12    2.67
   7   6  11   15.90    3.48
   7  -6  11   17.63    3.80
   7   6  11   14.67    3.51
   7  -6  12    5.39    2.45
   7   6  12    8.29    2.90
   7  -6  12    9.72    2.91
   7   6  12    3.31    1.71
   7  -6  13    8.34    1.95
   7   6  13   11.41    3.20
   7   6  13    5.58    2.37
   7  -6  13   13.73    3.67
   7  -6  14    2.24    1.09
   7   6  14    2.67    0.87
   7   6  14    5.52    1.83
   7  -6  14    2.22    1.86
   7  -6  15    3.06    2.16
   7   6  15    3.11    1.93
   7   6  15    4.11    2.44
   7   6  16   -0.98    1.85
   7   6  16    0.61    1.17
   7   6  17    0.34    1.46
   7   6  17   -1.87    2.06
   7   6  18    1.57    1.24
   7   6  18   -0.01    1.48
   7   6  19    0.15    1.01
  -7   6  20   -0.12    2.61
   7   6  20   -0.31    1.63
   7   6  21    8.69    3.05
  -7   6  21    5.44    2.13
   7   6  22    4.31    2.82
  -7   6  22   -0.53    1.91
   7   6  23    3.71    2.35
  -7   6  23    2.93    2.47
   7   6  24    0.56    0.92
  -7   6  24   -0.16    1.64
   7  -7 -22    8.47    3.67
   7  -7 -22   11.01    3.31
   7  -7 -21    1.36    1.65
   7  -7 -21    3.11    1.93
   7  -7 -20   11.83    3.74
   7  -7 -20    6.03    2.81
   7  -7 -19    2.17    2.50
   7  -7 -19    2.23    1.31
   7  -7 -18   53.75    7.15
   7  -7 -18   44.78    6.60
   7  -7 -17    8.82    2.80
   7  -7 -17   13.28    3.62
   7   7 -16   -0.68    0.91
   7  -7 -16   -1.61    1.93
   7  -7 -16   -0.89    1.55
   7   7 -15   -0.17    1.22
   7  -7 -15    3.20    1.41
   7  -7 -15    2.92    1.81
   7   7 -14   17.98    3.90
   7  -7 -14   19.18    3.94
   7  -7 -14   12.82    3.78
   7  -7 -13    5.40    2.02
   7   7 -13    4.90    1.63
   7  -7 -13    3.43    1.84
   7   7 -12   71.99    7.84
   7  -7 -12   81.76    8.45
   7  -7 -12   65.31    7.64
   7   7 -11    7.95    2.73
   7  -7 -11    3.18    1.50
   7  -7 -11    3.94    2.09
   7   7 -10    0.01    1.12
   7  -7 -10    0.24    1.65
   7  -7 -10    1.21    1.23
   7   7  -9    6.04    2.66
  -7   7  -9    6.96    2.36
   7  -7  -9    4.13    1.55
   7  -7  -9    7.16    2.85
   7   7  -8  114.75    9.42
  -7   7  -8  126.36    9.65
   7  -7  -8  116.80    9.47
   7  -7  -8  117.87    9.94
   7   7  -7    4.10    1.35
  -7   7  -7    3.57    1.93
   7  -7  -7    4.86    2.17
   7  -7  -7    8.55    3.18
   7   7  -6   23.51    4.39
   7  -7  -6   20.65    4.30
  -7   7  -6   14.79    3.53
   7  -7  -6   19.28    4.01
   7  -7  -5    9.04    2.96
   7   7  -5   11.44    3.30
  -7   7  -5   11.25    3.01
   7   7  -5   11.22    2.31
   7  -7  -5    9.22    2.95
   7   7  -4   38.83    5.41
  -7   7  -4   41.47    5.69
   7  -7  -4   44.46    5.60
   7  -7  -4   31.79    4.97
   7   7  -4   37.09    4.96
  -7   7  -3   -1.20    0.83
   7   7  -3   -0.84    1.40
   7  -7  -3    0.53    0.91
   7   7  -3    2.22    1.30
   7  -7  -3   -0.83    1.51
   7  -7  -2   62.45    6.92
   7   7  -2   55.77    6.34
  -7   7  -2   60.26    6.92
   7  -7  -2   57.66    6.67
   7   7  -2   64.56    6.74
   7  -7  -1    8.49    2.73
   7   7  -1    9.52    3.11
   7   7  -1   15.63    3.59
  -7   7  -1    4.97    1.82
   7  -7  -1   10.23    3.11
   7  -7   0    2.11    2.02
   7   7   0    0.21    0.64
   7   7   0    0.25    0.84
  -7   7   0    0.11    2.10
   7  -7   0    0.03    1.47
   7  -7   1   12.54    2.94
  -7   7   1   11.46    3.23
   7   7   1    7.83    2.26
   7   7   1   15.15    3.49
   7  -7   1    9.80    2.58
   7   7   2   66.21    7.05
   7   7   2   62.06    6.56
  -7   7   2   69.66    7.20
   7  -7   2   70.85    7.18
   7  -7   2   61.98    6.92
  -7   7   3    3.95    1.02
   7  -7   3    1.62    1.27
   7   7   3   -0.06    1.18
   7   7   3    1.47    1.41
   7  -7   3    3.00    1.84
   7   7   4   41.92    5.56
  -7   7   4   46.98    5.94
   7  -7   4   46.80    5.49
   7  -7   4   27.00    4.75
   7   7   4   44.51    5.64
   7  -7   5    7.76    2.30
   7   7   5   13.81    3.14
   7   7   5   12.31    3.09
   7  -7   5    8.90    2.76
  -7   7   5   11.22    2.89
   7  -7   6   18.83    3.98
   7   7   6   31.02    4.92
   7   7   6   19.82    3.85
   7  -7   6   21.71    4.26
   7  -7   7    3.10    1.33
   7   7   7    3.82    2.21
   7   7   7    4.04    2.17
   7  -7   7    3.85    1.80
   7   7   8  107.23    9.22
   7  -7   8  104.19    8.98
   7   7   8  114.85    9.46
   7  -7   9    3.51    2.30
   7   7   9    7.95    2.41
   7   7   9    5.08    2.46
   7  -7   9    3.90    2.38
   7  -7  10   -0.03    1.62
   7   7  10   -0.94    0.74
   7   7  10    0.46    2.18
   7  -7  10   -1.91    2.26
   7   7  11    2.75    1.81
   7  -7  11   13.70    3.75
   7   7  11    9.94    3.06
  -7   7  11    7.31    2.81
   7   7  12   62.17    7.33
  -7   7  12   73.09    8.13
   7   7  12   66.97    7.31
   7  -7  12   74.45    7.89
   7   7  13    4.55    2.06
   7  -7  13    5.04    2.47
   7   7  13    4.76    1.91
  -7   7  13    6.79    2.61
   7  -7  14   17.00    3.38
   7   7  14   21.75    4.33
  -7   7  14   21.24    4.50
   7   7  14   10.08    3.10
   7   7  15    1.69    1.77
  -7   7  15    1.12    1.83
   7   7  15    0.25    2.18
   7   7  16    0.62    1.25
   7   7  16   -0.74    2.23
  -7   7  16    1.91    2.20
   7   7  17    4.37    3.47
  -7   7  17    3.72    2.36
   7   7  18   40.83    6.35
  -7   7  18   43.18    6.80
   7   7  18   45.59    6.36
   7   7  19   -0.15    1.98
  -7   7  19   -0.16    1.70
   7   7  20    9.65    3.61
  -7   7  20   10.02    3.28
   7   7  21    2.32    2.68
  -7   7  21    5.22    2.61
   7   7  22    8.91    3.40
  -7   7  22    8.66    3.15
   7  -8 -20    0.42    1.05
   7  -8 -20   -1.67    2.47
   7  -8 -19    0.46    1.69
   7  -8 -19   -0.29    1.60
   7  -8 -18   -0.14    1.87
   7  -8 -18   -1.17    1.39
   7  -8 -17    4.70    2.42
   7  -8 -17    4.12    2.16
   7  -8 -16    1.50    1.76
   7  -8 -16   -0.14    1.83
   7  -8 -15    2.13    1.74
   7  -8 -15    1.29    1.54
   7   8 -14    2.96    2.39
   7  -8 -14    3.97    2.57
   7  -8 -14    2.44    1.38
   7  -8 -13    1.17    1.95
   7  -8 -13    0.58    0.94
   7  -8 -12   -1.44    1.61
   7   8 -12    2.12    2.22
   7  -8 -12   -0.06    1.81
   7   8 -11    5.92    1.80
   7  -8 -11    4.58    2.42
   7  -8 -11    6.69    2.56
   7   8 -10    0.09    1.21
   7  -8 -10    0.07    1.70
   7  -8 -10    2.68    1.32
   7   8  -9    4.21    2.64
   7  -8  -9    3.92    2.65
   7  -8  -9    1.35    1.73
   7   8  -8    1.27    0.85
  -7   8  -8    4.41    2.17
   7  -8  -8    3.14    2.33
   7  -8  -8   -0.73    1.91
   7   8  -7    1.71    1.97
  -7   8  -7    0.13    1.49
   7  -8  -7    1.24    1.76
   7  -8  -7   -1.26    0.82
   7   8  -6    3.41    1.61
  -7   8  -6    1.82    1.66
   7  -8  -6    0.52    1.34
   7   8  -5    1.31    0.77
   7  -8  -5    2.34    1.67
   7  -8  -5   -1.10    1.54
  -7   8  -5    1.80    1.91
   7   8  -4    7.87    3.20
   7   8  -4    0.16    0.95
  -7   8  -4    1.41    0.90
   7  -8  -4    3.62    2.30
   7  -8  -4    8.77    3.11
   7   8  -3    0.54    1.03
   7   8  -3   -0.54    1.19
  -7   8  -3    1.16    1.11
   7  -8  -3   -0.25    1.44
   7  -8  -3   -0.66    2.01
   7   8  -2    4.91    1.74
  -7   8  -2    5.88    2.40
   7   8  -2    2.67    1.52
   7  -8  -2    4.60    2.53
   7  -8  -2    0.52    1.46
   7   8  -1    1.14    1.55
   7   8  -1    0.31    1.70
  -7   8  -1   -0.61    1.07
   7  -8  -1    2.74    2.19
   7  -8  -1   -0.83    1.41
   7   8   0   -0.80    1.11
   7   8   0   -1.30    1.26
  -7   8   0    0.67    0.99
   7  -8   0   -1.32    1.18
   7  -8   0   -0.80    1.24
   7   8   1    0.89    1.45
   7   8   1   -0.35    0.82
  -7   8   1    3.40    2.12
   7  -8   1    1.00    1.97
   7  -8   1    2.67    2.16
   7   8   2    4.99    2.72
   7   8   2    4.05    1.81
  -7   8   2    4.07    2.34
   7  -8   2    1.00    1.09
   7  -8   2    3.11    2.41
  -7   8   3   -0.43    1.43
   7   8   3    0.64    1.20
   7   8   3    2.28    2.23
   7  -8   3    0.66    1.89
   7  -8   3    0.63    0.86
   7   8   4    6.71    2.72
   7   8   4    1.82    1.95
   7  -8   4    4.03    1.67
   7  -8   4    5.04    1.97
  -7   8   4    4.77    1.85
   7  -8   5    1.24    2.09
   7   8   5    0.78    1.09
   7   8   5    4.38    2.48
  -7   8   5    2.56    1.69
   7  -8   6    1.15    1.61
  -7   8   6    3.26    1.48
   7   8   6    2.76    1.26
   7  -8   7    2.41    1.32
  -7   8   7    1.80    2.20
   7   8   7    0.33    1.88
   7   8   7   -0.76    1.37
   7  -8   8    0.05    1.19
  -7   8   8   -0.27    1.36
   7   8   8    3.94    2.24
   7   8   8    0.10    1.02
   7  -8   9    4.24    1.89
  -7   8   9    3.83    1.33
   7   8   9    2.27    1.82
   7   8   9    1.95    2.05
   7  -8  10    4.55    2.87
   7   8  10    0.57    2.06
   7   8  10   -1.67    1.44
  -7   8  10   -0.79    1.71
   7  -8  11    6.48    2.70
  -7   8  11    1.19    2.11
   7   8  11    7.30    2.77
   7   8  11   12.02    3.54
   7  -8  12   -0.25    1.53
   7   8  12    0.68    1.55
   7   8  12   -0.35    1.03
  -7   8  12    1.53    1.79
   7   8  13   -0.75    0.89
   7   8  13    2.59    2.23
  -7   8  13    3.36    2.07
   7   8  14    4.34    2.56
   7   8  14    6.60    2.88
  -7   8  14    1.55    1.62
  -7   8  15    2.05    1.76
   7   8  15    2.32    2.28
   7   8  15    1.11    1.76
   7   8  16    1.38    1.11
  -7   8  16   -1.66    2.42
   7   8  16   -1.23    2.85
   7   8  17    6.25    1.86
  -7   8  17    7.27    2.59
   7   8  17    3.64    1.73
   7   8  18   -0.56    2.31
  -7   8  18    1.18    1.93
   7   8  18    0.30    1.72
   7   8  19    0.60    2.21
  -7   8  19   -0.47    2.20
  -7   8  20    1.98    1.38
   7   8  20    0.03    1.75
   7  -9 -17    0.70    1.06
   7  -9 -17    5.10    3.01
   7  -9 -16    0.48    1.31
   7  -9 -16    3.67    1.73
   7  -9 -15    5.14    2.44
   7  -9 -15    0.96    1.67
   7   9 -14   17.94    4.42
   7  -9 -14   24.65    5.53
   7  -9 -13    0.06    1.28
   7   9 -13    2.45    1.26
   7  -9 -13    3.82    1.84
   7   9 -12   43.03    6.80
   7  -9 -12   43.93    6.58
   7  -9 -12   32.32    5.47
   7   9 -11    1.18    1.80
   7  -9 -11   -0.40    2.01
   7  -9 -11    0.38    1.26
   7   9 -10    1.38    1.03
   7  -9 -10    2.44    1.82
   7   9  -9    1.05    1.85
   7  -9  -9    0.29    1.21
   7  -9  -9    4.93    2.81
   7   9  -8   81.71    8.68
   7  -9  -8   80.69    8.92
   7  -9  -8   74.12    8.19
   7   9  -7    3.20    2.34
  -7   9  -7    1.35    1.82
   7  -9  -7    1.61    2.29
   7  -9  -7    0.39    1.14
   7   9  -6   16.46    4.00
  -7   9  -6   18.44    4.35
   7  -9  -6   10.21    3.31
   7  -9  -6   19.48    4.54
   7   9  -5    3.01    2.16
  -7   9  -5    0.66    1.22
   7  -9  -5    1.16    1.88
  -7   9  -4   20.86    4.28
   7  -9  -4   25.17    4.91
   7  -9  -4   14.41    4.37
   7   9  -3    1.32    1.87
  -7   9  -3    2.69    2.18
   7  -9  -3    4.24    2.78
   7  -9  -3    1.65    1.01
   7   9  -2   45.37    6.21
  -7   9  -2   39.65    5.99
   7  -9  -2   47.95    6.62
   7   9  -2   35.20    5.79
   7  -9  -2   36.04    5.54
   7   9  -1    0.95    1.94
   7   9  -1    1.27    1.86
  -7   9  -1    2.20    2.21
   7  -9  -1    2.93    2.28
  -7   9   0    3.98    2.24
   7   9   0    1.51    0.76
   7   9   0    1.15    1.90
   7  -9   0    5.12    1.63
   7   9   1    0.62    0.82
   7   9   1    3.78    1.90
  -7   9   1    0.79    1.78
   7  -9   1   -0.95    1.87
   7   9   2   44.00    6.29
  -7   9   2   50.27    6.91
   7  -9   2   41.55    6.31
   7   9   2   40.99    5.91
   7   9   3    0.55    0.86
   7   9   3    0.83    1.37
  -7   9   3    1.58    0.82
   7   9   4   22.97    4.59
  -7   9   4   20.71    4.36
   7   9   4   28.50    4.95
   7  -9   4   20.98    4.68
   7   9   5    0.15    1.99
   7   9   5    6.94    2.55
  -7   9   5    4.38    3.11
   7  -9   5    2.29    1.55
   7  -9   6   16.38    3.88
   7   9   6   23.39    4.58
   7   9   6   21.40    4.74
  -7   9   6   20.64    4.37
   7   9   7    2.76    2.25
   7   9   7   -0.25    1.45
  -7   9   7   -2.27    1.22
   7  -9   7    1.35    1.49
   7   9   8   76.92    8.43
  -7   9   8   92.18    9.20
   7  -9   8   74.26    8.38
   7   9   8   68.52    7.98
  -7   9   9    8.66    3.21
   7   9   9    3.64    2.60
   7   9   9    2.64    1.67
   7  -9   9    3.53    2.19
   7   9  10    2.20    0.89
   7   9  10    3.42    2.25
  -7   9  10    2.42    2.52
   7  -9  10    1.25    2.07
  -7   9  11    2.53    2.25
   7   9  11    2.37    2.47
   7   9  11    2.26    2.58
   7  -9  11    2.89    1.56
   7   9  12   29.41    5.27
  -7   9  12   38.20    6.59
   7   9  12   35.80    5.55
   7   9  13    0.24    0.92
   7   9  13    1.56    1.94
  -7   9  13   -1.48    1.58
   7   9  14   25.90    5.14
   7   9  14   21.77    5.10
  -7   9  14   15.26    3.89
   7   9  15   -1.80    2.06
  -7   9  15   -2.41    2.66
   7   9  16    3.21    2.79
  -7   9  16    6.75    3.18
   7   9  16    0.36    0.97
   7   9  17    2.99    2.99
   7   9  17    4.67    2.05
  -7   9  17    5.44    2.59
   7  10 -12    0.70    1.59
   7 -10 -12    1.31    1.50
   7 -10 -12    2.39    2.33
   7  10 -11    4.50    2.14
   7 -10 -11    2.38    1.20
   7 -10 -11    6.30    2.90
   7  10 -10    4.69    2.10
   7 -10 -10    2.79    1.96
   7 -10 -10    4.31    3.38
   7  10  -9    4.05    2.30
   7 -10  -9   -1.03    1.51
   7  10  -8    5.16    2.23
   7 -10  -8    2.57    1.91
   7  10  -7    9.18    3.59
   7 -10  -7   14.20    3.94
   7  10  -6   -1.54    1.50
  -7  10  -6    0.12    1.49
   7 -10  -6    0.92    1.20
   7  10  -5    8.60    3.44
  -7  10  -5    7.63    2.88
   7 -10  -5   10.51    3.08
   7  10  -4    1.06    1.24
  -7  10  -4    0.05    1.64
   7 -10  -4    2.37    1.13
   7  10  -3   -1.82    2.04
  -7  10  -3    1.29    2.20
   7 -10  -3    2.00    0.95
   7  10  -2   -0.31    1.11
  -7  10  -2   -0.20    2.09
   7 -10  -2    0.43    1.50
   7  10  -1    2.27    2.05
  -7  10  -1    0.87    1.98
   7 -10  -1    1.33    1.90
   7  10   0   -1.52    1.75
   7  10   0    2.07    2.22
  -7  10   0   -0.55    1.56
   7 -10   0   -2.66    2.44
   7  10   1   -1.09    1.47
   7  10   1    2.39    2.45
  -7  10   1    0.52    1.40
   7 -10   1    5.41    2.72
   7  10   2   -1.74    1.66
   7  10   2   -0.22    1.61
  -7  10   2    0.04    1.68
   7 -10   2    2.69    1.56
  -7  10   3    0.54    1.29
   7  10   3   -1.97    1.72
   7  10   3   -1.83    1.71
   7 -10   3    0.45    2.66
   7  10   4    2.11    2.12
   7  10   4   -0.68    1.34
  -7  10   4    0.01    1.98
   7 -10   4    2.05    1.57
   7  10   5   10.33    3.35
   7  10   5    7.30    3.20
  -7  10   5    9.20    3.31
   7 -10   5    5.93    2.82
   7  10   6   -0.72    1.87
   7  10   6   -1.31    1.23
  -7  10   6   -0.03    0.94
   7 -10   6    0.39    1.61
   7  10   7   14.56    3.80
   7  10   7   15.41    4.06
  -7  10   7   11.35    3.47
   7 -10   7   12.95    4.05
   7  10   8    6.04    3.04
   7  10   8    3.99    2.04
  -7  10   8    1.06    0.80
   7 -10   8    4.39    2.47
   7  10   9    2.08    1.73
   7  10   9    3.60    2.59
   7 -10   9    3.57    3.22
  -7  10   9    0.07    1.56
   7  10  10    4.16    2.63
   7  10  10    3.84    2.14
  -7  10  10    5.11    2.35
   7  10  11    6.83    2.76
   7  10  11    9.36    4.04
  -7  10  11   -0.34    1.13
   7  10  12    0.39    1.05
  -7  10  12    0.50    1.15
   7  11  -2   11.52    3.65
  -7  11  -2   16.70    4.66
   7 -11  -2    9.81    3.67
   7  11  -1   -2.79    1.90
  -7  11  -1    2.92    2.28
   7 -11  -1    1.49    2.17
   7  11   0    1.18    2.02
  -7  11   0    4.46    2.79
   7 -11   0    0.64    1.65
   7  11   1    0.51    2.84
   7  11   1    4.57    1.88
  -7  11   1    3.28    3.42
   7 -11   1    0.47    1.64
   7  11   2    8.03    2.94
   7  11   2    5.64    2.37
  -7  11   2    4.81    3.01
   7 -11   2    7.55    3.17
   8   0 -27   14.24    3.80
   8   0 -26   25.15    4.97
   8   0 -25   18.94    3.87
   8   0 -24   10.52    3.18
   8   0 -23   -1.83    1.49
   8   0 -22    9.78    3.18
   8   0 -21   38.17    5.47
   8   0 -20    4.90    2.27
   8   0 -19   38.99    5.44
   8   0 -18   85.01    7.76
   8   0 -17  117.80    9.00
   8   0 -16   16.99    3.64
   8   0 -15  130.14    9.07
   8   0 -14   47.64    5.45
   8   0 -13   52.54    5.61
   8   0 -13   57.08    5.05
   8   0 -12  300.66   13.21
   8   0 -12  304.82   11.23
   8   0 -11  263.49   12.16
   8   0 -11  260.80   10.49
   8   0 -10   67.65    5.32
   8   0 -10   68.16    6.05
   8   0  -9  672.75   16.72
   8   0  -9  668.94   18.69
   8   0  -8  410.04   13.04
   8   0  -8  406.97   14.54
   8   0  -7    9.66    2.16
   8   0  -7    7.09    2.24
   8   0  -7    7.98    1.86
   8   0  -6  256.85   10.34
   8   0  -6  245.17   10.91
   8   0  -6  238.62   10.76
   8   0  -5   19.26    2.80
   8   0  -5   28.96    3.88
   8   0  -5   22.78    3.37
   8   0  -4  521.02   14.66
   8   0  -4  521.97   15.58
   8   0  -4  522.46   15.28
   8   0  -3  827.48   18.59
   8   0  -3  834.70   19.54
   8   0  -3  860.70   19.50
   8   0  -2  415.74   13.39
   8   0  -2  456.90   13.95
   8   0  -2  453.76   14.31
   8   0  -1   67.54    5.49
   8   0  -1   59.33    5.30
   8   0  -1   56.68    4.87
   8   0   0  689.59   17.34
   8   0   0  708.10   18.12
   8   0   0  722.23   17.23
   8   0   1   71.26    5.65
   8   0   1   57.23    4.75
   8   0   2  451.25   14.22
   8   0   2  423.57   13.03
   8   0   3  852.67   19.84
   8   0   3  826.94   17.98
   8   0   4  525.41   15.59
   8   0   4  516.93   14.07
   8   0   5   21.27    3.17
   8   0   5   14.02    2.37
   8   0   6  247.79   11.09
   8   0   6  248.42    9.59
   8   0   7    7.28    1.88
   8   0   7    7.52    1.62
   8   0   8  399.35   14.52
   8   0   8  438.33   12.42
   8   0   9  704.05   19.42
   8   0   9  685.10   15.50
   8   0  10   66.99    6.02
   8   0  10   59.35    4.50
   8   0  11  269.67    9.48
   8   0  11  267.84   12.41
   8   0  12  313.71   13.68
   8   0  12  303.80    9.93
   8   0  13   58.07    5.99
   8   0  13   58.34    4.22
   8   0  14   48.81    5.52
   8   0  15  142.65    9.66
   8   0  16   21.96    3.96
   8   0  17   99.93    8.32
   8   0  18   73.73    7.44
   8   0  19   31.68    5.08
   8   0  20    2.81    0.83
   8   0  21   34.14    5.10
   8   0  22   10.77    3.52
   8   0  23    0.85    2.19
   8  -1 -28    2.90    2.49
   8  -1 -27    1.13    1.27
   8  -1 -26    1.21    1.48
   8  -1 -25    3.56    2.35
   8  -1 -24    6.29    2.50
   8   1 -24   -3.88    1.84
   8   1 -23   -0.96    2.49
   8  -1 -23    1.18    1.64
   8   1 -22    4.03    1.87
   8  -1 -22    3.28    1.67
   8   1 -21    1.56    1.27
   8  -1 -21    2.48    1.62
   8   1 -20    4.76    2.42
   8  -1 -20    5.46    1.90
   8   1 -19    8.74    2.29
   8  -1 -19    9.30    3.08
   8  -1 -18   10.92    3.14
   8   1 -18   18.59    3.95
   8   1 -17   22.15    3.79
   8  -1 -17   23.55    4.15
   8   1 -16   12.39    2.93
   8  -1 -16   13.93    2.97
   8   1 -15   15.09    3.26
   8  -1 -15    9.33    2.75
   8  -1 -15   12.12    2.90
   8  -1 -14    2.84    1.43
   8  -1 -14    8.64    2.64
   8   1 -14    4.49    1.94
   8  -1 -13    0.06    0.62
   8   1 -13    2.36    1.69
   8  -1 -13    1.88    1.25
   8   1 -13    1.14    0.96
   8  -1 -12    0.77    0.49
   8   1 -12    4.75    1.66
   8   1 -12    2.53    1.08
   8  -1 -12    4.19    1.42
   8   1 -12    1.83    1.10
   8   1 -11   22.52    2.91
   8   1 -11   24.72    3.42
   8  -1 -11   22.65    3.71
   8   1 -11   27.93    3.92
   8  -1 -11   22.92    3.42
   8   1 -10   11.96    2.16
   8  -1 -10   12.44    2.51
   8  -1 -10   16.18    3.06
   8   1 -10   18.15    3.08
   8   1 -10   13.68    2.95
   8  -1  -9   12.61    2.60
   8   1  -9   10.43    1.79
   8   1  -9   10.40    2.34
   8  -1  -9   10.30    2.34
   8   1  -9    9.07    2.07
   8  -1  -8   14.84    2.54
   8   1  -8   22.32    2.90
   8  -1  -8   19.71    3.19
   8   1  -8   18.82    3.09
   8   1  -8   15.98    2.79
   8  -1  -7   39.48    4.12
   8   1  -7   34.47    3.52
   8  -1  -7   38.97    4.63
   8   1  -7   43.64    4.52
   8   1  -7   35.91    4.11
   8  -1  -6    8.97    2.44
   8  -1  -6   10.14    2.29
   8   1  -6   10.14    2.36
   8   1  -6    9.70    1.85
   8   1  -6   10.29    2.28
   8  -1  -5    6.11    1.81
   8  -1  -5    5.47    1.70
   8   1  -5    8.80    2.08
   8   1  -5    9.72    2.06
   8   1  -5    7.03    2.09
   8  -1  -4    9.30    2.14
   8   1  -4   13.44    2.69
   8  -1  -4    9.84    2.20
   8   1  -4    9.31    1.88
   8   1  -4    9.15    2.22
   8  -1  -3   27.14    3.56
   8   1  -3   31.85    3.51
   8  -1  -3   29.54    3.72
   8   1  -3   33.45    3.84
   8   1  -3   23.13    3.32
   8  -1  -2   43.29    4.31
   8   1  -2   46.77    4.44
   8  -1  -2   52.89    5.09
   8   1  -2   45.58    4.49
   8   1  -2   56.28    5.07
   8  -1  -1   57.84    5.13
   8  -1  -1   65.68    5.55
   8   1  -1   59.34    5.11
   8   1  -1   56.29    4.85
   8   1  -1   65.75    5.39
   8   1   0    0.85    0.81
   8   1   0    1.21    0.64
   8  -1   0    1.09    0.74
   8  -1   0    1.31    1.06
   8  -1   1   54.44    5.03
   8  -1   1   64.78    5.49
   8   1   1   59.52    5.05
   8   1   1   60.11    5.08
   8  -1   2   48.79    4.71
   8   1   2   53.89    4.84
   8   1   2   51.85    4.73
   8  -1   3   31.61    3.91
   8   1   3   38.28    4.15
   8   1   3   28.43    3.43
   8   1   4    8.28    1.82
   8   1   4    9.11    1.97
   8  -1   4   11.71    2.37
   8   1   5    5.85    1.71
   8   1   5    6.10    1.86
   8  -1   5    6.12    1.92
   8   1   6    8.86    1.93
   8  -1   6   13.41    2.63
   8   1   6   12.86    2.68
   8  -1   7   33.14    4.03
   8   1   7   31.30    3.70
   8   1   7   35.21    4.19
   8  -1   8   20.40    3.21
   8   1   8   22.94    3.01
   8   1   8   20.09    3.33
   8  -1   9   15.58    3.12
   8   1   9    7.97    2.36
   8   1   9   10.35    2.15
   8   1  10   14.53    2.72
   8  -1  10   17.93    3.13
   8   1  10   12.50    2.24
   8  -1  11   29.34    4.10
   8   1  11   22.86    2.93
   8   1  11   19.36    3.71
   8   1  12    0.99    0.50
   8  -1  12    0.14    0.73
   8   1  12    2.05    1.13
   8   1  13    1.40    0.59
   8   1  13    3.97    1.92
   8  -1  13    4.63    1.54
   8   1  14    1.74    1.15
   8  -1  14    2.52    1.33
   8   1  14    5.09    1.78
   8  -1  15    7.49    2.56
   8   1  15    8.94    2.93
   8  -1  16   18.40    3.47
   8   1  16   14.55    3.10
   8  -1  17   25.03    4.19
   8   1  17   23.91    4.24
   8  -1  18   10.85    2.68
   8   1  18   13.91    3.37
   8  -1  19    9.41    2.73
   8   1  19   11.71    2.91
   8  -1  20    1.68    2.00
   8   1  20    0.44    0.92
   8  -1  21    3.02    2.33
   8   1  21   -0.01    1.54
   8   1  22    4.27    2.38
   8  -1  22    2.40    2.24
   8   1  23    1.67    2.22
   8   1  24    2.97    1.76
   8   1  25    1.68    1.67
   8  -2 -28   10.55    3.27
   8  -2 -27   10.43    3.27
   8  -2 -26    9.12    3.14
   8  -2 -25   14.18    3.79
   8  -2 -24   20.97    4.38
   8  -2 -23    0.83    1.14
   8  -2 -22   16.94    3.67
   8  -2 -21   43.74    5.91
   8  -2 -20    1.99    1.66
   8  -2 -19   13.94    3.39
   8   2 -18   40.57    5.39
   8  -2 -18   30.33    4.67
   8  -2 -17   27.50    4.59
   8   2 -17   30.14    4.64
   8   2 -17   32.83    4.60
   8   2 -16   41.88    5.09
   8  -2 -16   50.86    6.22
   8  -2 -16   46.07    5.43
   8   2 -16   37.29    4.75
   8   2 -15   99.00    7.56
   8  -2 -15   86.38    7.91
   8  -2 -15   91.03    7.45
   8   2 -15  111.09    8.36
   8   2 -14   28.94    4.16
   8  -2 -14   25.72    4.28
   8  -2 -14   30.63    4.37
   8   2 -14   27.88    4.13
   8  -2 -13   11.93    2.86
   8   2 -13   10.73    2.32
   8  -2 -13   10.25    2.64
   8   2 -13    8.41    2.27
   8   2 -12   92.75    6.85
   8  -2 -12   83.84    7.45
   8  -2 -12   97.55    7.35
   8   2 -11  143.60    8.39
   8  -2 -11  149.40    9.61
   8  -2 -11  136.08    8.74
   8   2 -11  131.89    8.75
   8   2 -10   14.61    2.35
   8   2 -10   15.90    2.49
   8  -2 -10   16.55    3.24
   8   2 -10   19.37    3.47
   8  -2 -10   17.97    3.12
   8  -2  -9   75.32    6.76
   8   2  -9   73.26    4.99
   8   2  -9   79.80    6.03
   8   2  -9   76.06    6.44
   8  -2  -9   76.26    6.29
   8   2  -8   91.40    5.69
   8   2  -8   86.35    6.19
   8  -2  -8   97.93    7.49
   8   2  -8  104.11    7.52
   8  -2  -8   79.42    6.55
   8  -2  -7   71.50    6.00
   8   2  -7   74.60    5.28
   8  -2  -7   77.77    6.67
   8   2  -7   65.59    5.35
   8   2  -7   83.30    6.53
   8   2  -6    7.46    1.70
   8   2  -6    7.65    1.66
   8  -2  -6    8.70    2.36
   8  -2  -6   10.47    2.26
   8   2  -6    8.56    1.70
   8  -2  -5  124.84    8.05
   8  -2  -5  128.45    8.37
   8   2  -5  128.18    6.97
   8   2  -5  135.51    7.48
   8   2  -5  132.16    8.20
   8  -2  -4  163.24    9.06
   8  -2  -4  182.71    9.91
   8   2  -4  176.87    8.44
   8   2  -4  149.04    7.76
   8   2  -4  168.26    9.11
   8  -2  -3  159.03    8.88
   8  -2  -3  161.99    9.25
   8   2  -3  161.57    8.05
   8   2  -3  165.18    8.30
   8   2  -3  156.98    8.79
   8  -2  -2  265.99   11.60
   8  -2  -2  235.67   11.21
   8   2  -2  240.78    9.95
   8   2  -2  250.36   10.30
   8   2  -2  259.17   11.07
   8  -2  -1  261.78   11.40
   8  -2  -1  266.44   11.79
   8   2  -1  278.24   11.02
   8   2  -1  270.04   11.73
   8  -2   0  117.33    7.71
   8  -2   0  127.21    8.16
   8   2   0  127.62    7.85
   8   2   0  119.53    7.26
   8   2   1  286.35   11.49
   8  -2   1  247.65   11.20
   8  -2   1  253.15   11.37
   8   2   1  291.65   11.61
   8   2   2  253.06   11.03
   8  -2   2  241.30   11.18
   8  -2   2  261.18   11.76
   8   2   2  244.66   10.71
   8   2   3  149.10    8.45
   8  -2   3  156.31    9.10
   8  -2   3  159.28    9.05
   8   2   3  152.99    8.41
   8   2   4  150.49    8.58
   8  -2   4  163.72    9.16
   8   2   4  168.12    8.84
   8   2   5  136.61    8.32
   8  -2   5  146.20    8.71
   8   2   5  141.40    8.03
   8   2   6    9.74    1.99
   8  -2   6    7.20    1.79
   8   2   6    8.43    2.18
   8   2   7   69.19    5.97
   8  -2   7   64.68    5.95
   8   2   7   68.91    5.61
   8   2   8   98.32    7.27
   8   2   8  101.49    6.78
   8  -2   8   97.51    7.33
   8   2   9   79.57    6.83
   8  -2   9   71.82    6.43
   8   2   9   64.56    5.46
   8  -2  10   15.75    3.18
   8   2  10   16.97    3.19
   8   2  10   22.42    3.28
   8   2  11  131.80    9.00
   8  -2  11  152.87    9.57
   8   2  11  138.67    8.11
   8   2  12   87.74    7.47
   8  -2  12  100.74    7.83
   8   2  12   94.41    6.70
   8   2  13    9.85    2.45
   8   2  13   13.94    2.91
   8  -2  13   16.09    3.37
   8   2  14   32.93    4.47
   8  -2  14   34.57    4.74
   8   2  14   45.09    4.67
   8   2  15   84.82    7.82
   8  -2  15   80.77    7.61
   8   2  15   81.19    6.17
   8   2  16   40.89    5.38
   8  -2  16   34.83    4.87
   8   2  17   32.17    5.16
   8  -2  17   34.56    5.16
   8   2  18   33.87    5.03
   8  -2  18   36.94    5.29
   8   2  19   13.60    3.41
   8  -2  19    3.85    2.48
   8   2  20    4.17    2.60
   8  -2  20    3.02    1.34
   8   2  21   42.10    6.21
   8  -2  21   35.39    5.61
   8   2  22   16.42    3.49
   8   2  23    3.22    1.15
   8   2  24   21.91    4.69
   8   2  25    4.60    2.54
   8   2  26    3.88    2.58
   8  -3 -27   -0.44    1.56
   8  -3 -26    1.02    2.31
   8  -3 -25   -2.04    1.61
   8  -3 -24   -0.27    1.38
   8  -3 -23    2.08    0.93
   8  -3 -22    1.70    1.59
   8  -3 -21    1.81    1.64
   8  -3 -20    0.63    1.82
   8  -3 -19    3.67    2.18
   8   3 -19   -0.43    1.40
   8  -3 -18    6.07    2.67
   8  -3 -18    1.03    1.99
   8   3 -18    5.26    1.95
   8  -3 -17   62.91    6.98
   8  -3 -17   66.13    6.83
   8   3 -17   66.35    6.80
   8  -3 -16   37.03    5.30
   8  -3 -16   51.10    5.93
   8   3 -16   54.18    5.95
   8  -3 -15   35.10    5.09
   8  -3 -15   27.10    4.73
   8   3 -15   31.16    4.49
   8  -3 -14   28.92    4.68
   8  -3 -14   23.82    3.84
   8   3 -14   27.69    4.32
   8  -3 -13   20.67    3.96
   8  -3 -13   21.99    3.75
   8   3 -13   20.77    3.41
   8   3 -12    0.81    1.04
   8  -3 -12    2.20    1.52
   8  -3 -12    1.24    1.08
   8  -3 -11   15.31    3.07
   8   3 -11   27.34    4.09
   8   3 -11   24.67    3.21
   8  -3 -11   21.80    3.82
   8  -3 -10   25.11    3.94
   8   3 -10   27.16    3.29
   8  -3 -10   23.00    3.68
   8   3 -10   20.18    3.47
   8  -3  -9   29.54    4.18
   8   3  -9   32.07    3.38
   8   3  -9   28.86    3.25
   8   3  -9   27.41    4.20
   8  -3  -9   28.60    4.27
   8   3  -8   25.44    3.20
   8  -3  -8   26.18    4.14
   8   3  -8   27.15    3.12
   8  -3  -8   26.77    3.92
   8   3  -8   26.45    3.94
   8  -3  -7   52.13    5.78
   8   3  -7   40.40    3.86
   8   3  -7   48.28    4.21
   8  -3  -7   42.76    4.96
   8   3  -7   41.56    4.84
   8  -3  -6   13.40    2.76
   8   3  -6   17.99    2.73
   8   3  -6   20.07    2.82
   8   3  -6   19.18    3.28
   8  -3  -6   22.25    3.46
   8   3  -5    7.64    1.95
   8  -3  -5    7.25    1.99
   8   3  -5    3.53    1.40
   8  -3  -5    6.22    2.10
   8   3  -5    6.65    1.30
   8   3  -4   -0.49    1.06
   8  -3  -4    0.07    0.81
   8   3  -4    1.78    1.10
   8  -3  -4   -0.34    0.80
   8   3  -4    1.01    0.83
   8   3  -3   22.20    3.24
   8  -3  -3   24.35    3.69
   8  -3  -3   18.28    3.29
   8   3  -3   21.90    2.93
   8   3  -3   24.48    3.75
   8  -3  -2   25.02    3.70
   8   3  -2   30.39    3.73
   8  -3  -2   21.11    3.66
   8   3  -2   29.21    3.32
   8   3  -2   26.60    3.63
   8   3  -1   13.70    2.56
   8  -3  -1   12.76    2.81
   8  -3  -1   14.20    2.92
   8   3  -1   16.52    3.12
   8   3   0    7.34    1.98
   8   3   0    6.45    1.89
   8  -3   0   10.06    2.34
   8  -3   0    9.32    2.34
   8   3   1   12.69    2.56
   8  -3   1   10.76    2.44
   8  -3   1   13.38    2.69
   8   3   1   11.90    2.56
   8   3   2   26.43    3.63
   8  -3   2   24.93    3.66
   8   3   2   26.77    3.70
   8  -3   2   31.16    4.32
   8   3   3   23.16    3.50
   8  -3   3   21.54    3.49
   8   3   3   23.43    3.56
   8  -3   3   18.41    3.42
   8   3   4    0.66    0.91
   8  -3   4   -0.44    1.13
   8  -3   4   -0.27    0.63
   8   3   4    1.12    1.03
   8   3   5    3.90    1.18
   8   3   5    2.78    1.17
   8  -3   5    4.90    1.96
   8  -3   5    4.85    1.77
   8   3   6   18.76    3.07
   8   3   6   17.22    3.19
   8  -3   6   13.47    2.74
   8   3   7   43.40    4.75
   8  -3   7   51.79    5.38
   8   3   7   47.91    5.31
   8   3   8   25.00    3.69
   8  -3   8   28.34    3.87
   8   3   8   21.72    3.45
   8   3   9   33.95    4.28
   8  -3   9   24.91    3.75
   8   3   9   35.52    4.59
   8   3  10   25.35    3.55
   8  -3  10   37.21    4.83
   8   3  10   32.44    4.59
   8   3  11   22.68    3.59
   8   3  11   23.50    4.00
   8  -3  11   17.86    3.36
   8   3  12    6.39    2.63
   8   3  12    1.26    1.08
   8  -3  12    3.46    1.95
   8   3  13   19.61    3.66
   8   3  13   20.06    3.20
   8  -3  13   21.48    4.04
   8   3  14   23.97    3.88
   8   3  14   32.78    4.97
   8  -3  14   25.74    4.14
   8   3  15   22.94    3.52
   8  -3  15   23.31    3.79
   8   3  15   19.71    3.48
   8   3  16   39.62    5.07
   8   3  16   42.89    5.77
   8  -3  16   47.25    5.69
   8   3  17   66.42    7.03
   8  -3  17   62.91    6.80
   8  -3  18    8.19    2.73
   8   3  18    4.19    0.76
   8  -3  19    8.59    2.76
   8   3  19    4.18    0.94
   8  -3  20    4.58    2.46
   8   3  20   -0.04    1.39
   8   3  21    0.12    1.61
   8   3  22    1.49    1.07
   8   3  23    3.28    2.26
   8   3  24    2.18    2.17
   8   3  25   -0.43    1.55
   8   3  26    0.46    1.96
   8   3  27    0.12    1.56
   8  -4 -26    0.98    2.34
   8  -4 -25   23.34    4.87
   8  -4 -24   18.93    4.21
   8  -4 -23    6.06    2.67
   8  -4 -22   18.37    4.33
   8  -4 -21   23.65    4.49
   8  -4 -20   -1.25    1.49
   8  -4 -19    8.92    2.93
   8  -4 -19   12.34    3.98
   8  -4 -18   13.54    3.54
   8   4 -18   13.35    3.24
   8  -4 -18   14.55    3.88
   8  -4 -17    2.02    1.99
   8  -4 -17    1.38    1.14
   8   4 -17   -0.45    0.77
   8  -4 -16   44.20    6.21
   8  -4 -16   51.78    6.35
   8   4 -16   56.78    6.47
   8  -4 -15   75.46    7.79
   8  -4 -15   86.48    7.93
   8   4 -15   69.82    7.10
   8   4 -14   19.91    3.97
   8  -4 -14   30.67    4.70
   8  -4 -14   21.07    3.78
   8   4 -13   16.47    3.40
   8  -4 -13   13.41    3.51
   8  -4 -13   16.18    3.63
   8   4 -12   21.01    3.59
   8  -4 -12   20.54    3.81
   8  -4 -12   19.92    3.55
   8  -4 -11   68.15    6.95
   8  -4 -11   62.34    6.62
   8   4 -11   68.00    6.72
   8   4 -10    7.87    2.22
   8  -4 -10    6.11    2.15
   8  -4  -9   17.91    3.30
   8   4  -9   14.12    3.10
   8  -4  -9   19.04    3.72
   8   4  -8    3.80    1.44
   8  -4  -8    1.82    1.18
   8   4  -8    5.20    1.75
   8  -4  -8    6.71    2.09
   8  -4  -7   54.54    6.04
   8  -4  -7   55.78    6.09
   8   4  -7   53.79    4.73
   8   4  -7   56.36    6.04
   8   4  -6   15.48    3.12
   8  -4  -6   13.82    2.97
   8   4  -6   11.41    2.28
   8  -4  -6   14.14    3.16
   8   4  -5  182.81    9.20
   8   4  -5  195.38    8.02
   8  -4  -5  206.81   11.51
   8  -4  -5  190.36   10.88
   8   4  -5  198.28   10.90
   8   4  -4   90.84    7.42
   8   4  -4   83.85    6.20
   8  -4  -4   84.65    7.34
   8   4  -4   81.61    5.24
   8  -4  -4   98.07    7.77
   8   4  -3   33.58    4.31
   8   4  -3   28.66    3.85
   8  -4  -3   29.21    4.38
   8   4  -3   30.48    3.33
   8  -4  -3   29.43    4.23
   8   4  -2  169.22   10.15
   8   4  -2  143.97    8.50
   8  -4  -2  152.46    9.51
   8   4  -2  157.88    7.71
   8  -4  -1  333.51   14.26
   8   4  -1  307.42   13.66
   8   4  -1  322.26   12.78
   8  -4  -1  297.12   13.45
   8  -4   0   43.38    5.07
   8   4   0   54.24    5.82
   8   4   0   47.94    5.07
   8  -4   0   44.17    5.09
   8   4   1  333.35   14.07
   8  -4   1  329.24   14.08
   8   4   1  339.35   13.47
   8  -4   1  312.18   13.58
   8   4   2  167.44    9.98
   8  -4   2  166.62    9.91
   8   4   2  157.71    9.29
   8  -4   2  167.08    9.95
   8   4   3   35.39    4.63
   8  -4   3   33.40    4.47
   8   4   3   35.75    4.39
   8  -4   3   29.61    4.25
   8   4   4   89.41    7.17
   8  -4   4  100.88    7.70
   8   4   4   88.90    7.16
   8  -4   4   90.54    7.44
   8   4   5  196.87   10.86
   8  -4   5  200.62   10.98
   8   4   5  201.96   10.89
   8  -4   5  185.64   10.67
   8   4   6   18.89    3.38
   8  -4   6   20.86    3.55
   8   4   6   15.58    3.35
   8  -4   6    8.06    1.68
   8   4   7   50.69    5.71
   8  -4   7   52.25    5.84
   8   4   7   55.02    5.93
   8  -4   7   57.18    5.97
   8   4   8    6.04    2.73
   8   4   8    8.65    2.22
   8  -4   8    3.22    2.06
   8   4   9   15.44    3.44
   8   4   9   11.89    2.67
   8  -4   9   17.97    3.34
   8   4  10   13.23    3.12
   8   4  10   16.44    3.39
   8  -4  10   12.52    2.91
   8   4  11   57.78    6.02
   8  -4  11   61.04    6.44
   8   4  11   40.90    5.23
   8   4  12   22.88    3.98
   8  -4  12   20.06    3.92
   8   4  12   20.22    3.53
   8   4  13   16.78    3.41
   8   4  13   17.71    3.42
   8  -4  13   15.17    3.70
   8   4  14   19.08    3.58
   8  -4  14   23.26    4.33
   8   4  14   22.68    3.95
   8   4  15   87.99    7.70
   8  -4  15   83.22    7.71
   8   4  15   79.85    7.73
   8   4  16   52.33    6.20
   8  -4  16   41.63    5.65
   8   4  16   50.06    6.36
   8   4  17    4.30    2.03
   8  -4  17    4.12    2.48
   8   4  18   23.10    4.44
   8  -4  18   11.88    3.19
   8   4  19   16.07    4.03
   8   4  20   -0.26    1.40
   8   4  21   22.73    4.51
   8   4  22    7.04    1.69
   8   4  23    0.14    0.98
   8   4  24   10.84    3.19
   8   4  25   13.08    3.91
   8   4  26   -0.64    1.08
   8  -5 -25    1.07    1.07
   8  -5 -24    2.19    1.17
   8  -5 -23   -0.36    1.48
   8  -5 -22   -0.90    1.72
   8  -5 -21    0.78    1.05
   8  -5 -20    3.67    1.89
   8  -5 -20    0.17    1.24
   8  -5 -19    3.87    2.05
   8  -5 -19    2.78    1.83
   8  -5 -18    0.34    1.24
   8  -5 -18    1.07    0.83
   8  -5 -17    1.26    1.20
   8  -5 -17    5.48    2.46
   8   5 -16   19.06    3.78
   8  -5 -16   17.58    4.44
   8  -5 -16   17.94    3.70
   8   5 -15   16.11    3.32
   8  -5 -15   12.82    2.97
   8  -5 -15   17.96    3.97
   8   5 -14   15.28    3.35
   8  -5 -14    7.23    2.98
   8  -5 -14   12.85    3.36
   8   5 -13    4.46    1.97
   8  -5 -13    4.33    2.27
   8  -5 -13    5.04    2.49
   8   5 -12   10.75    2.91
   8  -5 -12   12.60    3.33
   8  -5 -12    7.53    2.48
   8   5 -11    4.55    1.39
   8  -5 -11    5.79    2.70
   8  -5 -11    6.64    2.18
   8   5 -10   -0.40    1.45
  -8   5 -10   -1.13    0.90
   8  -5 -10    0.58    1.02
   8  -5 -10    2.15    2.13
   8  -5  -9    5.94    2.44
   8   5  -9    1.62    1.56
   8  -5  -9    3.84    2.06
   8  -5  -8   10.11    2.77
   8   5  -8   13.02    2.95
   8  -5  -8    7.32    2.35
   8   5  -7   33.55    4.89
   8   5  -7   28.34    3.73
   8  -5  -7   29.48    4.37
   8  -5  -7   38.61    5.16
   8  -5  -6   14.28    3.13
   8   5  -6   12.80    2.75
   8   5  -6   12.96    2.59
   8  -5  -6   11.40    3.56
   8  -5  -5   10.38    2.87
   8   5  -5    7.28    2.30
   8  -5  -5    5.47    2.29
   8   5  -5    7.22    2.12
   8   5  -4   33.25    4.74
   8   5  -4   24.06    3.70
   8  -5  -4   20.93    3.93
   8  -5  -4   20.62    3.81
   8   5  -3   20.35    3.71
   8   5  -3   21.84    3.42
   8  -5  -3   21.51    3.76
   8  -5  -3   23.21    4.04
   8   5  -2   21.24    3.77
   8  -5  -2   15.70    3.34
   8   5  -2   16.63    2.96
   8  -5  -2   20.06    3.79
   8   5  -1   12.26    2.74
   8  -5  -1    8.99    1.94
   8   5  -1   13.54    3.11
   8  -5  -1    7.66    2.26
   8   5   0   11.51    2.56
   8  -5   0   12.15    2.94
   8   5   0   10.14    2.38
   8  -5   0    9.92    2.67
   8   5   1   11.75    2.90
   8  -5   1    8.46    2.47
   8   5   1    7.55    1.69
   8  -5   1    8.29    2.82
   8   5   2   23.65    3.90
   8  -5   2   15.32    3.40
   8   5   2   20.18    3.59
   8  -5   2   13.54    3.08
   8   5   3   19.03    3.08
   8  -5   3   15.93    3.27
   8  -5   3   20.17    3.89
   8  -5   4   25.37    4.12
   8   5   4   24.90    3.95
   8  -5   4   23.41    3.73
   8   5   4   18.09    3.47
   8   5   5   10.89    2.95
   8  -5   5   14.30    3.04
   8   5   5    9.74    2.43
   8  -5   5    9.01    2.90
   8   5   6   10.88    2.68
   8  -5   6   13.29    3.14
   8  -5   6    9.98    2.62
   8   5   6   12.33    2.78
   8  -5   7   30.03    4.33
   8   5   7   31.20    4.65
   8   5   7   31.74    4.74
   8  -5   7   36.24    5.07
   8   5   8    9.71    2.38
   8  -5   8    6.57    2.19
   8   5   8   11.24    3.29
   8  -5   8    8.77    2.62
   8   5   9    2.36    1.75
   8  -5   9    3.47    1.23
   8   5   9    2.68    1.67
   8  -5   9    4.34    2.02
   8   5  10    0.70    0.66
   8  -5  10    0.75    1.33
   8   5  10   -0.40    1.48
   8  -5  10    0.42    1.57
   8   5  11    8.94    2.60
   8  -5  11   14.41    3.15
   8   5  11   13.57    2.96
   8   5  12   11.86    3.00
   8  -5  12   19.00    3.91
   8   5  12   11.22    2.78
   8   5  13    4.28    2.12
   8  -5  13    5.55    2.61
   8   5  13    2.38    1.53
   8   5  14   14.59    3.64
   8  -5  14   13.15    3.39
   8   5  14    7.52    2.55
   8   5  15   13.05    3.46
   8  -5  15   23.75    4.33
   8   5  15   16.56    3.62
   8   5  16   16.66    3.36
   8   5  16   15.99    3.81
   8  -5  16   22.39    4.18
   8   5  17    9.13    2.64
   8   5  17    7.52    2.63
   8  -5  17    5.77    2.89
   8   5  18    2.50    1.52
   8   5  19    2.44    1.88
   8   5  20    2.24    1.91
   8   5  21    3.61    1.83
   8   5  22    3.13    2.38
   8   5  23    2.37    1.91
   8   5  24   -0.73    2.09
   8   5  25   -2.02    1.47
   8  -6 -24   12.32    3.29
   8  -6 -23    1.78    2.11
   8  -6 -22    2.75    2.24
   8  -6 -21    4.12    2.69
   8  -6 -21   17.91    4.97
   8  -6 -20    2.19    2.07
   8  -6 -20    5.65    2.41
   8  -6 -19    7.97    1.94
   8  -6 -19    8.24    3.52
   8  -6 -18   16.38    4.18
   8  -6 -18   12.86    3.25
   8  -6 -17   15.11    3.71
   8  -6 -17    5.00    1.89
   8  -6 -16    7.64    3.10
   8   6 -16   12.34    3.47
   8  -6 -16   10.36    3.27
   8  -6 -15   50.93    7.06
   8   6 -15   43.24    5.93
   8  -6 -15   50.40    6.87
   8   6 -14   15.13    3.51
   8  -6 -14   14.83    3.58
   8  -6 -14   14.31    3.85
   8   6 -13    0.44    0.91
   8  -6 -13    0.28    1.37
   8  -6 -13   -0.29    1.16
   8  -6 -12   36.09    5.53
   8  -6 -12   26.74    4.48
   8   6 -12   38.08    5.43
   8  -6 -11   67.41    7.48
   8  -6 -11   62.21    7.17
   8   6 -11   55.16    6.62
   8   6 -10   12.86    3.07
   8  -6 -10    7.86    2.75
   8  -6 -10   11.57    3.04
   8   6  -9   42.33    5.76
  -8   6  -9   36.18    5.09
   8  -6  -9   43.04    5.74
   8  -6  -9   34.89    5.40
   8   6  -8   15.20    3.62
  -8   6  -8   14.33    3.33
   8  -6  -8   21.34    4.07
   8  -6  -8   14.92    3.28
   8  -6  -7    7.57    2.71
   8   6  -7   11.62    3.16
  -8   6  -7   13.46    3.17
   8  -6  -7   10.05    2.95
   8   6  -6   59.33    6.53
   8  -6  -6   80.09    7.72
   8   6  -6   79.28    6.97
  -8   6  -6   74.17    7.07
   8  -6  -6   80.16    8.03
   8   6  -5  105.98    8.81
   8   6  -5   94.96    7.60
   8  -6  -5  109.48    8.95
   8  -6  -5  101.48    8.79
   8  -6  -4    9.56    3.06
   8   6  -4    7.98    2.06
   8   6  -4    6.86    2.15
   8  -6  -4    3.33    1.86
   8   6  -3   31.38    4.76
   8   6  -3   20.89    3.63
   8  -6  -3   22.19    4.11
   8  -6  -3   19.50    3.29
   8   6  -2   24.04    4.03
   8   6  -2   31.50    4.59
   8  -6  -2   34.91    5.08
   8  -6  -2   37.75    5.27
   8   6  -1   43.97    5.76
   8  -6  -1   49.21    5.98
   8   6  -1   39.84    4.97
   8  -6  -1   45.60    5.86
   8   6   0   45.24    5.62
   8  -6   0   47.09    5.89
   8   6   0   52.45    5.91
   8  -6   0   65.92    7.13
   8   6   1   47.66    5.82
   8  -6   1   51.52    5.99
   8   6   1   51.31    5.79
   8  -6   1   49.73    5.88
   8   6   2   26.78    4.48
   8  -6   2   30.34    4.60
   8   6   2   36.00    4.96
   8  -6   2   28.58    4.47
   8   6   3   22.52    4.08
   8   6   3   25.97    4.27
   8  -6   3   21.95    4.26
   8  -6   3   28.80    4.57
   8  -6   4    8.47    2.15
   8   6   4    8.15    2.65
   8   6   4    8.68    2.74
   8  -6   4    8.82    2.37
   8   6   5   97.87    8.49
   8   6   5   92.45    7.91
   8  -6   5   89.45    8.26
   8  -6   5   95.84    8.45
   8   6   6   84.53    7.75
   8   6   6   80.20    7.41
   8  -6   6   69.86    7.19
   8  -6   6   77.06    7.38
   8  -6   7   13.19    3.00
   8   6   7    7.91    2.61
   8   6   7   10.41    3.06
   8  -6   7   17.27    4.01
   8  -6   8   17.80    3.71
   8   6   8   17.65    3.96
   8   6   8   20.60    3.99
   8  -6   8   19.68    4.17
   8   6   9   36.97    5.29
   8   6   9   45.47    5.78
   8  -6   9   35.37    5.25
   8  -6   9   44.84    5.87
   8  -6  10   15.39    3.82
   8   6  10    7.04    2.16
   8   6  10   13.91    3.22
   8  -6  10   10.62    2.95
   8   6  11   65.33    6.84
   8   6  11   64.36    7.00
   8  -6  11   74.34    7.69
   8  -6  11   85.98    8.22
   8   6  12   35.83    5.21
   8   6  12   27.98    4.75
   8  -6  12   28.82    4.92
   8  -6  12   31.76    5.32
   8   6  13    1.80    1.72
   8  -6  13    2.20    1.66
   8   6  13    1.34    0.70
   8  -6  13    1.22    1.33
   8   6  14   23.53    4.29
   8  -6  14   17.36    3.50
   8   6  14   17.19    3.92
   8  -6  14   19.93    4.09
   8   6  15   45.81    6.19
   8   6  15   53.42    6.73
   8  -6  15   43.43    6.14
   8   6  16    8.32    2.44
   8  -6  16    5.12    1.69
   8   6  16   12.29    3.78
   8   6  17   -0.39    1.87
   8   6  17   14.10    3.84
   8   6  18   16.42    3.76
   8   6  19    3.81    2.36
   8   6  20    1.42    1.37
   8   6  21   11.84    3.44
   8   6  22    2.25    2.06
  -8   6  22    1.96    2.40
   8   6  23    3.51    2.29
  -8   6  23    1.33    1.43
   8   6  24    7.82    3.11
  -8   6  24    9.26    3.21
   8  -7 -22    2.03    2.63
   8  -7 -22   -2.77    2.27
   8  -7 -21   -0.88    2.09
   8  -7 -21    0.83    1.58
   8  -7 -20    3.98    2.23
   8  -7 -20    6.46    2.55
   8  -7 -19    1.28    1.78
   8  -7 -19    1.29    1.11
   8  -7 -18    1.86    1.25
   8  -7 -18   -0.55    1.45
   8  -7 -17   -0.16    1.93
   8  -7 -17    0.70    0.95
   8   7 -16    2.18    2.59
   8  -7 -16    1.14    1.64
   8  -7 -16    2.51    1.74
   8   7 -15   -0.81    1.19
   8  -7 -15    0.32    0.96
   8  -7 -15   -0.77    1.08
   8   7 -14    2.94    2.00
   8  -7 -14    3.86    2.86
   8  -7 -14    2.45    1.23
   8  -7 -13   -0.42    1.54
   8  -7 -13   -0.77    1.62
   8   7 -12   16.03    3.65
   8  -7 -12   15.52    3.74
   8  -7 -12    8.04    2.96
   8   7 -11   23.37    4.56
   8  -7 -11   23.52    4.33
   8  -7 -11   20.94    4.40
   8   7 -10    4.67    1.61
   8  -7 -10   11.75    2.85
   8  -7 -10   10.75    3.15
   8  -7  -9    1.67    1.77
   8   7  -9    1.31    1.91
   8  -7  -9    0.99    1.51
   8   7  -8   22.46    4.31
  -8   7  -8   26.90    4.79
   8  -7  -8   25.11    4.72
   8  -7  -8   17.86    3.66
   8  -7  -7   16.90    4.12
   8   7  -7   19.35    4.16
  -8   7  -7   18.94    3.91
   8  -7  -7   14.51    3.56
  -8   7  -6   11.06    3.03
   8   7  -6   11.24    3.18
   8  -7  -6   11.08    2.84
   8  -7  -6   16.77    3.89
   8   7  -5   37.96    5.30
  -8   7  -5   35.59    5.29
   8  -7  -5   35.12    5.20
   8  -7  -5   29.00    4.73
   8   7  -4    8.01    2.79
  -8   7  -4    4.51    1.88
   8   7  -4    6.94    2.23
   8  -7  -4    8.43    2.29
   8  -7  -4    9.14    2.34
   8  -7  -3   15.70    3.22
   8   7  -3   20.42    4.04
  -8   7  -3   21.19    4.06
   8   7  -3   15.36    2.92
   8  -7  -3   18.89    4.49
   8  -7  -2   13.36    3.44
   8   7  -2   20.45    4.13
  -8   7  -2   12.23    3.24
   8   7  -2   14.40    3.08
   8  -7  -2   13.89    3.17
   8   7  -1   19.55    4.03
  -8   7  -1   31.29    4.96
   8  -7  -1   30.09    4.78
   8   7  -1   28.41    4.89
   8  -7  -1   32.56    5.11
   8   7   0   41.59    5.43
   8  -7   0   44.41    6.08
  -8   7   0   40.07    5.88
   8  -7   0   47.39    6.04
   8   7   0   44.36    5.81
   8   7   1   26.90    4.73
   8  -7   1   28.80    4.80
   8   7   1   25.24    4.30
   8  -7   1   34.44    5.17
   8  -7   2   16.02    3.53
   8   7   2   12.45    3.02
   8  -7   2   10.27    3.05
   8   7   2   20.07    3.60
   8  -7   3   17.75    3.70
   8   7   3   17.78    3.72
   8  -7   3   11.42    3.00
   8   7   3   12.68    2.95
   8  -7   4   11.76    3.26
   8   7   4    9.33    2.69
   8  -7   4   12.56    3.25
   8   7   4    7.24    2.43
   8   7   5   28.59    4.59
   8  -7   5   27.05    5.05
   8   7   5   22.91    3.99
   8  -7   5   34.35    5.27
   8  -7   6   11.27    3.40
   8   7   6    9.70    3.04
   8  -7   6    6.44    2.58
   8   7   6   15.04    3.15
   8   7   7   26.18    4.91
   8  -7   7   13.33    3.26
   8   7   7   22.54    4.36
   8  -7   7   16.52    3.65
   8  -7   8   19.56    4.14
   8   7   8   18.08    4.08
   8   7   8   19.67    4.16
   8  -7   8   22.73    4.21
   8  -7   9    1.60    0.89
   8   7   9   -0.49    1.43
   8  -7   9   -0.76    1.16
   8   7   9    0.24    1.36
   8  -7  10    8.25    2.52
   8   7  10   12.71    3.18
   8   7  10    9.71    2.89
   8  -7  10   16.66    4.06
   8  -7  11   21.80    4.04
   8   7  11   25.40    4.68
   8   7  11   15.09    4.06
   8  -7  11   24.20    4.52
   8  -7  12   17.15    3.83
   8   7  12   14.48    3.14
   8   7  12   17.22    3.49
   8  -7  13    3.45    2.42
   8   7  13    5.58    1.89
   8   7  13    2.86    0.98
   8  -7  14    2.15    1.26
   8   7  14    4.99    1.93
   8   7  15    0.40    1.54
   8   7  15    0.90    2.02
   8   7  16    3.96    1.59
   8   7  16    4.19    2.58
   8   7  17    1.03    1.11
   8   7  17    0.64    1.77
  -8   7  17    4.18    2.72
   8   7  18   -0.35    2.04
  -8   7  18   -0.95    2.41
   8   7  19    2.47    2.19
  -8   7  19    2.40    1.97
   8   7  20    4.14    2.37
  -8   7  20    3.06    2.94
   8   7  21    2.43    1.91
  -8   7  21   -0.54    1.16
   8   7  22   -0.36    1.92
  -8   7  22    0.43    1.79
   8  -8 -19    4.78    3.49
   8  -8 -19    2.17    1.71
   8  -8 -18   13.11    3.60
   8  -8 -18    1.80    2.23
   8  -8 -17   13.91    3.02
   8  -8 -17   13.14    3.71
   8  -8 -16    1.54    1.97
   8  -8 -16    0.34    1.20
   8   8 -15    9.45    3.49
   8  -8 -15   18.08    4.57
   8  -8 -15    9.82    3.11
   8   8 -14    7.61    2.82
   8  -8 -14   14.59    4.06
   8  -8 -14   11.52    3.76
   8   8 -13   -1.78    2.43
   8  -8 -13    0.03    1.85
   8  -8 -13    1.04    1.30
   8   8 -12   12.77    3.45
   8  -8 -12   19.97    4.15
   8  -8 -12   20.80    4.88
   8   8 -11   43.70    6.65
   8  -8 -11   42.47    6.23
   8  -8 -11   31.83    5.12
   8   8 -10    2.83    1.85
   8  -8 -10    2.41    2.17
   8  -8 -10    2.00    2.62
   8   8  -9   18.72    4.49
   8  -8  -9   32.34    5.42
   8  -8  -9   19.79    4.51
   8   8  -8   21.27    4.53
  -8   8  -8   34.73    6.04
   8  -8  -8   23.96    4.75
   8  -8  -8   19.10    4.36
   8   8  -7    8.38    2.54
  -8   8  -7    7.58    2.82
   8  -8  -7   11.33    3.42
   8  -8  -7    7.51    2.87
   8   8  -6    6.79    2.60
  -8   8  -6    4.17    2.40
   8  -8  -6    7.95    2.68
   8  -8  -6    3.40    1.85
   8   8  -5   27.73    4.97
  -8   8  -5   32.56    5.22
   8  -8  -5   39.03    5.79
   8  -8  -5   26.47    4.83
   8   8  -4    5.98    2.75
  -8   8  -4    4.99    2.59
   8  -8  -4    4.65    2.03
   8  -8  -4    2.70    2.19
   8   8  -3    4.28    2.19
  -8   8  -3    3.91    2.47
   8  -8  -3    5.37    2.69
   8   8  -3    3.53    1.82
   8  -8  -3    3.61    1.95
   8   8  -2   14.05    3.31
   8  -8  -2   14.20    3.30
  -8   8  -2   19.79    4.41
   8   8  -2   17.35    3.88
   8  -8  -2   18.68    4.26
   8   8  -1    9.28    3.10
  -8   8  -1   19.69    4.23
   8  -8  -1   18.35    4.39
   8   8  -1   13.69    3.35
   8  -8  -1   16.74    4.21
   8   8   0    1.78    1.73
  -8   8   0    4.73    2.31
   8  -8   0    0.16    1.31
   8   8   0    2.44    1.22
   8  -8   0    2.07    1.56
   8  -8   1   18.10    3.75
   8   8   1   22.35    4.56
  -8   8   1   19.67    4.12
   8  -8   1   18.93    4.40
   8   8   1   12.63    2.92
   8  -8   2   17.28    4.05
   8   8   2   19.09    4.32
  -8   8   2   11.94    3.66
   8  -8   2   18.54    4.27
   8   8   2   20.62    4.39
   8  -8   3   -0.66    1.38
   8   8   3    6.47    2.78
  -8   8   3    5.27    1.55
   8  -8   3    1.57    2.04
   8   8   3    1.22    0.66
   8  -8   4    4.93    2.82
  -8   8   4    9.82    2.92
   8   8   4   10.74    3.21
   8  -8   4    3.63    2.16
   8   8   4    9.90    2.87
   8  -8   5   22.34    4.56
   8   8   5   30.12    5.20
  -8   8   5   39.00    5.88
   8  -8   5   24.35    4.24
   8   8   5   31.00    4.85
   8  -8   6    3.35    2.13
   8   8   6    5.71    2.52
  -8   8   6    8.78    2.57
   8  -8   7    4.34    1.54
   8   8   7    9.47    2.55
  -8   8   7    6.66    2.20
   8   8   7    8.46    2.81
   8  -8   8   23.20    4.47
   8   8   8   24.73    4.55
  -8   8   8   23.68    5.11
   8   8   8   25.12    4.48
   8  -8   9   22.69    4.37
   8   8   9   22.24    4.52
  -8   8   9   21.57    4.43
   8   8   9   22.50    4.38
   8  -8  10    1.61    0.88
   8   8  10    3.37    2.00
  -8   8  10    3.31    2.91
   8   8  10    1.36    1.44
   8  -8  11   30.24    5.25
   8   8  11   37.78    6.21
  -8   8  11   35.35    6.21
   8   8  11   30.47    5.45
  -8   8  12   25.53    5.10
   8  -8  12   17.88    4.62
   8   8  12   17.55    4.07
   8   8  12   21.12    4.50
   8  -8  13    0.30    1.95
  -8   8  13    1.27    2.10
   8   8  13   -1.52    1.02
   8   8  13    0.64    0.93
   8   8  14    7.50    3.11
  -8   8  14    3.54    2.29
   8   8  14    1.26    1.36
   8   8  15   10.24    3.32
  -8   8  15   13.43    3.72
   8   8  15   11.34    3.46
   8   8  16    0.04    1.70
  -8   8  16   -1.88    1.88
   8   8  16    1.51    2.07
  -8   8  17   15.47    4.02
   8   8  17   12.77    3.55
   8   8  17   22.96    4.85
  -8   8  18   16.71    4.52
   8   8  18    5.88    2.79
   8   8  18   10.63    3.81
  -8   8  19    2.82    2.02
   8   8  19    0.78    1.75
   8  -9 -16   -3.18    2.93
   8  -9 -16   -0.48    1.57
   8  -9 -15    5.26    3.22
   8  -9 -15    2.09    1.99
   8   9 -14    1.33    1.93
   8  -9 -14   -0.15    2.00
   8  -9 -14    0.87    2.01
   8   9 -13    3.07    2.65
   8  -9 -13    4.89    1.91
   8  -9 -13    1.17    1.63
   8   9 -12    7.68    4.02
   8  -9 -12    4.37    2.43
   8  -9 -12    1.28    1.29
   8   9 -11    2.19    2.38
   8  -9 -11    1.18    1.50
   8  -9 -11    2.18    2.14
   8   9 -10    3.02    1.75
   8  -9 -10    1.68    2.40
   8  -9 -10    0.54    1.70
   8   9  -9    1.63    1.69
   8  -9  -9   -1.15    1.35
   8  -9  -9   -1.49    1.91
   8   9  -8    4.62    2.64
   8  -9  -8    1.28    1.83
   8  -9  -8    4.85    2.05
   8   9  -7   -0.89    2.24
  -8   9  -7   -1.54    1.05
   8  -9  -7   -1.33    1.61
   8  -9  -7   -0.02    0.97
   8   9  -6    2.38    1.79
  -8   9  -6    2.63    1.75
   8  -9  -6   -1.92    2.07
   8  -9  -6    1.41    2.28
   8   9  -5    6.47    2.21
  -8   9  -5    5.83    2.52
   8  -9  -5    5.77    2.74
   8  -9  -5    7.30    2.57
   8   9  -4    2.88    1.75
  -8   9  -4    0.17    0.96
   8  -9  -4    1.22    2.06
   8  -9  -4   -0.96    2.39
   8  -9  -3    1.27    1.21
   8   9  -3    0.89    1.65
  -8   9  -3    5.79    2.37
   8  -9  -3    2.03    1.06
   8   9  -2    3.95    2.82
  -8   9  -2    7.03    2.08
   8  -9  -2    2.41    1.68
   8  -9  -2    5.87    2.53
   8   9  -1    3.67    2.35
  -8   9  -1    1.38    1.67
   8  -9  -1   -1.00    2.42
   8   9  -1    1.53    1.77
   8  -9  -1    3.73    2.64
  -8   9   0    2.10    1.20
   8   9   0    0.79    1.00
   8  -9   0    0.80    0.94
   8   9   1    4.27    2.28
  -8   9   1    1.08    1.05
   8   9   1    1.45    1.42
   8  -9   1    1.28    1.42
   8   9   2    5.02    1.96
  -8   9   2   11.18    3.95
   8  -9   2    6.51    2.48
   8   9   2    4.21    2.50
   8   9   3    2.40    1.71
   8   9   3    1.14    1.39
  -8   9   3    0.79    1.61
   8  -9   3    3.09    2.08
   8   9   4    1.31    1.93
   8   9   4    2.63    2.06
  -8   9   4    1.55    0.98
   8  -9   4    0.33    1.89
   8   9   5    3.14    2.47
   8   9   5   11.86    3.70
  -8   9   5    9.39    3.18
   8  -9   5    4.13    2.46
   8   9   6    1.45    2.31
   8   9   6    2.82    2.12
  -8   9   6    5.60    2.66
   8  -9   6    0.74    1.49
   8   9   7    0.19    1.05
   8   9   7   -3.42    2.45
  -8   9   7   -2.07    1.99
   8  -9   7    1.44    2.46
   8   9   8    3.24    2.22
  -8   9   8    3.16    1.65
   8   9   8    3.99    2.29
   8  -9   8    5.86    2.74
   8   9   9   -0.40    1.64
  -8   9   9    1.23    1.35
   8   9   9   -0.23    1.43
   8  -9   9    0.48    1.84
   8   9  10    0.49    1.23
  -8   9  10    0.72    1.12
   8   9  10    1.46    0.85
   8  -9  10    1.13    2.14
   8   9  11   -1.02    1.82
  -8   9  11    1.10    1.59
   8   9  11    4.25    2.54
   8  -9  11    1.35    1.23
   8   9  12   -2.61    2.35
  -8   9  12    6.23    3.01
   8   9  12    6.84    3.09
   8   9  13    5.36    2.41
  -8   9  13    0.67    1.97
   8   9  13    2.61    2.05
   8   9  14    1.86    1.18
  -8   9  14    2.21    1.42
   8   9  14    2.87    2.02
   8   9  15    2.64    2.59
  -8   9  15    4.17    2.37
   8   9  15    0.04    1.49
   8   9  16    2.03    2.16
  -8   9  16    5.07    2.56
   8   9  16   -0.47    1.28
   8  10 -11    4.49    3.11
   8 -10 -11    6.81    2.95
   8 -10 -11    5.67    3.24
   8  10 -10   -2.32    2.43
   8 -10 -10   -2.12    2.09
   8 -10 -10    0.51    2.24
   8  10  -9   15.42    4.31
   8 -10  -9   12.86    4.41
   8 -10  -9    9.58    3.72
   8  10  -8    4.79    1.91
   8 -10  -8    1.27    1.54
   8  10  -7    3.64    2.99
   8 -10  -7    0.49    1.84
   8  10  -6    0.67    1.04
   8 -10  -6    0.22    1.48
   8  10  -5   16.29    4.10
  -8  10  -5   11.62    3.93
   8 -10  -5   18.25    4.02
   8  10  -4    1.54    1.16
  -8  10  -4    3.83    2.86
   8 -10  -4    2.25    1.65
   8  10  -3    3.65    2.61
  -8  10  -3    1.35    1.63
   8 -10  -3    2.98    2.00
   8  10  -2    8.20    3.22
  -8  10  -2    3.15    1.46
   8 -10  -2    7.01    2.70
   8  10  -1    8.62    3.38
  -8  10  -1    3.95    2.12
   8 -10  -1    4.71    2.41
   8  10   0    1.83    1.23
  -8  10   0   -0.98    1.59
   8  10   0    3.50    2.76
   8 -10   0    1.70    1.76
   8 -10   1    9.35    3.18
   8  10   1    3.61    2.35
  -8  10   1    4.74    2.80
   8  10   1    5.38    2.36
   8  10   2    4.40    1.71
  -8  10   2    4.49    1.72
   8 -10   2    3.54    1.64
   8  10   2    6.07    2.85
   8  10   3    0.90    2.33
  -8  10   3   -1.17    1.14
   8 -10   3    1.09    1.62
   8  10   3    0.93    2.17
   8  10   4    1.81    2.07
  -8  10   4    2.23    1.74
   8 -10   4    6.73    3.25
   8  10   4    3.70    2.45
   8  10   5    7.99    2.35
   8  10   5   16.39    4.35
  -8  10   5    5.53    3.49
   8 -10   5    9.38    3.87
   8  10   6    0.36    1.75
   8  10   6    2.27    2.91
  -8  10   6   -1.70    2.24
   8 -10   6   -1.86    1.52
   8  10   7    4.17    1.68
  -8  10   7    3.74    2.69
   8 -10   7    2.19    2.90
   8  10   7    1.10    1.34
   8  10   8    5.59    2.56
  -8  10   8    8.96    3.22
   8 -10   8    9.53    3.56
   8  10   8    6.80    2.74
   8  10   9    9.43    3.30
  -8  10   9    7.75    2.83
   8 -10   9    7.29    2.81
   8  10   9    9.95    3.58
   8  10  10   -1.31    1.29
  -8  10  10   -0.55    1.00
   8  10  10   -1.20    2.07
   8  10  11    3.78    1.98
  -8  10  11    9.01    3.00
   8  10  11    3.85    2.04
   9   0 -27    2.58    3.10
   9   0 -26   -0.27    1.19
   9   0 -25   -0.38    1.41
   9   0 -24   -0.77    1.65
   9   0 -23   -0.04    2.31
   9   0 -22    0.42    1.67
   9   0 -21   -0.87    1.58
   9   0 -20   -1.18    1.34
   9   0 -19    1.04    2.03
   9   0 -18   -0.70    0.87
   9   0 -17   -0.68    1.09
   9   0 -16    0.28    1.05
   9   0 -15   -0.75    1.26
   9   0 -14    0.32    1.00
   9   0 -13    0.22    0.81
   9   0 -13    0.61    1.31
   9   0 -12    0.43    1.02
   9   0 -12    0.53    0.88
   9   0 -11   -0.04    0.89
   9   0 -11    1.25    1.25
   9   0 -10    0.72    0.83
   9   0 -10   -0.01    0.99
   9   0  -9   -0.41    0.56
   9   0  -9   -0.46    0.53
   9   0  -8    0.61    1.21
   9   0  -8   -0.33    0.63
   9   0  -7   -0.19    0.52
   9   0  -7    0.81    1.15
   9   0  -7    0.98    1.38
   9   0  -6   -0.42    0.72
   9   0  -6   -0.33    0.96
   9   0  -6   -0.29    0.75
   9   0  -5    0.15    1.00
   9   0  -5   -1.06    1.22
   9   0  -5   -0.13    0.89
   9   0  -4   -0.83    1.21
   9   0  -4   -0.69    1.11
   9   0  -4   -0.09    0.78
   9   0  -3    0.29    0.68
   9   0  -3    0.73    1.30
   9   0  -3   -0.25    0.60
   9   0  -2    0.45    1.14
   9   0  -2   -0.48    0.83
   9   0  -2   -0.31    0.61
   9   0  -1    1.03    1.64
   9   0  -1   -0.31    0.60
   9   0  -1    0.06    0.60
   9   0   0    0.92    1.33
   9   0   0   -0.33    0.49
   9   0   0    0.91    1.36
   9   0   1   -0.69    1.03
   9   0   1   -0.16    0.84
   9   0   2   -0.18    1.06
   9   0   2   -0.07    0.37
   9   0   3   -0.31    0.45
   9   0   3   -0.48    1.17
   9   0   4   -0.56    0.70
   9   0   4   -0.17    0.80
   9   0   5    0.26    0.94
   9   0   5   -0.25    0.64
   9   0   6    0.16    0.84
   9   0   6   -0.26    0.60
   9   0   7    0.68    1.52
   9   0   7    0.44    0.97
   9   0   8   -0.62    1.07
   9   0   8   -0.44    0.59
   9   0   9    0.78    1.56
   9   0   9    0.56    1.11
   9   0  10   -0.25    0.96
   9   0  10   -0.05    0.59
   9   0  11    0.21    0.82
   9   0  11   -0.53    0.55
   9   0  12   -0.25    0.89
   9   0  12    0.33    0.76
   9   0  13    0.61    1.39
   9   0  13    0.86    0.96
   9   0  14   -0.98    0.85
   9   0  15    2.66    1.47
   9   0  16    0.23    1.52
   9   0  17    0.56    0.99
   9   0  18    1.11    1.30
   9   0  19    0.50    1.70
   9   0  20    0.27    1.87
   9   0  21   -1.08    1.20
   9   0  22   -0.68    1.99
   9   0  23    0.85    1.93
   9   0  24   -0.24    1.37
   9  -1 -28   12.22    4.25
   9  -1 -27   13.79    3.10
   9  -1 -26   26.41    5.18
   9  -1 -25    4.50    2.15
   9  -1 -24    1.26    1.78
   9  -1 -23    2.96    2.46
   9   1 -22   15.96    4.12
   9  -1 -22   23.56    4.57
   9   1 -21   41.00    5.62
   9  -1 -21   43.32    6.10
   9   1 -20    8.07    3.02
   9  -1 -20    6.81    2.55
   9   1 -19   29.92    4.67
   9  -1 -19   32.28    5.12
   9   1 -18    2.64    1.63
   9  -1 -18    3.40    1.04
   9   1 -17  187.20   11.53
   9  -1 -17  194.01   11.93
   9  -1 -16   48.70    5.91
   9   1 -16   49.37    5.80
   9   1 -15  133.54    9.35
   9  -1 -15  140.86   10.02
   9  -1 -14    7.55    1.96
   9   1 -14    4.05    1.74
   9  -1 -14    2.44    1.34
   9  -1 -13    6.32    2.32
   9  -1 -13    0.19    0.61
   9   1 -13    4.77    1.89
   9   1 -13    5.32    2.35
   9   1 -12   48.64    5.43
   9  -1 -12   49.93    5.62
   9  -1 -12   47.04    4.97
   9   1 -11  400.50   13.17
   9   1 -11  389.60   14.86
   9  -1 -11  399.27   15.77
   9   1 -11  394.28   15.21
   9  -1 -11  399.08   14.63
   9   1 -10   41.50    4.16
   9   1 -10   29.70    4.10
   9  -1 -10   35.38    4.71
   9   1 -10   38.74    4.84
   9  -1 -10   38.32    4.51
   9  -1  -9  307.57   12.55
   9   1  -9  317.31   11.66
   9   1  -9  317.66   13.05
   9  -1  -9  307.98   13.69
   9   1  -9  342.58   13.74
   9  -1  -8   99.41    7.15
   9   1  -8   97.46    6.59
   9   1  -8  103.58    7.42
   9  -1  -8   92.74    7.55
   9   1  -8   81.03    6.55
   9  -1  -7   87.96    6.68
   9   1  -7   86.63    6.13
   9  -1  -7  102.45    7.54
   9   1  -7   91.86    6.83
   9   1  -7   97.89    7.24
   9  -1  -6  109.00    7.50
   9   1  -6  112.22    6.96
   9  -1  -6  110.48    7.96
   9   1  -6  114.82    7.66
   9   1  -6  112.73    7.72
   9  -1  -5  247.44   11.27
   9   1  -5  254.47   10.73
   9   1  -5  244.44   11.04
   9  -1  -5  218.43   11.12
   9   1  -5  239.67   11.12
   9  -1  -4  182.48    9.69
   9   1  -4  197.26    9.47
   9  -1  -4  191.45   10.24
   9   1  -4  201.72    9.94
   9   1  -4  204.61   10.25
   9  -1  -3  229.29   10.77
   9   1  -3  248.75   10.68
   9  -1  -3  257.97   11.79
   9   1  -3  240.56   10.82
   9   1  -3  259.18   11.50
   9   1  -2  135.05    7.90
   9  -1  -2  126.79    7.98
   9  -1  -2  133.04    8.49
   9   1  -2  129.16    8.09
   9   1  -2  137.53    8.36
   9  -1  -1  342.57   13.25
   9   1  -1  375.94   13.35
   9  -1  -1  368.43   13.99
   9   1  -1  369.17   13.50
   9   1  -1  374.02   13.86
   9  -1   0  649.35   18.26
   9   1   0  666.31   17.67
   9  -1   0  661.85   19.03
   9  -1   1  379.97   13.92
   9   1   1  353.67   13.06
   9  -1   1  366.65   14.17
   9   1   1  358.46   13.31
   9  -1   2  132.54    8.30
   9   1   2  126.68    8.05
   9  -1   2  136.89    8.50
   9   1   2  135.28    8.21
   9  -1   3  261.09   11.78
   9   1   3  251.36   11.35
   9   1   3  230.25   10.50
   9  -1   4  210.92   10.75
   9   1   4  194.33   10.07
   9   1   4  195.66    9.62
   9   1   5  236.99   11.36
   9   1   5  260.76   11.08
   9  -1   6  122.27    8.23
   9   1   6  108.30    7.84
   9   1   6  113.12    7.23
   9  -1   7   78.61    6.66
   9   1   7   83.15    6.71
   9   1   7   88.71    6.38
   9  -1   8   96.45    7.40
   9   1   8   83.16    6.14
   9   1   8   93.16    7.38
   9  -1   9  289.27   13.27
   9   1   9  307.42   11.96
   9   1   9  322.18   13.85
   9  -1  10   34.92    4.52
   9   1  10   35.79    4.05
   9   1  10   42.16    5.15
   9  -1  11  416.75   16.08
   9   1  11  397.62   13.48
   9   1  11  410.39   16.17
   9  -1  12   53.38    5.81
   9   1  12   60.96    5.17
   9   1  12   50.13    5.75
   9  -1  13    4.33    1.79
   9   1  13    2.53    2.13
   9   1  13    2.14    1.51
   9  -1  14    5.97    1.74
   9   1  14    4.92    2.02
   9   1  14    3.80    1.13
   9  -1  15  105.77    8.49
   9   1  15  126.48    9.54
   9  -1  16   56.26    6.25
   9   1  16   42.10    5.68
   9  -1  17  193.06   12.07
   9   1  17  187.75   11.92
   9  -1  18    4.61    2.51
   9   1  18    2.32    2.27
   9  -1  19   31.93    5.13
   9   1  19   36.21    5.42
   9   1  20   11.77    3.10
   9  -1  20    5.04    1.38
   9  -1  21   52.28    6.60
   9   1  21   50.80    6.39
   9   1  22   20.83    4.19
   9  -1  22   27.65    5.19
   9   1  23    5.21    1.42
   9  -1  23    3.22    2.29
   9   1  24   -0.63    1.86
   9   1  25   12.95    3.79
   9  -2 -27   -0.28    0.99
   9  -2 -26    4.44    1.73
   9  -2 -25    0.83    1.75
   9  -2 -24    2.70    1.68
   9  -2 -23   -0.28    1.46
   9  -2 -22    5.63    2.25
   9  -2 -21   -0.20    0.82
   9  -2 -20   -0.39    0.90
   9  -2 -19    2.64    1.77
   9  -2 -18   11.43    3.04
   9   2 -17    3.40    2.82
   9  -2 -17    1.06    1.28
   9   2 -17    1.40    1.53
   9   2 -16    4.24    1.74
   9  -2 -16    1.40    1.10
   9   2 -16    6.43    2.68
   9  -2 -16    7.69    3.09
   9   2 -15    3.77    1.97
   9  -2 -15    0.18    1.33
   9   2 -15    0.76    1.66
   9  -2 -15    1.32    1.94
   9  -2 -14    2.06    1.63
   9  -2 -14    3.16    1.06
   9   2 -14    3.86    1.72
   9   2 -14    6.72    1.88
   9  -2 -13    3.69    2.18
   9   2 -13    1.98    1.34
   9  -2 -13    4.98    2.23
   9   2 -13    2.94    1.44
   9  -2 -12   10.20    2.90
   9   2 -12    8.06    2.15
   9  -2 -12    8.52    2.24
   9   2 -12    8.79    2.24
   9  -2 -11    5.25    1.63
   9   2 -11    6.39    1.79
   9  -2 -11    4.70    1.60
   9   2 -11    7.50    2.16
   9  -2 -10   -0.41    0.78
   9   2 -10   -0.25    0.88
   9   2 -10   -0.33    0.75
   9  -2 -10   -0.35    0.83
   9   2 -10   -0.56    1.07
   9  -2  -9   -0.23    1.17
   9  -2  -9    1.67    0.92
   9   2  -9    0.65    1.00
   9   2  -9    0.51    0.87
   9   2  -9    1.24    1.32
   9  -2  -8   16.14    3.18
   9   2  -8   15.14    2.56
   9  -2  -8   16.11    3.12
   9   2  -8   13.35    2.57
   9   2  -8   19.63    3.42
   9   2  -7   12.76    2.78
   9  -2  -7    6.29    2.13
   9  -2  -7    9.76    2.59
   9   2  -7    9.06    1.88
   9   2  -7    7.55    1.70
   9   2  -6    5.21    2.02
   9  -2  -6    3.26    1.40
   9  -2  -6    4.96    1.76
   9   2  -6    6.39    2.11
   9   2  -6    5.80    1.65
   9   2  -5    1.50    0.80
   9   2  -5    1.62    1.02
   9  -2  -5    1.97    1.48
   9  -2  -5    1.65    0.64
   9   2  -5    1.22    1.15
   9   2  -4    0.23    0.71
   9   2  -4    1.79    1.01
   9  -2  -4    1.72    1.28
   9  -2  -4    1.03    0.74
   9   2  -4    2.53    1.49
   9   2  -3    5.75    2.08
   9   2  -3    7.52    1.85
   9  -2  -3    5.67    1.74
   9  -2  -3    5.26    1.84
   9   2  -3    8.00    1.96
   9   2  -2    4.99    1.40
   9  -2  -2    6.87    1.83
   9  -2  -2    5.69    2.31
   9   2  -2    6.47    2.09
   9  -2  -1   32.11    4.19
   9  -2  -1   31.46    4.28
   9   2  -1   30.59    3.92
   9   2  -1   25.89    3.64
   9   2  -1   28.40    3.91
   9  -2   0   14.74    2.75
   9  -2   0   12.93    2.84
   9   2   0   16.48    2.91
   9   2   0   17.56    3.21
   9  -2   1   26.70    3.84
   9  -2   1   29.45    4.16
   9   2   1   23.24    3.49
   9   2   1   20.13    3.36
   9   2   2    9.46    2.24
   9   2   2    7.17    2.21
   9  -2   2   10.86    2.64
   9  -2   2    9.08    2.36
   9   2   3    9.23    2.38
   9   2   3    3.77    1.40
   9  -2   3    6.71    2.42
   9  -2   3    5.17    1.69
   9   2   4    2.72    1.23
   9   2   4    4.34    1.93
   9  -2   4    0.90    0.47
   9   2   5    2.86    1.48
   9   2   5    1.47    0.45
   9  -2   5    0.95    1.25
   9   2   6    5.79    1.62
   9   2   6    7.14    2.04
   9  -2   6    1.65    0.88
   9   2   7    8.23    2.22
   9   2   7    7.16    2.18
   9  -2   7   13.03    2.86
   9   2   8   18.78    3.43
   9  -2   8   23.18    3.83
   9   2   8   18.69    3.17
   9   2   9    0.06    1.04
   9   2   9    0.90    1.05
   9  -2   9    3.04    2.28
   9   2  10    0.71    1.49
   9   2  10   -0.30    1.03
   9  -2  10    1.60    1.24
   9   2  11    5.98    1.53
   9   2  11   10.01    2.70
   9  -2  11    4.96    1.92
   9   2  12    7.45    1.72
   9   2  12    8.79    2.71
   9  -2  12    5.77    1.74
   9   2  13    2.40    0.46
   9   2  13    4.23    1.46
   9  -2  13    3.24    1.61
   9   2  14    0.99    0.79
   9   2  14    0.36    1.22
   9  -2  14    2.10    2.22
   9   2  15    1.93    1.46
   9  -2  15   -0.20    1.46
   9   2  16    5.75    2.57
   9  -2  16    2.90    1.70
   9   2  17    0.16    1.75
   9  -2  17    5.52    2.48
   9   2  18    4.52    1.66
   9  -2  18    2.38    1.52
   9   2  19    2.74    2.16
   9  -2  19    1.63    0.82
   9   2  20    0.01    1.15
   9  -2  20    0.95    0.88
   9   2  21    0.59    1.25
   9  -2  21    0.04    1.21
   9   2  22    0.77    1.87
   9   2  23   -0.81    1.99
   9   2  24    0.09    2.12
   9   2  25    4.37    3.18
   9   2  26    2.83    1.57
   9  -3 -27   28.81    5.70
   9  -3 -26    1.01    1.24
   9  -3 -25   31.55    5.65
   9  -3 -24    7.17    2.83
   9  -3 -23    0.10    0.88
   9  -3 -22   21.15    4.51
   9  -3 -21   44.08    6.43
   9  -3 -20   -0.29    1.00
   9  -3 -19   17.28    4.33
   9   3 -19   16.82    3.45
   9  -3 -18   38.63    5.85
   9   3 -18   40.16    5.60
   9  -3 -17   26.88    4.82
   9  -3 -17   20.54    3.96
   9   3 -17   21.14    3.79
   9  -3 -16  207.20   12.38
   9  -3 -16  211.65   13.02
   9   3 -16  203.36   12.02
   9  -3 -15   26.78    4.44
   9  -3 -15   35.44    5.15
   9   3 -15   32.98    4.89
   9  -3 -14   42.61    5.65
   9  -3 -14   50.30    6.09
   9   3 -14   57.53    6.29
   9  -3 -13   47.31    6.06
   9  -3 -13   41.20    5.25
   9   3 -13   46.44    5.56
   9  -3 -12  211.57   12.29
   9  -3 -12  236.87   12.65
   9   3 -12  233.12   12.52
   9  -3 -11  253.70   13.34
   9  -3 -11  246.23   12.75
   9   3 -10  376.30   13.25
   9  -3 -10  376.86   16.05
   9  -3 -10  371.68   15.71
   9   3 -10  384.15   15.52
   9   3  -9    2.08    0.84
   9  -3  -9    2.06    1.23
   9   3  -9    2.47    1.17
   9  -3  -9    2.98    1.73
   9   3  -9    1.20    0.62
   9   3  -8   59.72    5.30
   9  -3  -8   57.15    6.21
   9   3  -8   68.22    5.37
   9   3  -8   53.87    5.65
   9  -3  -8   70.38    6.52
   9  -3  -7  619.87   20.12
   9   3  -7  620.32   16.60
   9   3  -7  580.28   15.92
   9   3  -7  641.74   19.60
   9  -3  -7  652.12   20.01
   9  -3  -6   58.24    6.24
   9   3  -6   51.21    4.75
   9   3  -6   59.51    5.10
   9   3  -6   48.25    5.25
   9  -3  -6   62.00    6.15
   9  -3  -5  853.81   22.70
   9  -3  -5  841.00   23.37
   9   3  -5  836.51   19.11
   9   3  -5  886.90   20.10
   9   3  -5  857.64   22.79
   9  -3  -4  423.27   15.96
   9   3  -4  373.97   12.98
   9  -3  -4  414.83   16.11
   9   3  -4  426.99   14.24
   9   3  -4  440.56   15.87
   9   3  -3    3.40    1.67
   9  -3  -3    0.67    0.92
   9   3  -3    2.04    1.37
   9  -3  -3    1.52    1.46
   9   3  -3    1.85    1.24
   9  -3  -2   35.99    4.68
   9  -3  -2   25.76    4.40
   9   3  -2   29.09    3.76
   9   3  -2   39.16    4.77
   9   3  -2   26.52    3.91
   9   3  -1 1271.03   25.31
   9  -3  -1 1261.84   27.29
   9   3  -1 1233.95   26.79
   9   3   0   13.05    2.61
   9  -3   0   13.53    2.85
   9   3   0   14.63    2.80
   9  -3   0   14.78    2.86
   9   3   1 1246.74   25.82
   9  -3   1 1274.16   27.68
   9  -3   1 1260.64   27.67
   9   3   1 1215.29   26.22
   9   3   2   30.36    3.99
   9  -3   2   27.62    4.03
   9  -3   2   23.16    3.99
   9   3   2   24.97    3.69
   9   3   3    1.15    0.62
   9  -3   3    2.02    1.87
   9   3   3    0.97    0.86
   9  -3   3   -0.43    0.60
   9  -3   4  427.21   16.21
   9   3   4  403.07   15.10
   9  -3   4  446.70   16.39
   9   3   4  411.94   15.25
   9   3   5  859.86   22.30
   9  -3   5  877.78   23.17
   9  -3   5  832.24   22.80
   9   3   5  843.72   21.88
   9   3   6   65.21    6.21
   9   3   6   55.22    5.74
   9  -3   6   51.08    5.73
   9   3   7  645.01   19.02
   9   3   7  613.05   19.37
   9  -3   7  640.02   20.15
   9   3   8   68.52    6.39
   9   3   8   61.67    6.26
   9  -3   8   55.06    5.90
   9   3   9    2.17    1.45
   9  -3   9    3.95    1.74
   9   3   9    3.91    1.99
   9   3  10  369.23   14.70
   9   3  10  363.50   15.44
   9  -3  10  365.63   15.55
   9   3  11  261.94   12.49
   9   3  11  279.87   13.59
   9  -3  11  259.74   13.39
   9   3  12  228.82   11.72
   9   3  12  229.63   12.53
   9  -3  12  227.46   12.58
   9   3  13   46.11    5.78
   9  -3  13   43.34    5.57
   9   3  13   46.01    5.26
   9   3  14   54.68    6.31
   9  -3  14   49.00    5.99
   9   3  14   45.26    5.23
   9   3  15   25.59    4.41
   9  -3  15   30.08    4.44
   9   3  15   23.99    3.82
   9   3  16  207.88   12.62
   9  -3  16  263.46   13.98
   9   3  17   23.89    4.36
   9  -3  17   24.84    4.18
   9   3  18   37.05    5.58
   9  -3  18   42.15    5.99
   9  -3  19   18.55    3.66
   9   3  19   15.87    3.92
   9  -3  20    1.59    1.99
   9   3  20    0.48    1.26
   9   3  21   39.32    6.17
   9   3  22   37.87    6.29
   9   3  23    4.04    1.85
   9   3  24    6.20    2.49
   9   3  25   37.30    6.23
   9   3  26    2.46    3.49
   9   3  27   23.50    4.92
   9  -4 -26    3.46    2.19
   9  -4 -25    0.33    1.45
   9  -4 -24    0.73    1.54
   9  -4 -23    2.69    1.48
   9  -4 -22   -2.83    2.06
   9  -4 -21    4.59    1.25
   9  -4 -20    1.06    1.41
   9  -4 -19    0.98    1.25
   9  -4 -18    1.25    1.19
   9  -4 -18    2.02    2.31
   9   4 -18    2.49    2.05
   9  -4 -17   73.68    7.87
   9  -4 -17   56.88    7.11
   9   4 -17   72.78    7.22
   9  -4 -16    0.86    1.29
   9  -4 -16   -0.19    1.31
   9   4 -16    1.06    1.75
   9  -4 -15    5.16    2.28
   9  -4 -15   10.25    3.09
   9   4 -15    7.00    2.30
   9   4 -14    5.47    1.45
   9  -4 -14    8.13    2.91
   9  -4 -14   10.31    2.95
   9   4 -13    2.00    2.25
   9  -4 -13    3.87    1.95
   9  -4 -13    1.84    1.47
   9  -4 -12   35.17    5.35
   9  -4 -12   37.43    5.35
   9   4 -12   32.37    4.56
   9  -4 -11  116.97    9.41
   9  -4 -11   98.58    8.46
   9   4 -11  117.56    8.91
   9  -4 -10    0.98    0.60
   9  -4 -10    1.07    1.07
   9  -4  -9   76.08    7.44
   9  -4  -9   93.89    8.05
   9   4  -9   84.01    7.54
   9  -4  -8   64.27    6.57
   9   4  -8   60.70    5.33
   9  -4  -8   58.30    6.18
   9   4  -8   64.96    6.38
   9   4  -7    0.63    1.54
   9  -4  -7    0.82    0.57
   9   4  -7   -0.84    1.07
   9  -4  -7   -0.23    1.57
   9  -4  -6  117.74    9.13
   9  -4  -6  101.06    8.25
   9   4  -6  108.34    7.36
   9   4  -6  130.23    9.12
   9   4  -5   50.96    5.01
   9  -4  -5   52.95    6.14
   9  -4  -5   54.20    5.90
   9   4  -5   55.97    6.01
   9   4  -4   37.47    4.36
   9  -4  -4   37.80    4.92
   9   4  -4   37.52    3.99
   9  -4  -4   31.54    4.47
   9   4  -4   41.03    5.01
   9   4  -3   14.49    3.17
   9  -4  -3   11.10    2.70
   9   4  -3   11.81    2.57
   9  -4  -3   10.43    2.38
   9   4  -3   10.97    2.17
   9  -4  -2   94.78    7.88
   9   4  -2   80.85    6.59
   9  -4  -2   87.96    7.57
   9   4  -2   79.33    5.88
   9   4  -2   81.21    7.29
   9   4  -1    1.51    1.73
   9  -4  -1    0.02    0.94
   9  -4  -1    1.26    0.87
   9   4  -1    3.42    1.35
   9   4   0  249.40   12.53
   9  -4   0  247.23   12.63
   9   4   0  256.84   11.86
   9  -4   0  264.35   13.12
   9   4   1    0.77    0.65
   9  -4   1    0.35    1.22
   9  -4   1    3.57    1.87
   9   4   1    1.77    1.28
   9   4   2   72.21    6.77
   9  -4   2   70.95    6.66
   9   4   2   80.67    6.96
   9  -4   2   83.84    7.48
   9   4   3   13.73    3.09
   9   4   3   16.63    3.32
   9  -4   3   13.81    2.87
   9  -4   3   15.11    2.69
   9   4   4   35.58    4.56
   9  -4   4   31.97    4.47
   9   4   4   43.68    5.19
   9  -4   4   39.49    5.14
   9   4   5   55.36    5.86
   9  -4   5   47.63    5.61
   9   4   5   46.09    5.24
   9  -4   5   50.78    6.08
   9   4   6  107.58    8.19
   9  -4   6  121.51    8.99
   9   4   6  130.30    9.29
   9  -4   6  125.83    9.22
   9   4   7    0.09    0.57
   9   4   7   -0.87    1.22
   9  -4   7    1.39    1.84
   9  -4   7    0.09    1.22
   9   4   8   57.14    6.14
   9  -4   8   51.52    5.92
   9   4   8   53.39    5.87
   9  -4   8   66.71    6.77
   9   4   9   85.20    7.40
   9  -4   9   78.46    7.40
   9   4   9   97.14    7.99
   9   4  10   -0.35    1.29
   9   4  10    1.81    1.91
   9  -4  10    0.38    1.28
   9   4  11  145.09    9.80
   9  -4  11  129.22    9.55
   9   4  11  138.88   10.06
   9   4  12   36.54    5.18
   9  -4  12   35.41    4.99
   9   4  12   38.84    5.56
   9   4  13    4.06    1.86
   9   4  13    0.81    1.08
   9  -4  13    2.84    1.73
   9   4  14    7.93    2.28
   9   4  14    8.05    2.49
   9  -4  14    7.82    2.23
   9   4  15    3.60    1.99
   9   4  15    4.55    1.65
   9  -4  15    8.37    2.55
   9   4  16    1.00    1.45
   9  -4  16   -1.00    1.68
   9   4  16    2.31    1.74
   9  -4  17   73.61    7.72
   9   4  17   80.65    8.04
   9  -4  18    3.59    2.99
   9   4  18    1.55    1.64
   9  -4  19    1.43    2.05
   9   4  19    2.67    2.35
   9   4  20    2.40    2.66
   9   4  21    0.99    1.21
   9   4  22    0.10    2.26
   9   4  23    8.35    3.17
   9   4  24    1.93    1.97
   9   4  25    0.78    1.95
   9   4  26    0.29    1.78
   9  -5 -24    2.78    2.31
   9  -5 -23    3.86    2.02
   9  -5 -22    4.98    2.98
   9  -5 -21   15.91    4.41
   9  -5 -20    4.77    2.70
   9  -5 -19    9.30    3.60
   9  -5 -19    1.77    1.20
   9  -5 -18    1.53    1.71
   9  -5 -18   -0.76    1.18
   9  -5 -17    6.46    3.07
   9  -5 -17    0.50    1.42
   9   5 -17    8.29    2.69
   9   5 -16    3.21    1.77
   9  -5 -16    6.48    1.79
   9  -5 -16    5.24    2.51
   9  -5 -15   77.85    8.14
   9  -5 -15   76.02    8.11
   9   5 -15   76.55    7.94
   9   5 -14   14.14    3.35
   9  -5 -14   13.71    3.26
   9  -5 -14   15.14    3.95
   9   5 -13    1.60    1.51
   9  -5 -13    3.10    1.83
   9  -5 -13   -0.08    1.37
   9   5 -12   19.57    3.97
   9  -5 -12   21.30    3.94
   9  -5 -12   14.01    3.37
   9  -5 -11  101.49    8.70
   9  -5 -11  105.87    9.08
   9   5 -11  100.43    8.61
   9  -5 -10    5.44    2.70
   9   5 -10    2.46    1.04
   9  -5 -10    2.03    1.69
   9  -5  -9    5.08    1.69
   9   5  -9    7.33    2.94
   9  -5  -9    8.84    2.85
   9  -5  -8    1.19    1.60
   9   5  -8   -0.13    0.74
   9  -5  -8    0.31    1.06
   9  -5  -7   14.74    3.35
   9  -5  -7   19.25    3.50
   9   5  -7   21.51    3.92
   9  -5  -6   13.85    3.53
   9   5  -6   11.70    3.30
   9   5  -6   13.28    2.42
   9  -5  -6   17.61    3.63
   9   5  -5  187.04   11.37
   9   5  -5  184.87    9.97
   9  -5  -5  189.46   11.61
   9  -5  -5  193.36   11.67
   9   5  -4   26.52    4.49
   9  -5  -4   19.18    3.79
   9   5  -4   22.71    3.61
   9  -5  -4   20.55    3.99
   9   5  -3    5.31    2.29
   9  -5  -3    6.16    2.57
   9  -5  -3   10.69    2.53
   9   5  -3    4.76    1.77
   9   5  -2    5.83    2.29
   9  -5  -2    9.57    3.03
   9  -5  -2    6.30    2.34
   9   5  -2    9.10    2.58
   9   5  -1  200.46   11.71
   9   5  -1  174.06   10.34
   9  -5  -1  173.94   11.20
   9  -5  -1  188.09   11.46
   9   5   0   32.38    4.97
   9   5   0   23.13    3.87
   9  -5   0   19.46    3.99
   9  -5   0   23.93    4.12
   9   5   1  180.88   11.05
   9   5   1  168.05   10.29
   9  -5   1  183.43   11.53
   9  -5   1  167.00   10.94
   9   5   2    8.79    2.71
   9   5   2    3.55    1.76
   9  -5   2    4.48    1.91
   9  -5   2    6.72    2.17
   9   5   3    6.81    2.08
   9   5   3    5.74    2.40
   9  -5   3   10.52    2.63
   9  -5   3    8.02    2.46
   9  -5   4   23.12    4.00
   9   5   4   21.02    3.90
   9   5   4   23.71    3.81
   9  -5   4   17.62    3.39
   9  -5   5  180.68   11.35
   9   5   5  186.43   11.27
   9   5   5  175.78   10.90
   9  -5   5  191.14   11.63
   9   5   6   20.50    4.28
   9   5   6   14.82    3.20
   9  -5   6   11.43    3.49
   9  -5   6   17.98    3.43
   9   5   7   22.92    4.03
   9  -5   7   19.83    3.82
   9   5   7   19.00    3.66
   9  -5   7   20.94    3.95
   9   5   8    0.55    1.61
   9   5   8   -0.83    0.89
   9  -5   8   -0.91    1.58
   9  -5   8   -0.72    0.83
   9   5   9    4.75    1.83
   9   5   9    3.56    1.71
   9  -5   9    4.37    1.16
   9  -5   9    9.39    3.15
   9   5  10    4.61    2.29
   9   5  10    1.43    1.68
   9  -5  10    1.34    1.32
   9  -5  10    4.66    2.35
   9   5  11  106.98    8.99
   9  -5  11   96.52    8.64
   9   5  11  111.87    8.99
   9  -5  11  113.08    9.32
   9   5  12   14.01    3.78
   9   5  12   11.09    2.52
   9  -5  12   20.25    4.13
   9   5  13    0.89    0.86
   9   5  13    2.17    1.90
   9  -5  13   -0.82    0.91
   9   5  14   16.02    3.79
   9   5  14   17.42    3.78
   9  -5  14   15.76    3.90
   9   5  15   71.63    7.39
   9  -5  15   62.01    7.41
   9   5  15   77.48    7.98
   9   5  16    6.33    3.02
   9   5  16    8.74    2.39
   9  -5  16    8.65    2.97
   9   5  17    0.46    2.36
   9  -5  17    3.51    2.39
   9   5  18   -0.80    1.09
   9   5  19    6.85    3.01
   9   5  20    1.70    1.21
   9   5  21   16.55    3.89
   9   5  22    8.19    2.97
   9   5  23    2.60    1.23
   9   5  24    0.75    1.88
   9  -6 -23   -2.68    1.93
   9  -6 -22   -0.93    2.38
   9  -6 -21   -1.98    2.05
   9  -6 -20   -2.53    1.11
   9  -6 -20    0.52    1.63
   9  -6 -19    3.38    2.42
   9  -6 -19    6.48    3.22
   9  -6 -18    0.93    1.37
   9  -6 -18    1.55    2.20
   9  -6 -17    3.93    2.21
   9   6 -17    3.33    2.14
   9  -6 -17    0.08    1.90
   9   6 -16   11.55    3.68
   9  -6 -16    6.66    2.51
   9  -6 -16    9.84    3.02
   9   6 -15    9.56    3.13
   9  -6 -15   15.00    3.68
   9  -6 -15   15.07    3.71
   9   6 -14    2.12    0.81
   9  -6 -14    0.52    1.40
   9  -6 -14    0.48    1.20
   9   6 -13    8.39    2.87
   9  -6 -13   14.05    3.74
   9  -6 -13    8.24    2.99
   9   6 -12    1.55    1.20
   9  -6 -12    4.25    2.54
   9  -6 -12    6.25    2.27
   9   6 -11   -0.33    0.88
   9  -6 -11    1.65    1.83
   9  -6 -11    3.40    1.91
   9   6 -10   14.92    3.48
   9  -6 -10   11.87    3.66
   9  -6 -10   13.32    3.43
   9   6  -9   -0.17    1.43
  -9   6  -9   -1.59    1.06
  -9   6  -8   35.95    5.16
   9  -6  -8   27.66    4.96
   9  -6  -8   22.83    4.67
   9   6  -8   23.68    4.51
   9   6  -7   31.42    5.34
   9  -6  -7   28.54    5.03
   9  -6  -7   25.71    4.63
   9  -6  -6    1.20    2.25
   9   6  -6    0.10    0.77
   9  -6  -6    0.98    1.76
   9  -6  -5    3.78    1.97
   9   6  -5    5.88    2.49
   9  -6  -5    1.67    2.14
   9   6  -5    1.50    1.31
   9   6  -4    8.12    2.23
   9  -6  -4    8.46    2.84
   9   6  -4    7.36    2.26
   9  -6  -4   10.13    3.21
   9  -6  -3    1.30    2.01
   9   6  -3    1.10    1.19
   9   6  -3    6.17    1.97
   9  -6  -3    3.52    2.64
   9  -6  -2    5.35    1.85
   9   6  -2    1.67    1.72
   9   6  -2    0.96    0.75
   9  -6  -2    3.16    1.59
   9   6  -1   25.50    4.43
   9   6  -1   24.61    4.14
   9  -6  -1   29.07    4.70
   9  -6  -1   25.61    4.69
   9   6   0   27.81    4.59
   9   6   0   34.43    4.91
   9  -6   0   32.52    5.21
   9  -6   0   28.36    5.03
   9   6   1   28.31    4.44
   9   6   1   26.51    4.11
   9  -6   1   29.71    4.61
   9  -6   1   22.92    4.35
   9  -6   2    1.15    0.74
   9   6   2    2.21    1.55
   9  -6   2    1.64    1.04
   9  -6   3    1.97    1.27
   9   6   3    2.61    1.56
   9   6   3    3.13    1.66
   9  -6   3    2.84    0.82
   9   6   4    6.79    2.67
   9  -6   4    8.65    2.52
   9   6   4   11.51    2.73
   9  -6   4   10.33    3.11
   9   6   5    0.95    1.19
   9  -6   5    2.40    0.90
   9   6   5    2.83    0.91
   9  -6   5    1.56    1.40
   9   6   6    2.54    1.72
   9  -6   6   -0.80    1.51
   9   6   6    2.61    1.76
   9  -6   6    3.51    1.86
   9   6   7   34.99    5.16
   9  -6   7   20.96    4.09
   9   6   7   27.55    4.49
   9  -6   7   27.56    4.91
   9   6   8   32.28    5.07
   9   6   8   24.39    4.37
   9  -6   8   24.94    4.38
   9  -6   8   25.69    4.66
   9   6   9    0.54    1.24
   9  -6   9    3.79    2.06
   9   6   9    3.15    3.02
   9  -6   9    3.92    2.33
   9   6  10   13.81    3.19
   9  -6  10   16.99    4.06
   9   6  10   11.75    2.45
   9  -6  10   11.00    2.42
   9   6  11    0.87    1.11
   9  -6  11   -0.27    1.07
   9   6  11    1.24    0.65
   9  -6  11    1.47    1.86
   9   6  12    3.35    1.93
   9  -6  12    2.32    1.36
   9   6  12    1.48    1.88
   9  -6  12    4.00    1.71
   9   6  13    5.78    1.87
   9  -6  13    7.11    3.30
   9   6  13    8.76    2.92
   9  -6  13   11.29    3.60
   9   6  14    0.09    1.05
   9  -6  14    6.09    3.06
   9   6  14    2.49    1.36
   9  -6  14    8.92    2.98
   9   6  15   16.67    3.54
   9  -6  15   15.00    3.60
   9   6  15   12.29    3.05
   9  -6  15   15.12    3.05
   9   6  16    8.85    3.57
   9  -6  16    6.82    2.81
   9   6  16   13.18    3.24
   9   6  17    1.22    2.52
   9   6  17    1.81    1.02
   9   6  18    4.98    1.98
   9   6  19    5.77    2.58
   9   6  20   -0.08    1.47
   9   6  21    0.89    1.74
   9   6  22    2.71    1.19
   9   6  23    2.09    3.01
   9  -7 -21   10.48    3.28
   9  -7 -21    5.56    2.32
   9  -7 -20    3.11    2.24
   9  -7 -20    0.46    1.89
   9  -7 -19    3.38    2.26
   9  -7 -19    1.32    2.29
   9  -7 -18    3.40    2.76
   9  -7 -18    6.24    2.81
   9  -7 -17    4.40    2.13
   9  -7 -17    5.44    2.70
   9   7 -16    3.18    2.68
   9  -7 -16   -0.16    1.47
   9  -7 -16   -0.08    1.13
   9  -7 -15   55.17    7.04
   9  -7 -15   52.98    6.87
   9   7 -15   58.34    7.42
   9  -7 -14   -1.93    1.88
   9  -7 -14    0.37    1.01
   9  -7 -13    2.40    1.11
   9  -7 -13    1.15    0.88
   9   7 -12    1.43    1.56
   9  -7 -12    0.21    1.10
   9  -7 -12    1.41    1.68
   9  -7 -11   53.07    6.70
   9  -7 -11   60.32    7.03
   9   7 -11   61.78    7.22
   9   7 -10   11.33    3.36
   9  -7 -10   11.52    3.63
   9  -7 -10    8.81    3.18
   9   7  -9   15.24    3.23
   9  -7  -9   12.41    3.07
   9  -7  -9   19.93    3.96
   9   7  -8    4.38    2.30
  -9   7  -8    5.68    2.23
   9  -7  -8    6.81    2.54
   9  -7  -8    7.56    2.32
   9   7  -7    3.83    2.70
  -9   7  -7    2.21    1.67
   9  -7  -7    4.22    1.74
   9  -7  -7    3.03    1.27
   9   7  -6   23.52    4.55
  -9   7  -6   16.67    3.59
   9  -7  -6   18.99    4.07
   9  -7  -6   26.98    4.87
   9   7  -5   87.59    8.27
   9  -7  -5   95.46    8.69
  -9   7  -5   95.64    8.74
   9  -7  -5   83.34    8.33
   9  -7  -4    0.84    1.18
   9   7  -4    2.82    2.26
   9   7  -4    0.93    0.78
  -9   7  -4    4.21    1.30
   9  -7  -4    2.04    0.92
   9  -7  -3   10.37    2.79
   9   7  -3   13.95    3.54
   9   7  -3   12.17    3.37
  -9   7  -3    9.54    2.89
   9  -7  -3   19.05    4.02
   9  -7  -2    0.42    0.88
   9   7  -2    0.75    1.99
   9   7  -2    1.27    1.78
   9  -7  -2    1.48    1.73
   9   7  -1   44.89    6.14
   9   7  -1   62.66    6.82
   9  -7  -1   58.30    7.08
   9  -7  -1   56.86    6.92
   9   7   0  120.48    9.69
   9   7   0  113.22    9.24
   9  -7   0  108.07    9.23
   9  -7   0  107.56    9.29
   9   7   1   60.19    7.03
   9  -7   1   68.97    7.68
   9   7   1   48.41    6.12
   9  -7   1   57.50    7.01
   9  -7   2    4.79    2.92
   9   7   2    3.92    2.50
   9   7   2    0.85    2.06
   9  -7   2    1.64    1.86
   9  -7   3   14.38    3.63
   9   7   3   12.28    3.07
   9   7   3    9.28    2.36
   9  -7   3   13.78    3.38
   9  -7   4    0.59    0.96
   9   7   4    0.18    1.54
   9   7   4    0.85    1.21
   9  -7   4   -0.73    1.85
   9   7   5   79.64    8.14
   9   7   5   78.03    7.93
   9  -7   5   86.90    8.50
   9  -7   5   76.55    8.08
   9  -7   6   24.85    4.51
   9   7   6   25.63    4.54
   9   7   6   25.43    4.57
   9  -7   6   17.52    3.76
   9  -7   7    2.11    2.22
   9   7   7    2.51    1.33
   9   7   7    8.85    2.70
   9  -7   7    7.47    2.77
   9  -7   8    6.44    3.04
   9   7   8    5.68    2.58
   9   7   8    6.83    2.46
   9  -7   8    6.76    2.78
   9  -7   9   20.79    3.99
   9   7   9   17.73    3.47
   9   7   9   18.60    3.95
   9  -7   9   20.93    4.55
   9  -7  10    3.23    2.09
   9   7  10    5.49    1.95
   9   7  10   12.98    3.27
   9  -7  10    8.73    3.34
   9   7  11   65.92    7.51
   9   7  11   61.85    7.09
   9  -7  11   76.59    7.97
   9  -7  11   64.18    7.25
   9  -7  12   -0.05    1.20
   9   7  12    0.93    1.07
   9  -7  12    1.33    1.17
   9  -7  13    0.86    1.09
   9   7  13    1.68    1.07
   9  -7  14    1.97    2.22
   9   7  14    3.56    2.24
   9   7  14    1.19    0.96
   9   7  15   59.16    7.38
   9   7  15   50.70    6.47
   9  -7  15   53.88    7.01
   9   7  16    3.44    2.38
   9   7  16   -0.15    0.94
   9   7  17    2.39    2.28
   9   7  17   13.99    3.75
   9   7  18    2.37    2.49
   9   7  19    1.11    2.37
  -9   7  19    3.24    1.73
   9   7  20    6.47    2.81
  -9   7  20    6.20    2.96
   9   7  21    6.63    3.21
  -9   7  21   11.37    3.45
   9  -8 -18    3.32    1.37
   9  -8 -18    0.99    1.36
   9  -8 -17   -3.50    3.18
   9  -8 -17    1.16    1.73
   9  -8 -16   -2.46    2.66
   9  -8 -16    1.26    1.27
   9   8 -15    0.90    2.03
   9  -8 -15    0.50    1.21
   9  -8 -15    0.38    1.23
   9   8 -14    3.09    2.77
   9  -8 -14    6.08    2.91
   9  -8 -14   -0.12    1.87
   9   8 -13    0.68    1.93
   9  -8 -13   -0.14    1.46
   9  -8 -13    2.52    2.29
   9   8 -12    1.22    1.02
   9  -8 -12   -0.35    1.13
   9  -8 -12    0.87    1.08
   9   8 -11    5.01    2.40
   9  -8 -11    2.07    1.34
   9  -8 -11    2.88    0.99
   9   8 -10    4.61    2.79
   9  -8 -10    2.72    1.42
   9  -8 -10    2.45    1.11
   9   8  -9    1.95    2.35
   9  -8  -9    1.51    1.88
   9  -8  -9   -0.02    1.09
   9   8  -8    4.01    2.64
   9  -8  -8    4.25    2.13
   9  -8  -8    7.07    2.99
   9   8  -7    4.54    2.49
  -9   8  -7    0.92    1.67
   9  -8  -7    1.48    1.30
   9  -8  -7    1.80    2.24
   9   8  -6   13.58    3.81
   9  -8  -6    9.12    2.77
  -9   8  -6   12.72    3.21
   9  -8  -6   12.21    3.35
   9   8  -5   -1.62    0.85
  -9   8  -5    0.44    1.63
   9  -8  -5   -0.77    0.85
   9   8  -4    2.03    2.12
  -9   8  -4    2.38    1.69
   9  -8  -4    5.44    2.35
   9  -8  -4    3.53    2.43
   9   8  -3    0.04    1.30
   9   8  -3   -2.77    1.51
  -9   8  -3    1.12    1.72
   9  -8  -3    5.58    2.16
   9  -8  -3    7.02    3.15
   9   8  -2    7.07    2.59
   9   8  -2   10.19    2.41
  -9   8  -2    4.96    1.69
   9  -8  -2    5.01    2.60
   9  -8  -2   10.70    3.37
   9  -8  -1    0.17    1.55
  -9   8  -1    1.90    2.23
   9   8  -1    2.01    2.38
   9   8  -1    0.81    1.31
   9  -8  -1    2.12    1.08
   9  -8   0    2.97    1.29
   9   8   0    0.79    0.92
  -9   8   0    0.28    1.55
   9  -8   0    2.20    2.54
   9  -8   1    2.40    2.25
   9   8   1    0.77    0.96
   9   8   1    2.13    1.02
  -9   8   1    3.13    1.98
   9  -8   1    2.72    2.43
   9  -8   2    5.72    1.84
   9   8   2    8.50    1.38
  -9   8   2    8.25    2.91
   9   8   2    9.32    2.43
   9  -8   2    6.54    2.87
   9  -8   3    1.35    2.05
   9   8   3    3.85    2.21
  -9   8   3   -1.43    1.74
   9   8   3    6.61    2.98
   9  -8   3    2.77    2.13
  -9   8   4   -0.21    1.08
   9  -8   4    3.45    1.06
   9   8   4   -0.25    2.04
   9  -8   4    2.33    1.51
   9  -8   5    4.31    1.29
   9   8   5    2.74    2.54
  -9   8   5   -0.92    1.32
   9   8   5   -1.20    1.28
   9  -8   5   -1.09    1.01
   9  -8   6   18.77    4.47
   9   8   6   12.83    3.34
  -9   8   6    9.63    3.10
   9   8   6    7.40    3.00
   9  -8   6   17.08    3.77
   9  -8   7    3.49    2.36
   9   8   7    7.66    2.73
  -9   8   7    2.07    2.33
   9   8   7    2.19    1.14
   9  -8   8   -0.95    1.90
   9   8   8    0.72    1.29
   9   8   8    1.87    1.10
   9  -8   9    0.96    1.58
  -9   8   9    0.98    1.78
   9   8   9   -0.68    0.93
   9   8   9   -1.27    1.19
   9  -8  10    3.09    2.77
   9   8  10    2.13    1.38
  -9   8  10    2.35    1.00
   9   8  10    1.71    1.51
   9  -8  11    2.75    2.38
   9   8  11    3.89    1.11
  -9   8  11    4.22    2.08
   9   8  11    4.99    2.47
   9  -8  12    0.33    1.22
   9   8  12   -2.00    2.24
  -9   8  12    0.37    1.92
   9   8  12    2.02    0.90
   9  -8  13    2.44    1.61
   9   8  13    0.20    2.43
   9   8  13    3.41    1.36
  -9   8  13    0.15    1.13
   9   8  14    1.36    1.70
   9   8  14    1.07    2.43
  -9   8  14    1.60    1.82
   9   8  15    1.18    1.60
   9   8  15   -0.86    1.59
  -9   8  15   -1.22    1.67
   9   8  16   -0.38    2.63
   9   8  16   -0.04    1.31
  -9   8  16    2.48    2.48
   9   8  17   -0.91    1.80
   9   8  17   -2.09    1.55
  -9   8  17   -2.49    2.16
   9   8  18   -1.14    1.71
  -9   8  18   -0.45    2.12
   9   9 -14    0.98    2.86
   9  -9 -14   -0.40    2.43
   9  -9 -14   -2.10    1.84
   9   9 -13    3.89    1.44
   9  -9 -13    1.29    1.16
   9  -9 -13    3.39    2.42
   9   9 -12    1.91    1.50
   9  -9 -12    2.78    1.89
   9  -9 -12    1.07    1.19
   9   9 -11   15.04    3.64
   9  -9 -11   12.78    4.00
   9  -9 -11   18.47    4.10
   9   9 -10   22.53    4.85
   9  -9 -10   17.81    4.29
   9  -9 -10   24.05    4.95
   9   9  -9   11.41    3.04
   9  -9  -9   15.04    4.31
   9  -9  -9   12.45    3.56
   9   9  -8    1.99    0.84
   9  -9  -8    0.44    1.32
   9  -9  -8   -0.29    2.29
   9   9  -7   13.91    3.67
   9  -9  -7    7.38    2.73
   9  -9  -7    7.60    2.50
   9   9  -6   12.86    4.01
  -9   9  -6   13.76    3.82
   9  -9  -6   15.16    4.63
   9  -9  -6   11.82    3.48
   9   9  -5   54.57    7.30
  -9   9  -5   32.64    5.98
   9  -9  -5   48.78    6.77
   9  -9  -5   37.10    6.03
   9   9  -4    2.11    1.46
  -9   9  -4    6.56    2.58
   9  -9  -4    1.58    2.41
   9  -9  -4    2.81    2.17
   9  -9  -3   -1.16    1.45
   9   9  -3    1.67    2.51
  -9   9  -3   -1.07    2.06
   9  -9  -3    0.54    2.42
   9   9  -2    1.95    1.98
  -9   9  -2   -0.20    1.13
   9  -9  -2   -0.52    1.95
   9  -9  -2   -0.83    1.53
   9   9  -1   22.36    4.69
  -9   9  -1   22.59    4.50
   9   9  -1   28.21    4.84
   9  -9  -1   16.93    4.35
   9  -9  -1   23.43    5.01
   9   9   0   29.33    5.10
  -9   9   0   27.42    5.04
   9   9   0   24.37    5.30
   9  -9   0   24.10    4.74
   9  -9   0   31.45    5.24
   9   9   1   22.01    4.81
  -9   9   1   25.09    4.94
   9   9   1   17.68    4.17
   9  -9   1   24.28    5.07
   9   9   2    2.12    2.75
  -9   9   2   -1.08    2.03
   9   9   2    0.33    0.87
   9  -9   2    1.35    2.24
   9   9   3    0.54    1.43
  -9   9   3   -0.58    1.04
   9   9   3    0.32    1.05
   9  -9   3   -0.06    1.47
   9   9   4    4.25    2.78
  -9   9   4    4.54    1.99
   9   9   4    3.10    1.99
   9  -9   4    2.51    2.24
   9   9   5   56.57    7.28
  -9   9   5   43.74    6.88
   9   9   5   48.36    6.62
   9  -9   5   44.68    6.67
   9   9   6   13.12    3.96
  -9   9   6   16.52    4.01
   9   9   6   13.30    3.44
   9  -9   6    9.65    3.04
   9  -9   7    8.04    2.45
   9   9   7    7.92    2.34
  -9   9   7   10.26    3.63
   9   9   7    8.97    2.87
   9  -9   8   -3.55    2.00
   9   9   8   -1.91    1.13
  -9   9   8    0.55    1.81
   9   9   8   -0.99    1.01
   9  -9   9   16.08    4.22
   9   9   9    9.08    2.61
  -9   9   9   13.29    3.93
   9   9   9   14.09    3.86
   9  -9  10   26.26    4.95
   9   9  10   19.02    5.00
  -9   9  10   23.67    4.82
   9   9  10   20.13    4.50
   9  -9  11   16.37    4.28
   9   9  11   16.40    3.84
  -9   9  11   17.03    4.45
   9   9  11   18.18    4.63
   9  -9  12    2.80    1.28
   9   9  12    0.87    1.39
  -9   9  12   -0.13    1.05
   9   9  12    2.37    0.95
   9   9  13    0.17    1.33
  -9   9  13    0.60    1.77
   9   9  14   -0.54    1.65
  -9   9  14   -0.81    1.02
   9   9  14    0.23    1.39
   9  10  -9   17.32    4.60
   9 -10  -9    8.56    2.96
   9 -10  -9   20.83    4.59
   9 -10  -8    9.49    2.84
   9 -10  -8   10.85    3.29
   9  10  -7    1.12    1.95
   9 -10  -7    1.99    1.81
   9  10  -6   19.06    4.53
   9 -10  -6   29.13    5.51
   9  10  -5    8.76    3.14
  -9  10  -5    5.78    2.61
   9 -10  -5   11.05    3.53
   9  10  -4    1.57    1.39
  -9  10  -4    0.54    2.08
   9 -10  -4    4.77    3.35
   9  10  -3   -0.56    1.09
  -9  10  -3    0.07    2.00
   9 -10  -3   -1.59    1.94
   9  10  -2   11.05    2.74
  -9  10  -2    9.51    2.79
   9 -10  -2   13.67    3.28
   9  10  -1   -0.37    1.94
   9 -10  -1    2.15    1.71
   9  10   0   43.66    6.52
  -9  10   0   35.27    6.21
   9 -10   0   41.34    6.56
   9  10   1    2.98    2.22
  -9  10   1    3.12    2.67
   9  10   1    3.15    2.13
   9 -10   1   -1.38    1.39
   9  10   2   12.79    4.03
  -9  10   2   15.03    3.36
   9  10   2   12.54    3.50
   9 -10   2   19.40    4.43
   9  10   3   -0.69    1.28
  -9  10   3    0.04    2.18
   9  10   3   -0.95    2.42
   9 -10   3   -1.43    1.19
   9  10   4    3.10    1.90
  -9  10   4    2.64    1.09
   9  10   4    0.51    0.77
   9 -10   4    4.49    2.59
   9  10   5    5.44    3.11
  -9  10   5    3.20    2.74
   9  10   5    4.90    2.23
   9 -10   5    4.28    2.50
   9  10   6   19.57    4.88
   9  10   6   23.23    5.06
   9 -10   6   29.00    5.74
   9  10   7   -0.21    1.92
  -9  10   7    4.92    3.31
   9  10   7    2.12    2.37
   9 -10   7    3.81    1.87
   9  10   8   11.60    3.36
   9  10   8   14.14    4.04
  -9  10   8   15.32    4.11
   9 -10   8   23.88    5.15
   9  10   9   16.28    4.17
  -9  10   9   19.26    4.60
   9  10   9   13.81    3.46
   9 -10   9    8.76    4.21
  10   0 -26   -0.87    2.40
  10   0 -25    1.31    1.19
  10   0 -24   19.00    4.55
  10   0 -23   34.67    5.63
  10   0 -22   25.08    4.95
  10   0 -21   57.43    7.03
  10   0 -20   29.88    5.35
  10   0 -19   45.09    5.93
  10   0 -18   89.63    8.29
  10   0 -17  104.43    8.80
  10   0 -16   44.57    5.82
  10   0 -15  115.25    9.14
  10   0 -14   69.45    6.89
  10   0 -13  102.33    8.46
  10   0 -12  137.48    9.55
  10   0 -12  139.47    8.71
  10   0 -11  118.25    7.99
  10   0 -11  132.33    9.20
  10   0 -10   46.70    5.08
  10   0 -10   49.65    5.69
  10   0  -9  112.72    7.75
  10   0  -9  110.72    8.47
  10   0  -8  104.02    7.50
  10   0  -8  114.00    8.27
  10   0  -7   76.90    6.37
  10   0  -7   80.50    7.00
  10   0  -7   84.17    6.87
  10   0  -6   31.75    4.20
  10   0  -6   28.61    4.05
  10   0  -6   33.31    4.44
  10   0  -5  105.87    7.47
  10   0  -5  105.44    7.83
  10   0  -5  107.78    7.78
  10   0  -4  152.27    9.32
  10   0  -4  137.18    8.55
  10   0  -3  148.25    8.86
  10   0  -3  143.67    9.02
  10   0  -3  154.12    9.03
  10   0  -2  109.77    7.50
  10   0  -2  103.13    7.61
  10   0  -2  107.45    7.56
  10   0  -1   53.77    5.46
  10   0  -1   54.64    5.55
  10   0  -1   50.00    5.05
  10   0   0   -0.01    0.92
  10   0   0    0.21    1.08
  10   0   0    2.71    1.57
  10   0   1   46.56    5.09
  10   0   1   59.95    5.87
  10   0   1   59.89    5.53
  10   0   2  100.02    7.48
  10   0   2   93.61    6.79
  10   0   3  137.81    8.88
  10   0   3  147.41    8.51
  10   0   4  138.21    8.83
  10   0   4  146.86    8.51
  10   0   5  125.45    8.41
  10   0   5   97.24    6.96
  10   0   6   32.31    4.29
  10   0   6   24.11    3.37
  10   0   7   88.21    7.24
  10   0   7   64.16    5.48
  10   0   8  115.55    8.39
  10   0   8   98.57    7.01
  10   0   9  103.18    8.14
  10   0   9  107.96    7.14
  10   0  10   50.86    5.66
  10   0  10   40.51    4.35
  10   0  11  115.65    8.79
  10   0  11  126.46    7.63
  10   0  12  149.36   10.03
  10   0  12  142.56    8.09
  10   0  13  121.58    9.30
  10   0  14   64.81    6.90
  10   0  15  125.76    9.73
  10   0  16   42.16    5.55
  10   0  17  110.09    9.22
  10   0  18   92.12    8.70
  10   0  19   23.55    4.46
  10   0  20   25.15    4.84
  10   0  21   62.97    7.56
  10   0  22   13.69    4.18
  10   0  23   44.50    6.65
  10   0  24   23.45    5.20
  10  -1 -27   -1.54    1.60
  10  -1 -26    0.99    1.20
  10  -1 -25    0.55    1.84
  10  -1 -24    1.78    1.68
  10  -1 -23    0.75    2.16
  10  -1 -22    5.84    2.73
  10   1 -21    5.54    2.81
  10  -1 -21    2.24    1.42
  10   1 -20    0.48    1.00
  10  -1 -20    1.09    2.13
  10   1 -19    1.90    1.21
  10  -1 -19    1.88    0.92
  10   1 -18    2.83    1.00
  10  -1 -18    1.79    1.41
  10   1 -17    5.36    2.50
  10  -1 -17    6.70    2.70
  10   1 -16    2.59    1.61
  10  -1 -16    2.71    1.81
  10   1 -15    5.97    2.41
  10  -1 -15    6.41    2.87
  10  -1 -14    0.49    1.55
  10   1 -14   -0.06    0.76
  10  -1 -14    1.35    1.67
  10  -1 -13   15.36    3.02
  10   1 -13   12.29    2.97
  10  -1 -13    7.52    2.68
  10   1 -13   15.51    3.41
  10  -1 -12   13.69    3.02
  10   1 -12   13.21    3.13
  10  -1 -12   13.28    3.12
  10   1 -12   12.01    3.16
  10  -1 -11    0.37    1.06
  10   1 -11   -0.41    0.72
  10   1 -11    0.04    1.32
  10  -1 -11   -0.22    1.69
  10   1 -11    0.59    0.76
  10  -1 -10    2.25    1.15
  10   1 -10    1.83    1.43
  10  -1 -10    1.28    1.43
  10   1 -10    1.87    1.14
  10   1 -10    1.69    1.55
  10  -1  -9    2.97    1.46
  10   1  -9    1.61    0.49
  10  -1  -9    6.60    2.31
  10   1  -9    8.30    2.38
  10   1  -9    4.41    1.77
  10  -1  -8    1.39    1.09
  10   1  -8    0.61    0.63
  10  -1  -8    0.72    1.41
  10   1  -8    0.69    1.36
  10   1  -8    2.16    1.48
  10  -1  -7   22.01    3.57
  10   1  -7   21.48    3.30
  10  -1  -7   21.70    3.72
  10   1  -7   17.12    3.04
  10   1  -7   12.01    2.79
  10   1  -6   12.74    2.83
  10  -1  -6    9.36    2.27
  10  -1  -6    7.38    2.25
  10   1  -6    8.50    2.06
  10   1  -6    9.99    2.39
  10  -1  -5    1.51    1.54
  10  -1  -5    1.04    0.67
  10   1  -5    0.04    0.82
  10   1  -5    1.07    1.19
  10   1  -5    0.24    0.90
  10  -1  -4    0.16    0.53
  10  -1  -4    3.96    1.61
  10   1  -4    3.11    1.55
  10   1  -4    2.05    1.37
  10   1  -4    3.65    1.37
  10  -1  -3    4.82    1.83
  10  -1  -3    1.99    1.28
  10   1  -3    3.10    1.67
  10   1  -3    3.04    1.16
  10   1  -3    2.76    1.70
  10  -1  -2    2.18    1.16
  10  -1  -2    6.25    2.07
  10   1  -2    1.76    1.45
  10   1  -2    4.03    1.20
  10   1  -2    2.33    1.31
  10  -1  -1   17.68    3.21
  10   1  -1   20.33    3.22
  10  -1  -1   17.51    3.29
  10   1  -1   17.10    2.94
  10   1  -1   16.96    2.96
  10   1   0    9.84    2.45
  10  -1   0   12.51    2.56
  10  -1   0   10.82    2.73
  10   1   0   11.25    2.47
  10   1   0   13.70    2.70
  10  -1   1   16.32    2.99
  10   1   1   15.38    2.96
  10  -1   1   16.85    3.02
  10   1   1   19.00    3.31
  10   1   2    8.05    2.12
  10  -1   2    4.27    1.49
  10  -1   2    3.62    1.63
  10   1   2    5.24    1.72
  10   1   3    2.04    1.20
  10  -1   3    4.03    2.11
  10   1   3    4.89    1.55
  10   1   4    2.51    1.50
  10  -1   4    3.05    0.85
  10   1   4    2.60    1.26
  10   1   5    1.12    1.08
  10  -1   5    0.56    1.41
  10   1   5    0.58    1.07
  10   1   6    7.89    2.05
  10  -1   6    8.35    2.50
  10   1   6    9.00    2.20
  10   1   7   14.48    3.12
  10   1   7   16.37    2.90
  10  -1   7   16.82    3.14
  10   1   8    0.89    1.03
  10  -1   8    1.48    1.35
  10   1   8    0.50    0.72
  10   1   9    3.72    1.65
  10  -1   9    5.41    1.83
  10   1   9    2.68    1.40
  10   1  10   -0.23    1.17
  10  -1  10    2.68    1.46
  10   1  10    1.33    0.69
  10   1  11    1.24    0.93
  10  -1  11   -0.08    1.48
  10   1  11    1.16    1.54
  10   1  12   19.61    3.85
  10  -1  12   14.97    3.41
  10   1  12   12.32    2.63
  10   1  13   13.61    3.05
  10   1  13   13.77    2.52
  10  -1  13   11.36    2.65
  10   1  14   -0.37    1.43
  10  -1  14   -1.29    1.46
  10   1  15    6.27    2.06
  10  -1  15   10.83    3.08
  10   1  16    5.35    2.14
  10  -1  16    4.00    1.70
  10   1  17    4.49    2.18
  10  -1  17    7.30    2.66
  10   1  18    3.62    1.64
  10  -1  18    1.01    1.38
  10   1  19    1.28    1.27
  10  -1  19    3.14    1.33
  10   1  20    2.16    1.19
  10  -1  20    2.23    2.08
  10   1  21    3.99    2.20
  10  -1  21    3.62    2.01
  10   1  22    2.31    1.56
  10  -1  22    1.14    1.29
  10   1  23    1.71    2.11
  10  -1  23    2.13    2.89
  10   1  24   -0.03    1.67
  10   1  25    3.99    2.15
  10  -2 -26    3.32    2.83
  10  -2 -25    8.74    3.02
  10  -2 -24   16.17    4.12
  10  -2 -23    7.77    3.13
  10  -2 -22   17.38    4.13
  10  -2 -21   11.47    3.70
  10  -2 -20    2.64    1.86
  10  -2 -19   13.75    3.40
  10  -2 -18   60.33    6.90
  10  -2 -17   46.61    6.17
  10  -2 -16   28.49    4.57
  10   2 -16   19.24    3.92
  10   2 -15   70.54    6.75
  10  -2 -15   74.78    7.64
  10  -2 -15   61.52    6.40
  10   2 -15   64.62    6.68
  10   2 -14   33.76    4.57
  10  -2 -14   40.83    5.50
  10  -2 -14   38.46    5.35
  10   2 -13   44.88    5.36
  10  -2 -13   61.62    6.81
  10  -2 -13   53.84    6.04
  10   2 -13   37.90    5.10
  10   2 -12  101.01    7.89
  10  -2 -12  101.83    8.59
  10   2 -12  102.49    8.01
  10  -2 -12  104.98    8.42
  10   2 -11  161.66    9.76
  10  -2 -11  157.52   10.56
  10   2 -11  144.40    9.79
  10  -2 -11  176.25   10.50
  10   2 -10   58.71    5.50
  10   2 -10   42.81    5.00
  10  -2 -10   45.36    5.47
  10   2 -10   54.30    5.90
  10  -2 -10   47.47    5.47
  10  -2  -9  106.57    8.63
  10   2  -9   87.75    6.46
  10   2  -9  100.90    7.61
  10   2  -9  100.39    7.94
  10  -2  -9  101.04    8.13
  10  -2  -8  100.72    7.88
  10   2  -8   97.49    6.67
  10  -2  -8   97.11    7.93
  10   2  -8   93.54    7.26
  10   2  -8  106.07    8.17
  10  -2  -7   32.45    4.29
  10   2  -7   45.86    4.75
  10  -2  -7   34.02    4.80
  10   2  -7   41.89    4.78
  10   2  -7   39.67    4.98
  10  -2  -6   34.25    4.50
  10  -2  -6   49.22    5.70
  10   2  -6   50.19    5.23
  10   2  -6   49.20    5.03
  10   2  -6   47.84    5.32
  10  -2  -5  110.39    8.44
  10  -2  -5  102.33    7.74
  10   2  -5  125.71    7.99
  10   2  -5  131.86    8.31
  10   2  -5  123.60    8.66
  10  -2  -4   68.53    6.80
  10   2  -4   85.54    6.58
  10   2  -4   77.89    6.31
  10   2  -4   83.78    7.05
  10   2  -3  142.87    8.61
  10  -2  -3  141.80    9.47
  10   2  -3  155.77    8.99
  10   2  -3  144.02    9.24
  10  -2  -2  210.50   11.25
  10  -2  -2  209.97   11.51
  10   2  -2  205.58   10.40
  10   2  -2  204.81   10.49
  10  -2  -1  127.00    8.68
  10  -2  -1  125.99    9.02
  10   2  -1  142.88    8.66
  10   2  -1  131.91    8.36
  10   2  -1  129.50    8.48
  10  -2   0   32.91    4.36
  10  -2   0   35.32    4.92
  10   2   0   36.00    4.64
  10   2   0   37.92    4.70
  10  -2   1  134.47    9.07
  10  -2   1  144.27    9.51
  10   2   1  132.51    8.62
  10   2   1  134.50    8.66
  10  -2   2  232.16   11.85
  10  -2   2  217.89   11.73
  10   2   2  218.46   11.05
  10   2   2  191.81   10.48
  10  -2   3  136.51    9.29
  10  -2   3  148.01    9.56
  10   2   3  152.38    9.24
  10   2   3  133.91    8.76
  10  -2   4   81.90    7.14
  10  -2   4   80.69    7.12
  10   2   4   91.90    7.15
  10   2   4   85.96    7.05
  10  -2   5  108.66    8.20
  10   2   5  103.45    7.54
  10  -2   6   46.57    5.47
  10   2   6   57.95    5.61
  10   2   6   50.68    5.47
  10  -2   7   37.29    4.91
  10   2   7   35.27    4.57
  10   2   7   47.31    5.60
  10  -2   8  107.16    8.28
  10   2   8  114.76    7.96
  10   2   8  122.50    8.90
  10   2   9   92.43    7.99
  10  -2   9  100.37    8.32
  10   2   9  100.63    7.65
  10   2  10   52.54    6.13
  10  -2  10   47.62    5.63
  10   2  10   46.71    5.03
  10   2  11  174.20   11.03
  10  -2  11  158.71   10.47
  10   2  11  167.85    9.69
  10   2  12  110.31    8.95
  10  -2  12  107.54    8.65
  10   2  12   99.08    7.36
  10   2  13   49.89    6.12
  10  -2  13   38.74    5.34
  10   2  13   51.41    5.41
  10   2  14   42.91    5.68
  10  -2  14   44.22    5.88
  10   2  14   46.25    5.24
  10   2  15   70.23    7.36
  10  -2  15   68.90    7.24
  10  -2  16   24.07    4.53
  10   2  16   20.05    4.11
  10  -2  17   47.61    6.15
  10   2  17   55.59    6.78
  10  -2  18   55.52    6.74
  10   2  18   50.17    6.60
  10   2  19   16.86    4.14
  10  -2  19   19.74    3.83
  10   2  20    4.13    1.55
  10  -2  20    4.70    1.70
  10   2  21   18.62    4.10
  10  -2  21   19.40    4.30
  10   2  22   14.97    4.04
  10  -2  22    5.56    2.23
  10   2  23    6.06    1.93
  10   2  24   13.20    3.71
  10   2  25   12.94    4.02
  10   2  26    1.22    1.82
  10  -3 -26    1.46    1.47
  10  -3 -25   -0.16    1.32
  10  -3 -24   -0.79    1.98
  10  -3 -23    2.13    1.66
  10  -3 -22    2.83    2.37
  10  -3 -21   -1.13    1.35
  10  -3 -20    0.16    2.27
  10  -3 -19   -1.36    1.99
  10   3 -19   -1.61    1.87
  10  -3 -18    1.20    1.55
  10   3 -18    2.19    1.86
  10  -3 -17   -0.36    1.36
  10  -3 -17   -3.20    1.57
  10   3 -17   -0.48    1.80
  10  -3 -16    1.90    1.55
  10  -3 -16    1.15    0.97
  10  -3 -15   -1.56    1.62
  10   3 -15    0.58    1.25
  10  -3 -15   -0.29    0.71
  10  -3 -14    1.38    0.72
  10  -3 -14    0.11    1.05
  10   3 -14    1.31    1.73
  10  -3 -13    5.31    1.63
  10  -3 -13   12.24    3.10
  10   3 -13    9.83    2.46
  10  -3 -12    7.11    2.34
  10  -3 -12    2.55    1.31
  10   3 -12    7.18    2.53
  10  -3 -11   -0.95    0.97
  10  -3 -11   -0.65    0.66
  10   3 -10   20.20    3.46
  10  -3 -10   13.73    2.75
  10  -3 -10   12.57    3.20
  10   3  -9    2.11    1.40
  10  -3  -9    3.65    1.43
  10  -3  -9    3.53    1.54
  10   3  -9    3.36    1.06
  10   3  -8    0.88    1.35
  10  -3  -8   -0.30    1.45
  10  -3  -8    0.15    1.93
  10   3  -8    0.25    1.04
  10   3  -8   -0.23    0.52
  10   3  -7   10.92    3.10
  10   3  -7   15.28    2.75
  10  -3  -7   10.42    3.16
  10  -3  -7   15.55    3.11
  10   3  -7   12.40    2.42
  10   3  -6    8.98    2.51
  10   3  -6    8.97    2.22
  10  -3  -6    7.91    2.54
  10  -3  -6    8.42    1.87
  10   3  -6    9.00    2.16
  10   3  -5    1.70    1.60
  10   3  -5   -0.39    0.66
  10  -3  -5    0.93    0.80
  10  -3  -5    0.85    0.94
  10   3  -5    0.51    0.62
  10   3  -4   13.35    3.18
  10   3  -4   14.12    2.85
  10  -3  -4    9.55    2.43
  10  -3  -4   12.92    3.43
  10   3  -4   12.93    2.39
  10   3  -3    2.00    1.65
  10   3  -3    2.99    0.84
  10  -3  -3    1.98    1.07
  10  -3  -3    4.02    2.10
  10   3  -3    1.28    1.11
  10   3  -2    5.72    2.05
  10  -3  -2    3.87    2.04
  10   3  -2    4.28    1.75
  10  -3  -2    5.40    2.02
  10   3  -2    4.19    1.21
  10   3  -1   11.95    2.87
  10  -3  -1    5.41    1.66
  10   3  -1    9.45    2.35
  10  -3  -1    9.38    2.56
  10   3  -1    5.48    1.87
  10   3   0    8.78    2.31
  10  -3   0    9.58    2.24
  10   3   0    7.01    2.04
  10  -3   0    5.35    2.37
  10   3   1    2.81    1.17
  10  -3   1   11.59    2.57
  10   3   1    9.31    2.24
  10  -3   1    7.96    2.11
  10   3   2    2.85    1.74
  10  -3   2    7.96    2.48
  10   3   2    3.56    1.37
  10  -3   2    6.63    2.04
  10   3   3    1.69    1.37
  10  -3   3    3.45    1.59
  10   3   3    0.79    1.42
  10  -3   3    1.63    1.04
  10   3   4   14.92    2.73
  10  -3   4   14.71    3.07
  10   3   4   15.64    3.06
  10  -3   4   15.43    3.05
  10   3   5    0.10    1.11
  10  -3   5   -0.37    1.02
  10   3   5    0.50    0.76
  10   3   6    8.01    2.46
  10  -3   6   12.04    2.69
  10   3   6    6.10    1.92
  10  -3   6    8.10    2.78
  10   3   7   17.47    3.12
  10  -3   7    8.70    2.34
  10   3   7   13.58    3.19
  10   3   8    0.57    1.84
  10  -3   8    0.24    1.37
  10   3   8   -0.09    0.71
  10   3   9    2.14    0.97
  10  -3   9    3.15    2.10
  10   3   9    3.34    2.34
  10   3  10   18.17    3.47
  10  -3  10   18.10    3.63
  10   3  10   16.97    3.58
  10   3  11    1.24    1.79
  10  -3  11    0.94    1.19
  10   3  11    2.42    1.98
  10   3  12    9.13    2.85
  10  -3  12    5.55    2.44
  10   3  12    4.22    1.79
  10   3  13    8.02    2.75
  10  -3  13    3.89    2.25
  10   3  13    6.92    2.67
  10   3  14   -0.82    1.28
  10  -3  14   -0.42    1.52
  10   3  14    1.16    1.42
  10   3  15   -2.01    1.64
  10  -3  15    1.60    1.23
  10   3  15   -0.05    1.16
  10  -3  16    5.34    2.30
  10   3  16    9.14    2.71
  10  -3  17   -0.01    1.05
  10   3  17    1.10    1.27
  10  -3  18    3.58    2.28
  10   3  18    0.52    1.41
  10   3  19   -0.81    2.20
  10  -3  19    2.50    1.63
  10   3  20   -1.78    2.45
  10  -3  20    1.98    1.44
  10   3  21   -1.46    1.59
  10  -3  21   -1.11    1.69
  10   3  22    4.03    2.30
  10   3  23    2.18    1.61
  10   3  24   -1.71    2.24
  10   3  25   -0.53    1.66
  10   3  26   -0.56    1.74
  10  -4 -25   17.94    4.58
  10  -4 -24    9.93    3.18
  10  -4 -23    2.35    2.58
  10  -4 -22   12.80    3.77
  10  -4 -21    5.55    3.11
  10  -4 -20    7.58    3.19
  10  -4 -19    9.96    2.85
  10   4 -19   25.07    5.14
  10  -4 -18   26.58    4.65
  10   4 -18   23.79    4.22
  10  -4 -17   29.13    4.95
  10  -4 -17   24.01    4.76
  10   4 -17   19.72    4.31
  10  -4 -16   18.56    4.04
  10  -4 -16   18.28    4.20
  10   4 -16   17.77    3.72
  10  -4 -15   37.13    5.72
  10  -4 -15   38.24    5.67
  10   4 -15   40.90    5.72
  10  -4 -14   52.66    6.53
  10  -4 -14   37.43    5.35
  10   4 -14   45.98    6.10
  10  -4 -13   37.96    5.48
  10  -4 -13   30.88    4.80
  10   4 -13   48.92    6.18
  10  -4 -12   64.27    7.10
  10  -4 -12   47.55    6.06
  10   4 -12   68.34    7.07
  10  -4 -11   97.24    8.64
  10  -4 -11  102.75    8.93
  10   4 -11   99.17    8.53
  10  -4 -10   36.57    5.44
  10  -4 -10   35.36    5.34
  10   4 -10   34.79    5.06
  10  -4  -9   45.19    5.73
  10  -4  -9   44.78    5.72
  10   4  -9   47.20    5.73
  10  -4  -8   66.87    7.20
  10  -4  -8   51.35    6.21
  10   4  -8   70.67    7.04
  10   4  -7   15.42    2.97
  10  -4  -7   25.32    4.56
  10  -4  -7   19.96    4.07
  10   4  -7   17.27    3.92
  10  -4  -6   22.28    4.00
  10   4  -6   26.37    3.75
  10  -4  -6   20.35    4.00
  10   4  -6   33.52    4.96
  10  -4  -5   72.26    7.32
  10   4  -5   60.51    5.70
  10   4  -5   65.29    6.49
  10  -4  -5   60.51    6.50
  10  -4  -4   29.01    4.56
  10   4  -4   24.33    4.10
  10   4  -4   35.24    4.40
  10  -4  -4   40.51    5.37
  10  -4  -3   37.12    5.05
  10   4  -3   33.04    4.34
  10  -4  -3   40.08    5.43
  10   4  -3   34.35    4.15
  10   4  -3   38.80    5.01
  10  -4  -2  131.85    9.53
  10   4  -2  117.84    8.30
  10  -4  -2  113.12    8.85
  10   4  -2  119.85    7.80
  10   4  -2  121.70    8.94
  10  -4  -1  103.53    8.46
  10   4  -1   99.53    7.65
  10  -4  -1   96.54    8.27
  10   4  -1  114.42    7.66
  10   4  -1  102.08    8.16
  10  -4   0   68.39    6.85
  10   4   0   67.76    6.40
  10  -4   0   55.59    6.12
  10   4   0   73.82    7.05
  10  -4   1  118.83    8.96
  10   4   1  106.62    8.04
  10  -4   1  112.35    9.00
  10   4   1  112.85    8.69
  10   4   2  118.46    8.43
  10  -4   2  103.65    8.49
  10   4   2  109.54    8.60
  10   4   3   36.22    5.05
  10  -4   3   35.18    5.05
  10   4   3   36.37    4.81
  10  -4   3   35.98    4.94
  10   4   4   30.04    4.48
  10  -4   4   36.51    5.04
  10   4   4   21.61    3.62
  10  -4   4   33.52    4.65
  10   4   5   62.66    6.55
  10  -4   5   71.39    6.93
  10   4   5   63.11    6.45
  10  -4   5   62.40    6.73
  10   4   6   26.30    4.45
  10  -4   6   26.38    4.32
  10   4   6   26.08    4.09
  10  -4   6   30.23    4.62
  10   4   7   20.86    4.02
  10  -4   7   15.88    3.60
  10  -4   7   17.10    3.40
  10   4   7   14.41    2.97
  10   4   8   57.11    6.35
  10  -4   8   69.80    7.10
  10   4   8   59.75    6.52
  10  -4   8   51.58    6.16
  10   4   9   51.58    6.14
  10  -4   9   42.97    5.57
  10   4   9   39.57    5.31
  10   4  10   36.12    4.95
  10  -4  10   38.52    5.35
  10   4  10   43.82    5.55
  10   4  11  103.77    8.75
  10  -4  11  107.22    9.23
  10   4  11  100.20    8.60
  10   4  12   46.90    5.82
  10  -4  12   57.78    6.74
  10   4  13   35.09    4.91
  10  -4  13   28.35    4.76
  10   4  13   38.15    5.72
  10   4  14   56.05    6.35
  10  -4  14   40.48    5.86
  10   4  14   43.52    5.68
  10   4  15   35.36    5.40
  10   4  15   42.57    5.83
  10  -4  15   46.34    6.19
  10  -4  16   19.17    4.20
  10   4  16   16.48    3.62
  10   4  17   25.44    4.76
  10  -4  17   28.64    5.09
  10   4  18   32.24    5.35
  10  -4  18   31.06    5.56
  10  -4  19   12.63    3.62
  10   4  19    9.60    3.18
  10   4  20    2.27    1.22
  10   4  21    4.85    1.73
  10   4  22   14.69    3.95
  10   4  23    3.05    2.27
  10   4  24   14.35    4.25
  10   4  25    9.49    3.49
  10  -5 -24    1.05    1.13
  10  -5 -23    0.35    1.05
  10  -5 -22    3.78    2.23
  10  -5 -21    2.37    3.18
  10  -5 -20   -0.87    2.07
  10  -5 -19    0.44    1.71
  10  -5 -19    8.53    4.09
  10  -5 -18    0.31    1.71
  10  -5 -18   -0.19    0.85
  10   5 -18    0.46    1.70
  10  -5 -17    0.60    1.58
  10  -5 -17    0.17    1.08
  10   5 -17    1.02    1.20
  10  -5 -16    1.89    1.27
  10  -5 -16    5.40    2.89
  10   5 -16    2.84    1.31
  10   5 -15    8.91    2.73
  10  -5 -15   10.62    3.56
  10  -5 -15    6.48    1.76
  10   5 -14    3.02    1.28
  10  -5 -14    2.59    1.42
  10   5 -13   -0.83    1.26
  10  -5 -13    1.89    2.21
  10  -5 -13   -0.69    1.46
  10   5 -12    0.78    1.08
  10  -5 -12    1.79    1.51
  10  -5 -12    1.59    1.72
  10  -5 -11    1.15    1.50
  10   5 -11    1.37    1.51
  10  -5 -11    5.95    2.55
  10  -5 -10   16.01    3.68
  10   5 -10   14.04    3.33
  10  -5 -10    9.10    2.91
  10  -5  -9    3.38    0.81
  10   5  -9    4.10    1.97
  10  -5  -9    2.81    1.55
  10   5  -8   15.81    2.79
  10  -5  -8   12.95    3.24
  10  -5  -8   11.41    3.18
  10   5  -7   14.12    3.40
  10  -5  -7   11.87    3.33
  10  -5  -7   12.96    3.05
  10   5  -6    3.66    2.03
  10  -5  -6    4.45    2.31
  10   5  -6    7.28    2.56
  10  -5  -6    3.73    1.50
  10   5  -5    1.14    2.38
  10  -5  -5    6.59    2.72
  10   5  -5    3.97    1.21
  10  -5  -5    2.66    1.41
  10   5  -4   21.58    3.62
  10  -5  -4   11.88    3.00
  10  -5  -4   19.49    4.12
  10   5  -4   22.49    4.13
  10   5  -3    9.39    2.72
  10  -5  -3    9.66    3.06
  10  -5  -3   10.95    2.81
  10   5  -3    7.30    2.17
  10   5  -2   21.71    3.87
  10   5  -2   19.55    3.45
  10  -5  -2   24.73    4.36
  10  -5  -2   22.81    4.05
  10   5  -1   60.18    6.52
  10   5  -1   61.85    6.31
  10  -5  -1   66.13    7.11
  10  -5  -1   75.45    7.56
  10   5   0   26.07    3.91
  10   5   0   29.84    4.25
  10  -5   0   31.03    5.13
  10  -5   0   31.40    4.83
  10  -5   1   66.46    6.99
  10   5   1   67.36    7.10
  10   5   1   62.14    6.43
  10  -5   1   55.89    6.38
  10  -5   2   25.46    4.30
  10   5   2   28.90    4.55
  10  -5   2   16.78    3.53
  10   5   2   17.14    3.42
  10   5   3    8.70    2.52
  10   5   3    7.39    2.25
  10  -5   3    7.58    2.65
  10  -5   3   10.99    3.01
  10   5   4   16.54    3.30
  10  -5   4   20.30    4.06
  10   5   4   16.82    3.37
  10  -5   4   20.51    3.75
  10   5   5    5.53    1.81
  10   5   5    2.72    1.31
  10  -5   5    6.73    2.70
  10  -5   5    5.87    2.66
  10   5   6    1.38    0.95
  10   5   6    5.35    2.54
  10  -5   6    5.28    2.48
  10  -5   6    5.60    2.53
  10   5   7   11.96    2.90
  10   5   7    8.71    2.86
  10  -5   7    8.81    2.82
  10  -5   7   12.14    3.13
  10   5   8   18.68    3.55
  10   5   8    9.36    2.93
  10  -5   8   16.17    3.62
  10  -5   8   13.65    3.18
  10   5   9    5.13    2.25
  10   5   9    1.24    0.85
  10  -5   9    1.08    1.37
  10  -5   9    3.61    1.89
  10   5  10   14.34    3.30
  10   5  10   14.86    3.58
  10  -5  10    8.71    2.68
  10  -5  10   13.79    3.45
  10   5  11    1.83    1.91
  10   5  11    2.61    1.51
  10  -5  11    4.17    2.10
  10  -5  11    3.22    1.71
  10   5  12    4.86    2.43
  10   5  12    0.50    1.33
  10  -5  12    3.85    1.67
  10  -5  12    0.11    0.84
  10   5  13    3.73    1.42
  10   5  13    0.20    1.41
  10  -5  13    4.10    1.78
  10   5  14    3.65    2.25
  10   5  14    1.74    0.88
  10  -5  14    1.53    1.38
  10   5  15    6.65    2.40
  10   5  15    8.18    3.03
  10  -5  15    9.11    3.15
  10   5  16    8.27    2.44
  10   5  16    6.99    2.43
  10  -5  16    6.62    2.62
  10  -5  17    1.45    2.42
  10   5  17    0.56    1.23
  10  -5  18    0.14    1.82
  10   5  18    0.30    1.55
  10   5  19    1.49    2.13
  10   5  20    0.12    1.63
  10   5  21    3.20    1.86
  10   5  22    0.19    1.39
  10   5  23   -0.39    1.80
  10   5  24    1.46    2.28
  10  -6 -22    8.75    2.72
  10  -6 -21   18.91    4.34
  10  -6 -20   14.90    3.93
  10  -6 -20    0.68    1.97
  10  -6 -19    2.89    2.19
  10  -6 -19   13.38    3.67
  10  -6 -18   15.11    4.41
  10  -6 -18   18.08    4.98
  10   6 -17   16.76    4.05
  10  -6 -17   27.80    5.09
  10  -6 -17   16.71    4.18
  10   6 -16   21.57    4.70
  10  -6 -16   13.21    3.40
  10  -6 -16   19.06    4.38
  10  -6 -15   39.88    6.24
  10  -6 -15   48.39    6.61
  10   6 -15   35.14    5.59
  10  -6 -14   28.73    5.42
  10  -6 -14   26.11    5.01
  10   6 -14   37.14    5.88
  10  -6 -13   28.42    5.10
  10   6 -13   35.89    5.10
  10  -6 -13   17.64    3.87
  10  -6 -12   19.79    4.26
  10   6 -12   25.61    4.60
  10  -6 -12   22.35    4.61
  10   6 -11   16.93    3.94
  10  -6 -11   25.70    5.11
  10  -6 -11   22.34    4.65
  10   6 -10   19.39    3.84
  10  -6 -10   18.53    3.67
  10  -6 -10   24.74    4.48
  10   6  -9   24.12    4.41
  10  -6  -9   22.32    4.58
  10  -6  -9   30.66    5.18
  10   6  -8   19.38    4.08
  10  -6  -8   23.76    4.58
  10  -6  -8   24.28    4.79
  10  -6  -7    6.08    2.29
  10   6  -7   10.77    2.61
  10  -6  -7    3.87    2.43
  10  -6  -6   14.34    3.92
  10   6  -6   12.42    3.07
  10  -6  -6   14.09    3.07
  10   6  -5   38.19    5.37
  10   6  -5   39.66    5.67
  10  -6  -5   37.62    5.66
  10  -6  -5   35.77    5.57
  10   6  -4   21.50    4.20
  10  -6  -4   31.90    5.26
  10  -6  -4   26.46    4.81
  10   6  -3    2.45    0.82
  10  -6  -3    0.21    1.59
  10   6  -3    1.75    1.03
  10  -6  -2   21.60    4.16
  10   6  -2   17.06    3.91
  10  -6  -2   20.53    3.92
  10   6  -2    9.46    2.71
  10   6  -1   54.90    6.56
  10   6  -1   46.19    5.77
  10  -6  -1   56.56    6.67
  10  -6  -1   48.65    6.14
  10   6   0   48.30    6.33
  10   6   0   59.37    6.61
  10  -6   0   42.38    6.14
  10  -6   0   47.44    6.18
  10   6   1   46.76    5.86
  10   6   1   48.81    5.94
  10  -6   1   38.32    5.55
  10  -6   1   44.84    5.68
  10   6   2   17.25    3.54
  10   6   2   19.67    4.03
  10  -6   2   17.53    4.02
  10  -6   2   21.28    4.50
  10   6   3   -0.18    1.55
  10   6   3    1.30    1.42
  10  -6   3    2.58    1.38
  10  -6   3    0.45    1.04
  10   6   4   29.68    4.92
  10   6   4   27.59    4.63
  10  -6   4   22.25    4.53
  10  -6   4   33.62    5.23
  10   6   5   41.21    5.85
  10   6   5   36.88    5.21
  10  -6   5   48.20    6.24
  10  -6   5   30.85    5.06
  10   6   6   18.53    3.70
  10   6   6   18.42    3.80
  10  -6   6   17.05    3.73
  10  -6   6   17.08    3.88
  10   6   7    7.13    1.92
  10   6   7    7.56    2.78
  10  -6   7    5.73    2.39
  10  -6   7    7.25    2.44
  10   6   8   33.08    4.91
  10  -6   8   25.97    4.51
  10   6   8   30.75    5.07
  10  -6   8   29.75    5.08
  10   6   9   29.79    5.27
  10  -6   9   20.66    4.48
  10   6   9   28.18    4.83
  10  -6   9   20.36    3.74
  10   6  10   15.58    3.83
  10  -6  10   16.77    4.48
  10   6  10   26.61    4.56
  10  -6  10   12.64    3.38
  10   6  11   14.08    3.66
  10   6  11   13.10    3.53
  10  -6  11   22.66    4.44
  10  -6  11   22.43    4.82
  10   6  12   28.70    5.08
  10   6  12   24.54    4.34
  10  -6  12   16.21    3.96
  10  -6  12   21.36    4.47
  10   6  13   30.17    5.29
  10  -6  13   22.20    4.45
  10   6  13   25.81    4.90
  10  -6  13   32.33    5.93
  10  -6  14   33.65    5.62
  10   6  14   39.82    6.20
  10   6  14   24.23    4.26
  10  -6  14   28.09    5.20
  10  -6  15   36.26    6.00
  10   6  15   47.52    6.78
  10   6  15   38.35    6.00
  10  -6  15   36.77    6.11
  10   6  16   16.55    4.51
  10   6  16   17.63    4.80
  10  -6  16   20.33    4.54
  10  -6  16   15.70    3.90
  10   6  17   20.27    4.35
  10   6  18    8.80    3.43
  10   6  19    3.06    1.78
  10   6  20   17.88    4.55
  10   6  21   14.15    3.66
  10   6  22    7.18    3.06
  10  -7 -20    4.38    3.07
  10  -7 -20    6.33    2.58
  10  -7 -19    1.77    1.85
  10  -7 -19    1.02    2.01
  10  -7 -18    0.71    2.13
  10  -7 -18    2.70    2.58
  10   7 -17   -2.27    0.91
  10  -7 -17    1.09    1.27
  10  -7 -17    1.73    2.33
  10   7 -16    4.62    2.58
  10  -7 -16    6.02    3.07
  10  -7 -16    2.36    1.83
  10   7 -15    0.61    1.84
  10  -7 -15    1.53    2.44
  10  -7 -15    1.96    0.96
  10   7 -14    6.57    2.79
  10  -7 -14    6.47    2.63
  10  -7 -14    2.16    2.10
  10   7 -13    5.43    1.82
  10  -7 -13    5.57    2.40
  10  -7 -13    0.07    1.85
  10   7 -12   -0.57    2.15
  10  -7 -12    4.39    2.55
  10  -7 -12    2.76    1.85
  10   7 -11    9.38    3.33
  10  -7 -11   12.10    3.45
  10  -7 -11   11.37    3.32
  10   7 -10   14.29    3.76
  10  -7 -10   15.58    3.33
  10  -7 -10   19.80    4.23
  10   7  -9    6.66    2.93
  10  -7  -9    6.44    2.47
  10  -7  -9    6.78    2.94
  10   7  -8    8.50    2.78
  10  -7  -8   15.04    4.22
  10  -7  -8    5.35    2.80
  10   7  -7    6.22    2.56
 -10   7  -7    1.49    0.87
  10  -7  -7    4.12    1.79
  10  -7  -7   -0.06    1.60
  10   7  -6    3.42    1.07
 -10   7  -6    4.23    2.94
  10  -7  -6    7.57    2.95
  10  -7  -5    0.62    2.04
  10   7  -5    0.55    1.49
 -10   7  -5    3.63    1.89
  10  -7  -5    0.98    0.97
  10  -7  -4    4.28    2.15
  10   7  -4    5.68    2.25
  10  -7  -4    4.46    2.61
  10   7  -3    7.32    2.24
  10  -7  -3    2.38    0.77
  10   7  -3    2.50    2.31
  10  -7  -3    6.32    2.01
  10  -7  -2    6.44    2.62
  10   7  -2   11.25    2.98
  10   7  -2    5.36    1.98
  10  -7  -2    9.57    2.96
  10   7  -1   22.67    4.72
  10  -7  -1   23.94    4.45
  10   7  -1   17.72    3.53
  10  -7  -1   24.99    4.72
  10  -7   0    7.33    2.55
  10   7   0    4.42    2.22
  10   7   0    9.31    2.10
  10  -7   0    5.53    2.40
  10  -7   1   13.40    2.84
  10   7   1   24.26    4.58
  10   7   1   22.98    4.22
  10  -7   1   21.20    4.45
  10  -7   2    7.71    3.13
  10   7   2    6.69    2.64
  10   7   2    6.38    2.49
  10  -7   2    2.39    1.95
  10  -7   3    3.14    2.08
  10   7   3    4.02    1.67
  10   7   3    5.22    2.21
  10  -7   3    2.09    2.07
  10  -7   4    4.86    2.48
  10   7   4    1.26    1.32
  10   7   4    2.70    1.46
  10  -7   4    4.63    2.31
  10  -7   5    4.97    2.48
  10   7   5    3.12    2.05
  10   7   5    0.35    0.75
  10  -7   5    3.91    2.68
  10  -7   6    3.34    1.79
  10   7   6    3.25    0.96
  10   7   6    5.92    2.31
  10  -7   6    2.38    1.37
  10  -7   7    2.10    1.84
  10   7   7   -0.01    1.21
  10   7   7   -0.01    0.90
  10  -7   7    1.18    2.33
  10  -7   8   10.78    2.74
  10   7   8    7.44    3.04
  10   7   8   13.00    3.38
  10  -7   8    6.87    3.21
  10  -7   9    8.32    2.55
  10   7   9   11.81    3.30
  10   7   9    8.85    3.19
  10  -7   9   16.66    3.97
  10  -7  10   10.92    2.77
  10   7  10   18.47    4.25
  10   7  10   13.97    3.49
  10  -7  10   18.61    4.43
  10  -7  11    7.91    2.69
  10   7  11   12.20    3.82
  10   7  11   13.77    3.80
  10  -7  11   14.37    3.76
  10   7  12    6.17    2.71
  10  -7  12    3.05    1.61
  10   7  12    6.32    2.96
  10  -7  12    6.19    2.79
  10   7  13    3.72    1.87
  10  -7  13    3.06    1.56
  10   7  13    3.05    1.76
  10  -7  13    3.49    2.25
  10   7  14    6.24    3.23
  10  -7  14    2.15    2.22
  10   7  14    5.65    2.02
  10   7  15    0.19    1.14
  10   7  15    1.73    0.84
  10   7  16    5.62    2.39
  10   7  16    7.33    2.88
  10   7  17    0.34    1.55
  10   7  18    1.43    1.09
  10   7  19    0.87    1.12
  10   7  20    5.12    3.34
  10  -8 -17    0.71    1.29
  10  -8 -17    2.42    2.34
  10   8 -16    5.21    3.61
  10  -8 -16    2.76    2.12
  10  -8 -16    2.58    1.84
  10   8 -15   10.10    3.47
  10  -8 -15   19.41    4.81
  10  -8 -15   11.08    3.53
  10   8 -14    9.87    2.70
  10  -8 -14   12.66    4.16
  10  -8 -14   16.47    4.01
  10   8 -13   -3.56    3.13
  10  -8 -13    0.30    1.43
  10   8 -12   12.19    3.87
  10  -8 -12    4.73    2.53
  10  -8 -12    8.86    3.53
  10   8 -11    8.55    2.35
  10  -8 -11    7.03    2.58
  10  -8 -11   12.77    3.87
  10   8 -10    4.94    1.89
  10  -8 -10    4.64    1.72
  10  -8 -10    1.10    1.00
  10   8  -9   14.67    3.96
  10  -8  -9   14.64    3.49
  10  -8  -9   14.38    3.70
  10   8  -8   23.94    5.22
  10  -8  -8   24.76    4.91
  10  -8  -8   23.29    4.94
  10   8  -7    5.19    1.90
 -10   8  -7    4.36    3.11
  10  -8  -7    7.00    2.96
  10  -8  -7    3.46    2.13
  10   8  -6   22.80    4.78
 -10   8  -6   21.60    4.59
  10  -8  -6   24.51    4.78
  10  -8  -6   24.27    4.78
  10   8  -5   30.48    5.35
 -10   8  -5   31.12    5.88
  10  -8  -5   27.03    5.10
  10  -8  -5   26.74    5.23
  10   8  -4   28.21    4.92
 -10   8  -4   13.50    3.22
  10  -8  -4   22.67    4.85
  10  -8  -4   22.32    4.38
  10   8  -3    8.03    2.30
 -10   8  -3    7.67    2.62
  10  -8  -3   11.62    3.47
  10  -8  -3    6.77    1.50
  10  -8  -2    8.37    3.54
  10   8  -2    5.29    2.26
  10   8  -2    6.45    2.65
 -10   8  -2    8.74    3.21
  10  -8  -2    5.18    1.44
  10  -8  -1    7.44    3.39
  10   8  -1   11.27    3.69
  10   8  -1   10.42    2.95
 -10   8  -1    4.97    2.80
  10  -8  -1   10.33    3.13
  10  -8   0   11.78    2.77
  10   8   0   14.47    3.48
  10   8   0   14.81    3.67
 -10   8   0   15.83    3.69
  10  -8   0   16.10    3.88
  10  -8   1    9.71    2.99
  10   8   1    5.47    2.60
  10   8   1   10.55    2.89
 -10   8   1   10.01    3.56
  10  -8   1    9.05    2.68
  10  -8   2    3.61    2.02
  10   8   2    6.76    2.06
  10   8   2    8.76    2.85
 -10   8   2    7.68    2.35
  10  -8   2    4.85    2.66
  10  -8   3    6.80    2.36
  10   8   3    9.12    2.76
  10   8   3    8.74    2.73
 -10   8   3   10.20    2.97
  10  -8   3    4.80    2.38
  10   8   4   28.59    5.27
  10  -8   4   28.94    5.11
  10   8   4   30.43    5.09
  10  -8   4   28.66    5.07
  10   8   5   35.64    5.39
  10  -8   5   28.83    5.12
  10   8   5   34.45    5.83
  10  -8   5   37.85    6.11
  10  -8   6   25.74    5.02
  10   8   6   21.86    4.90
  10   8   6   22.94    4.37
  10  -8   6   32.51    5.58
  10  -8   7    4.07    1.08
  10   8   7    3.12    1.66
  10   8   7    9.16    2.68
  10  -8   7    2.87    2.51
  10  -8   8   25.99    5.02
  10   8   8   29.49    5.00
  10   8   8   16.01    3.64
  10  -8   9   13.59    3.57
  10   8   9   13.34    3.65
  10   8   9   11.75    3.77
  10  -8  10    0.04    1.13
  10   8  10    5.22    2.54
  10   8  10    3.53    2.65
  10  -8  11    8.54    2.94
  10   8  11    7.54    3.34
  10   8  11    5.07    2.29
  10  -8  12    9.46    2.91
  10   8  12   11.30    3.32
  10   8  12    4.15    1.99
  10  -8  13    3.68    2.24
  10   8  13   -0.49    1.27
 -10   8  13    3.34    2.01
  10   8  14   15.99    4.30
  10   8  14   10.72    3.19
 -10   8  14   16.11    4.55
  10   8  15   14.24    4.24
  10   8  15   17.85    4.58
 -10   8  15   19.19    4.66
  10   8  16    3.60    2.15
  10   8  16    0.32    1.35
 -10   8  16    6.44    2.81
  10   8  17    4.34    2.68
 -10   8  17    1.19    1.99
  10   9 -13    1.78    2.80
  10  -9 -13   -0.78    1.92
  10  -9 -13    0.48    1.39
  10   9 -12   -1.19    1.75
  10  -9 -12    0.81    2.13
  10  -9 -12   -1.58    2.26
  10   9 -11    0.26    1.04
  10  -9 -11    0.92    1.31
  10  -9 -11    2.00    1.01
  10   9 -10    2.43    1.72
  10  -9 -10    6.65    2.66
  10  -9 -10    2.09    1.98
  10   9  -9    0.86    2.18
  10  -9  -9   -1.04    1.52
  10  -9  -9    1.30    1.73
  10   9  -8   -0.01    2.09
  10  -9  -8    3.08    2.30
  10  -9  -8    2.51    2.45
  10   9  -7    2.00    1.93
  10  -9  -7    1.29    1.66
  10  -9  -7    0.48    1.56
  10   9  -6    0.86    1.55
  10  -9  -6    4.36    1.87
  10  -9  -6    3.32    1.78
  10   9  -5   -1.96    1.99
 -10   9  -5    0.94    1.47
  10  -9  -5    2.52    2.06
  10  -9  -5    1.77    2.01
  10   9  -4    6.79    2.57
 -10   9  -4    2.43    2.08
  10  -9  -4    5.41    2.63
  10  -9  -4    3.24    1.73
  10   9  -3    2.66    1.52
 -10   9  -3    6.19    2.88
  10  -9  -3    2.43    2.16
  10  -9  -3   -1.28    1.08
  10   9  -2   -2.26    2.27
 -10   9  -2    1.43    1.11
  10  -9  -2   -0.41    1.83
  10   9  -1    3.11    2.60
 -10   9  -1    1.33    1.48
  10  -9  -1    2.94    1.83
  10  -9  -1    0.67    1.64
  10   9   0    4.68    2.91
  10   9   0   12.53    3.47
 -10   9   0    9.12    3.56
  10  -9   0    0.03    1.67
  10  -9   0    6.77    2.44
  10   9   1    5.45    2.24
  10   9   1    2.56    2.09
 -10   9   1    0.40    1.49
  10  -9   1    4.08    2.83
  10  -9   1    1.08    2.24
  10   9   2    0.16    1.24
  10   9   2   -0.34    1.34
 -10   9   2    1.17    2.03
  10  -9   2    1.08    1.66
  10  -9   3    2.51    2.15
  10   9   3    2.84    2.58
  10   9   3    2.09    1.42
 -10   9   3    1.33    1.49
  10  -9   4    2.37    2.10
  10   9   4    7.66    3.11
  10   9   4    4.43    2.26
 -10   9   4    4.33    2.34
  10  -9   5   -1.03    2.23
  10   9   5    1.83    2.44
  10   9   5    2.44    1.35
 -10   9   5   -1.08    1.81
  10   9   6    1.37    1.11
  10   9   6    5.65    2.99
 -10   9   6    1.56    1.68
  10  -9   7    1.70    1.40
  10   9   7   -0.30    2.23
  10   9   7    3.06    3.20
 -10   9   7    3.31    2.55
  10  -9   8    3.43    2.05
  10   9   8    0.88    1.76
 -10   9   8    2.04    1.71
  10   9   8    3.32    2.39
  10  -9   9    2.18    1.36
  10   9   9    3.06    2.29
  10   9   9    2.33    1.62
 -10   9   9    2.15    2.25
  10  -9  10    3.56    2.12
  10   9  10    1.07    1.51
  10   9  10    2.59    1.91
 -10   9  10    0.58    1.47
  10  -9  11    3.31    2.66
  10   9  11    2.20    2.39
  10   9  11    1.75    2.21
 -10   9  11    2.71    2.04
  10  -9  12    2.29    2.51
  10   9  12    0.41    1.05
  10   9  12    0.27    2.35
 -10   9  12    1.38    1.30
  10   9  13    1.38    1.74
  10   9  13    0.93    1.78
 -10   9  13    2.17    2.81
  10  10  -6   10.07    3.70
  10 -10  -6    6.58    2.67
  10  10  -5    6.02    2.49
  10 -10  -5    1.66    1.95
  10  10  -4   10.02    3.37
 -10  10  -4    8.45    3.52
  10 -10  -4    7.05    2.46
  10  10  -3   -1.01    1.27
 -10  10  -3    1.69    1.97
  10 -10  -3    2.35    2.06
  10  10  -2    8.59    3.06
 -10  10  -2    7.82    2.93
  10 -10  -2   16.31    3.99
  10  10  -1   -0.85    2.05
 -10  10  -1    3.19    2.50
  10 -10  -1    4.29    3.17
  10  10   0    0.75    1.43
 -10  10   0   -1.17    1.04
  10 -10   0    0.36    1.13
  10  10   1    0.90    0.93
 -10  10   1    1.70    2.66
  10 -10   1    4.24    2.02
  10  10   2    3.66    2.20
  10  10   2    4.79    1.08
 -10  10   2   10.10    3.51
  10 -10   2    8.55    3.29
  10  10   3    2.29    2.49
  10  10   3    1.73    1.39
 -10  10   3   -2.57    2.46
  10 -10   3    4.86    2.57
  10  10   4    6.41    3.20
  10  10   4    9.96    3.29
 -10  10   4    6.89    2.18
  10 -10   4   13.13    3.69
  10  10   5    5.99    3.08
  10  10   5    4.62    2.23
 -10  10   5    7.82    3.55
  10 -10   5    3.64    2.25
  10  10   6    8.20    2.82
  10  10   6    8.07    3.51
 -10  10   6    4.22    2.46
  10 -10   6   10.20    3.47
  11   0 -25   -5.67    2.37
  11   0 -24   -2.27    2.00
  11   0 -23   -0.70    1.43
  11   0 -22   -0.83    1.53
  11   0 -21    0.28    1.50
  11   0 -20    0.02    1.51
  11   0 -19   -0.69    2.16
  11   0 -18   -1.02    1.45
  11   0 -17   -0.24    1.16
  11   0 -16    0.14    0.73
  11   0 -15    0.39    1.27
  11   0 -14    0.11    1.45
  11   0 -13    0.30    0.79
  11   0 -12   -0.81    1.24
  11   0 -12    0.78    1.29
  11   0 -11   -0.49    0.80
  11   0 -11    1.09    2.03
  11   0 -10    0.29    1.20
  11   0 -10    0.05    0.98
  11   0  -9    0.10    0.83
  11   0  -9   -0.71    1.06
  11   0  -8    0.88    1.43
  11   0  -8   -0.95    1.06
  11   0  -7   -0.22    0.75
  11   0  -7   -0.58    1.64
  11   0  -6    0.57    1.00
  11   0  -6    0.58    1.62
  11   0  -6   -0.43    0.67
  11   0  -5   -0.55    0.48
  11   0  -5    0.36    0.87
  11   0  -5    0.20    1.25
  11   0  -4    0.78    0.51
  11   0  -4    0.69    1.21
  11   0  -4   -0.01    1.07
  11   0  -3    0.28    0.65
  11   0  -3    1.27    1.17
  11   0  -3   -0.24    0.93
  11   0  -2   -0.06    0.53
  11   0  -2   -1.54    1.57
  11   0  -2    0.14    1.39
  11   0  -1    0.15    0.63
  11   0  -1   -0.28    1.03
  11   0  -1    0.40    1.45
  11   0   0    0.48    1.21
  11   0   0    0.26    1.31
  11   0   0   -0.37    0.92
  11   0   1    0.34    0.91
  11   0   1    0.18    0.89
  11   0   1    0.40    1.04
  11   0   2   -0.20    0.77
  11   0   2    0.02    0.67
  11   0   3   -0.17    0.72
  11   0   3    0.18    0.70
  11   0   4    0.43    0.91
  11   0   4   -0.47    1.09
  11   0   5    0.27    1.47
  11   0   5   -0.13    1.27
  11   0   6   -0.53    0.62
  11   0   6   -0.15    0.74
  11   0   7   -0.51    1.48
  11   0   7   -0.61    1.32
  11   0   8   -0.12    1.32
  11   0   8   -0.27    0.56
  11   0   9    0.63    1.37
  11   0   9   -0.26    0.81
  11   0  10    0.72    0.67
  11   0  10    0.08    0.91
  11   0  11   -0.39    1.58
  11   0  11    0.29    1.06
  11   0  12   -0.42    1.38
  11   0  12    1.83    1.29
  11   0  13   -0.04    1.01
  11   0  14    3.24    2.10
  11   0  15    1.31    0.76
  11   0  16    0.51    1.41
  11   0  17    0.65    1.44
  11   0  18    0.31    1.14
  11   0  19    1.81    1.52
  11   0  20    0.61    1.16
  11   0  21    0.24    1.17
  11   0  22   -0.22    1.24
  11   0  23   -1.17    2.08
  11   0  24   -0.33    1.71
  11  -1 -26    1.67    1.78
  11  -1 -25    7.37    2.95
  11  -1 -24   18.12    4.55
  11  -1 -23    7.58    3.06
  11  -1 -22    2.40    2.64
  11  -1 -21    9.62    3.26
  11   1 -20    8.98    4.09
  11  -1 -20    5.16    1.61
  11   1 -19   24.84    5.36
  11  -1 -19   30.49    5.21
  11   1 -18  101.61    9.10
  11  -1 -18   99.91    9.28
  11   1 -17   12.24    3.01
  11  -1 -17   19.34    3.99
  11   1 -16    1.98    1.32
  11  -1 -16    0.61    1.28
  11  -1 -15   23.60    4.34
  11   1 -15   22.50    3.99
  11   1 -14   86.59    7.95
  11  -1 -14   82.56    7.96
  11   1 -13  228.03   12.53
  11  -1 -13  237.19   13.09
  11  -1 -13  213.36   12.11
  11   1 -12  227.44   12.56
  11  -1 -12  236.93   13.13
  11   1 -12  246.66   13.15
  11  -1 -11   10.89    2.47
  11   1 -11    9.34    2.41
  11  -1 -11   10.49    2.87
  11   1 -11   10.22    2.28
  11  -1 -10   95.69    7.96
  11   1 -10  102.36    7.55
  11  -1 -10  102.03    8.49
  11   1 -10   86.09    7.58
  11   1 -10   96.44    8.06
  11  -1  -9  110.47    8.29
  11   1  -9  112.34    7.96
  11  -1  -9  121.91    9.38
  11   1  -9  122.99    8.93
  11   1  -9  126.34    9.05
  11  -1  -8   89.13    7.44
  11   1  -8   97.38    7.41
  11  -1  -8   93.90    8.14
  11   1  -8  105.43    8.17
  11   1  -8  105.92    8.05
  11  -1  -7  115.33    8.38
  11   1  -7  160.03    9.48
  11  -1  -7  140.53    9.86
  11   1  -7  136.14    9.30
  11   1  -7  166.50   10.08
  11  -1  -6   64.37    6.43
  11   1  -6   61.09    5.91
  11  -1  -6   64.78    6.61
  11   1  -6   72.38    6.65
  11   1  -6   79.05    6.80
  11  -1  -5   22.43    3.70
  11   1  -5   19.02    3.63
  11   1  -5   25.41    3.71
  11  -1  -5   24.31    4.13
  11   1  -5   22.55    3.81
  11  -1  -4   15.35    3.31
  11  -1  -4   15.22    3.13
  11   1  -4   11.58    2.54
  11   1  -4   13.17    2.87
  11   1  -4   18.28    3.28
  11  -1  -3  175.84   10.33
  11   1  -3  187.39   10.34
  11  -1  -3  166.45   10.65
  11   1  -3  174.30   10.21
  11   1  -3  176.06   10.26
  11  -1  -2  417.23   16.11
  11   1  -2  378.19   14.71
  11  -1  -2  407.57   16.44
  11   1  -2  392.49   15.53
  11   1  -2  430.57   15.89
  11  -1  -1   33.34    4.62
  11   1  -1   30.10    4.04
  11  -1  -1   31.99    4.34
  11   1  -1   22.04    3.51
  11   1  -1   32.85    4.31
  11   1   0    0.77    0.76
  11  -1   0    0.79    1.60
  11  -1   0    1.13    1.70
  11   1   0    2.61    1.75
  11   1   0    1.88    1.24
  11  -1   1   33.94    4.61
  11   1   1   32.11    4.43
  11  -1   1   27.87    4.45
  11   1   1   32.14    4.34
  11  -1   2  387.81   15.56
  11   1   2  409.83   15.61
  11  -1   2  408.56   16.41
  11   1   2  418.88   15.52
  11  -1   3  169.75   10.52
  11   1   3  180.59   10.64
  11  -1   3  175.92   10.76
  11   1   3  142.80    9.10
  11   1   4   13.33    2.87
  11  -1   4    5.68    2.26
  11   1   4   12.39    2.49
  11  -1   5   22.72    4.10
  11   1   5   19.37    3.55
  11   1   5   24.09    3.66
  11  -1   6   75.87    7.08
  11   1   6   69.18    6.72
  11   1   6   69.54    6.31
  11  -1   7  140.85    9.82
  11   1   7  139.08    9.70
  11   1   7  152.23    9.31
  11  -1   8  112.40    8.63
  11   1   8  103.98    8.27
  11   1   8  101.67    7.60
  11  -1   9  116.97    9.14
  11   1   9  111.85    8.72
  11   1   9  113.59    8.01
  11  -1  10   97.13    8.30
  11   1  10   93.22    7.98
  11   1  10   92.77    7.28
  11   1  11   12.74    3.41
  11  -1  11   13.63    3.64
  11   1  11    7.47    2.29
  11  -1  12  216.27   12.58
  11   1  12  223.58   12.82
  11   1  12  213.00   10.95
  11   1  13  223.50   12.76
  11   1  13  207.90   10.86
  11  -1  14   81.59    8.13
  11   1  14   80.76    7.96
  11  -1  15   28.50    4.77
  11   1  15   28.32    4.84
  11   1  16    0.34    0.94
  11  -1  16   -0.13    1.14
  11   1  17   15.04    3.57
  11  -1  17   14.42    3.21
  11  -1  18  103.14    9.56
  11   1  18  104.14    9.30
  11  -1  19   27.39    5.07
  11   1  19   28.66    5.02
  11   1  20    2.44    1.66
  11  -1  20    1.62    2.02
  11   1  21   -0.01    1.85
  11  -1  21    9.26    2.96
  11   1  22   -1.75    2.58
  11  -1  22   -0.95    2.38
  11   1  23    4.03    2.51
  11  -1  23    6.56    2.58
  11   1  24   17.19    4.24
  11   1  25    5.15    3.15
  11  -2 -26    2.64    2.48
  11  -2 -25    0.71    1.90
  11  -2 -24    2.06    1.38
  11  -2 -23   16.99    4.14
  11  -2 -22    1.64    0.95
  11  -2 -21   -0.73    0.87
  11  -2 -20    5.37    1.93
  11  -2 -19    0.54    0.92
  11  -2 -18    0.88    1.88
  11  -2 -17   -2.14    2.08
  11  -2 -16    2.05    1.83
  11   2 -16    1.40    1.48
  11   2 -15   -0.98    1.79
  11  -2 -15    2.26    2.11
  11   2 -15   -0.75    0.63
  11  -2 -14    7.67    2.05
  11   2 -14    8.15    2.66
  11  -2 -14    3.95    2.03
  11   2 -14    3.27    2.03
  11  -2 -13    5.58    1.88
  11   2 -13    6.52    2.45
  11  -2 -13    3.74    1.81
  11   2 -13    8.17    2.78
  11  -2 -12    0.04    1.04
  11   2 -12   -0.03    0.71
  11  -2 -12   -0.47    1.38
  11   2 -12    1.32    1.42
  11  -2 -11    2.45    1.89
  11   2 -11    0.29    1.32
  11  -2 -11    1.98    1.10
  11   2 -11    1.27    1.66
  11  -2 -10    0.77    1.41
  11  -2 -10    1.44    2.17
  11   2 -10    0.85    0.88
  11   2 -10    2.75    1.67
  11  -2  -9    2.46    1.30
  11   2  -9    2.06    1.08
  11  -2  -9    0.46    1.32
  11   2  -9    5.30    2.24
  11   2  -9    2.10    1.28
  11  -2  -8   31.60    4.59
  11   2  -8   33.49    4.27
  11  -2  -8   31.03    4.74
  11   2  -8   34.06    4.52
  11   2  -8   35.16    4.72
  11  -2  -7   10.50    2.64
  11  -2  -7   12.57    3.08
  11   2  -7   14.24    3.02
  11   2  -7   13.93    2.81
  11   2  -7   15.17    3.05
  11  -2  -6    1.50    1.25
  11  -2  -6    3.54    1.36
  11   2  -6    2.22    1.01
  11   2  -6    0.75    1.39
  11   2  -6    3.36    1.34
  11  -2  -5   12.30    2.83
  11   2  -5   18.31    3.42
  11  -2  -5   17.33    3.33
  11   2  -5   13.58    2.73
  11   2  -5   12.16    2.86
  11   2  -4    2.68    1.71
  11  -2  -4    1.13    1.21
  11  -2  -4    1.13    1.03
  11   2  -4    3.36    1.97
  11   2  -4    2.28    1.05
  11  -2  -3  187.27   11.08
  11   2  -3  194.29   10.44
  11  -2  -3  193.26   11.62
  11   2  -3  201.31   10.83
  11   2  -3  212.10   11.60
  11   2  -2    5.57    2.06
  11   2  -2    3.31    1.23
  11  -2  -2    8.63    2.03
  11  -2  -2    6.00    2.10
  11   2  -2    4.22    1.49
  11  -2  -1  116.18    8.77
  11   2  -1  141.32    9.01
  11  -2  -1  110.44    8.65
  11   2  -1  115.67    8.47
  11   2  -1  137.02    9.20
  11   2   0    0.44    1.24
  11   2   0   -0.18    0.61
  11  -2   0   -0.35    0.93
  11  -2   0   -0.70    1.42
  11   2   0    0.42    1.15
  11  -2   1  114.04    8.58
  11  -2   1  130.22    9.29
  11   2   1  127.46    8.75
  11   2   1  117.69    8.57
  11   2   2    6.41    1.76
  11   2   2    6.29    2.07
  11  -2   2    8.75    2.45
  11  -2   2    5.32    2.29
  11  -2   3  188.08   11.15
  11  -2   3  211.11   12.22
  11   2   3  206.20   11.20
  11   2   3  191.96   10.81
  11   2   4    3.91    1.47
  11   2   4    5.38    1.98
  11  -2   4    1.40    0.86
  11  -2   4    1.60    0.85
  11   2   5    9.63    2.37
  11   2   5   12.48    3.00
  11  -2   5   10.46    2.62
  11   2   6    3.38    1.47
  11   2   6    3.42    0.99
  11  -2   6    1.38    0.83
  11   2   7   14.26    2.97
  11   2   7   15.78    3.23
  11  -2   7   17.95    3.46
  11  -2   8   39.33    5.19
  11   2   8   27.65    4.22
  11   2   8   37.74    5.15
  11   2   9    1.00    1.78
  11   2   9    2.27    0.95
  11  -2   9    2.09    1.84
  11   2  10    2.36    1.18
  11   2  10   -0.50    0.89
  11  -2  10    0.80    1.27
  11   2  11    1.78    0.81
  11   2  11    4.85    2.38
  11  -2  11    4.08    1.87
  11   2  12    0.78    0.76
  11   2  12    0.15    0.88
  11  -2  12    0.81    1.18
  11   2  13    5.64    2.15
  11   2  13    4.61    1.93
  11  -2  13    8.37    2.87
  11   2  14    8.23    2.62
  11   2  14    3.96    2.46
  11  -2  14    4.26    1.83
  11   2  15   -0.63    0.96
  11  -2  15    1.07    1.80
  11   2  16    0.11    0.97
  11  -2  16    3.11    2.00
  11   2  17    2.57    2.35
  11  -2  17   -0.53    1.94
  11   2  18    1.98    2.03
  11  -2  18   -1.65    1.98
  11   2  19    0.47    1.01
  11  -2  19   -0.13    1.15
  11   2  20    5.34    2.31
  11  -2  20    3.91    2.37
  11   2  21   -0.95    0.98
  11  -2  21    0.70    1.07
  11   2  22   -1.23    1.94
  11  -2  22    4.86    2.38
  11   2  23   10.69    3.70
  11   2  24   -0.80    0.94
  11   2  25    1.50    1.21
  11   2  26    2.13    3.38
  11  -3 -25   21.38    5.19
  11  -3 -24   16.16    4.11
  11  -3 -23   27.09    5.16
  11  -3 -22    5.99    2.51
  11  -3 -21    1.56    1.16
  11  -3 -20    8.68    3.13
  11  -3 -19    8.57    3.29
  11   3 -19   13.99    3.64
  11  -3 -18   43.95    6.09
  11   3 -18   57.31    6.97
  11  -3 -17   20.52    4.33
  11   3 -17   27.54    4.93
  11  -3 -16    1.97    1.58
  11   3 -16    3.95    2.23
  11  -3 -16    1.75    1.39
  11  -3 -15   15.64    4.04
  11  -3 -15   11.07    3.15
  11   3 -15   12.31    3.06
  11  -3 -14   22.92    4.32
  11  -3 -14   31.61    5.05
  11   3 -14   32.44    4.93
  11  -3 -13   51.70    6.56
  11  -3 -13   58.65    6.74
  11   3 -13   54.82    6.33
  11  -3 -12   36.79    5.33
  11  -3 -12   46.30    6.10
  11   3 -12   48.60    5.86
  11  -3 -11   57.08    7.03
  11  -3 -11   59.44    6.76
  11   3 -11   76.02    7.51
  11  -3 -10   12.81    3.21
  11  -3 -10   12.85    3.33
  11   3 -10   10.65    2.69
  11  -3  -9  331.42   15.80
  11   3  -9  338.98   15.46
  11  -3  -9  337.25   15.59
  11   3  -8   98.06    7.42
  11  -3  -8  100.68    8.74
  11   3  -8   86.15    7.11
  11   3  -8  102.87    8.52
  11  -3  -8   89.02    8.13
  11   3  -7   46.42    5.15
  11  -3  -7   45.52    5.75
  11   3  -7   49.97    5.25
  11   3  -7   53.02    6.19
  11  -3  -7   35.09    4.89
  11  -3  -6   26.30    4.22
  11   3  -6   16.55    2.95
  11  -3  -6   23.06    4.09
  11   3  -6   22.97    3.56
  11   3  -6   27.44    4.60
  11  -3  -5  213.64   12.19
  11  -3  -5  244.22   13.29
  11   3  -5  228.73   11.38
  11   3  -5  226.85   11.33
  11   3  -5  236.22   12.68
  11  -3  -4   96.92    8.13
  11  -3  -4  101.26    8.59
  11   3  -4   99.03    7.45
  11   3  -4   89.96    7.18
  11   3  -4   87.73    7.62
  11  -3  -3  827.24   24.01
  11  -3  -3  817.64   24.45
  11   3  -3  885.00   22.68
  11   3  -3  843.88   22.29
  11   3  -3  877.02   23.97
  11  -3  -2  117.28    8.96
  11  -3  -2  131.98    9.66
  11   3  -2  114.79    8.22
  11   3  -2  119.76    8.54
  11   3  -2  120.10    8.88
  11  -3  -1  820.14   23.85
  11  -3  -1  763.18   23.26
  11   3  -1  775.19   21.60
  11   3  -1  775.09   21.88
  11   3  -1  793.68   22.58
  11   3   0    7.43    2.22
  11   3   0    9.47    2.92
  11  -3   0    9.16    2.84
  11  -3   0   16.12    4.19
  11  -3   1  799.96   23.52
  11  -3   1  729.27   22.90
  11   3   1  799.82   22.54
  11   3   1  764.27   22.42
  11  -3   2  127.01    9.38
  11  -3   2  116.91    9.02
  11   3   2  126.46    8.98
  11   3   2  118.16    8.76
  11  -3   3  906.92   25.18
  11  -3   3  865.25   24.69
  11   3   3  886.58   24.27
  11   3   3  862.10   23.65
  11   3   4   98.46    7.97
  11  -3   4   96.50    8.63
  11  -3   4   94.52    8.35
  11   3   4   96.63    8.00
  11   3   5  245.02   12.84
  11  -3   5  217.72   12.54
  11  -3   5  221.41   12.58
  11   3   5  245.01   12.70
  11   3   6   23.10    4.26
  11   3   6   23.75    3.71
  11  -3   6   24.60    4.35
  11  -3   6   25.88    4.09
  11   3   7   42.49    5.58
  11  -3   7   36.74    5.06
  11   3   7   50.70    5.79
  11   3   8   95.59    8.32
  11  -3   8   77.52    7.58
  11   3   8   90.99    7.82
  11   3   9  345.79   15.84
  11  -3   9  356.21   16.45
  11   3   9  363.33   15.51
  11   3  10    8.24    2.23
  11   3  10   13.75    3.47
  11  -3  10   10.61    3.00
  11   3  11   47.34    5.92
  11  -3  11   68.04    7.37
  11   3  11   69.02    6.93
  11   3  12   54.12    6.43
  11  -3  12   58.59    6.66
  11   3  12   49.32    5.78
  11   3  13   50.35    6.09
  11  -3  13   57.44    6.89
  11   3  13   41.38    5.34
  11   3  14   32.09    5.13
  11  -3  14   37.67    5.38
  11   3  14   31.79    4.81
  11   3  15   12.41    3.40
  11  -3  15    8.56    2.38
  11   3  16    0.58    1.23
  11  -3  16   -0.27    1.29
  11   3  17   21.38    4.16
  11  -3  17   21.91    4.59
  11   3  18   37.20    5.80
  11  -3  18   50.54    6.70
  11   3  19   11.67    2.84
  11  -3  19   19.02    4.67
  11   3  20   12.81    3.97
  11  -3  20    8.69    2.87
  11   3  21    3.53    2.83
  11  -3  21   -1.13    2.20
  11   3  22    2.87    0.93
  11   3  23   13.28    3.96
  11   3  24   16.77    4.54
  11   3  25   26.16    5.44
  11  -4 -24    4.83    2.69
  11  -4 -23    1.39    1.48
  11  -4 -22    6.92    3.36
  11  -4 -21    2.42    1.44
  11  -4 -20   -0.20    1.26
  11  -4 -19    1.68    1.64
  11   4 -19    1.96    2.30
  11  -4 -18   -1.94    1.89
  11   4 -18    1.58    2.09
  11  -4 -17    1.99    1.69
  11  -4 -17    0.62    1.32
  11   4 -17   -1.57    1.49
  11  -4 -16    1.26    1.37
  11  -4 -16   -0.32    1.40
  11   4 -16   -1.07    0.79
  11  -4 -15    3.52    0.94
  11   4 -15    0.09    1.01
  11  -4 -15    4.13    2.49
  11  -4 -14   -0.87    2.03
  11   4 -14    0.34    1.88
  11  -4 -14    2.67    2.61
  11  -4 -13    1.45    1.73
  11  -4 -13    2.69    2.70
  11   4 -13   -0.70    1.48
  11   4 -12   16.85    3.83
  11  -4 -12   16.19    3.76
  11  -4 -12   15.55    3.41
  11   4 -11    8.80    2.48
  11  -4 -11    8.21    2.35
  11  -4 -11    7.45    2.72
  11  -4 -10   16.49    4.06
  11  -4 -10   23.64    4.24
  11   4  -9    3.17    1.69
  11  -4  -9    4.27    2.38
  11  -4  -9    5.99    2.16
  11  -4  -8   45.32    5.95
  11  -4  -8   48.74    6.01
  11   4  -8   48.60    6.03
  11   4  -7    8.63    2.21
  11   4  -7    9.71    2.86
  11  -4  -7    4.85    1.66
  11  -4  -7    6.66    2.62
  11   4  -6    3.26    2.02
  11  -4  -6    0.45    1.37
  11   4  -6    3.91    1.99
  11  -4  -6    5.21    2.63
  11   4  -5    3.34    1.76
  11  -4  -5    2.27    1.58
  11   4  -5    1.88    1.51
  11  -4  -5    1.89    2.22
  11  -4  -4  330.09   16.07
  11   4  -4  339.20   14.45
  11   4  -4  337.68   15.52
  11  -4  -4  323.47   15.28
  11  -4  -3   26.58    4.39
  11  -4  -3   23.55    4.28
  11   4  -3   25.49    3.88
  11   4  -3   29.69    4.76
  11  -4  -2   90.38    8.16
  11  -4  -2   88.51    8.17
  11   4  -2   79.55    6.86
  11   4  -2   93.31    8.11
  11   4  -2   86.61    7.49
  11  -4  -1  109.57    8.94
  11  -4  -1  118.51    9.32
  11   4  -1  103.49    7.79
  11   4  -1  121.79    9.31
  11   4  -1  125.14    8.96
  11   4   0   -0.73    0.86
  11  -4   0    1.12    0.68
  11   4   0    0.35    1.35
  11  -4   0   -1.00    1.52
  11   4   1  108.51    8.59
  11  -4   1   99.34    8.56
  11  -4   1  120.51    9.57
  11   4   1  110.03    8.84
  11   4   2   91.17    7.72
  11  -4   2   78.78    7.48
  11  -4   2   86.52    8.17
  11   4   2   82.23    7.46
  11   4   3   33.08    4.68
  11  -4   3   33.97    5.05
  11  -4   3   29.52    4.51
  11   4   3   38.82    5.50
  11   4   4  332.73   15.16
  11  -4   4  352.98   16.08
  11  -4   4  351.17   16.19
  11   4   4  329.49   15.21
  11   4   5    2.91    1.47
  11  -4   5    3.18    1.94
  11   4   5    1.70    1.39
  11  -4   5    3.12    1.40
  11   4   6    5.09    2.11
  11  -4   6    4.13    1.86
  11   4   6    1.62    1.54
  11  -4   6    1.32    1.61
  11   4   7    8.70    2.81
  11  -4   7    5.88    1.83
  11   4   7    7.13    2.22
  11  -4   7    6.49    2.76
  11   4   8   50.94    6.07
  11  -4   8   52.75    6.19
  11  -4   8   55.42    6.65
  11   4   8   50.34    5.87
  11   4   9    5.44    2.74
  11  -4   9    3.25    2.32
  11   4   9    3.86    1.50
  11  -4   9    3.25    1.60
  11  -4  10   17.60    3.83
  11   4  10   14.19    3.65
  11   4  10   24.60    4.47
  11   4  11    7.19    2.98
  11  -4  11    8.15    2.53
  11   4  11    5.37    1.72
  11   4  12   15.62    3.87
  11   4  12   20.21    4.12
  11  -4  12   21.69    4.21
  11   4  13    0.37    1.47
  11  -4  13   -0.96    0.94
  11   4  13    0.13    1.60
  11   4  14    0.33    1.14
  11  -4  14   -0.60    1.10
  11   4  14    0.72    1.99
  11   4  15    0.38    1.35
  11  -4  15    3.62    2.09
  11   4  15    4.87    1.88
  11  -4  16   -0.48    1.38
  11   4  16    0.08    1.27
  11  -4  17   -1.44    2.10
  11   4  17    2.55    1.92
  11  -4  18   -0.78    1.24
  11   4  18    0.06    1.03
  11  -4  19   -0.47    1.93
  11   4  19    2.04    2.57
  11  -4  20    0.75    1.60
  11   4  20    2.35    1.70
  11   4  21    1.94    1.61
  11   4  22    4.79    1.17
  11   4  23    2.43    1.70
  11   4  24    3.91    2.31
  11  -5 -22    7.76    3.16
  11  -5 -21   -0.44    1.18
  11  -5 -20    9.08    2.89
  11  -5 -19    6.35    2.99
  11  -5 -18   12.79    3.36
  11  -5 -18   12.88    3.64
  11   5 -18   12.33    3.19
  11  -5 -17    5.50    2.56
  11  -5 -17    5.03    2.89
  11  -5 -16   -0.24    0.99
  11   5 -16   -2.01    2.23
  11  -5 -15    9.20    3.63
  11  -5 -15   10.27    2.71
  11   5 -15   10.82    3.28
  11  -5 -14   36.70    5.57
  11   5 -14   30.20    5.13
  11  -5 -14   20.49    4.36
  11  -5 -13   33.69    5.33
  11  -5 -13   26.06    4.82
  11   5 -13   34.33    5.54
  11  -5 -12    7.06    2.72
  11   5 -12    8.89    2.55
  11  -5 -12    1.23    1.25
  11  -5 -11    1.63    1.86
  11   5 -11   -0.20    1.14
  11  -5 -11    3.01    1.66
  11   5 -10   -0.12    0.88
  11  -5 -10    0.70    1.72
  11  -5 -10    1.05    1.38
  11  -5  -9   40.64    5.65
  11  -5  -9   52.02    6.56
  11   5  -9   34.37    4.94
  11  -5  -8  112.59    9.56
  11  -5  -8  104.43    9.27
  11   5  -8  120.41    9.79
  11   5  -7   19.25    3.88
  11  -5  -7   28.98    5.16
  11  -5  -7   27.48    5.30
  11   5  -6   15.51    3.26
  11  -5  -6   14.23    3.84
  11  -5  -6   11.24    3.34
  11   5  -5    1.87    1.43
  11  -5  -5    2.15    1.93
  11   5  -5   -0.24    1.63
  11  -5  -5   -0.12    1.12
  11   5  -4  121.59    8.96
  11  -5  -4  127.24   10.06
  11  -5  -4  137.50   10.31
  11   5  -4  117.78    9.43
  11   5  -3   27.53    4.17
  11  -5  -3   19.65    3.98
  11  -5  -3   30.48    5.03
  11   5  -3   32.66    4.81
  11   5  -2   42.87    5.28
  11  -5  -2   39.44    5.78
  11  -5  -2   40.63    5.52
  11   5  -2   41.19    5.67
  11   5  -1   85.77    7.64
  11  -5  -1   71.30    7.54
  11  -5  -1   83.53    8.04
  11   5  -1   83.83    7.77
  11   5   0    0.80    1.13
  11  -5   0    1.30    1.06
  11   5   0    0.53    1.21
  11  -5   0    0.36    1.60
  11  -5   1   66.12    7.20
  11   5   1   80.61    7.46
  11  -5   1   95.90    8.86
  11   5   1   76.58    7.77
  11   5   2   44.02    5.91
  11  -5   2   46.92    6.06
  11   5   2   38.43    5.31
  11  -5   2   50.02    5.95
  11   5   3   25.06    4.43
  11  -5   3   27.96    4.78
  11   5   3   28.83    4.57
  11  -5   3   21.90    4.10
  11   5   4  114.20    9.27
  11  -5   4  123.67    9.93
  11   5   4  128.86    9.68
  11  -5   4  127.54   10.34
  11   5   5    1.99    1.82
  11  -5   5    2.92    2.06
  11  -5   5    1.94    1.09
  11   5   5    2.68    1.92
  11   5   6   10.68    2.65
  11  -5   6   10.19    2.45
  11  -5   6   14.84    4.10
  11   5   6   17.03    3.65
  11   5   7   29.52    4.56
  11   5   7   24.31    4.12
  11  -5   7   18.13    3.91
  11  -5   7   26.13    4.88
  11   5   8  112.15    9.39
  11  -5   8  109.90    9.33
  11   5   8  107.82    9.08
  11  -5   8   95.45    8.86
  11   5   9   37.76    5.48
  11  -5   9   34.92    5.31
  11   5   9   24.10    4.18
  11  -5   9   35.74    5.53
  11   5  10    5.08    2.74
  11  -5  10    2.03    1.56
  11  -5  10    0.03    1.81
  11   5  10    1.52    0.73
  11   5  11   -0.94    1.46
  11  -5  11    1.59    0.99
  11  -5  11    2.33    2.00
  11   5  11    0.17    1.19
  11   5  12    6.98    2.84
  11  -5  12    8.45    2.85
  11  -5  12    4.81    2.40
  11   5  12    4.05    2.08
  11   5  13   31.74    5.14
  11  -5  13   32.13    5.17
  11   5  13   30.48    5.15
  11  -5  13   37.78    6.13
  11   5  14   26.00    4.76
  11  -5  14   28.31    5.30
  11   5  14   23.21    4.89
  11   5  15   10.86    3.61
  11  -5  15    7.17    2.04
  11   5  15   13.62    3.91
  11  -5  16   -1.09    1.90
  11   5  16    0.81    1.53
  11  -5  17    4.85    1.73
  11   5  17    8.04    1.86
  11  -5  18   14.57    4.38
  11   5  18   15.58    3.96
  11   5  19    5.59    2.71
  11   5  20   14.61    3.52
  11   5  21   -1.53    2.52
  11   5  22   13.57    3.31
  11  -6 -21    0.20    1.04
  11  -6 -20    8.55    3.07
  11  -6 -19    5.49    3.02
  11  -6 -19    5.97    2.43
  11  -6 -18   -0.96    2.26
  11  -6 -18   -0.62    2.00
  11  -6 -17    2.10    1.81
  11  -6 -17   -0.66    1.57
  11   6 -17   -0.03    1.01
  11   6 -16    4.35    2.06
  11  -6 -16    1.05    1.14
  11  -6 -16    0.78    1.68
  11   6 -15    0.85    0.85
  11  -6 -15    0.74    1.70
  11  -6 -15   -1.76    1.06
  11  -6 -14    3.57    2.15
  11  -6 -14    1.89    1.78
  11   6 -13    3.32    2.25
  11  -6 -13    3.43    1.95
  11  -6 -13    5.46    2.28
  11   6 -12    1.66    1.62
  11  -6 -12    2.82    1.10
  11  -6 -12    2.31    1.69
  11   6 -11    1.81    2.35
  11  -6 -11   -1.59    1.09
  11  -6 -11    2.16    1.76
  11  -6 -10   13.26    3.52
  11   6 -10    9.96    3.15
  11  -6 -10   18.22    4.36
  11  -6  -9    2.46    2.82
  11   6  -9    2.71    1.97
  11  -6  -9    4.13    1.90
  11  -6  -8    9.83    3.04
  11   6  -8   16.11    3.63
  11  -6  -8   15.31    4.22
  11  -6  -7    0.20    0.86
  11  -6  -7    0.40    1.21
  11  -6  -6   21.79    4.25
  11   6  -6   15.88    3.64
  11  -6  -6   12.54    3.47
  11  -6  -5    4.28    1.88
  11   6  -5    1.03    1.49
  11  -6  -5    5.19    2.51
  11   6  -4    3.29    2.08
  11  -6  -4    4.17    2.00
  11   6  -4    2.65    1.47
  11  -6  -4    0.43    1.29
  11   6  -3    3.43    1.27
  11  -6  -3    2.84    2.13
  11  -6  -3    2.81    2.12
  11   6  -3    1.86    2.11
  11   6  -2   32.31    5.22
  11   6  -2   38.10    5.26
  11  -6  -2   27.30    4.87
  11  -6  -2   34.03    5.45
  11   6  -1    2.65    2.39
  11  -6  -1    0.39    1.42
  11  -6  -1   -0.36    1.13
  11   6  -1    3.82    1.22
  11   6   0    1.60    1.27
  11  -6   0    0.05    1.49
  11  -6   0    2.26    1.96
  11   6   0    1.39    1.23
  11   6   1    3.67    1.41
  11  -6   1    1.06    1.18
  11   6   1    1.94    0.83
  11   6   2   34.57    5.27
  11  -6   2   23.70    4.46
  11   6   2   39.21    5.61
  11  -6   2   37.58    5.88
  11   6   3    0.09    1.82
  11  -6   3    1.28    1.69
  11  -6   3    2.84    2.24
  11   6   3    0.26    1.87
  11   6   4    2.59    1.79
  11   6   4    0.47    0.84
  11  -6   4    4.46    2.03
  11  -6   4    0.67    1.61
  11   6   5    5.11    2.28
  11   6   5    6.14    2.05
  11  -6   5    5.93    2.01
  11  -6   5    5.17    2.34
  11   6   6   18.16    4.02
  11   6   6   23.98    4.25
  11  -6   6   14.79    3.92
  11  -6   6   15.39    3.70
  11   6   7    9.84    2.97
  11   6   7    2.00    2.64
  11  -6   7    5.80    2.50
  11  -6   7    5.39    2.50
  11   6   8   13.76    3.59
  11   6   8   13.38    3.44
  11  -6   8   10.29    2.59
  11  -6   8   14.58    3.18
  11   6   9   -0.89    1.73
  11   6   9    0.95    1.98
  11  -6   9    0.38    1.16
  11  -6   9    5.27    3.04
  11   6  10   16.94    3.70
  11   6  10   17.34    4.02
  11  -6  10   18.71    4.17
  11  -6  10   17.24    3.49
  11   6  11   -0.55    1.63
  11   6  11    1.29    1.57
  11  -6  11    2.56    1.37
  11  -6  11    0.31    1.06
  11   6  12   -1.03    1.95
  11   6  12    1.94    2.17
  11  -6  12   -0.20    1.27
  11  -6  12    2.99    1.07
  11   6  13    5.06    2.72
  11   6  13    3.86    1.77
  11  -6  13    3.73    1.72
  11  -6  13    8.51    3.74
  11   6  14    7.63    2.90
  11   6  14    8.43    2.44
  11  -6  14    4.41    2.79
  11  -6  14    7.71    2.65
  11   6  15    0.95    1.75
  11  -6  15    0.59    1.75
  11  -6  15    1.23    1.99
  11   6  15    3.51    1.81
  11  -6  16   -0.78    1.39
  11  -6  16    3.19    2.41
  11   6  16    0.41    1.77
  11  -6  17   -1.05    2.01
  11  -6  17    4.28    3.55
  11   6  17    0.69    1.07
  11  -6  18    1.62    1.44
  11   6  18   -0.84    1.95
  11   6  19    6.15    3.23
  11   6  20    9.60    3.48
  11   6  21    2.99    2.01
  11  -7 -18    7.77    2.60
  11  -7 -18    9.26    3.38
  11   7 -17    4.64    3.55
  11  -7 -17   -1.85    1.59
  11  -7 -17    3.21    2.60
  11   7 -16   -1.12    1.51
  11  -7 -16    3.08    2.39
  11  -7 -16    0.64    1.36
  11   7 -15    5.21    2.91
  11  -7 -15    8.35    3.60
  11  -7 -15   10.36    3.66
  11   7 -14   24.88    5.08
  11  -7 -14   18.83    4.12
  11  -7 -14   17.09    4.48
  11   7 -13   19.55    4.55
  11  -7 -13   16.37    4.37
  11  -7 -13   31.19    5.48
  11   7 -12   15.92    3.51
  11  -7 -12   14.42    4.02
  11  -7 -12   13.08    3.76
  11   7 -11    2.30    0.88
  11  -7 -11    0.09    1.53
  11  -7 -11    2.26    1.81
  11   7 -10    4.64    2.63
  11  -7 -10    4.96    2.00
  11  -7 -10    2.22    2.20
  11   7  -9   20.27    4.40
  11  -7  -9   18.65    4.33
  11  -7  -9   10.63    3.34
  11  -7  -8   32.70    5.49
  11  -7  -8   27.36    4.83
  11   7  -8   35.26    5.40
 -11   7  -7   47.08    6.86
  11  -7  -7   54.01    7.05
  11  -7  -7   44.34    6.50
  11   7  -7   52.23    6.84
  11  -7  -6   15.95    3.87
  11   7  -6   16.05    3.73
 -11   7  -6   15.10    4.17
  11  -7  -6   15.99    4.14
  11  -7  -5    4.45    2.91
  11   7  -5    0.75    1.99
  11  -7  -5   -0.09    1.63
  11  -7  -4   11.22    3.04
  11   7  -4   12.93    3.50
  11  -7  -4   19.25    4.04
  11   7  -3   50.29    6.44
  11   7  -3   58.70    7.15
  11  -7  -3   68.29    7.85
  11  -7  -3   49.68    6.97
  11  -7  -2   10.88    3.11
  11   7  -2   10.35    3.51
  11  -7  -2    9.54    3.28
  11   7  -2    9.12    2.74
  11  -7  -1    2.18    2.01
  11   7  -1    2.62    1.39
  11  -7  -1    1.48    1.95
  11   7  -1    4.30    2.30
  11  -7   0    3.13    1.94
  11   7   0    2.01    1.76
  11  -7   0   -1.63    2.12
  11   7   0   -0.33    1.18
  11   7   1    2.20    1.90
  11  -7   1    0.16    1.51
  11   7   1   -0.56    1.58
  11  -7   1    3.09    1.53
  11   7   2    9.93    3.16
  11  -7   2    8.33    2.73
  11   7   2   10.92    2.88
  11  -7   2    6.21    2.48
  11   7   3   55.78    7.12
  11   7   3   47.47    6.36
  11  -7   3   39.82    6.30
  11  -7   3   53.42    7.09
  11   7   4   20.37    4.08
  11  -7   4   17.08    4.35
  11   7   4   18.20    3.55
  11  -7   4   11.27    3.11
  11   7   5    2.24    0.82
  11   7   5    0.09    1.31
  11  -7   5    1.78    1.52
  11  -7   5    0.46    1.82
  11   7   6   21.54    4.03
  11   7   6   10.85    2.88
  11  -7   6   12.76    3.33
  11  -7   6   17.54    4.18
  11   7   7   37.90    6.00
  11   7   7   60.63    7.22
  11  -7   7   49.98    7.11
  11  -7   7   43.64    6.45
  11   7   8   42.36    6.26
  11   7   8   40.31    5.80
  11  -7   8   34.30    5.75
  11  -7   8   42.50    6.32
  11   7   9   27.09    4.79
  11   7   9   12.60    3.07
  11  -7   9   12.76    3.80
  11  -7   9   21.50    5.05
  11   7  10    3.35    2.68
  11   7  10    6.59    2.46
  11  -7  10    2.52    1.12
  11  -7  10    1.93    3.15
  11   7  11   -0.33    1.17
  11   7  11   -0.35    1.76
  11  -7  11    3.02    2.34
  11   7  12   11.08    3.31
  11   7  12   12.56    3.17
  11  -7  12   15.29    4.24
  11  -7  12    7.44    3.70
  11   7  13   23.05    4.55
  11  -7  13   27.86    5.51
  11   7  13   34.40    5.79
  11  -7  13   25.19    5.12
  11   7  14   19.28    4.40
  11   7  14   17.38    4.56
  11  -7  14   14.59    3.78
  11  -7  14   20.65    4.73
  11   7  15    4.97    2.71
  11   7  15   10.88    3.64
  11  -7  15   13.04    3.91
  11   7  16    2.32    1.47
  11   7  16    3.27    2.49
  11   7  17    2.84    1.79
  11   7  18    5.13    3.04
  11   8 -15    0.70    2.34
  11  -8 -15    0.70    1.02
  11  -8 -15    2.99    1.57
  11   8 -14   -0.74    1.55
  11  -8 -14   -1.68    2.96
  11  -8 -14   -1.57    2.17
  11   8 -13    1.63    0.96
  11  -8 -13    4.51    1.80
  11  -8 -13    7.32    3.10
  11   8 -12    2.56    1.33
  11  -8 -12   -0.23    1.52
  11  -8 -12    1.05    2.00
  11   8 -11    1.39    2.13
  11  -8 -11   -2.21    1.03
  11  -8 -11    2.11    2.01
  11   8 -10   -1.62    2.12
  11  -8 -10    0.35    1.16
  11  -8 -10   -1.10    1.74
  11   8  -9    2.00    1.66
  11  -8  -9    2.88    1.61
  11  -8  -9    3.30    1.57
  11   8  -8    3.50    2.58
  11  -8  -8    2.77    2.34
  11  -8  -8    3.36    2.33
  11   8  -7    1.90    1.63
  11  -8  -7   -0.94    2.13
  11  -8  -7    0.43    1.44
  11   8  -6    1.40    2.22
 -11   8  -6    3.37    2.69
  11  -8  -6    5.39    2.18
  11  -8  -6    1.27    1.82
  11   8  -5    3.90    2.82
 -11   8  -5    0.80    1.63
  11  -8  -5    1.37    1.06
  11  -8  -5    1.58    1.60
  11  -8  -4   -0.34    0.80
  11   8  -4    1.91    0.89
 -11   8  -4    1.22    0.99
  11  -8  -3    2.13    2.39
  11   8  -3   -1.01    1.24
 -11   8  -3   -1.31    1.95
  11  -8  -3    3.76    1.95
  11  -8  -2    1.29    0.91
  11   8  -2   -1.17    1.46
 -11   8  -2   -1.45    1.70
  11  -8  -2   -0.94    1.39
  11  -8  -1   10.07    2.95
  11   8  -1    6.24    2.79
  11   8  -1   12.43    3.81
 -11   8  -1    6.37    2.49
  11  -8  -1    8.88    2.86
  11  -8   0    0.78    1.30
  11   8   0    3.88    1.67
  11   8   0   -1.28    1.18
 -11   8   0    4.41    2.52
  11  -8   0   -0.59    1.19
  11  -8   1   14.53    3.49
  11   8   1   16.08    3.85
  11   8   1   11.19    3.26
  11  -8   1   15.01    4.37
  11  -8   2    5.24    2.81
  11   8   2    0.31    0.93
  11   8   2    0.70    1.10
  11  -8   2    2.08    2.70
  11  -8   3    0.76    1.18
  11   8   3   -0.92    1.82
  11   8   3   -0.26    1.13
  11  -8   3   -0.44    1.28
  11  -8   4    0.28    0.93
  11   8   4   -0.19    2.67
  11   8   4    0.28    1.38
  11  -8   4   -0.37    1.78
  11  -8   5    2.28    2.23
  11   8   5    0.78    1.15
  11   8   5    2.30    0.96
  11  -8   5    1.32    1.50
  11  -8   6    2.01    2.51
  11   8   6    0.12    1.60
  11   8   6    1.30    1.46
  11  -8   6    3.04    2.32
  11  -8   7    2.96    1.57
  11   8   7    1.52    1.19
  11   8   7    0.60    1.26
  11  -8   7    1.86    2.65
  11  -8   8   -0.01    1.18
  11   8   8    2.43    1.80
  11   8   8    3.34    2.92
  11  -8   8   -0.33    2.14
  11  -8   9    7.24    3.33
  11   8   9    4.69    2.23
  11   8   9    3.19    2.84
  11  -8  10    0.62    1.18
  11   8  10   -1.06    1.44
  11   8  10    0.19    1.27
  11  -8  11   -0.74    2.35
  11   8  11    0.74    1.29
  11   8  11   -0.56    0.77
  11  -8  12   -1.60    2.21
  11   8  12   -0.91    1.26
  11   8  12   -0.77    1.82
  11  -8  13    3.07    2.42
  11   8  13    1.64    2.41
  11   8  13    0.21    1.58
  11  -8  14   -0.33    1.42
  11   8  14   -0.44    1.65
  11   8  14    1.14    1.64
  11   8  15    0.80    1.50
  11   8  15    3.18    2.69
  11  -9 -11   -1.64    1.73
  11   9 -11    5.74    3.00
  11  -9 -11    3.40    1.90
  11   9 -10   -3.00    2.35
  11  -9 -10   -0.86    0.94
  11   9  -9   15.37    4.01
  11  -9  -9    9.30    3.50
  11  -9  -9    9.33    3.79
  11  -9  -8   -1.12    1.43
  11   9  -8   10.25    3.58
  11  -9  -8    4.85    2.70
  11   9  -7   12.29    3.42
  11  -9  -7   20.12    4.65
  11  -9  -7   21.88    4.64
  11   9  -6    2.92    2.27
  11  -9  -6    3.28    3.27
  11  -9  -6    2.19    1.75
  11   9  -5    3.34    2.23
 -11   9  -5    6.81    3.03
  11  -9  -5    8.84    2.88
  11  -9  -5    6.19    2.20
  11   9  -4    1.45    1.86
 -11   9  -4    2.21    2.60
  11  -9  -4   -0.28    1.45
  11  -9  -4    2.54    2.90
  11   9  -3   65.92    8.13
 -11   9  -3   56.12    7.35
  11  -9  -3   47.52    6.54
  11  -9  -3   53.00    7.23
  11   9  -2    7.42    2.63
 -11   9  -2    4.54    2.51
  11  -9  -2    8.24    3.51
  11  -9  -2    7.37    2.74
  11   9  -1   -1.03    1.43
 -11   9  -1    4.44    2.76
  11  -9  -1    1.19    1.72
  11  -9  -1    0.16    1.25
  11   9   0    2.44    1.62
  11   9   0    0.82    0.90
 -11   9   0    3.56    2.20
  11  -9   0    1.66    2.76
  11  -9   0    2.84    2.40
  11  -9   1    4.49    2.42
  11   9   1    2.64    1.87
  11   9   1    0.27    0.93
 -11   9   1    1.36    2.22
  11  -9   1   -2.67    2.23
  11  -9   2    2.63    3.22
  11   9   2   -0.10    2.37
  11   9   2    3.07    1.96
 -11   9   2    8.63    3.12
  11   9   3   59.53    7.57
  11   9   3   54.66    7.26
 -11   9   3   54.62    7.39
  11  -9   3   41.56    6.71
  11  -9   4   -0.85    1.60
  11   9   4    5.96    2.92
  11   9   4    6.99    2.93
 -11   9   4    1.05    1.09
  11  -9   5    6.10    2.38
  11   9   5    6.37    3.48
  11   9   5    3.44    2.00
 -11   9   5    3.17    1.73
  11  -9   6    5.79    2.33
  11   9   6    3.39    2.44
  11   9   6    1.61    1.55
 -11   9   6    7.24    2.81
  11  -9   7   21.64    4.61
  11   9   7   16.79    3.69
  11   9   7   17.28    4.32
 -11   9   7   22.64    4.89
  11  -9   8   10.45    3.77
  11   9   8    1.83    1.51
  11   9   8    1.90    2.08
 -11   9   8    8.55    3.52
  11  -9   9    9.22    2.72
  11   9   9    7.57    3.20
  11   9   9    3.62    1.94
 -11   9   9    8.94    2.93
  11  -9  10    7.51    3.55
  11   9  10    0.81    1.41
  11   9  10    2.38    2.15
 -11   9  10    2.67    2.41
  11  -9  11    1.76    2.14
  11   9  11    0.25    1.64
  11   9  11    0.48    1.62
 -11   9  11    0.54    1.92
  12   0 -23    1.01    1.64
  12   0 -22    0.17    0.99
  12   0 -21   -0.21    1.62
  12   0 -20   21.22    4.25
  12   0 -19   24.34    4.54
  12   0 -18   20.20    4.30
  12   0 -17  107.78    9.47
  12   0 -16   53.22    6.80
  12   0 -15    3.62    2.07
  12   0 -14  108.62    9.37
  12   0 -13  220.11   13.03
  12   0 -12   -3.50    1.51
  12   0 -12   80.75    8.09
  12   0 -11  117.11    8.79
  12   0 -11   99.85    8.76
  12   0 -10  130.36    9.24
  12   0 -10  144.03   10.31
  12   0  -9   30.72    4.46
  12   0  -9   37.28    5.22
  12   0  -8   71.17    6.75
  12   0  -8   75.67    7.42
  12   0  -7   17.61    3.52
  12   0  -7   13.03    3.26
  12   0  -6   61.67    6.36
  12   0  -6   63.18    6.46
  12   0  -5  123.63    8.88
  12   0  -5  134.52    9.50
  12   0  -5  115.66    8.65
  12   0  -4   70.32    6.71
  12   0  -4   69.94    6.78
  12   0  -4   75.64    7.11
  12   0  -3   12.52    2.90
  12   0  -3   12.73    3.06
  12   0  -3   11.62    2.86
  12   0  -2  241.03   12.45
  12   0  -2  234.21   12.78
  12   0  -2  260.06   12.80
  12   0  -1  503.68   18.19
  12   0  -1  497.88   18.44
  12   0  -1  513.69   18.22
  12   0   0  315.25   14.44
  12   0   0  312.13   14.82
  12   0   0  298.86   13.65
  12   0   1  486.15   18.09
  12   0   1  486.26   18.62
  12   0   1  515.66   17.78
  12   0   2  222.02   12.51
  12   0   2  225.89   12.49
  12   0   2  221.98   11.74
  12   0   3   10.39    2.42
  12   0   3   10.96    2.86
  12   0   4   63.93    6.57
  12   0   4   70.49    6.58
  12   0   5  129.55    9.29
  12   0   5  119.64    8.32
  12   0   6   64.80    6.66
  12   0   6   57.64    5.85
  12   0   7   12.28    3.14
  12   0   7   10.46    2.49
  12   0   8   80.90    7.58
  12   0   8   77.91    6.90
  12   0   9   25.17    4.55
  12   0   9   28.22    4.10
  12   0  10  132.11    9.63
  12   0  10  133.94    9.02
  12   0  11  113.65    9.36
  12   0  12   90.46    8.58
  12   0  13  215.63   13.08
  12   0  14  108.60    9.41
  12   0  15    4.83    2.35
  12   0  16   57.00    6.66
  12   0  17   93.42    8.77
  12   0  18   24.88    5.03
  12   0  19   32.79    5.61
  12   0  20   17.27    4.08
  12   0  21   -0.09    1.63
  12   0  22    3.20    2.34
  12   0  23    7.69    3.08
  12   0  24    8.46    3.42
  12   0  25   16.66    4.54
  12  -1 -25   -1.11    2.68
  12  -1 -24    1.33    1.19
  12  -1 -23    3.54    1.85
  12  -1 -22   -0.44    0.99
  12  -1 -21    7.51    1.76
  12  -1 -20   -0.12    1.09
  12  -1 -19    2.50    2.33
  12   1 -18    1.36    1.17
  12  -1 -18    0.52    0.92
  12   1 -17    9.98    3.03
  12  -1 -17   11.43    2.67
  12   1 -16    1.54    1.99
  12  -1 -16    0.86    0.89
  12   1 -15    1.51    1.58
  12  -1 -15    2.05    2.53
  12   1 -14    5.38    2.00
  12  -1 -14    3.61    2.20
  12  -1 -13    2.89    2.37
  12   1 -13    1.63    1.87
  12  -1 -13    1.12    1.08
  12  -1 -12    2.83    1.71
  12   1 -12    6.38    2.79
  12  -1 -12    3.98    1.97
  12  -1 -11   19.87    3.92
  12   1 -11   18.83    3.43
  12  -1 -11   19.98    4.11
  12   1 -11   21.87    4.26
  12  -1 -10   13.78    2.85
  12   1 -10   11.43    2.98
  12  -1 -10   12.50    3.16
  12   1 -10    8.99    2.80
  12   1 -10   15.49    3.40
  12   1  -9   21.81    3.82
  12  -1  -9   19.19    3.59
  12  -1  -9   17.86    3.53
  12   1  -9   15.71    3.47
  12   1  -9   15.97    3.51
  12  -1  -8    8.58    2.71
  12   1  -8    7.96    2.36
  12  -1  -8    4.83    1.87
  12   1  -8    5.78    2.34
  12   1  -8   10.97    3.16
  12  -1  -7    0.46    1.35
  12   1  -7    0.85    1.38
  12  -1  -7    1.73    0.67
  12   1  -7    0.43    1.40
  12   1  -7    2.07    1.38
  12  -1  -6    9.50    2.41
  12   1  -6    9.40    2.73
  12  -1  -6   11.44    2.75
  12   1  -6    9.26    2.43
  12   1  -6    6.09    1.66
  12  -1  -5   14.03    3.49
  12  -1  -5   18.85    3.96
  12   1  -5   17.57    3.63
  12   1  -5   13.49    2.98
  12   1  -5   14.76    3.19
  12  -1  -4   43.62    5.27
  12   1  -4   43.00    5.38
  12  -1  -4   45.06    5.77
  12   1  -4   41.29    5.25
  12   1  -4   31.84    4.69
  12  -1  -3   94.31    8.07
  12   1  -3   97.05    7.98
  12  -1  -3   93.87    8.18
  12   1  -3  101.30    8.25
  12   1  -3   89.83    7.51
  12  -1  -2   60.94    6.40
  12   1  -2   58.34    6.09
  12  -1  -2   56.79    6.37
  12   1  -2   65.97    6.62
  12   1  -2   63.81    6.53
  12   1  -1   20.78    3.71
  12  -1  -1   17.24    3.16
  12   1  -1   22.22    3.83
  12  -1  -1   17.40    3.53
  12   1  -1   24.18    3.90
  12  -1   0   11.01    2.84
  12  -1   0    6.56    2.12
  12   1   0   13.82    3.25
  12   1   0   12.55    2.83
  12   1   0    9.77    2.31
  12  -1   1   24.79    4.01
  12   1   1   23.95    3.96
  12  -1   1   18.39    3.82
  12   1   1   15.32    3.09
  12   1   1   24.61    3.93
  12  -1   2   64.97    6.44
  12   1   2   56.61    5.98
  12  -1   2   62.61    6.66
  12   1   2   60.14    6.07
  12  -1   3   83.05    7.55
  12   1   3   92.30    7.85
  12  -1   3   77.93    7.38
  12   1   3   99.06    7.94
  12  -1   4   47.28    5.66
  12   1   4   37.52    4.99
  12   1   4   45.38    5.25
  12   1   5   18.35    3.66
  12  -1   5   12.39    2.97
  12   1   5   14.89    3.05
  12   1   6    9.67    2.64
  12  -1   6    9.98    2.91
  12   1   6    8.50    2.38
  12   1   7   -0.19    0.54
  12  -1   7    2.12    1.59
  12   1   7    0.82    1.22
  12   1   8    8.45    2.49
  12  -1   8    9.04    2.22
  12   1   8    8.32    2.89
  12   1   9   17.40    3.17
  12  -1   9   29.25    4.78
  12   1   9   19.51    4.00
  12   1  10   10.67    3.18
  12  -1  10   13.51    2.90
  12   1  10    9.29    2.51
  12  -1  11   17.63    3.59
  12   1  11   16.35    3.04
  12   1  12    4.44    1.92
  12  -1  12    2.45    1.98
  12   1  12    4.36    1.88
  12   1  13    3.41    1.90
  12  -1  13   -0.84    1.44
  12   1  14    5.39    2.22
  12  -1  14    3.69    2.00
  12   1  15    3.89    1.56
  12  -1  15    4.32    1.98
  12   1  16    0.83    1.14
  12  -1  16    1.08    0.92
  12   1  17   11.02    3.46
  12  -1  17    5.15    2.19
  12   1  18   -0.55    1.74
  12  -1  18   -0.61    1.90
  12   1  19    0.60    1.20
  12  -1  19    1.14    1.21
  12   1  20    2.79    1.28
  12  -1  20    5.25    3.08
  12   1  21    0.65    1.34
  12  -1  21    3.20    1.04
  12   1  22    4.40    1.94
  12  -1  22    7.51    3.43
  12   1  23    1.62    2.59
  12  -1  23    1.50    2.63
  12   1  24   -1.58    2.22
  12  -1  24    0.49    2.20
  12   1  25    3.66    2.92
  12  -2 -25   12.22    4.01
  12  -2 -24    8.05    2.81
  12  -2 -23   -0.12    2.18
  12  -2 -22    7.63    2.86
  12  -2 -21    6.13    2.88
  12  -2 -20    9.42    3.63
  12  -2 -19   11.52    3.41
  12  -2 -18   27.29    5.13
  12  -2 -17    9.61    3.16
  12  -2 -16   16.16    3.41
  12  -2 -15   17.51    3.80
  12   2 -15   10.96    3.10
  12  -2 -14   32.28    5.37
  12  -2 -14   29.75    4.89
  12   2 -14   30.21    4.81
  12   2 -13   56.76    6.58
  12  -2 -13   74.55    7.94
  12   2 -13   77.61    7.83
  12  -2 -13   66.45    7.09
  12   2 -12   44.31    5.67
  12  -2 -12   50.38    6.37
  12   2 -12   55.62    6.40
  12  -2 -12   50.78    6.21
  12   2 -11   24.82    4.21
  12  -2 -11   23.38    4.40
  12   2 -11   21.20    4.17
  12  -2 -11   21.86    4.14
  12  -2 -10   32.31    4.86
  12   2 -10   28.91    4.62
  12   2 -10   27.52    4.56
  12  -2 -10   30.07    4.82
  12  -2  -9   51.88    6.05
  12   2  -9   61.49    6.09
  12  -2  -9   70.42    7.40
  12   2  -9   57.50    6.27
  12   2  -9   62.15    6.72
  12  -2  -8   80.72    7.68
  12   2  -8   85.83    7.27
  12  -2  -8   86.81    8.24
  12   2  -8   83.14    7.48
  12   2  -8   81.78    7.60
  12  -2  -7   38.19    5.16
  12   2  -7   44.12    5.08
  12  -2  -7   44.24    6.11
  12   2  -7   36.30    4.91
  12   2  -7   44.67    5.54
  12  -2  -6   29.69    4.53
  12   2  -6   33.03    4.38
  12  -2  -6   27.10    4.88
  12   2  -6   26.83    4.34
  12   2  -6   29.65    4.61
  12  -2  -5   69.71    7.06
  12   2  -5   71.63    6.85
  12  -2  -5   68.12    7.14
  12   2  -5   66.54    6.72
  12   2  -5   81.35    7.54
  12  -2  -4  112.00    8.86
  12   2  -4  110.01    8.45
  12  -2  -4  106.68    9.12
  12   2  -4  121.81    9.04
  12   2  -4  107.24    8.63
  12  -2  -3   22.02    3.95
  12   2  -3   31.08    4.59
  12  -2  -3   28.02    4.68
  12   2  -3   23.80    4.05
  12   2  -3   24.51    4.23
  12  -2  -2  117.63    9.14
  12   2  -2  116.15    8.67
  12  -2  -2  126.00    9.53
  12   2  -2  127.64    9.09
  12   2  -2  136.19    9.64
  12  -2  -1  256.43   13.61
  12   2  -1  263.01   12.86
  12  -2  -1  262.01   14.03
  12   2  -1  259.30   13.35
  12   2  -1  268.68   13.34
  12  -2   0  157.71   10.55
  12   2   0  156.42    9.94
  12  -2   0  157.60   10.95
  12   2   0  155.19   10.23
  12   2   0  149.44    9.98
  12  -2   1  266.18   13.71
  12   2   1  266.38   13.18
  12  -2   1  263.74   13.79
  12   2   1  246.81   13.03
  12  -2   2  124.75    9.39
  12   2   2  117.08    8.88
  12  -2   2  139.71   10.19
  12   2   2  141.72    9.65
  12  -2   3   24.56    4.51
  12  -2   3   23.78    4.31
  12   2   3   21.15    3.89
  12   2   3   32.63    4.64
  12  -2   4  102.49    8.75
  12  -2   4  118.44    9.40
  12   2   4  108.01    8.32
  12   2   4  117.34    8.68
  12  -2   5   59.10    6.37
  12  -2   5   72.46    7.29
  12   2   5   68.98    6.94
  12   2   5   72.10    6.81
  12  -2   6   26.48    4.35
  12   2   6   31.92    4.76
  12   2   6   28.90    4.60
  12  -2   7   28.81    4.70
  12   2   7   37.05    5.09
  12   2   7   45.49    5.61
  12  -2   8   78.76    7.62
  12   2   8   87.12    8.11
  12   2   8   78.31    7.15
  12  -2   9   67.87    7.27
  12   2   9   74.34    7.38
  12   2   9   59.25    6.35
  12  -2  10   31.42    5.05
  12   2  10   30.75    4.82
  12   2  10   27.81    4.44
  12   2  11   20.85    3.93
  12  -2  11   22.17    4.43
  12   2  11   25.26    4.66
  12  -2  12   56.68    6.60
  12   2  12   46.60    6.12
  12   2  12   40.96    5.64
  12  -2  13   60.23    6.92
  12   2  13   63.45    7.03
  12  -2  14   36.57    5.58
  12   2  14   27.14    4.76
  12   2  15   10.91    3.08
  12  -2  15   14.50    3.82
  12   2  16   17.98    3.97
  12  -2  16   15.51    3.88
  12   2  17   26.02    4.66
  12  -2  17   18.10    3.98
  12  -2  18   31.89    5.71
  12   2  18   27.30    4.93
  12   2  19    8.42    2.35
  12  -2  19   11.21    3.49
  12   2  20    6.21    2.25
  12  -2  20    4.89    1.90
  12   2  21    7.06    2.58
  12  -2  21    7.91    3.09
  12   2  22    2.93    1.76
  12  -2  22    5.59    1.46
  12   2  23    2.82    1.80
  12   2  24    7.82    3.45
  12   2  25    8.42    3.60
  12  -3 -24    1.26    1.75
  12  -3 -23    6.79    2.48
  12  -3 -22    3.65    2.27
  12  -3 -21    5.32    2.22
  12  -3 -20   -0.35    1.96
  12  -3 -19    1.48    1.31
  12   3 -19    3.31    3.08
  12  -3 -18    9.37    3.46
  12   3 -18   10.37    3.39
  12  -3 -17    0.87    1.26
  12   3 -17    1.85    1.28
  12  -3 -16    0.45    1.61
  12   3 -16    2.56    1.49
  12  -3 -15    1.04    1.61
  12  -3 -15   -1.01    1.30
  12   3 -15    0.31    1.20
  12  -3 -14    1.50    1.23
  12  -3 -14    1.19    1.84
  12   3 -14    2.25    1.95
  12  -3 -13    1.88    1.67
  12  -3 -13    1.13    1.64
  12   3 -13    0.31    1.13
  12  -3 -12   34.25    5.34
  12  -3 -12   30.37    5.03
  12   3 -12   28.14    4.90
  12  -3 -11   16.95    3.50
  12  -3 -11   27.54    4.91
  12   3 -11   20.31    4.14
  12  -3 -10   12.93    3.17
  12   3 -10   18.34    3.37
  12  -3  -9   13.03    2.92
  12  -3  -9   11.74    2.86
  12   3  -9   17.77    3.87
  12  -3  -8   11.99    3.48
  12  -3  -8   10.74    3.25
  12   3  -8   13.51    3.24
  12   3  -7    2.01    1.49
  12  -3  -7    4.91    1.64
  12  -3  -7    6.45    2.61
  12   3  -7    4.37    1.96
  12   3  -7    9.44    2.60
  12   3  -6    4.30    1.63
  12   3  -6    1.17    1.96
  12  -3  -6    2.04    1.35
  12  -3  -6    2.86    2.12
  12   3  -6    2.48    1.78
  12   3  -5   18.15    3.69
  12   3  -5   12.01    3.30
  12  -3  -5   13.00    2.81
  12  -3  -5   21.33    4.44
  12   3  -5   14.02    3.18
  12  -3  -4   85.79    8.00
  12  -3  -4   82.26    8.07
  12   3  -4   93.74    7.79
  12   3  -4   82.60    7.24
  12   3  -4  105.93    8.52
  12  -3  -3  153.75   10.67
  12  -3  -3  155.84   10.72
  12   3  -3  158.98   10.14
  12   3  -3  155.91    9.90
  12   3  -3  177.16   10.93
  12  -3  -2   72.87    7.37
  12  -3  -2   79.33    7.63
  12   3  -2   76.08    7.18
  12   3  -2   71.55    6.92
  12   3  -2   72.84    6.91
  12   3  -1   11.35    2.87
  12   3  -1    9.84    2.41
  12  -3  -1    8.73    2.51
  12  -3  -1    8.87    2.14
  12   3  -1   13.79    3.11
  12   3   0   13.97    3.10
  12   3   0   13.23    2.94
  12  -3   0    5.79    2.20
  12  -3   0    5.30    1.53
  12   3   0   16.72    3.43
  12   3   1   14.06    3.29
  12   3   1   17.52    3.55
  12  -3   1   13.31    3.79
  12  -3   1    9.94    2.99
  12  -3   2   65.11    6.96
  12  -3   2   73.74    7.41
  12   3   2   72.71    7.10
  12   3   2   58.79    6.36
  12  -3   3  147.08   10.38
  12  -3   3  161.20   11.05
  12   3   3  178.48   11.17
  12   3   3  145.65   10.07
  12  -3   4   98.53    8.71
  12   3   4   98.64    8.34
  12   3   4   86.79    7.97
  12   3   5   11.48    3.14
  12  -3   5   17.29    3.90
  12  -3   5   11.51    3.18
  12   3   5   22.70    4.26
  12   3   6    0.51    0.84
  12   3   6    1.10    1.98
  12  -3   6    3.39    1.91
  12  -3   6    2.95    1.69
  12   3   7    5.61    2.68
  12   3   7    3.68    2.52
  12  -3   7    3.74    1.53
  12  -3   7    1.90    1.30
  12   3   8    9.25    2.95
  12   3   8   13.62    3.20
  12  -3   8   10.90    3.20
  12   3   9   12.50    3.49
  12   3   9    9.54    2.38
  12   3  10   16.35    3.50
  12   3  10   19.60    3.91
  12  -3  10   19.41    3.93
  12   3  11   16.95    3.69
  12   3  11   16.38    3.53
  12  -3  11   20.21    4.07
  12  -3  12   31.31    5.14
  12   3  12   27.48    4.59
  12   3  12   36.07    5.54
  12   3  13    2.94    2.45
  12   3  13    2.64    1.81
  12  -3  13    2.43    2.48
  12   3  14    1.33    1.74
  12   3  14    1.31    1.56
  12  -3  14    3.03    1.42
  12   3  15    0.21    0.91
  12  -3  15    1.78    2.57
  12   3  16    3.56    2.11
  12  -3  16    1.83    2.54
  12   3  17    1.75    0.93
  12  -3  17    3.45    2.40
  12   3  18    5.94    3.02
  12  -3  18    4.08    2.53
  12   3  19   -0.09    1.40
  12  -3  19   -0.44    1.39
  12   3  20    6.63    2.51
  12  -3  20   -1.07    2.82
  12   3  21    1.98    1.82
  12  -3  21    4.26    2.21
  12   3  22    0.76    1.16
  12   3  23    0.01    1.76
  12   3  24    1.70    3.16
  12  -4 -23   11.89    3.85
  12  -4 -22   16.06    4.47
  12  -4 -21    7.84    2.87
  12  -4 -20    5.16    2.39
  12  -4 -19    3.34    2.46
  12   4 -19   -0.93    1.27
  12  -4 -18    2.71    1.66
  12   4 -18    5.70    2.63
  12  -4 -17   10.68    3.22
  12   4 -17    5.95    2.60
  12  -4 -16    7.30    2.87
  12   4 -16    5.50    2.78
  12  -4 -16    4.25    1.77
  12  -4 -15    3.35    1.48
  12   4 -15    4.64    2.26
  12  -4 -15    5.04    2.07
  12  -4 -14   12.16    3.01
  12  -4 -14   14.46    3.86
  12   4 -14   12.75    3.05
  12  -4 -13   17.88    4.07
  12  -4 -13   23.76    4.52
  12   4 -13   19.92    4.23
  12  -4 -12    0.59    0.97
  12  -4 -12    4.50    2.81
  12   4 -12    1.82    1.20
  12  -4 -11    3.01    1.54
  12  -4 -11    5.72    2.52
  12   4 -11    3.67    2.02
  12   4 -10   14.20    3.53
  12  -4 -10   18.38    4.03
  12  -4 -10   10.69    3.00
  12  -4  -9   27.47    4.66
  12   4  -9   31.05    4.96
  12  -4  -9   30.00    4.91
  12  -4  -8   76.48    7.90
  12   4  -8   84.71    7.93
  12  -4  -8   79.47    7.94
  12  -4  -7  104.95    9.19
  12   4  -7   99.77    8.64
  12  -4  -7  112.97    9.70
  12  -4  -6   38.75    5.56
  12   4  -6   31.41    4.36
  12   4  -6   33.48    5.05
  12  -4  -6   32.53    4.89
  12  -4  -5   83.03    8.02
  12   4  -5   66.78    6.66
  12   4  -5   72.49    7.22
  12  -4  -5   74.02    7.87
  12  -4  -4  146.02   10.48
  12  -4  -4  142.29   10.92
  12   4  -4  152.63   10.19
  12   4  -4  146.81   10.53
  12  -4  -3  123.34    9.73
  12  -4  -3  119.49    9.88
  12   4  -3  112.75    8.92
  12   4  -3  127.66    9.64
  12  -4  -2  132.06   10.18
  12  -4  -2  128.39   10.34
  12   4  -2  124.60    9.27
  12   4  -2  126.04    9.64
  12  -4  -1   62.01    7.08
  12  -4  -1   65.73    7.01
  12   4  -1   80.31    7.33
  12   4  -1   66.88    6.82
  12   4  -1   68.70    7.17
  12  -4   0   20.13    4.22
  12   4   0   22.94    3.86
  12  -4   0   22.58    4.40
  12   4   0   22.85    4.36
  12   4   0   23.46    3.86
  12  -4   1   67.17    7.32
  12  -4   1   64.02    7.14
  12   4   1   68.68    7.13
  12   4   1   59.06    6.52
  12  -4   2  143.03   10.67
  12  -4   2  123.19    9.91
  12   4   2  144.81   10.30
  12   4   2  126.83    9.57
  12   4   3  115.82    9.26
  12  -4   3  127.37    9.96
  12  -4   3  120.54    9.80
  12   4   3  122.08    9.69
  12   4   4  149.01   10.38
  12  -4   4  136.86   10.32
  12  -4   4  148.67   11.17
  12   4   4  155.43   10.82
  12   4   5   74.55    7.41
  12  -4   5   82.22    7.92
  12  -4   5   64.87    7.46
  12   4   5   80.08    7.80
  12   4   6   47.14    6.19
  12  -4   6   45.20    5.91
  12  -4   6   34.66    5.44
  12   4   6   38.80    5.39
  12   4   7   95.03    8.47
  12  -4   7  105.23    9.04
  12  -4   7   94.54    8.62
  12   4   7  100.92    8.62
  12   4   8   82.31    7.75
  12  -4   8   82.87    8.39
  12  -4   8   81.12    8.22
  12   4   8   79.10    7.64
  12   4   9   45.45    6.09
  12  -4   9   37.62    5.67
  12  -4   9   39.31    5.82
  12   4   9   42.27    5.95
  12   4  10   17.54    3.88
  12  -4  10   19.85    4.45
  12   4  10   18.73    3.69
  12  -4  10   12.00    3.55
  12   4  11    1.99    1.94
  12  -4  11    2.98    0.87
  12   4  11    5.89    2.45
  12   4  12    5.45    2.70
  12  -4  12    5.88    2.39
  12   4  12    4.23    1.44
  12   4  13   18.59    4.05
  12  -4  13   20.37    4.06
  12   4  13   17.29    3.72
  12   4  14   16.88    3.92
  12  -4  14    8.73    2.79
  12   4  14    9.43    3.16
  12  -4  15    1.07    1.54
  12   4  15    2.92    1.76
  12  -4  16    8.92    3.33
  12   4  16    7.71    2.75
  12  -4  17    5.12    2.82
  12   4  17    6.40    2.53
  12  -4  18    1.79    2.09
  12   4  18    5.69    2.55
  12  -4  19    2.25    1.57
  12   4  19    2.20    1.10
  12  -4  20    3.31    2.65
  12   4  20    3.94    1.63
  12   4  21   11.49    3.87
  12   4  22   10.75    4.07
  12   4  23   11.38    4.21
  12  -5 -21    1.88    0.93
  12  -5 -20    3.12    2.25
  12  -5 -19    1.09    1.43
  12   5 -19   11.10    4.35
  12  -5 -18    5.15    2.25
  12   5 -18    3.64    2.28
  12  -5 -17    6.95    2.89
  12  -5 -17    5.46    1.90
  12   5 -17    2.44    2.26
  12  -5 -16   -0.49    1.25
  12  -5 -16   -0.99    1.17
  12   5 -16    0.78    0.88
  12  -5 -15    2.01    1.40
  12  -5 -15    0.52    1.25
  12   5 -15    0.06    1.10
  12  -5 -14   -0.84    1.22
  12  -5 -14   -1.24    2.31
  12   5 -14    2.32    2.62
  12  -5 -13    6.63    2.63
  12   5 -13    2.28    1.50
  12  -5 -13    8.24    3.01
  12   5 -12    4.82    1.82
  12  -5 -12    5.23    2.51
  12  -5 -12    6.59    3.06
  12   5 -11    5.65    2.43
  12  -5 -11    7.26    2.78
  12  -5 -11    5.68    2.90
  12   5 -10   13.82    3.64
  12  -5 -10   13.64    3.88
  12  -5 -10   11.56    3.13
  12   5  -9    8.54    2.79
  12  -5  -9    9.14    2.92
  12  -5  -9    9.66    2.84
  12   5  -8    1.34    1.91
  12  -5  -8   -0.40    1.17
  12  -5  -8    0.41    1.22
  12  -5  -7    2.65    1.41
  12  -5  -7    5.68    2.42
  12   5  -6    3.82    2.39
  12  -5  -6    1.47    2.34
  12  -5  -6    2.79    3.05
  12   5  -5   -0.62    1.01
  12  -5  -5   -0.22    1.74
  12   5  -5   -1.40    1.15
  12  -5  -5    2.95    1.75
  12   5  -4    2.36    1.67
  12  -5  -4    0.12    1.10
  12   5  -4    0.85    1.53
  12  -5  -4    2.49    1.51
  12   5  -3   14.55    3.34
  12  -5  -3   13.34    3.28
  12   5  -3   15.25    2.94
  12  -5  -3   15.35    3.63
  12   5  -2   23.46    4.24
  12  -5  -2   28.65    5.24
  12  -5  -2   24.39    4.77
  12   5  -2   26.92    4.52
  12   5  -1   22.62    4.02
  12   5  -1   17.72    3.63
  12  -5  -1   16.50    3.94
  12  -5  -1   13.80    3.19
  12   5   0    3.08    1.58
  12  -5   0   11.65    3.03
  12   5   0    7.74    2.93
  12  -5   0   10.86    3.08
  12  -5   1   15.71    3.22
  12   5   1   16.01    3.43
  12  -5   1   19.54    3.87
  12   5   1   26.65    4.65
  12   5   2   18.30    3.43
  12   5   2   25.26    4.42
  12  -5   2   23.14    4.44
  12  -5   2   23.17    4.41
  12   5   3   19.70    4.23
  12  -5   3   10.76    3.17
  12   5   3    8.80    2.87
  12  -5   3   16.03    4.26
  12   5   4    1.71    1.72
  12  -5   4    3.25    1.74
  12   5   4    1.56    1.88
  12  -5   4    2.41    1.79
  12   5   5    0.24    1.72
  12  -5   5   -0.15    0.76
  12   5   5    0.92    1.50
  12  -5   5   -0.65    2.40
  12   5   6   -0.14    1.38
  12  -5   6   -0.37    0.85
  12   5   6    2.12    1.89
  12  -5   6    2.01    1.83
  12   5   7    5.72    2.86
  12  -5   7    6.21    2.55
  12   5   7    5.16    2.85
  12  -5   7    7.38    3.20
  12   5   8    0.42    1.39
  12  -5   8    1.73    0.78
  12   5   8   -0.50    0.93
  12  -5   8    0.40    1.00
  12   5   9   10.93    2.97
  12  -5   9   11.20    3.63
  12   5   9    7.88    2.21
  12  -5   9    7.92    2.83
  12   5  10   11.61    2.90
  12  -5  10    9.65    2.71
  12   5  10    9.33    2.69
  12  -5  10   13.20    3.56
  12   5  11    3.14    1.36
  12  -5  11    7.97    2.67
  12   5  11    5.82    2.47
  12  -5  11    5.79    3.11
  12   5  12    2.73    1.34
  12  -5  12    5.85    2.24
  12   5  12    3.73    2.18
  12  -5  12    4.15    1.85
  12   5  13    9.69    3.35
  12  -5  13    8.48    3.06
  12   5  13    5.49    2.30
  12  -5  13    8.48    3.24
  12   5  14    0.77    1.84
  12  -5  14   -0.16    1.18
  12   5  14   -0.61    1.05
  12  -5  14    0.65    1.32
  12   5  15    0.09    1.28
  12  -5  15    0.37    1.00
  12   5  15   -0.62    0.88
  12  -5  16    0.14    1.49
  12   5  16   -0.86    1.62
  12  -5  17    9.18    3.64
  12   5  17    6.53    2.39
  12  -5  18    0.75    1.36
  12   5  18    4.30    2.18
  12  -5  19    4.72    3.10
  12   5  19    3.12    2.20
  12   5  20   -1.80    1.78
  12   5  21    2.90    2.42
  12  -6 -19    5.89    2.74
  12  -6 -18    2.96    2.95
  12  -6 -18   -1.36    2.33
  12   6 -18    2.21    1.98
  12  -6 -17   13.85    3.73
  12  -6 -17   14.32    3.83
  12   6 -17   16.26    3.96
  12  -6 -16    7.00    3.20
  12  -6 -16    5.97    2.11
  12   6 -16    6.96    2.77
  12   6 -15    0.96    1.34
  12  -6 -15    0.57    1.87
  12  -6 -15    2.47    1.89
  12   6 -14   18.04    4.26
  12  -6 -14   14.02    4.10
  12  -6 -14   18.38    4.32
  12   6 -13   29.99    4.93
  12  -6 -13   28.08    5.07
  12  -6 -13   33.90    5.95
  12   6 -12   -0.37    1.74
  12  -6 -12    1.99    2.24
  12  -6 -12    1.50    1.15
  12  -6 -11   12.08    3.14
  12   6 -11   11.57    3.17
  12  -6 -11   18.94    4.23
  12   6 -10   21.89    4.38
  12  -6 -10   18.04    4.31
  12  -6 -10   30.67    5.52
  12  -6  -9   11.50    3.29
  12   6  -9   10.42    3.55
  12  -6  -9   11.76    3.21
  12  -6  -8   46.61    6.44
  12  -6  -8   34.84    5.66
  12   6  -8   35.33    5.44
  12  -6  -7   64.49    7.77
  12  -6  -7   67.22    8.04
  12   6  -7   57.50    6.86
  12   6  -6   11.02    3.41
  12  -6  -6   21.37    4.42
  12  -6  -6   15.35    3.59
  12   6  -5   19.83    3.99
  12  -6  -5   17.19    3.99
  12  -6  -5   14.31    3.64
  12  -6  -4   45.34    6.10
  12  -6  -4   32.91    5.35
  12   6  -4   33.69    5.34
  12   6  -3   53.36    6.49
  12  -6  -3   66.86    7.64
  12  -6  -3   69.31    7.79
  12   6  -3   61.43    7.22
  12   6  -2   43.10    5.75
  12  -6  -2   53.20    6.91
  12  -6  -2   56.06    7.06
  12   6  -2   68.15    7.76
  12   6  -1   13.40    3.90
  12  -6  -1    4.30    1.98
  12   6  -1   13.83    3.42
  12  -6  -1   14.07    4.22
  12   6   0    1.79    1.87
  12  -6   0    1.48    1.60
  12   6   0   -0.04    0.81
  12  -6   0   -1.47    1.97
  12   6   1   14.21    3.31
  12  -6   1   17.45    3.82
  12  -6   1   10.89    3.71
  12   6   1    4.76    1.65
  12   6   2   48.94    6.18
  12  -6   2   47.14    6.71
  12  -6   2   53.69    6.88
  12   6   2   55.05    6.91
  12   6   3   64.97    7.20
  12   6   3   72.94    7.54
  12  -6   3   65.43    7.53
  12  -6   3   80.98    8.60
  12   6   4   37.04    5.73
  12   6   4   35.74    5.33
  12  -6   4   39.50    5.98
  12  -6   4   37.75    5.99
  12   6   5   11.93    3.23
  12  -6   5   21.76    4.42
  12  -6   5   24.70    4.80
  12   6   5   13.81    3.20
  12   6   6   10.30    2.97
  12  -6   6    9.57    3.25
  12  -6   6   11.33    3.20
  12   6   6   14.38    3.50
  12   6   7   67.61    7.74
  12  -6   7   61.78    7.43
  12   6   7   59.93    7.01
  12  -6   7   75.27    8.12
  12   6   8   40.84    6.33
  12  -6   8   39.95    6.07
  12   6   8   44.29    6.08
  12  -6   8   29.87    4.95
  12   6   9   13.30    3.62
  12  -6   9   14.60    3.89
  12  -6   9    6.87    2.48
  12   6   9   12.01    3.58
  12   6  10   27.70    5.38
  12  -6  10   34.10    5.76
  12  -6  10   25.77    4.87
  12   6  10   18.07    4.24
  12   6  11   11.67    3.39
  12  -6  11   15.82    4.18
  12  -6  11   16.77    4.59
  12   6  11   15.37    3.70
  12   6  12    2.65    1.40
  12  -6  12    5.11    2.47
  12  -6  12   -1.00    2.05
  12   6  12    0.02    1.39
  12   6  13   31.55    5.41
  12   6  13   29.13    5.15
  12  -6  13   23.40    4.70
  12  -6  13   39.22    6.11
  12   6  14   23.33    4.42
  12  -6  14   20.58    4.96
  12  -6  14   19.78    4.55
  12   6  14   17.28    4.17
  12   6  15    6.63    2.73
  12  -6  15    1.30    1.34
  12  -6  15   -0.14    1.73
  12   6  15    5.93    2.16
  12  -6  16    6.48    2.26
  12  -6  16   10.15    3.35
  12   6  16    8.68    3.23
  12  -6  17   18.14    4.43
  12   6  17   10.83    3.71
  12  -6  17   17.69    4.65
  12   6  18    3.43    2.78
  12  -6  18    0.63    2.03
  12   6  19   11.85    4.00
  12  -6  19   11.27    3.85
  12   7 -17    0.30    1.49
  12  -7 -17    0.14    1.15
  12  -7 -17    0.33    1.42
  12   7 -16   -0.22    1.68
  12  -7 -16   -1.59    1.82
  12  -7 -16   -0.36    1.55
  12   7 -15    6.46    2.80
  12  -7 -15    6.80    1.93
  12  -7 -15   10.70    3.40
  12   7 -14   -0.08    1.88
  12  -7 -14   -0.62    1.27
  12  -7 -14    2.29    0.99
  12   7 -13    8.12    3.12
  12  -7 -13   12.39    4.07
  12  -7 -13    6.98    3.30
  12   7 -12    5.02    2.63
  12  -7 -12    5.45    2.54
  12  -7 -12    5.13    2.84
  12   7 -11    1.23    1.50
  12  -7 -11    0.27    1.88
  12  -7 -11    2.20    2.37
  12   7 -10    9.62    2.84
  12  -7 -10    6.80    3.33
  12  -7 -10    6.40    2.91
  12   7  -9   24.20    4.77
  12  -7  -9   24.38    4.92
  12  -7  -9   18.04    4.50
  12  -7  -8    3.56    2.07
  12  -7  -8    1.15    0.91
  12  -7  -7   15.93    4.30
  12   7  -7   11.07    3.53
  12  -7  -7   15.30    4.00
  12  -7  -6    0.32    1.23
  12   7  -6    0.21    0.91
  12  -7  -5   -0.56    1.26
  12   7  -5    1.04    1.54
  12  -7  -5    0.02    1.29
  12  -7  -4   12.07    3.33
  12   7  -4   19.26    4.42
  12  -7  -4   12.68    3.85
  12  -7  -3   13.07    3.70
  12   7  -3    5.89    2.54
  12  -7  -3    7.71    2.04
  12  -7  -2    4.26    2.72
  12   7  -2   10.03    3.58
  12  -7  -2    5.40    2.88
  12   7  -2    4.43    1.58
  12  -7  -1   12.33    3.40
  12   7  -1   17.36    4.31
  12  -7  -1   17.35    4.18
  12   7  -1   15.84    3.41
  12   7   0   16.28    4.41
  12  -7   0   12.73    3.62
  12  -7   0    8.80    2.63
  12   7   0   11.44    3.05
  12   7   1   16.55    4.58
  12  -7   1   24.56    4.68
  12  -7   1   25.06    5.00
  12   7   1   10.51    2.93
  12   7   2    5.72    3.16
  12  -7   2   10.22    3.08
  12  -7   2    5.27    2.08
  12   7   2    6.36    2.56
  12   7   3   13.58    3.40
  12  -7   3   12.91    4.01
  12  -7   3    8.57    3.06
  12   7   3   11.11    3.11
  12   7   4   10.31    3.55
  12  -7   4   12.51    3.08
  12  -7   4   13.14    3.92
  12   7   4   13.32    3.50
  12   7   5   -1.42    2.00
  12  -7   5    1.48    2.27
  12  -7   5    0.56    2.45
  12   7   5    1.44    1.81
  12   7   6    0.83    1.42
  12  -7   6    4.50    1.91
  12  -7   6    1.05    2.34
  12   7   6    3.07    2.22
  12   7   7    5.48    2.32
  12  -7   7   10.13    3.03
  12  -7   7    5.11    2.94
  12   7   7    9.01    2.83
  12   7   8    1.86    2.28
  12  -7   8    5.22    1.72
  12  -7   8   -0.83    1.62
  12   7   8    4.34    2.57
  12   7   9   21.86    4.53
  12  -7   9   23.15    4.95
  12   7   9   23.35    4.91
  12  -7   9   22.67    4.99
  12   7  10    8.50    3.02
  12  -7  10    7.14    2.88
  12  -7  10    2.70    2.33
  12   7  10    7.23    3.02
  12   7  11    2.11    2.49
  12  -7  11    0.73    1.43
  12  -7  11   -0.32    1.41
  12   7  11    1.10    1.49
  12   7  12    1.59    1.43
  12  -7  12    3.32    2.46
  12  -7  12    6.50    3.43
  12   7  12    6.44    3.23
  12   7  13   11.11    4.04
  12  -7  13   12.36    3.40
  12  -7  13    9.07    3.51
  12   7  13    9.11    3.04
  12   7  14    4.08    3.23
  12  -7  14    2.09    2.02
  12  -7  14    1.87    1.45
  12   7  14    6.42    2.48
  12   7  15   14.23    4.73
  12  -7  15   13.53    4.64
  12   7  15    6.17    3.08
  12  -7  16    3.19    2.22
  12   7  16    1.40    2.02
  12   7  17    0.21    2.54
  12   8 -14    1.83    2.26
  12  -8 -14    2.80    2.62
  12  -8 -14    1.95    1.54
  12   8 -13    9.42    3.88
  12  -8 -13    8.11    3.46
  12  -8 -13   14.64    3.79
  12   8 -12   12.26    3.68
  12  -8 -12   10.08    3.35
  12  -8 -12   15.60    3.80
  12   8 -11    1.03    1.49
  12  -8 -11    0.66    1.73
  12  -8 -11    1.85    1.45
  12   8 -10    3.19    2.88
  12  -8 -10   -0.02    1.93
  12  -8 -10    5.51    2.12
  12   8  -9   10.33    3.36
  12  -8  -9    9.98    3.90
  12  -8  -9    4.31    2.83
  12   8  -8    5.17    2.37
  12  -8  -8    7.65    3.13
  12  -8  -8    2.90    1.19
  12   8  -7   22.25    4.64
  12  -8  -7   14.29    4.12
  12  -8  -7   21.89    4.57
  12   8  -6   10.85    3.72
  12  -8  -6    7.48    2.73
  12  -8  -6    6.61    2.36
  12  -8  -5   -0.29    0.80
  12   8  -5    0.90    1.10
 -12   8  -5    4.14    2.27
  12  -8  -5    2.23    2.17
  12  -8  -4    5.55    2.08
  12   8  -4    1.55    1.51
 -12   8  -4    3.24    2.08
  12  -8  -4    4.53    2.57
  12  -8  -3   12.30    3.16
  12   8  -3   15.24    4.15
 -12   8  -3   11.59    3.49
  12  -8  -3   16.91    4.08
  12   8  -2    2.69    2.66
 -12   8  -2    4.71    1.38
  12  -8  -2    2.65    2.49
  12  -8  -1    1.92    2.07
  12   8  -1    6.33    3.20
  12  -8  -1    4.28    2.97
  12   8  -1    0.02    0.51
  12  -8   0   -0.24    1.32
  12   8   0    2.47    3.11
  12  -8   0    0.52    1.70
  12   8   0    3.01    2.62
  12  -8   1   -0.30    1.30
  12  -8   1   -0.55    1.73
  12   8   1    0.74    1.25
  12  -8   2    5.25    2.34
  12   8   2    4.32    2.60
  12  -8   2    4.93    2.73
  12   8   2    4.61    2.65
  12  -8   3   24.66    4.58
  12   8   3   27.23    5.33
  12  -8   3    9.32    3.49
  12   8   3   20.02    4.36
  12   8   4    7.69    3.38
  12  -8   4    3.78    2.07
  12   8   4    4.75    2.05
  12  -8   4    4.20    2.53
  12   8   5    0.40    0.82
  12  -8   5    1.74    2.53
  12   8   5   -0.61    1.26
  12  -8   5    1.03    2.01
  12   8   6    2.48    1.14
  12   8   6    8.03    2.84
  12  -8   6    8.57    3.04
  12   8   7   21.93    4.56
  12  -8   7   17.55    4.23
  12   8   7   19.99    4.37
  12  -8   7   12.45    3.97
  12   8   8    3.41    2.74
  12  -8   8    9.21    2.75
  12   8   8    6.97    2.40
  12  -8   8    0.56    2.12
  12   8   9    9.02    3.28
  12  -8   9    5.02    2.22
  12   8   9    7.48    2.70
  12  -8  10    3.44    1.69
  12   8  10    0.89    1.65
  12   8  11    4.43    2.48
  12  -8  11    3.99    2.70
  12   8  11    1.31    1.97
  12   8  12   10.95    3.21
  12  -8  12   14.62    3.96
  12   8  12    7.37    2.80
  12   8  13   16.25    4.39
  12  -8  13    5.09    2.58
  12   8  13   13.38    3.53
  12   8  14    3.69    2.11
  12   8  14   -2.36    2.65
  12   9  -8    0.15    1.35
  12  -9  -8   -1.34    1.61
  12  -9  -8    1.65    1.32
  12   9  -7    6.13    2.31
  12  -9  -7    1.92    1.96
  12  -9  -7    1.24    1.88
  12  -9  -6   -2.82    1.99
  12  -9  -6   -0.67    1.56
  12   9  -5    2.85    1.61
  12  -9  -5    4.80    2.83
  12  -9  -5    3.96    1.98
  12   9  -4    3.83    3.05
 -12   9  -4   -1.38    2.04
  12  -9  -4    0.91    2.12
  12  -9  -4    4.02    2.43
  12   9  -3    6.53    2.96
 -12   9  -3    5.50    2.62
  12  -9  -3    9.12    2.79
  12  -9  -3    3.58    2.31
  12   9  -2    1.18    1.27
 -12   9  -2    0.71    1.70
  12  -9  -2   -1.12    2.38
  12  -9  -2   -0.69    2.38
  12   9  -1    2.37    0.86
 -12   9  -1    3.00    2.05
  12  -9  -1    2.46    1.64
  12  -9  -1    3.40    1.17
  12  -9   0   -1.73    2.17
  12   9   0    1.09    2.13
 -12   9   0    4.20    2.62
  12  -9   0    1.48    2.99
  12  -9   1    2.21    2.21
  12   9   1   -0.35    1.38
 -12   9   1    2.30    2.16
  12  -9   1    2.15    2.40
  12  -9   2    1.40    2.54
  12   9   2    0.68    1.92
  12   9   2   -0.29    1.32
 -12   9   2    1.84    2.13
  12  -9   2   -2.01    2.82
  12  -9   3    7.51    3.69
  12   9   3   13.72    4.23
  12   9   3    5.65    2.15
 -12   9   3   10.12    3.22
  12  -9   4    3.61    2.55
  12   9   4    1.92    2.41
  12   9   4   -0.13    1.52
 -12   9   4    2.60    2.76
  12  -9   5   -1.25    1.59
  12   9   5    2.26    1.64
  12   9   5   -1.06    2.68
 -12   9   5    4.31    2.77
  12  -9   6    2.26    2.04
  12   9   6    0.01    2.37
  12   9   6    0.80    1.92
 -12   9   6   -0.91    0.91
  12  -9   7    1.71    1.85
  12   9   7   -0.95    2.17
  12   9   7    0.25    1.96
 -12   9   7   -0.58    1.97
  12  -9   8    1.24    1.68
  12   9   8    0.84    1.79
  12   9   8   -1.31    2.09
 -12   9   8   -1.65    2.65
  13   0 -22    2.85    2.56
  13   0 -21   -0.11    1.21
  13   0 -20    5.68    3.44
  13   0 -19    1.67    1.04
  13   0 -18   -0.21    1.07
  13   0 -17    2.12    2.15
  13   0 -16   -0.17    0.91
  13   0 -15    0.05    1.07
  13   0 -14   -0.96    1.22
  13   0 -13    0.59    1.29
  13   0 -12    0.43    0.98
  13   0 -11   -0.14    0.76
  13   0 -11    0.07    1.15
  13   0 -10   -0.76    0.85
  13   0 -10    0.44    1.32
  13   0  -9    1.29    0.87
  13   0  -9    0.10    1.44
  13   0  -8    0.56    1.34
  13   0  -8    0.63    0.78
  13   0  -7    4.51    2.62
  13   0  -7    2.56    1.58
  13   0  -6    0.62    0.72
  13   0  -6   -0.91    1.52
  13   0  -5   -0.34    1.28
  13   0  -5   -0.51    1.48
  13   0  -4   -0.48    1.45
  13   0  -4   -0.47    1.41
  13   0  -3    0.88    1.23
  13   0  -3    0.08    1.21
  13   0  -3   -0.51    1.09
  13   0  -2   -0.29    0.88
  13   0  -2    0.45    0.70
  13   0  -2    0.32    0.74
  13   0  -1    1.54    1.29
  13   0  -1    0.78    1.75
  13   0  -1    0.81    0.69
  13   0   0   -0.22    1.35
  13   0   0    1.94    1.90
  13   0   0   -0.93    1.47
  13   0   1   -0.10    0.61
  13   0   1    0.83    1.74
  13   0   1    1.25    1.07
  13   0   2   -0.67    1.30
  13   0   2   -0.20    1.19
  13   0   2    1.01    0.98
  13   0   3    0.95    0.91
  13   0   3    0.16    1.60
  13   0   3    0.90    1.28
  13   0   4   -0.09    0.86
  13   0   4    0.06    1.40
  13   0   5    0.74    1.50
  13   0   5   -0.28    0.75
  13   0   6   -0.04    1.49
  13   0   6    0.36    1.39
  13   0   7    0.02    1.34
  13   0   7    0.27    0.83
  13   0   8    0.04    1.22
  13   0   8    0.68    1.91
  13   0   9    0.30    1.29
  13   0   9   -1.59    1.81
  13   0  10   -0.80    1.59
  13   0  11   -0.52    1.38
  13   0  12    1.17    1.77
  13   0  13   -0.29    0.89
  13   0  14    0.93    1.50
  13   0  15   -0.21    2.31
  13   0  16    0.57    2.45
  13   0  17   -0.32    0.88
  13   0  18    1.99    1.45
  13   0  19    1.06    0.98
  13   0  20    0.03    1.46
  13   0  21   -1.07    2.12
  13   0  22    2.90    2.04
  13   0  23    1.04    1.68
  13   0  24   -0.82    1.92
  13  -1 -24    3.14    3.09
  13  -1 -23   -0.20    2.51
  13  -1 -22    7.90    2.80
  13  -1 -21   17.80    4.24
  13  -1 -20   31.52    5.60
  13  -1 -19    3.15    2.34
  13   1 -18   -2.83    1.60
  13  -1 -18    0.19    1.53
  13   1 -17    3.97    1.87
  13  -1 -17    7.60    3.38
  13   1 -16   50.80    6.67
  13  -1 -16   68.37    7.53
  13   1 -15   15.64    3.86
  13  -1 -15   12.43    3.20
  13   1 -14   48.05    6.36
  13  -1 -14   48.38    6.31
  13   1 -13    6.29    2.42
  13  -1 -13    5.14    1.90
  13  -1 -12   27.60    4.88
  13   1 -12   22.35    4.24
  13  -1 -12   23.86    4.29
  13  -1 -11    3.12    2.34
  13  -1 -11    4.17    2.09
  13   1 -11    2.09    0.87
  13  -1 -10   57.92    6.61
  13   1 -10   57.58    6.44
  13  -1 -10   71.18    7.51
  13   1 -10   71.81    7.49
  13   1 -10   67.56    7.00
  13  -1  -9   65.69    6.98
  13   1  -9   57.09    6.24
  13  -1  -9   56.98    6.72
  13   1  -9   54.31    6.38
  13   1  -9   66.46    7.02
  13  -1  -8    5.20    2.09
  13   1  -8    4.62    1.86
  13  -1  -8    6.99    2.52
  13   1  -8    8.19    2.45
  13   1  -8    7.24    2.61
  13  -1  -7   13.43    3.39
  13   1  -7   12.85    2.94
  13  -1  -7   15.56    3.59
  13   1  -7   17.70    3.72
  13   1  -7   16.60    3.77
  13  -1  -6   38.43    5.26
  13   1  -6   34.41    4.94
  13  -1  -6   29.97    5.15
  13   1  -6   40.66    5.45
  13   1  -6   38.27    5.30
  13  -1  -5  149.92   10.48
  13   1  -5  150.44   10.11
  13  -1  -5  146.91   10.54
  13   1  -5  167.20   10.97
  13   1  -5  185.37   11.16
  13  -1  -4   18.32    3.75
  13   1  -4   19.01    3.64
  13  -1  -4   15.98    3.80
  13   1  -4   17.79    3.79
  13   1  -4   17.91    3.75
  13  -1  -3   49.50    6.25
  13   1  -3   57.14    6.29
  13  -1  -3   49.48    6.15
  13   1  -3   62.85    6.80
  13   1  -3   59.61    6.24
  13  -1  -2   66.42    6.94
  13   1  -2   63.49    6.55
  13  -1  -2   71.05    7.42
  13   1  -2   63.65    6.71
  13   1  -2   56.39    6.08
  13  -1  -1   31.62    4.61
  13   1  -1   23.25    4.12
  13   1  -1   25.85    4.32
  13  -1  -1   19.20    3.48
  13   1  -1   26.53    4.41
  13  -1   0  626.39   21.17
  13   1   0  618.52   20.83
  13  -1   0  641.20   21.84
  13   1   0  636.62   21.77
  13   1   0  647.07   20.62
  13  -1   1   29.23    4.56
  13   1   1   33.16    4.72
  13  -1   1   24.69    4.25
  13   1   1   35.53    5.10
  13   1   1   28.95    4.57
  13  -1   2   65.41    6.81
  13   1   2   58.26    6.37
  13  -1   2   68.45    7.11
  13   1   2   46.32    5.81
  13   1   2   63.99    6.67
  13  -1   3   47.39    5.90
  13   1   3   52.34    6.10
  13  -1   3   38.76    5.53
  13   1   3   42.29    5.36
  13   1   4   16.69    3.53
  13  -1   4   15.26    3.44
  13  -1   4   25.86    4.83
  13   1   4   22.60    3.86
  13  -1   5  154.97   10.81
  13   1   5  174.07   11.18
  13   1   5  180.26   10.89
  13  -1   6   38.81    5.41
  13   1   6   42.15    5.53
  13   1   6   33.02    4.66
  13   1   7   22.24    4.14
  13  -1   7   12.81    3.11
  13   1   7   16.04    3.54
  13   1   8    5.01    1.86
  13  -1   8    8.41    2.61
  13   1   8    3.97    2.03
  13  -1   9   55.32    6.76
  13   1   9   63.89    6.93
  13   1   9   49.72    5.63
  13  -1  10   67.23    7.46
  13   1  10   60.96    6.96
  13   1  10   43.84    5.60
  13   1  11    1.79    1.32
  13  -1  11    0.97    1.07
  13   1  11    1.97    0.74
  13   1  12   20.96    4.06
  13  -1  12   32.55    5.54
  13   1  12   23.24    4.04
  13   1  13    5.38    2.19
  13  -1  13    1.12    2.35
  13  -1  14   39.92    6.11
  13   1  14   42.24    6.10
  13   1  15   14.84    3.89
  13  -1  15   15.73    4.16
  13  -1  16   57.79    7.25
  13   1  16   56.94    7.14
  13   1  17    9.89    2.81
  13  -1  17    5.65    2.29
  13   1  18    1.03    1.24
  13  -1  18    5.60    2.40
  13   1  19    2.35    2.06
  13  -1  19    3.77    1.75
  13   1  20   33.67    5.88
  13  -1  20   31.08    5.52
  13   1  21   18.25    4.44
  13  -1  21   17.46    4.61
  13   1  22    2.27    1.91
  13  -1  22    3.84    1.72
  13   1  23    1.14    1.81
  13  -1  23    2.80    2.79
  13   1  24    2.43    2.54
  13  -1  24   -1.33    1.30
  13  -2 -23    4.93    3.07
  13  -2 -22   -1.92    1.35
  13  -2 -21    1.06    1.46
  13  -2 -20    2.13    2.67
  13  -2 -19    0.77    1.55
  13  -2 -18   -0.11    1.98
  13  -2 -17   24.85    4.73
  13  -2 -16    5.14    1.94
  13  -2 -15    0.53    1.83
  13   2 -15    4.95    2.43
  13  -2 -14    1.67    1.19
  13   2 -14    0.22    0.95
  13  -2 -13    5.27    2.08
  13  -2 -13    3.51    2.57
  13   2 -13    2.50    1.91
  13  -2 -12   18.52    3.99
  13   2 -12   23.54    4.74
  13  -2 -12   22.59    4.46
  13   2 -12   15.89    3.73
  13   2 -11   71.76    7.47
  13  -2 -11   79.23    8.32
  13   2 -11   72.81    7.68
  13  -2 -11   74.78    7.68
  13  -2 -10    6.52    2.39
  13  -2 -10    3.44    1.40
  13   2 -10    2.26    1.66
  13   2 -10    4.39    1.80
  13  -2  -9    5.52    2.68
  13  -2  -9    3.36    1.83
  13   2  -9    4.95    2.63
  13   2  -9    7.63    2.39
  13  -2  -8   17.90    3.89
  13   2  -8   22.85    3.87
  13  -2  -8   29.29    5.01
  13   2  -8   18.96    3.67
  13   2  -8   28.15    5.02
  13  -2  -7   13.95    3.25
  13  -2  -7   22.19    4.47
  13   2  -7   20.63    4.10
  13   2  -7   14.92    3.19
  13   2  -7   15.45    3.37
  13  -2  -6    3.50    1.83
  13  -2  -6    2.84    1.23
  13   2  -6    4.40    2.26
  13   2  -6    2.14    1.65
  13   2  -6    2.77    1.63
  13  -2  -5    0.61    1.13
  13  -2  -5    0.18    0.78
  13   2  -5    0.67    1.32
  13   2  -5   -0.52    1.06
  13   2  -5   -0.13    1.44
  13  -2  -4    7.54    2.68
  13   2  -4    5.38    2.55
  13   2  -4    9.88    2.51
  13   2  -4    7.81    2.13
  13  -2  -3   32.51    5.09
  13   2  -3   29.93    4.78
  13   2  -3   33.56    4.82
  13   2  -3   45.39    5.68
  13   2  -2   16.28    3.39
  13  -2  -2   15.37    3.45
  13  -2  -2   18.50    4.27
  13   2  -2   19.93    4.02
  13   2  -2   22.48    3.86
  13   2  -1    9.55    2.92
  13  -2  -1   15.85    3.69
  13  -2  -1   13.31    3.32
  13   2  -1   15.31    3.40
  13   2  -1   11.93    3.02
  13  -2   0  287.73   14.71
  13   2   0  283.65   13.99
  13  -2   0  262.93   14.41
  13   2   0  259.17   13.78
  13   2   0  299.75   14.44
  13  -2   1   13.59    3.10
  13   2   1   18.98    3.96
  13  -2   1   14.54    3.74
  13   2   1   14.98    3.39
  13   2   1   19.63    3.77
  13  -2   2   13.69    3.66
  13   2   2   16.71    3.70
  13  -2   2   19.53    4.23
  13   2   2   12.94    2.99
  13  -2   3   37.26    5.52
  13   2   3   45.04    5.56
  13  -2   3   37.15    5.53
  13   2   3   37.70    5.50
  13   2   4    8.77    2.60
  13  -2   4    9.51    2.90
  13  -2   4   12.41    3.05
  13   2   4   10.73    2.71
  13   2   5    1.83    1.76
  13  -2   5    1.59    2.09
  13  -2   5   -0.87    0.91
  13   2   5   -2.01    1.24
  13   2   6   -0.16    1.21
  13  -2   6    0.24    2.20
  13  -2   6    2.33    1.38
  13   2   6    1.43    1.04
  13   2   7   13.23    3.19
  13  -2   7   15.43    3.50
  13   2   7   22.27    4.17
  13  -2   8   26.55    4.47
  13   2   8   24.57    4.32
  13   2   8   26.84    4.70
  13   2   9    5.91    2.79
  13  -2   9    6.44    1.69
  13   2   9    4.62    2.16
  13   2  10    5.24    2.03
  13   2  10    0.72    1.63
  13  -2  11   64.76    7.32
  13   2  11   55.61    7.03
  13   2  11   66.91    7.17
  13   2  12   22.30    4.16
  13  -2  12   25.46    4.37
  13   2  12   20.91    3.77
  13   2  13    2.98    1.63
  13  -2  13    2.49    1.69
  13   2  13    4.54    2.35
  13   2  14    1.65    1.20
  13  -2  14    3.17    2.38
  13   2  15    2.28    0.95
  13  -2  15    0.40    1.63
  13   2  16    4.27    2.57
  13  -2  16    3.30    2.35
  13  -2  17   24.95    4.95
  13   2  17   35.92    5.77
  13   2  18   -0.05    2.31
  13  -2  18    0.43    2.55
  13   2  19   -0.92    1.43
  13  -2  19   -0.84    1.79
  13   2  20    1.44    1.70
  13  -2  20    1.15    2.02
  13   2  21   -1.84    1.76
  13  -2  21    3.90    1.98
  13   2  22    0.48    1.25
  13  -2  22    2.31    2.33
  13   2  23    3.17    2.78
  13  -2  23    5.70    2.31
  13  -3 -23   -0.35    1.44
  13  -3 -22   13.12    3.76
  13  -3 -21    2.86    2.44
  13  -3 -20    1.87    1.00
  13  -3 -19    2.16    0.96
  13  -3 -18    5.72    2.61
  13   3 -18    9.03    2.97
  13  -3 -17    1.90    1.13
  13   3 -17    7.08    2.67
  13  -3 -16   95.66    9.17
  13   3 -16   65.60    7.58
  13  -3 -15   14.24    4.41
  13  -3 -15   12.08    3.22
  13   3 -15    7.53    2.73
  13  -3 -14   55.50    7.07
  13  -3 -14   55.68    6.90
  13   3 -14   60.78    7.16
  13  -3 -13   11.32    3.65
  13  -3 -13   13.68    3.60
  13   3 -13   13.24    3.51
  13  -3 -12   58.74    7.44
  13   3 -12   68.20    7.16
  13  -3 -12   59.39    7.39
  13  -3 -11    3.20    1.92
  13  -3 -11    3.32    2.35
  13   3 -11   -0.93    0.83
  13  -3 -10  136.45   10.80
  13   3 -10  161.21   11.34
  13  -3 -10  150.45   10.95
  13  -3  -9   13.11    3.31
  13  -3  -9   14.63    3.26
  13   3  -9   18.76    4.36
  13  -3  -8   16.90    3.92
  13   3  -8   25.10    4.60
  13  -3  -8   20.41    4.30
  13  -3  -7   13.45    3.64
  13  -3  -7   14.17    3.70
  13   3  -7   15.80    3.44
  13   3  -7   17.44    3.66
  13  -3  -6   36.58    5.45
  13   3  -6   26.78    4.29
  13  -3  -6   29.37    4.60
  13   3  -6   28.58    4.45
  13   3  -6   28.32    5.12
  13   3  -5    5.78    2.15
  13  -3  -5    5.66    2.07
  13  -3  -5    4.86    2.32
  13   3  -5    2.89    1.75
  13   3  -5    6.03    2.23
  13  -3  -4  102.15    8.96
  13   3  -4  127.96    9.63
  13  -3  -4  119.87    9.95
  13   3  -4  119.56    9.34
  13   3  -4  118.03    9.59
  13   3  -3    8.78    2.58
  13   3  -3   13.11    3.15
  13  -3  -3   11.02    3.08
  13  -3  -3    9.36    2.90
  13   3  -3    9.38    2.85
  13   3  -2    2.74    2.45
  13   3  -2    2.97    1.98
  13  -3  -2    0.13    1.23
  13  -3  -2    0.62    1.49
  13   3  -2   -0.11    0.66
  13   3  -1   12.68    3.22
  13   3  -1   14.39    3.56
  13  -3  -1   11.46    2.66
  13  -3  -1    6.63    2.75
  13   3  -1    6.66    2.43
  13  -3   0   50.44    6.28
  13  -3   0   49.56    6.37
  13   3   0   38.14    5.11
  13   3   0   45.40    5.85
  13   3   0   53.79    6.29
  13   3   1   10.63    3.02
  13   3   1   13.41    3.21
  13  -3   1   11.70    3.22
  13  -3   1    7.96    2.82
  13   3   1   11.52    3.03
  13   3   2    1.89    0.88
  13   3   2    1.18    0.75
  13  -3   2    2.19    1.50
  13  -3   2    3.26    2.39
  13   3   3   14.27    3.03
  13   3   3   11.54    2.85
  13  -3   3   13.42    3.12
  13  -3   3    8.38    2.76
  13  -3   4  116.26    9.60
  13  -3   4  122.61    9.86
  13   3   4  131.40    9.93
  13   3   4  111.51    9.05
  13   3   5    3.68    1.53
  13   3   5   12.05    2.78
  13  -3   5    8.67    2.88
  13  -3   5    6.33    2.90
  13  -3   6   24.65    4.39
  13  -3   6   34.31    5.35
  13   3   6   41.36    5.67
  13   3   6   33.14    4.81
  13   3   7   17.00    3.41
  13   3   7   14.22    3.49
  13  -3   7   14.83    3.71
  13  -3   7   13.16    3.42
  13   3   8   22.66    4.27
  13  -3   8   26.60    4.71
  13  -3   8   23.18    4.41
  13   3   8   21.33    4.33
  13   3   9   16.85    3.65
  13   3   9   18.35    4.11
  13  -3   9   12.86    3.29
  13  -3  10  164.23   11.79
  13   3  10  144.90   10.60
  13   3  10  153.99   11.21
  13   3  11    2.67    1.80
  13   3  11    3.70    1.79
  13  -3  11    1.85    1.96
  13  -3  12   69.82    7.67
  13   3  12   73.04    7.70
  13   3  12   73.13    7.80
  13   3  13   12.96    2.97
  13   3  13   13.97    2.96
  13  -3  13   14.74    3.49
  13  -3  14   48.32    6.69
  13   3  14   57.95    6.57
  13   3  15   10.06    3.44
  13  -3  15    9.99    2.62
  13  -3  16  101.66    9.74
  13   3  16   88.70    9.07
  13   3  17    3.04    2.21
  13  -3  17    4.66    2.88
  13   3  18    9.52    3.55
  13  -3  18    8.15    2.97
  13   3  19    1.24    0.81
  13  -3  19    2.63    1.91
  13   3  20   11.14    3.95
  13  -3  20   10.88    4.08
  13   3  21    3.53    2.13
  13  -3  21    1.52    1.27
  13   3  22   25.67    5.71
  13   3  23   -0.45    2.14
  13  -4 -21    5.32    2.94
  13  -4 -20    0.57    2.00
  13  -4 -19    1.86    1.73
  13   4 -19    7.37    2.76
  13  -4 -18    1.02    2.53
  13   4 -18   -1.41    1.83
  13  -4 -17    6.37    2.89
  13   4 -17    7.99    1.75
  13  -4 -16    3.22    2.65
  13   4 -16    1.01    2.00
  13  -4 -16    3.03    3.70
  13  -4 -15    7.01    2.41
  13  -4 -15    3.58    2.18
  13   4 -15    5.52    1.84
  13  -4 -14    0.44    1.41
  13  -4 -14    2.33    1.65
  13   4 -14    1.01    1.36
  13  -4 -13   -0.24    1.34
  13  -4 -13    1.55    1.99
  13   4 -13    0.45    1.73
  13  -4 -12    2.34    1.78
  13  -4 -12    5.13    2.19
  13   4 -12    4.47    1.72
  13  -4 -11    0.54    1.28
  13  -4 -11   -1.52    2.18
  13   4 -11    0.20    1.41
  13  -4 -10    1.22    1.71
  13  -4 -10    2.00    1.97
  13   4 -10    0.40    1.05
  13  -4  -9   83.13    8.56
  13   4  -9   61.10    7.02
  13  -4  -9   74.08    8.06
  13   4  -8    1.03    1.13
  13  -4  -8   -0.03    1.25
  13  -4  -8    0.41    1.05
  13   4  -7    6.47    2.82
  13  -4  -7    6.02    2.16
  13  -4  -7    6.05    2.77
  13  -4  -6   37.04    5.96
  13   4  -6   35.71    5.47
  13   4  -6   47.47    5.98
  13  -4  -6   49.16    6.37
  13   4  -5    2.87    1.60
  13   4  -5    2.60    1.60
  13  -4  -5    5.40    2.00
  13  -4  -5   -0.21    1.05
  13   4  -4   15.47    3.71
  13   4  -4   17.33    3.61
  13  -4  -4   10.22    3.25
  13  -4  -4   14.28    3.43
  13   4  -3    3.79    1.09
  13   4  -3    1.69    1.14
  13  -4  -3    0.70    1.00
  13  -4  -3   -0.46    1.74
  13  -4  -2   72.31    7.63
  13  -4  -2   76.99    8.17
  13   4  -2   69.59    7.09
  13   4  -2   72.16    7.50
  13  -4  -1   34.01    5.06
  13  -4  -1   40.27    5.89
  13   4  -1   34.91    5.08
  13   4  -1   45.40    5.80
  13   4   0   -0.52    1.54
  13  -4   0   -0.62    1.66
  13   4   0   -0.13    1.26
  13  -4   0    0.07    2.36
  13   4   0    2.62    2.35
  13  -4   1   33.93    5.50
  13  -4   1   41.20    6.15
  13   4   1   29.25    5.06
  13   4   1   35.49    4.90
  13  -4   2   79.20    7.79
  13  -4   2   81.06    8.43
  13   4   2   66.22    7.04
  13   4   2   69.94    7.12
  13   4   3    2.66    2.02
  13  -4   3    1.32    1.08
  13   4   3    1.14    1.55
  13  -4   3    3.23    2.27
  13   4   4   13.72    3.72
  13  -4   4   13.90    3.37
  13   4   4   15.19    3.82
  13  -4   4   11.95    2.63
  13   4   5    4.39    2.22
  13  -4   5    1.57    2.45
  13   4   5    1.49    0.67
  13  -4   5    2.05    1.87
  13  -4   6   35.20    5.55
  13  -4   6   50.58    6.82
  13   4   6   34.15    5.47
  13   4   6   47.07    6.32
  13   4   7    5.94    2.10
  13  -4   7    4.93    1.96
  13   4   7    6.84    2.76
  13  -4   7    6.12    2.97
  13   4   8    0.98    2.13
  13  -4   8   -0.93    0.85
  13   4   8    0.09    0.66
  13  -4   8    0.76    1.65
  13   4   9   81.17    7.97
  13  -4   9   68.32    7.98
  13  -4   9   61.05    7.49
  13   4   9   85.16    8.30
  13   4  10    0.82    1.87
  13  -4  10    1.05    1.56
  13   4  10   -1.47    1.14
  13  -4  10    0.13    1.73
  13   4  11    1.02    2.23
  13  -4  11    2.27    1.65
  13   4  11    0.50    0.73
  13  -4  11    0.78    1.90
  13   4  12    2.51    1.79
  13  -4  12    2.72    1.25
  13   4  12    3.90    2.03
  13   4  13   -1.13    1.88
  13  -4  13   -1.49    1.82
  13   4  13    2.38    1.61
  13   4  14    1.98    1.72
  13  -4  14    0.45    1.80
  13   4  14   -0.56    1.67
  13  -4  15    5.56    2.96
  13   4  15    5.05    2.69
  13  -4  16   -0.97    1.04
  13   4  16    0.06    1.41
  13  -4  17    6.45    3.12
  13   4  17    8.63    3.46
  13  -4  18   -3.67    2.25
  13   4  18   -0.34    1.65
  13   4  19   10.20    3.32
  13  -4  19    0.75    1.63
  13   4  20   -1.96    1.47
  13  -4  20   -0.45    1.46
  13   4  21    7.82    2.87
  13  -5 -20    9.21    3.21
  13  -5 -19    2.60    2.50
  13   5 -19   -0.84    2.51
  13  -5 -18    3.68    2.04
  13   5 -18    1.06    1.42
  13  -5 -17    9.87    3.08
  13  -5 -17    9.29    4.35
  13   5 -17    5.88    3.21
  13  -5 -16   12.23    3.79
  13  -5 -16    8.11    2.88
  13   5 -16    4.29    1.63
  13  -5 -15    4.01    2.82
  13  -5 -15    4.84    3.34
  13   5 -15    3.83    2.67
  13  -5 -14   13.59    3.85
  13   5 -14   15.73    3.93
  13  -5 -14   12.68    3.81
  13  -5 -13    3.69    2.14
  13  -5 -13    1.39    1.17
  13   5 -13   -0.07    1.63
  13   5 -12    6.89    2.65
  13  -5 -12    2.28    1.29
  13  -5 -12    4.52    1.92
  13   5 -11   24.97    4.77
  13  -5 -11   22.70    4.53
  13  -5 -11   28.14    5.40
  13   5 -10   12.51    3.30
  13  -5 -10   12.45    3.39
  13  -5 -10   13.47    3.86
  13   5  -9    4.07    2.20
  13  -5  -9   -0.08    1.37
  13  -5  -9    2.48    2.76
  13   5  -8    1.91    1.51
  13  -5  -8    0.15    1.30
  13  -5  -8    2.28    1.74
  13   5  -7   22.09    4.28
  13  -5  -7   19.98    4.04
  13  -5  -7   29.26    5.26
  13  -5  -6   32.50    5.27
  13  -5  -6   34.96    5.66
  13   5  -6   38.59    5.66
  13   5  -5   16.65    4.08
  13  -5  -5    8.11    3.03
  13  -5  -5    8.50    3.00
  13  -5  -4   49.56    6.61
  13   5  -4   38.65    5.65
  13   5  -4   43.69    6.38
  13  -5  -4   45.14    6.04
  13   5  -3   22.73    4.22
  13  -5  -3   33.00    5.55
  13   5  -3   32.00    5.35
  13  -5  -3   26.77    4.95
  13  -5  -2   84.26    8.60
  13   5  -2   65.40    7.22
  13   5  -2   78.10    8.11
  13  -5  -2   81.80    8.20
  13  -5  -1   53.70    6.85
  13  -5  -1   56.93    6.91
  13   5  -1   60.35    6.83
  13   5  -1   43.76    5.88
  13   5   0   11.95    3.33
  13  -5   0   14.77    3.68
  13   5   0   10.25    3.00
  13  -5   0   17.20    4.42
  13  -5   1   57.37    6.93
  13  -5   1   43.20    6.01
  13   5   1   58.19    6.64
  13   5   1   53.51    6.55
  13   5   2   78.51    7.96
  13  -5   2   65.61    7.66
  13  -5   2   80.70    8.57
  13   5   2   62.50    7.07
  13   5   3   33.85    5.12
  13  -5   3   20.30    4.11
  13  -5   3   23.42    4.74
  13   5   3   27.87    4.84
  13   5   4   38.03    5.50
  13  -5   4   52.51    6.73
  13  -5   4   39.07    6.19
  13   5   4   42.51    6.21
  13   5   5   15.15    3.72
  13  -5   5   11.96    3.69
  13   5   5    4.70    1.75
  13  -5   5    9.31    3.56
  13  -5   6   41.65    6.32
  13   5   6   50.05    6.51
  13  -5   6   37.25    5.82
  13   5   6   53.77    6.75
  13   5   7   20.84    4.28
  13   5   7   23.66    4.42
  13  -5   7   16.29    4.27
  13  -5   7   18.42    3.78
  13   5   8    8.82    3.05
  13  -5   8    1.52    1.51
  13   5   8    5.93    2.45
  13  -5   8    5.10    3.46
  13   5   9    5.68    2.38
  13  -5   9    1.33    1.43
  13   5   9    2.16    1.53
  13  -5   9    0.06    1.28
  13   5  10   13.56    3.83
  13  -5  10   10.67    3.19
  13   5  10   13.01    3.48
  13  -5  10   23.45    4.60
  13  -5  11   29.60    5.34
  13   5  11   22.57    4.41
  13  -5  11   26.69    5.33
  13   5  11   32.80    5.40
  13   5  12    9.37    2.94
  13  -5  12    7.24    3.01
  13   5  12    6.95    2.45
  13  -5  12    5.74    2.27
  13   5  13    3.13    2.82
  13  -5  13    1.24    1.52
  13   5  13    3.35    2.04
  13  -5  13    1.92    1.54
  13  -5  14    5.17    1.75
  13   5  14   12.23    3.12
  13  -5  14    8.47    3.03
  13  -5  15    4.11    2.93
  13   5  15    1.87    2.80
  13  -5  15    0.88    1.61
  13  -5  16    5.18    1.93
  13   5  16    6.96    2.66
  13  -5  17    4.37    2.64
  13   5  17   14.29    3.85
  13  -5  18    3.89    2.58
  13   5  18    2.93    1.84
  13  -5  19    2.77    2.87
  13   5  19    1.91    2.12
  13   5  20    7.10    3.01
  13  -6 -18   -0.29    1.45
  13   6 -18    0.79    2.22
  13  -6 -17    3.38    2.84
  13  -6 -17   -3.53    2.22
  13   6 -17   -2.31    2.96
  13  -6 -16   -0.67    2.41
  13  -6 -16    0.68    1.32
  13   6 -16    1.96    2.59
  13  -6 -15    0.60    1.12
  13  -6 -15    0.89    1.23
  13   6 -14    1.83    2.17
  13  -6 -14    4.26    1.71
  13  -6 -14    4.29    1.20
  13   6 -13    3.31    2.83
  13  -6 -13    3.06    1.54
  13  -6 -13    4.06    2.57
  13   6 -12    0.78    1.07
  13  -6 -12    0.11    1.73
  13  -6 -12    0.96    1.23
  13  -6 -11   -0.02    1.36
  13   6 -11    3.45    2.43
  13  -6 -11    0.68    1.27
  13   6 -10    2.34    1.72
  13  -6 -10    2.18    1.36
  13  -6 -10   -0.80    2.78
  13   6  -9    4.76    2.24
  13  -6  -9    3.87    1.36
  13  -6  -9    3.15    1.37
  13   6  -8    1.94    1.87
  13  -6  -8    0.99    1.42
  13  -6  -8    5.47    2.90
  13   6  -7    2.30    1.54
  13  -6  -7    5.41    2.49
  13  -6  -7    1.27    1.66
  13   6  -6    2.31    1.91
  13  -6  -6    2.97    2.72
  13  -6  -6    2.72    1.05
  13   6  -5    1.07    1.56
  13  -6  -5   -0.56    0.96
  13  -6  -5   -0.70    1.89
  13   6  -4    0.31    1.63
  13  -6  -4    1.51    1.46
  13  -6  -4    1.27    1.03
  13   6  -3    7.16    2.95
  13  -6  -3    6.03    2.41
  13   6  -3    9.91    2.82
  13  -6  -3    6.90    2.82
  13   6  -2    3.93    2.40
  13  -6  -2    3.63    2.57
  13   6  -2    0.13    1.59
  13  -6  -2    3.08    2.10
  13   6  -1    4.08    1.82
  13  -6  -1    3.23    1.88
  13   6  -1    4.88    2.36
  13  -6  -1    3.05    1.84
  13   6   0    0.17    1.57
  13  -6   0    1.67    0.67
  13  -6   0   -0.14    0.97
  13   6   1    2.40    1.14
  13  -6   1    2.22    1.34
  13   6   1    1.68    1.70
  13  -6   1    2.49    1.61
  13   6   2    1.42    1.52
  13  -6   2    1.68    2.46
  13   6   2    2.08    2.25
  13  -6   2    1.83    1.15
  13   6   3    3.76    1.72
  13  -6   3    8.25    2.69
  13   6   3    4.67    2.24
  13  -6   3   10.29    3.46
  13   6   4   -2.35    2.58
  13  -6   4    0.10    1.01
  13   6   4    0.11    1.93
  13  -6   4   -0.77    1.05
  13   6   5    1.90    2.03
  13  -6   5    0.38    1.44
  13   6   5    1.29    0.88
  13  -6   5   -1.03    1.31
  13   6   6    3.36    1.71
  13  -6   6    0.72    1.31
  13   6   6    1.74    0.92
  13  -6   6    4.22    2.56
  13   6   7    4.01    2.31
  13  -6   7    6.32    2.31
  13   6   7    0.65    0.76
  13  -6   7    2.64    1.94
  13   6   8    0.98    1.69
  13  -6   8    2.61    2.04
  13   6   8    2.03    1.52
  13  -6   8   -1.30    1.32
  13   6   9    0.84    1.79
  13  -6   9    3.47    2.55
  13   6   9    2.63    1.63
  13  -6   9    1.30    1.87
  13   6  10    1.49    2.47
  13  -6  10    1.06    1.41
  13   6  10    5.98    2.52
  13  -6  10    3.84    1.48
  13   6  11    4.81    3.05
  13  -6  11    0.58    1.48
  13   6  11   -0.37    1.12
  13  -6  11   -0.66    2.01
  13   6  12    3.43    3.13
  13  -6  12   -1.48    1.74
  13   6  12   -0.11    1.68
  13  -6  12    4.89    3.37
  13   6  13    1.73    2.10
  13  -6  13    3.76    1.19
  13   6  13   -0.77    0.82
  13  -6  13    2.35    1.18
  13   6  14    5.62    2.82
  13  -6  14    2.78    1.87
  13   6  14    2.49    1.55
  13  -6  14    1.75    1.44
  13  -6  15   -1.71    2.71
  13   6  15    0.42    1.50
  13  -6  15    1.92    2.08
  13  -6  16    2.79    1.19
  13   6  16   -1.59    3.23
  13  -6  16   -1.38    2.49
  13  -6  17    0.55    2.00
  13   6  17   -0.45    2.18
  13  -6  17    3.00    2.55
  13   6  18    0.09    0.98
  13  -6  18   -1.18    3.07
  13   7 -15    4.49    2.82
  13  -7 -15    1.70    2.42
  13  -7 -15    0.99    1.67
  13   7 -14    7.67    2.46
  13  -7 -14    5.27    1.99
  13  -7 -14    7.82    3.51
  13   7 -13    2.90    1.81
  13  -7 -13    4.53    3.40
  13  -7 -13    3.72    2.12
  13   7 -12    2.07    1.77
  13  -7 -12    4.87    2.27
  13  -7 -12    1.77    1.82
  13   7 -11    1.52    1.70
  13  -7 -11    5.05    2.81
  13  -7 -11    3.09    1.60
  13  -7 -10   35.00    5.72
  13   7 -10   28.35    5.45
  13  -7 -10   31.86    5.41
  13  -7  -9    3.73    2.52
  13   7  -9    6.54    2.85
  13  -7  -9    3.24    2.23
  13  -7  -8   -0.16    2.09
  13   7  -8    3.10    2.21
  13  -7  -8    5.10    2.53
  13  -7  -7    2.97    2.37
  13  -7  -7    0.37    1.26
  13  -7  -6   27.80    5.02
  13   7  -6   25.18    4.99
  13  -7  -6   22.30    4.72
  13  -7  -5   -0.90    1.83
  13   7  -5    5.16    1.37
  13  -7  -5    2.05    2.43
  13  -7  -4   15.19    3.93
  13   7  -4   20.88    4.61
  13  -7  -4   20.45    4.32
  13   7  -3    4.55    2.90
  13  -7  -3    6.02    2.16
  13  -7  -3    3.82    2.27
  13   7  -2   10.29    3.29
  13  -7  -2   10.50    3.13
  13  -7  -2   12.46    3.88
  13   7  -1    7.24    2.81
  13  -7  -1    3.95    2.28
  13   7  -1    2.49    1.71
  13  -7  -1    7.20    3.56
  13   7   0    4.99    2.71
  13  -7   0    9.02    3.15
  13   7   0   -0.08    1.07
  13  -7   0    3.84    1.63
  13   7   1    4.26    2.41
  13  -7   1    8.98    2.75
  13   7   1    7.01    2.92
  13  -7   1    3.18    2.00
  13   7   2    6.70    2.37
  13  -7   2    9.36    3.20
  13  -7   2   12.07    3.69
  13   7   2    5.46    2.48
  13   7   3   10.69    3.57
  13  -7   3   10.30    3.15
  13  -7   3    7.24    2.56
  13   7   3    4.29    1.66
  13   7   4   18.40    4.46
  13  -7   4   18.00    4.35
  13  -7   4   15.11    3.92
  13   7   4   11.96    3.08
  13   7   5   -1.08    1.25
  13  -7   5    0.39    1.39
  13  -7   5   -0.63    1.26
  13   7   5    1.37    1.19
  13   7   6   21.22    4.60
  13   7   6   27.32    4.97
  13  -7   6   25.15    4.77
  13  -7   6   20.31    4.54
  13   7   7    4.81    2.54
  13  -7   7    6.49    3.10
  13  -7   7    4.16    2.18
  13   7   7    5.88    2.61
  13   7   8    4.23    2.48
  13  -7   8   10.33    2.69
  13  -7   8    9.14    3.45
  13   7   8    2.21    2.09
  13   7   9    3.48    2.63
  13  -7   9   -1.67    2.49
  13  -7   9    0.43    1.63
  13   7   9    3.51    1.89
  13   7  10   26.06    5.61
  13   7  10   28.80    5.34
  13  -7  10   27.55    5.37
  13  -7  10   36.18    6.39
  13   7  11    4.63    2.65
  13  -7  11    1.16    1.79
  13  -7  11    3.06    1.82
  13   7  11    4.48    2.34
  13   7  12    3.27    2.22
  13  -7  12    0.86    1.41
  13  -7  12    4.44    1.99
  13   7  12    1.65    1.21
  13   7  13    1.81    2.64
  13  -7  13    0.64    2.52
  13  -7  13    5.00    3.41
  13   7  13    4.24    2.24
  13   7  14    2.38    1.75
  13  -7  14    3.44    2.53
  13  -7  14    6.28    3.27
  13   7  14    5.27    2.10
  13  -7  15    2.40    1.59
  13  -7  15    3.26    3.31
  13   7  15   -0.52    0.90
  13   8 -11    4.67    1.14
  13  -8 -11    1.99    1.15
  13  -8 -11    1.68    1.63
  13   8 -10   -1.51    1.36
  13  -8 -10    3.17    2.97
  13  -8 -10   -0.57    2.10
  13   8  -9   -0.50    1.38
  13  -8  -9    3.29    2.00
  13  -8  -9   -0.23    0.94
  13   8  -8    1.83    1.33
  13  -8  -8    2.16    2.25
  13  -8  -8    0.81    1.74
  13   8  -7    1.88    1.72
  13  -8  -7    2.94    1.83
  13  -8  -7    1.77    1.72
  13  -8  -6    1.83    1.54
  13   8  -6    3.55    1.65
  13  -8  -6    1.80    1.13
  13  -8  -5    0.23    0.99
  13   8  -5    1.91    2.01
  13  -8  -5    3.58    1.16
  13  -8  -4   -0.33    1.63
  13   8  -4   -0.15    1.35
 -13   8  -4   -2.59    2.77
  13  -8  -4   -1.22    2.01
  13  -8  -3    4.04    2.06
  13   8  -3   -0.11    1.21
  13  -8  -3   -0.76    2.35
  13  -8  -2    3.43    1.84
  13   8  -2    0.11    1.06
  13  -8  -2    0.02    1.22
  13  -8  -1    1.42    1.14
  13   8  -1    1.80    2.24
  13  -8  -1   -0.32    1.29
  13  -8   0   -0.11    1.35
  13   8   0   -1.14    1.31
  13  -8   0    0.16    2.45
  13  -8   1    0.45    2.72
  13   8   1    1.66    1.62
  13  -8   1   -1.69    3.27
  13   8   1   -1.67    1.29
  13  -8   2    3.67    2.67
  13   8   2    3.33    2.07
  13  -8   2    2.37    2.81
  13   8   2    2.36    1.95
  13  -8   3    3.04    3.36
  13   8   3    4.23    2.27
  13  -8   3   -1.36    1.41
  13   8   3   -0.54    1.60
  13  -8   4   -2.11    2.19
  13   8   4    0.22    2.71
  13  -8   4    0.05    1.63
  13   8   4   -2.50    2.44
  13  -8   5    2.14    1.86
  13   8   5    0.40    1.04
  13  -8   5    3.09    2.72
  13   8   5   -0.13    1.22
  13   8   6    1.22    1.07
  13  -8   6    0.39    2.03
  13  -8   6    1.82    1.66
  13   8   6    0.73    1.70
  13   8   7    1.58    1.45
  13  -8   7    1.25    2.09
  13  -8   7   -0.55    2.18
  13   8   7    5.08    2.36
  13   8   8   -1.11    1.80
  13  -8   8   -1.57    1.46
  13  -8   8    0.40    1.32
  13   8   8   -1.53    1.76
  13   8   9   -0.62    1.65
  13  -8   9    1.16    2.21
  13  -8   9    3.20    3.09
  13   8   9    2.26    1.50
  13   8  10   -0.14    1.43
  13   8  10    0.02    1.76
  13   8  11    2.44    1.23
  13  -8  11    2.50    2.28
  13   8  11    3.42    1.78
  13   9  -4   14.30    4.04
 -13   9  -4   16.90    5.57
  13  -9  -4   11.25    3.41
  13  -9  -4    9.28    3.30
  13   9  -3    7.17    2.74
 -13   9  -3    0.96    2.66
  13  -9  -3    0.57    2.26
  13  -9  -3    2.73    2.11
  13  -9  -2    1.74    1.14
  13   9  -2    2.12    2.15
 -13   9  -2    0.77    1.68
  13  -9  -2   -0.27    1.95
  13  -9  -1   -1.71    2.43
  13   9  -1   -0.52    1.46
 -13   9  -1    1.70    1.88
  13  -9  -1    1.58    2.21
  13  -9   0    7.56    3.89
  13   9   0    6.19    3.00
 -13   9   0    2.97    2.49
  13  -9   0    6.03    3.12
  13  -9   1   -1.82    2.01
  13   9   1    3.94    2.23
 -13   9   1    5.39    2.61
  13  -9   1    0.48    1.61
  13  -9   2    0.34    1.24
  13   9   2    0.68    1.76
 -13   9   2   -1.07    1.50
  13  -9   2    3.31    3.41
  13   9   2    0.74    1.50
  13  -9   3    0.48    2.12
  13   9   3    2.33    1.42
 -13   9   3    3.34    2.73
  13  -9   3    5.06    3.42
  13   9   3    2.58    2.81
  13  -9   4   10.16    3.41
  13   9   4    9.42    3.01
 -13   9   4   12.52    3.68
  13   9   4    7.26    2.63
  14   0 -21   24.87    5.94
  14   0 -20   11.16    3.04
  14   0 -19   -1.17    1.52
  14   0 -18   -0.28    1.11
  14   0 -17    9.44    3.65
  14   0 -16   23.64    5.21
  14   0 -15    3.12    2.11
  14   0 -14   13.52    3.71
  14   0 -13   38.84    6.06
  14   0 -12   61.86    7.27
  14   0 -11    4.53    2.05
  14   0 -10   64.63    7.35
  14   0 -10   74.63    8.12
  14   0  -9   10.97    3.16
  14   0  -9   10.77    3.20
  14   0  -8    8.53    2.74
  14   0  -8    6.50    2.85
  14   0  -7   77.34    7.95
  14   0  -7   69.96    7.80
  14   0  -6  140.32   10.37
  14   0  -6  119.47    9.95
  14   0  -5   50.16    6.26
  14   0  -5   44.48    6.10
  14   0  -4  118.22    9.47
  14   0  -4  108.04    9.30
  14   0  -3   64.47    6.87
  14   0  -3   54.61    6.65
  14   0  -2   37.45    5.30
  14   0  -2   32.97    5.12
  14   0  -1   37.60    5.31
  14   0  -1   37.23    5.50
  14   0   0   84.30    8.07
  14   0   0   84.11    8.24
  14   0   0   90.15    8.22
  14   0   1   26.05    4.40
  14   0   1   33.69    4.99
  14   0   2   31.23    5.01
  14   0   2   37.36    5.42
  14   0   2   33.42    4.77
  14   0   3   64.20    7.11
  14   0   3   62.08    7.28
  14   0   3   57.23    6.55
  14   0   4   95.14    8.87
  14   0   4   90.43    8.57
  14   0   4   99.55    8.12
  14   0   5   41.34    5.78
  14   0   5   42.85    5.69
  14   0   6  130.03   10.22
  14   0   6  131.91    9.79
  14   0   7   77.79    7.93
  14   0   8   14.34    3.30
  14   0   9   11.57    3.37
  14   0  10   57.73    6.86
  14   0  11    8.38    2.48
  14   0  12   64.06    7.55
  14   0  13   33.24    5.40
  14   0  14   12.89    3.58
  14   0  15    2.52    2.06
  14   0  16   23.55    4.87
  14   0  17    4.45    2.76
  14   0  18    1.31    2.32
  14   0  19    7.73    3.60
  14   0  20   20.59    4.92
  14   0  21   13.21    3.44
  14   0  22    3.62    2.12
  14   0  23    1.95    1.15
  14  -1 -22   -1.66    2.06
  14  -1 -21    0.67    2.40
  14  -1 -20    0.57    1.82
  14  -1 -19    4.16    1.76
  14  -1 -18    2.22    1.88
  14  -1 -17    1.80    1.67
  14   1 -16    0.03    1.13
  14  -1 -16    0.62    1.46
  14   1 -15    3.46    1.39
  14  -1 -15    4.57    3.01
  14   1 -14   -0.30    1.42
  14  -1 -14    0.60    2.10
  14   1 -13    2.04    1.23
  14  -1 -13    2.50    2.22
  14   1 -12    0.42    0.87
  14  -1 -12    0.43    1.37
  14  -1 -11   -0.05    1.25
  14  -1 -11   -0.07    1.38
  14   1 -11   -1.18    2.02
  14  -1 -10    4.29    1.81
  14  -1 -10    5.09    2.02
  14   1 -10    2.51    0.97
  14  -1  -9    6.25    2.57
  14   1  -9   10.46    3.01
  14  -1  -9    9.40    2.98
  14   1  -9    4.85    1.95
  14   1  -9    6.37    2.43
  14  -1  -8    3.03    2.26
  14   1  -8    4.55    2.48
  14  -1  -8    6.71    2.97
  14   1  -8    1.47    0.82
  14   1  -8    2.99    1.46
  14  -1  -7   17.25    3.96
  14   1  -7   14.87    3.77
  14  -1  -7   14.92    3.54
  14   1  -7   10.88    2.86
  14   1  -7   17.05    3.76
  14  -1  -6    0.87    1.68
  14   1  -6    1.63    1.67
  14  -1  -6    1.95    2.41
  14   1  -6    2.13    1.89
  14   1  -6    2.06    2.20
  14  -1  -5   -0.79    1.42
  14   1  -5   -0.01    1.04
  14  -1  -5    1.64    1.39
  14   1  -5    1.27    1.69
  14   1  -5    1.15    0.81
  14  -1  -4    3.81    1.68
  14   1  -4    6.18    2.04
  14  -1  -4    3.18    1.63
  14   1  -4    6.21    2.24
  14   1  -4    9.34    2.79
  14  -1  -3   12.19    3.10
  14  -1  -3   10.79    3.39
  14   1  -3   10.64    3.26
  14   1  -3    5.59    2.32
  14   1  -3    5.69    2.55
  14  -1  -2   31.85    4.97
  14   1  -2   23.29    4.53
  14   1  -2   27.78    4.68
  14  -1  -2   22.37    4.26
  14   1  -2   19.75    3.74
  14  -1  -1   26.47    4.63
  14   1  -1   35.32    5.06
  14  -1  -1   28.99    5.18
  14   1  -1   31.26    5.21
  14   1  -1   35.46    5.28
  14  -1   0   31.75    5.05
  14   1   0   24.05    4.32
  14  -1   0   23.50    4.36
  14   1   0   20.30    4.19
  14   1   0   30.24    4.67
  14  -1   1   21.94    4.16
  14   1   1   32.96    4.93
  14  -1   1   27.79    5.19
  14   1   1   30.90    5.11
  14   1   1   26.85    4.31
  14  -1   2   27.36    4.55
  14   1   2   28.19    4.74
  14   1   2   23.64    4.50
  14  -1   2   21.79    4.23
  14   1   2   24.10    4.13
  14  -1   3    8.36    3.15
  14  -1   3    7.76    2.98
  14   1   3   11.44    3.18
  14   1   3   12.70    3.44
  14   1   3    7.16    2.97
  14   1   4    5.61    1.75
  14  -1   4    4.63    2.30
  14  -1   4    5.42    1.77
  14   1   4    5.41    2.01
  14   1   5    0.80    0.77
  14  -1   5    1.35    1.36
  14  -1   5    0.97    1.76
  14   1   5    2.61    1.71
  14   1   6    0.60    2.10
  14  -1   6    1.11    1.06
  14   1   7   16.75    3.53
  14  -1   7   11.90    2.95
  14   1   7   10.67    3.06
  14   1   8    1.80    1.18
  14  -1   8    1.55    1.72
  14   1   8    3.43    2.00
  14   1   9    5.48    2.05
  14  -1   9    4.17    1.23
  14   1   9    4.87    2.32
  14   1  10    2.92    1.96
  14  -1  10    1.90    1.93
  14   1  10    4.29    2.17
  14   1  11    0.80    1.61
  14  -1  11    0.29    1.26
  14   1  11   -0.13    1.13
  14   1  12   -0.14    2.06
  14  -1  12    0.53    1.56
  14   1  13    0.81    1.19
  14  -1  13    0.52    1.55
  14   1  14    1.59    1.83
  14  -1  14    0.47    1.76
  14   1  15    4.57    2.32
  14  -1  15    6.93    2.29
  14   1  16    1.43    1.45
  14  -1  16    4.25    2.19
  14   1  17   -0.54    1.15
  14  -1  17    4.10    2.90
  14   1  18    5.32    1.72
  14  -1  18    1.87    2.50
  14   1  19   -1.18    1.93
  14  -1  19    0.67    1.34
  14   1  20    1.77    1.43
  14  -1  20    3.23    1.87
  14   1  21   -1.06    1.34
  14  -1  21   -1.74    2.56
  14   1  22   -0.24    1.76
  14  -1  22    2.90    2.03
  14  -2 -22    9.75    3.55
  14  -2 -21    2.69    1.94
  14  -2 -20    7.06    2.32
  14  -2 -19    1.88    2.54
  14  -2 -18   -0.80    1.40
  14  -2 -17    8.45    3.13
  14  -2 -16   18.24    3.96
  14  -2 -15    4.25    2.14
  14  -2 -14   32.39    5.41
  14   2 -14   30.14    5.10
  14  -2 -13    7.37    2.49
  14  -2 -13   15.12    3.84
  14   2 -13    8.94    2.95
  14  -2 -12   20.36    4.20
  14   2 -12   20.00    3.78
  14  -2 -12   24.50    4.78
  14  -2 -11    1.47    1.47
  14  -2 -11    2.78    1.58
  14   2 -11    5.42    2.80
  14   2 -11    1.34    1.67
  14  -2 -10   26.35    4.70
  14  -2 -10   23.84    5.02
  14   2 -10   37.22    5.67
  14   2 -10   25.83    4.64
  14  -2  -9   36.77    5.61
  14  -2  -9   33.81    5.57
  14   2  -9   41.22    5.74
  14   2  -9   39.10    5.59
  14  -2  -8    9.58    3.14
  14   2  -8   15.79    3.89
  14  -2  -8   14.49    3.73
  14   2  -8    9.40    2.74
  14   2  -8   10.65    3.22
  14  -2  -7    8.14    3.18
  14  -2  -7   13.96    3.59
  14   2  -7   10.92    2.70
  14   2  -7    9.43    2.72
  14   2  -7   13.75    3.29
  14  -2  -6   47.56    6.16
  14   2  -6   41.36    5.49
  14  -2  -6   52.82    6.66
  14   2  -6   38.19    5.63
  14   2  -6   43.45    5.93
  14  -2  -5   26.04    4.62
  14   2  -5   24.06    4.15
  14  -2  -5   31.99    5.05
  14   2  -5   25.68    4.59
  14   2  -5   28.85    4.83
  14  -2  -4   48.98    6.31
  14   2  -4   58.40    6.73
  14  -2  -4   62.79    7.39
  14   2  -4   44.62    5.93
  14   2  -4   49.47    6.03
  14  -2  -3   14.62    3.05
  14   2  -3   20.61    4.22
  14  -2  -3   21.01    4.38
  14   2  -3   15.39    3.59
  14   2  -3   16.68    3.73
  14  -2  -2    9.06    2.75
  14  -2  -2    5.13    2.07
  14   2  -2    5.15    2.02
  14   2  -2    2.47    0.69
  14   2  -2    9.00    2.72
  14  -2  -1   10.29    3.11
  14  -2  -1    4.35    2.37
  14   2  -1    8.47    2.84
  14   2  -1    6.87    2.53
  14   2  -1    6.50    2.36
  14  -2   0   91.54    8.71
  14   2   0   93.77    8.64
  14  -2   0  100.66    9.43
  14   2   0  117.83    9.73
  14   2   0   93.22    8.50
  14   2   1    5.57    1.55
  14  -2   1    4.94    2.51
  14  -2   1    7.09    3.08
  14   2   1    3.39    1.21
  14   2   1    9.49    3.38
  14   2   2    3.09    1.94
  14  -2   2    8.39    2.99
  14  -2   2    4.36    1.65
  14   2   2    4.72    2.06
  14   2   2   11.91    3.07
  14  -2   3   18.29    3.98
  14   2   3   23.43    4.32
  14  -2   3   24.90    4.68
  14  -2   4   56.33    6.84
  14   2   4   57.47    6.57
  14  -2   4   59.62    6.81
  14   2   4   55.19    6.53
  14  -2   5   27.21    4.62
  14   2   5   34.46    5.01
  14  -2   5   25.95    4.55
  14   2   5   30.56    5.11
  14  -2   6   39.23    5.98
  14   2   6   51.24    6.57
  14  -2   6   39.45    5.97
  14   2   6   35.20    5.27
  14   2   7   14.49    3.26
  14  -2   7   13.79    3.55
  14  -2   7   12.93    3.20
  14   2   7    8.80    2.75
  14   2   8   13.54    3.39
  14  -2   8   12.31    3.22
  14   2   8   14.76    3.61
  14  -2   9   31.39    5.24
  14   2   9   43.48    5.98
  14   2   9   48.26    6.35
  14  -2  10   29.49    4.76
  14   2  10   28.20    4.73
  14   2  10   27.71    4.57
  14   2  11    2.34    1.44
  14  -2  11   -0.27    0.86
  14   2  11    2.29    2.12
  14  -2  12   19.12    4.22
  14   2  12   28.56    5.05
  14   2  12   21.37    4.14
  14   2  13   15.46    4.18
  14  -2  13   12.06    3.81
  14  -2  14   26.31    4.82
  14   2  14   26.96    5.03
  14   2  15    6.24    2.58
  14  -2  15    6.34    1.83
  14  -2  16   16.81    3.89
  14   2  16   32.90    5.45
  14   2  17    4.54    2.09
  14  -2  17    6.32    2.19
  14   2  18   -1.53    1.68
  14  -2  18    2.01    2.09
  14   2  19    4.60    2.38
  14  -2  19    0.41    1.45
  14   2  20    8.98    3.23
  14  -2  20    8.50    2.66
  14   2  21    6.33    2.17
  14  -2  21    4.39    2.68
  14   2  22    7.70    2.49
  14  -2  22    4.14    1.38
  14  -3 -21   -0.04    1.67
  14  -3 -20    2.67    1.81
  14  -3 -19    0.40    0.94
  14  -3 -18    0.75    0.92
  14  -3 -17   -1.89    1.10
  14   3 -17    1.93    2.57
  14  -3 -16    3.53    1.87
  14   3 -16    7.56    2.73
  14  -3 -15    3.94    2.09
  14   3 -15   -1.74    1.86
  14  -3 -14    3.06    1.99
  14  -3 -14    0.17    1.20
  14   3 -14    1.38    1.18
  14  -3 -13   -0.24    1.07
  14  -3 -13    0.92    1.31
  14   3 -13    2.05    2.02
  14  -3 -12    0.71    1.53
  14  -3 -12    1.44    1.95
  14   3 -12    1.63    1.43
  14  -3 -11    2.96    1.30
  14  -3 -11    3.09    1.77
  14   3 -11    1.43    0.80
  14  -3 -10   12.20    3.71
  14  -3 -10   19.14    4.02
  14   3 -10   15.84    3.88
  14  -3  -9    1.31    1.39
  14  -3  -9    2.47    2.39
  14   3  -9   -0.58    1.45
  14  -3  -8    0.28    0.75
  14  -3  -8    0.77    1.54
  14   3  -8    1.19    1.34
  14  -3  -7    0.48    1.20
  14  -3  -7    3.26    2.32
  14   3  -7    2.21    1.48
  14  -3  -6    2.57    1.78
  14  -3  -6    8.00    2.49
  14   3  -6    8.09    2.41
  14   3  -6    4.05    2.34
  14  -3  -5    6.02    2.54
  14   3  -5   15.54    4.31
  14  -3  -5    8.84    3.21
  14   3  -5    9.54    3.01
  14   3  -5   12.16    3.17
  14  -3  -4    3.46    1.98
  14  -3  -4    4.01    2.35
  14   3  -4    0.44    0.93
  14   3  -4    0.72    1.35
  14   3  -4    0.76    0.68
  14   3  -3    9.00    2.88
  14  -3  -3   13.27    3.32
  14  -3  -3    9.53    3.05
  14   3  -3   11.31    3.27
  14   3  -3    8.62    2.53
  14  -3  -2   64.95    7.41
  14   3  -2   72.98    7.54
  14  -3  -2   61.14    7.30
  14   3  -2   71.34    7.64
  14   3  -2   64.14    7.06
  14   3  -1   19.17    3.92
  14   3  -1   13.89    3.49
  14  -3  -1   12.20    3.49
  14  -3  -1   21.75    4.63
  14   3  -1   13.69    3.28
  14  -3   0   46.22    6.51
  14   3   0   50.21    6.14
  14  -3   0   61.94    7.49
  14   3   0   67.06    7.28
  14   3   0   58.45    7.07
  14   3   1   13.35    2.99
  14   3   1   14.81    3.15
  14  -3   1   10.02    3.20
  14  -3   1   14.17    3.46
  14   3   1   13.67    3.14
  14  -3   2   48.92    6.46
  14  -3   2   46.37    6.36
  14   3   2   63.81    7.18
  14   3   2   61.34    7.14
  14   3   2   47.88    6.21
  14   3   3    9.33    2.90
  14   3   3   15.73    3.63
  14  -3   3   11.74    3.44
  14  -3   3    7.82    2.76
  14   3   4   -0.76    1.86
  14   3   4    2.27    1.99
  14  -3   4   -0.27    0.86
  14  -3   4    1.08    2.20
  14   3   5   10.23    2.89
  14   3   5    4.99    2.50
  14  -3   5    7.63    3.20
  14  -3   5    6.99    2.04
  14   3   6    6.10    2.26
  14   3   6    7.19    2.44
  14  -3   6    3.67    1.89
  14  -3   6    6.94    2.66
  14   3   7    2.54    1.90
  14   3   7    1.39    2.02
  14  -3   7    1.28    1.24
  14  -3   7    2.35    3.23
  14   3   8    0.56    0.87
  14   3   8    1.75    1.44
  14  -3   8    0.37    1.02
  14  -3   8   -1.38    0.96
  14   3   9    1.12    1.95
  14   3   9    1.91    0.98
  14  -3   9   -1.00    1.99
  14  -3   9    1.42    1.06
  14   3  10   20.70    3.98
  14   3  10   21.31    4.27
  14  -3  10   20.75    4.36
  14   3  11    5.42    2.22
  14   3  11    1.83    1.52
  14  -3  11    1.26    0.97
  14   3  12    1.60    1.88
  14   3  12    0.32    1.28
  14  -3  12   -0.02    0.91
  14   3  13    1.68    2.06
  14   3  13    3.14    2.28
  14  -3  13    0.45    0.87
  14   3  14    4.04    1.34
  14  -3  14    5.84    2.50
  14   3  15    1.61    1.71
  14  -3  15    2.26    1.82
  14   3  16    5.70    2.58
  14  -3  16    4.91    2.74
  14   3  17    2.20    2.61
  14  -3  17   -0.13    1.17
  14   3  18    0.88    1.62
  14  -3  18   -2.63    1.92
  14   3  19   -0.03    1.43
  14  -3  19    0.89    1.40
  14   3  20    3.25    1.84
  14  -3  20    3.54    3.00
  14   3  21    0.59    1.49
  14  -3  21    1.35    2.87
  14  -4 -20   13.36    4.22
  14   4 -20    9.60    3.45
  14  -4 -19   -1.35    1.40
  14   4 -19   -1.95    1.44
  14  -4 -18    5.61    3.03
  14   4 -18    4.84    1.77
  14  -4 -17   14.64    4.20
  14   4 -17   18.30    4.16
  14  -4 -16    7.45    3.46
  14   4 -16   18.96    4.45
  14  -4 -15    1.68    1.51
  14   4 -15    4.80    1.72
  14  -4 -14   19.56    4.87
  14  -4 -14   21.65    4.80
  14   4 -14   14.28    3.72
  14  -4 -13    6.00    2.85
  14  -4 -13    1.87    1.81
  14  -4 -12   11.95    3.39
  14  -4 -12   17.64    3.89
  14   4 -12   17.40    4.03
  14  -4 -11   21.88    4.37
  14  -4 -11   18.44    4.35
  14   4 -11   16.99    4.00
  14  -4 -10   15.66    4.32
  14  -4 -10   15.25    4.21
  14   4 -10   19.96    4.19
  14  -4  -9   21.08    4.36
  14  -4  -9   22.31    4.51
  14   4  -9   26.42    4.83
  14  -4  -8    5.99    2.76
  14  -4  -8    5.98    2.36
  14   4  -8    7.64    3.36
  14   4  -7    7.37    2.30
  14  -4  -7    6.08    2.29
  14  -4  -7   12.96    4.09
  14  -4  -6   34.73    5.77
  14   4  -6   34.34    5.45
  14  -4  -6   40.48    6.02
  14   4  -5    9.88    3.06
  14   4  -5    8.01    2.67
  14  -4  -5    4.29    2.62
  14  -4  -5   15.12    3.53
  14  -4  -4   32.00    5.39
  14  -4  -4   45.15    6.46
  14   4  -4   32.81    5.06
  14   4  -4   33.64    5.57
  14   4  -3   24.76    4.44
  14  -4  -3   33.08    5.24
  14   4  -3   28.24    4.63
  14  -4  -3   29.44    4.87
  14   4  -2    3.32    1.00
  14   4  -2    7.19    2.86
  14  -4  -2   10.02    3.25
  14  -4  -2    7.55    2.88
  14   4  -1   18.33    3.96
  14  -4  -1   17.90    4.10
  14   4  -1   21.97    4.40
  14  -4  -1   24.88    4.66
  14  -4   0  175.47   11.95
  14  -4   0  213.30   13.72
  14   4   0  176.45   11.96
  14   4   0  222.05   13.58
  14   4   1   16.25    3.82
  14   4   1   12.22    3.04
  14  -4   1   13.71    3.82
  14  -4   1   15.84    4.44
  14   4   1   20.32    4.11
  14   4   2    7.09    2.87
  14   4   2    5.01    1.95
  14  -4   2    4.85    2.57
  14  -4   2   11.10    3.61
  14  -4   3   32.91    5.49
  14  -4   3   38.03    5.89
  14   4   3   27.08    4.66
  14   4   3   31.70    5.20
  14  -4   4   33.64    5.57
  14  -4   4   33.20    5.35
  14   4   4   30.97    5.03
  14   4   4   36.16    5.45
  14   4   5    8.68    3.52
  14   4   5    5.37    2.18
  14  -4   5    2.69    1.82
  14  -4   5    7.08    2.65
  14  -4   6   37.42    5.76
  14  -4   6   30.68    5.22
  14   4   6   39.31    5.77
  14   4   6   39.74    5.70
  14   4   7    6.35    2.72
  14   4   7   13.11    3.30
  14  -4   7    4.67    1.98
  14  -4   7    8.82    3.70
  14   4   8   10.91    3.25
  14   4   8    6.32    2.54
  14  -4   8    6.46    2.58
  14  -4   8    4.00    1.60
  14  -4   9   35.15    5.81
  14  -4   9   33.48    5.84
  14   4   9   35.01    5.76
  14   4   9   23.03    4.58
  14   4  10   21.09    4.60
  14   4  10   22.86    4.02
  14  -4  10   14.15    3.72
  14  -4  10   20.79    4.59
  14   4  11   20.88    4.69
  14  -4  11   18.57    4.00
  14  -4  11   13.97    3.49
  14   4  11   24.18    4.79
  14   4  12   20.12    4.37
  14   4  12   10.70    3.32
  14  -4  12   17.92    4.08
  14  -4  12   15.30    3.78
  14   4  13    5.72    2.89
  14   4  13    8.38    3.17
  14  -4  13   10.00    4.02
  14  -4  13    6.08    2.37
  14   4  14   18.26    4.21
  14  -4  14    7.89    2.82
  14   4  15    6.18    2.23
  14  -4  15    6.24    3.11
  14   4  16    9.17    3.32
  14  -4  16   14.05    3.78
  14   4  17   20.87    4.62
  14  -4  17   11.98    4.26
  14   4  18    3.10    2.22
  14  -4  18    1.17    1.58
  14   4  19    2.98    1.43
  14  -4  19    3.65    2.40
  14   4  20   16.04    4.17
  14  -4  20   14.16    4.06
  14  -5 -18    3.48    2.64
  14   5 -18   -2.18    2.36
  14  -5 -17   -0.48    2.02
  14   5 -17    3.11    1.17
  14  -5 -16    3.12    2.79
  14   5 -16    0.82    2.41
  14  -5 -16    0.72    2.43
  14  -5 -15   -1.52    2.32
  14   5 -15    2.04    2.20
  14  -5 -15    1.43    2.02
  14  -5 -14    2.58    1.30
  14  -5 -14    0.75    1.78
  14   5 -14    1.07    0.84
  14  -5 -13    2.06    2.06
  14  -5 -13    3.51    2.78
  14   5 -13    3.72    2.20
  14  -5 -12    5.69    2.76
  14  -5 -12    7.57    3.00
  14   5 -12    6.87    3.29
  14  -5 -11    0.76    1.72
  14  -5 -11    3.85    2.15
  14   5 -11    3.44    2.20
  14   5 -10    6.88    2.62
  14  -5 -10    7.94    3.32
  14  -5 -10    3.69    2.24
  14   5  -9    3.59    1.39
  14  -5  -9    1.12    0.79
  14  -5  -9    5.81    2.98
  14   5  -8    2.54    1.88
  14  -5  -8    4.38    2.15
  14  -5  -8    0.69    1.78
  14   5  -7   -0.40    1.02
  14  -5  -7    1.82    1.39
  14  -5  -7    2.10    2.77
  14   5  -6    0.54    1.20
  14  -5  -6    0.11    1.18
  14  -5  -6    1.28    1.35
  14   5  -5    3.74    2.17
  14  -5  -5    3.14    1.89
  14  -5  -5   -0.18    2.21
  14   5  -4    6.89    2.89
  14   5  -4   12.88    4.00
  14  -5  -4   11.72    2.93
  14  -5  -4    6.07    2.87
  14   5  -3    1.60    1.33
  14  -5  -3    2.58    1.50
  14   5  -3    3.97    2.42
  14  -5  -3   -2.32    1.47
  14   5  -2    3.90    2.96
  14  -5  -2    2.74    1.43
  14   5  -2    5.00    1.95
  14  -5  -2    5.32    2.21
  14   5  -1   16.02    3.46
  14  -5  -1   12.86    3.86
  14   5  -1   12.66    3.70
  14  -5  -1   16.88    4.03
  14  -5   0   41.86    6.13
  14  -5   0   31.43    5.34
  14   5   0   44.94    6.18
  14   5   0   37.86    5.84
  14   5   1   13.32    3.48
  14  -5   1    9.43    2.43
  14   5   1   16.11    3.79
  14  -5   1   14.09    3.81
  14   5   2    6.21    2.42
  14  -5   2    5.85    2.12
  14   5   2    3.87    2.43
  14  -5   2    0.41    1.70
  14   5   3    1.11    1.86
  14  -5   3    1.72    1.38
  14   5   3    5.91    2.30
  14  -5   3    2.34    2.43
  14   5   4    8.16    2.59
  14  -5   4    9.64    2.73
  14   5   4    4.83    1.64
  14  -5   4   12.26    3.55
  14   5   5    0.64    1.28
  14  -5   5    0.12    1.21
  14   5   5   -0.24    1.75
  14  -5   5    4.01    2.76
  14   5   6    0.66    1.79
  14  -5   6   -0.31    1.12
  14   5   6    0.85    1.89
  14  -5   6    1.31    1.97
  14   5   7    1.39    1.81
  14  -5   7    1.54    0.82
  14   5   7    3.02    1.51
  14  -5   7   -0.48    2.48
  14   5   8    1.42    2.28
  14  -5   8    1.43    2.21
  14   5   8    2.83    2.09
  14  -5   8    3.68    2.69
  14   5   9    0.67    1.24
  14  -5   9    6.48    2.61
  14   5   9    6.14    2.42
  14  -5   9    6.68    3.23
  14   5  10    5.81    1.84
  14  -5  10    8.02    3.14
  14   5  10    8.78    3.30
  14  -5  10    5.40    1.88
  14   5  11    2.07    2.05
  14  -5  11    4.04    2.08
  14   5  11    5.30    2.64
  14  -5  11    3.79    1.77
  14   5  12    7.04    1.30
  14  -5  12    8.47    2.78
  14   5  12    6.81    2.96
  14  -5  12    3.69    2.60
  14   5  13    1.50    1.53
  14  -5  13    4.17    2.36
  14   5  13    7.42    2.89
  14  -5  13    6.85    2.93
  14  -5  14    2.97    1.33
  14   5  14    3.91    2.40
  14  -5  14    2.67    1.03
  14  -5  15   -1.20    1.05
  14   5  15   -0.03    1.31
  14  -5  15    0.83    1.39
  14  -5  16   -0.54    1.31
  14   5  16    3.70    2.50
  14  -5  16    1.47    1.35
  14  -5  17    2.97    2.85
  14   5  17    1.52    1.49
  14  -5  17    1.83    1.55
  14  -5  18    0.92    1.35
  14   5  18    0.92    1.23
  14  -6 -16   18.66    4.28
  14   6 -16    9.49    3.93
  14  -6 -15   -0.36    1.03
  14  -6 -15    1.89    2.26
  14   6 -15   -1.19    2.20
  14  -6 -14   -0.10    1.65
  14  -6 -14   -0.59    2.06
  14   6 -14    0.59    1.07
  14   6 -13    1.63    1.25
  14  -6 -13    0.16    1.43
  14  -6 -13    4.70    1.43
  14   6 -12   13.52    4.06
  14  -6 -12   14.17    3.92
  14  -6 -12   11.28    3.82
  14   6 -11    4.80    3.25
  14  -6 -11    4.35    2.45
  14  -6 -11    2.71    2.42
  14  -6 -10   35.27    5.95
  14  -6 -10   35.94    6.04
  14   6 -10   43.63    6.27
  14   6  -9   13.48    3.90
  14  -6  -9   20.02    4.11
  14  -6  -9   11.55    3.19
  14   6  -8    2.90    1.30
  14  -6  -8    5.00    2.94
  14  -6  -8    6.85    2.82
  14   6  -7    6.95    2.19
  14  -6  -7    9.43    2.80
  14  -6  -7   10.76    4.03
  14  -6  -6   40.85    6.54
  14  -6  -6   34.35    5.94
  14   6  -6   42.60    6.47
  14   6  -5   -0.65    1.26
  14  -6  -5    1.73    2.41
  14  -6  -5    0.28    1.69
  14  -6  -4   24.71    4.67
  14  -6  -4   25.29    5.19
  14   6  -4   39.64    5.84
  14   6  -3   15.82    3.85
  14  -6  -3   14.61    3.77
  14  -6  -3   11.81    3.05
  14   6  -2    8.91    2.87
  14  -6  -2   12.83    3.40
  14   6  -2   12.33    3.37
  14  -6  -2   18.70    4.40
  14   6  -1   12.51    3.34
  14  -6  -1   15.33    3.81
  14   6  -1    9.54    3.29
  14  -6  -1   10.36    3.32
  14  -6   0  108.25   10.29
  14   6   0  109.45    9.83
  14  -6   0   96.68    9.49
  14   6   0   87.06    8.87
  14   6   1   17.55    4.25
  14  -6   1    9.86    2.24
  14   6   1    8.71    2.72
  14  -6   1   17.02    4.25
  14  -6   2    8.32    3.00
  14   6   2    8.54    3.40
  14  -6   2   12.79    3.81
  14   6   3   19.50    4.65
  14  -6   3   18.26    4.17
  14   6   3   14.45    4.23
  14  -6   3   18.28    4.56
  14  -6   4   29.38    5.17
  14   6   4   25.24    4.56
  14  -6   4   25.49    5.22
  14   6   4   37.85    5.88
  14   6   5    1.97    1.67
  14  -6   5    2.86    2.22
  14   6   5    1.21    1.45
  14  -6   5    1.20    1.95
  14  -6   6   51.98    7.14
  14   6   6   45.58    6.29
  14  -6   6   42.65    6.86
  14   6   6   40.08    6.16
  14   6   7   10.41    3.16
  14  -6   7    8.23    3.09
  14   6   7    9.27    3.41
  14  -6   7    8.77    3.82
  14   6   8    3.22    1.85
  14  -6   8    3.55    1.21
  14   6   8    4.39    2.14
  14  -6   8    2.71    2.25
  14  -6   9    5.02    2.38
  14  -6   9    5.60    2.13
  14   6  10   31.73    5.26
  14  -6  10   32.25    5.76
  14  -6  10   31.07    6.05
  14   6  10   33.85    5.78
  14   6  11    4.91    2.03
  14  -6  11    6.44    2.30
  14   6  11    2.98    2.13
  14  -6  11    3.90    2.42
  14   6  12    6.94    2.57
  14  -6  12    8.99    2.87
  14   6  12   16.79    4.22
  14  -6  12   12.33    4.26
  14   6  13    2.78    2.60
  14  -6  13    3.94    2.31
  14   6  13    3.34    1.70
  14  -6  13    5.06    2.26
  14   6  14    3.34    2.37
  14  -6  14    1.07    1.68
  14   6  14   -0.81    2.00
  14  -6  14    4.63    2.70
  14  -6  15    5.22    2.17
  14   6  15    2.33    1.68
  14  -6  15    3.74    3.35
  14  -6  16   13.18    4.33
  14   6  16   10.98    3.64
  14  -6  16   11.14    4.37
  14   7 -13    3.68    2.16
  14  -7 -13    2.38    2.19
  14  -7 -13    3.12    2.30
  14   7 -12    1.65    1.62
  14  -7 -12    1.27    1.14
  14  -7 -12    4.62    2.56
  14   7 -11    1.89    1.77
  14  -7 -11    2.80    1.08
  14  -7 -11   -0.23    1.46
  14  -7 -10    3.20    2.69
  14   7 -10    2.14    1.53
  14  -7 -10    1.42    1.37
  14  -7  -9   -0.16    1.03
  14   7  -9   -0.01    1.54
  14  -7  -9   -0.13    1.80
  14  -7  -8    0.82    1.35
  14   7  -8    0.79    1.49
  14  -7  -8    4.23    2.24
  14  -7  -7    1.72    1.07
  14   7  -7    4.28    2.67
  14  -7  -7    0.29    1.96
  14   7  -6    5.76    2.53
  14  -7  -6   15.61    4.04
  14  -7  -6   10.36    3.02
  14   7  -5   11.56    3.68
  14  -7  -5    6.42    2.54
  14  -7  -5    7.44    3.67
  14   7  -4    1.53    2.13
  14  -7  -4   -0.51    1.58
  14  -7  -4    3.59    2.49
  14   7  -3    8.13    3.17
  14  -7  -3    8.06    3.24
  14  -7  -3    4.02    1.23
  14   7  -2    4.03    1.87
  14  -7  -2    4.24    2.32
  14  -7  -2    3.03    1.57
  14   7  -1    1.99    1.85
  14  -7  -1   -1.80    2.04
  14   7  -1    5.22    3.68
  14  -7  -1    1.34    2.07
  14   7   0    9.39    3.29
  14  -7   0   12.85    4.33
  14   7   0   11.73    3.31
  14  -7   0   19.40    4.61
  14   7   1   -0.26    1.72
  14  -7   1    1.09    2.04
  14   7   1   -1.12    2.18
  14  -7   1    0.04    1.70
  14   7   2    8.93    3.49
  14  -7   2    2.70    0.97
  14   7   2    6.64    2.79
  14  -7   2    5.80    2.82
  14   7   3    4.43    1.78
  14  -7   3    0.84    1.31
  14   7   3    4.86    2.49
  14  -7   3    2.86    2.52
  14   7   4    1.36    1.78
  14  -7   4    5.61    2.97
  14   7   4    2.60    1.88
  14  -7   4    0.14    2.12
  14   7   5   11.04    3.52
  14  -7   5   10.08    2.90
  14   7   5   10.34    3.41
  14  -7   5    6.15    3.36
  14   7   6    9.45    3.35
  14  -7   6    2.10    1.37
  14   7   6   11.02    3.12
  14  -7   6   11.07    3.91
  14   7   7    2.26    2.19
  14  -7   7    3.70    2.18
  14   7   7    0.80    1.61
  14  -7   7    5.86    2.74
  14   7   8    5.82    3.61
  14  -7   8    6.63    2.63
  14   7   8    2.22    2.35
  14  -7   8    5.17    2.86
  14   7   9    1.22    1.66
  14  -7   9    1.06    2.45
  14   7   9   -1.63    1.63
  14  -7   9    1.48    1.10
  14   7  10   -0.08    1.66
  14  -7  10   -2.13    1.96
  14   7  10    0.59    2.27
  14  -7  10    2.82    2.61
  14   7  11   -0.15    2.46
  14  -7  11    5.77    2.45
  14   7  11   -0.97    1.82
  14  -7  11    0.79    1.47
  14   7  12    0.39    2.32
  14  -7  12    4.74    3.26
  14   7  12    3.62    1.36
  14  -7  12    4.10    2.01
  14   7  13    1.73    1.77
  14  -7  13    1.26    1.50
  14   7  13    2.79    2.14
  14  -7  13   -1.18    2.32
  14   8  -8    3.13    2.17
  14  -8  -8    0.92    1.37
  14  -8  -8    2.71    1.77
  14  -8  -7   -1.10    2.40
  14   8  -7    2.69    1.62
  14  -8  -7    3.25    3.13
  14  -8  -6    1.72    1.83
  14   8  -6    5.70    1.91
  14  -8  -6    7.15    2.78
  14  -8  -5    1.56    1.64
  14   8  -5   -1.79    1.84
  14  -8  -5    2.33    1.77
  14  -8  -4    7.76    3.04
  14   8  -4   11.89    3.23
  14  -8  -4   18.73    4.53
  14  -8  -3    4.14    2.54
  14   8  -3    5.17    3.12
  14  -8  -3    0.33    2.53
  14  -8  -2   -2.09    2.94
  14   8  -2    0.79    1.16
  14  -8  -2   -0.85    1.62
  14  -8  -1    3.99    2.83
  14   8  -1    5.12    2.55
  14  -8  -1    4.25    1.92
  14  -8   0    2.49    2.27
  14   8   0    1.57    1.24
  14  -8   0    5.32    2.88
  14  -8   1    2.34    0.98
  14   8   1    5.04    1.95
  14   8   1    6.09    2.77
  14  -8   1    1.84    2.56
  14   8   2    1.50    1.34
  14  -8   2    0.85    1.13
  14   8   2   -0.15    1.90
  14   8   3    4.64    1.88
  14  -8   3   -0.52    2.41
  14   8   3    4.53    3.15
  14  -8   3    2.15    2.57
  14   8   4    6.09    1.90
  14  -8   4    9.14    3.14
  14  -8   4    8.58    2.97
  14   8   4    9.96    3.32
  14   8   5   -2.47    2.81
  14  -8   5   -0.59    1.75
  14  -8   5    0.37    2.16
  14   8   5    0.03    1.62
  14   8   6    2.31    2.23
  14  -8   6    9.12    3.94
  14  -8   6    0.07    1.75
  14   8   6    8.65    2.36
  14   8   7    6.18    3.08
  14  -8   7    2.12    2.09
  14  -8   7    1.10    2.12
  14   8   7    1.41    1.24
  14   8   8    2.38    2.34
  14  -8   8    2.94    2.50
  14  -8   8    2.10    1.39
  14   8   8    2.04    0.94
  15   0 -20    0.85    1.17
  15   0 -19   -1.32    1.73
  15   0 -18    3.42    3.24
  15   0 -17    3.69    3.07
  15   0 -16    4.01    3.16
  15   0 -15    4.56    3.30
  15   0 -14    2.92    1.48
  15   0 -13    0.18    1.16
  15   0 -12   -1.31    1.67
  15   0 -11    2.52    2.49
  15   0 -10    1.81    2.45
  15   0 -10    0.03    1.40
  15   0  -9   -0.22    1.35
  15   0  -9   -1.68    1.53
  15   0  -8   -1.09    1.76
  15   0  -8   -0.12    1.17
  15   0  -7   -0.52    1.31
  15   0  -7    2.08    1.96
  15   0  -6   -0.32    0.72
  15   0  -6   -1.05    1.01
  15   0  -5   -0.44    1.02
  15   0  -5    0.24    1.31
  15   0  -4    0.48    1.70
  15   0  -4    1.74    1.15
  15   0  -3    0.27    0.74
  15   0  -3    0.88    2.00
  15   0  -2   -0.37    1.41
  15   0  -2    0.90    2.00
  15   0  -1   -0.90    1.64
  15   0  -1   -0.66    0.91
  15   0   0    0.96    1.98
  15   0   0   -0.79    2.20
  15   0   1    1.15    1.18
  15   0   1    1.05    0.99
  15   0   2    1.87    2.13
  15   0   2    0.03    1.07
  15   0   3   -0.04    0.87
  15   0   3    0.47    1.30
  15   0   4    0.54    1.53
  15   0   4   -0.52    1.54
  15   0   5    1.71    1.91
  15   0   5    0.26    0.89
  15   0   6   -0.91    1.10
  15   0   7   -0.42    1.28
  15   0   8    3.04    2.38
  15   0   9    0.26    1.42
  15   0  10   -1.49    1.27
  15   0  11    0.28    0.93
  15   0  12   -1.03    1.82
  15   0  13   -0.47    1.50
  15   0  14   -1.64    1.60
  15   0  15    2.94    2.25
  15   0  16    0.68    1.44
  15   0  17   -0.21    1.31
  15   0  18   -0.59    1.14
  15   0  19   -0.64    1.53
  15   0  20   -0.96    2.37
  15   0  21    1.05    1.31
  15  -1 -21    0.29    1.27
  15  -1 -20   -1.97    2.18
  15  -1 -19    3.96    2.05
  15  -1 -18    0.84    1.11
  15  -1 -17    9.72    3.17
  15  -1 -16    6.75    2.21
  15   1 -15    4.97    3.49
  15  -1 -15    4.41    3.33
  15   1 -14    1.78    1.05
  15  -1 -14    3.63    2.45
  15   1 -13   68.40    7.76
  15  -1 -13   63.09    7.71
  15   1 -12   10.27    3.31
  15  -1 -12   18.22    4.27
  15  -1 -11    1.79    2.31
  15  -1 -11    5.43    2.65
  15   1 -11    0.73    1.43
  15  -1 -10    4.06    1.99
  15  -1 -10    6.24    2.60
  15   1 -10    3.38    2.37
  15  -1  -9    1.23    1.20
  15   1  -9   -2.78    1.55
  15  -1  -9    1.71    2.55
  15   1  -9    3.42    2.02
  15  -1  -8   15.76    4.28
  15   1  -8   15.64    3.33
  15  -1  -8   14.56    3.42
  15   1  -8   12.80    3.66
  15   1  -8    9.68    2.81
  15  -1  -7   49.28    6.67
  15   1  -7   49.74    6.16
  15  -1  -7   64.53    7.66
  15   1  -7   49.66    6.71
  15   1  -7   61.74    6.87
  15  -1  -6    3.47    1.57
  15   1  -6    5.71    2.64
  15  -1  -6    2.38    2.34
  15   1  -6    6.56    2.14
  15   1  -6    2.57    1.41
  15  -1  -5   17.65    4.08
  15   1  -5   11.41    2.42
  15  -1  -5   21.91    4.59
  15   1  -5   11.31    3.42
  15   1  -5   11.34    3.06
  15  -1  -4   12.96    3.24
  15   1  -4   15.75    3.50
  15  -1  -4   17.73    4.27
  15   1  -4   20.80    4.06
  15   1  -4   17.98    3.71
  15  -1  -3   46.54    6.19
  15   1  -3   40.21    5.67
  15  -1  -3   48.55    6.51
  15   1  -3   39.66    5.70
  15   1  -3   42.84    5.86
  15  -1  -2    4.53    1.97
  15   1  -2    2.03    1.33
  15  -1  -2    3.38    1.39
  15   1  -2    1.56    1.42
  15   1  -2    1.70    0.93
  15  -1  -1    0.78    1.02
  15  -1  -1    1.90    1.44
  15   1  -1    0.55    2.23
  15   1  -1    1.25    1.46
  15   1  -1   -0.61    1.96
  15  -1   0    0.86    0.90
  15  -1   0    0.60    1.12
  15   1   0    0.44    1.48
  15   1   0    0.50    1.43
  15   1   0   -1.96    1.63
  15  -1   1    0.09    0.98
  15  -1   1    0.21    1.38
  15   1   1    1.97    2.13
  15   1   1    1.74    1.83
  15   1   1    0.43    0.88
  15  -1   2    2.88    1.49
  15  -1   2    2.14    1.30
  15   1   2    1.23    1.63
  15   1   2    1.91    2.03
  15   1   2    1.24    1.24
  15  -1   3   46.25    6.18
  15   1   3   41.89    5.99
  15  -1   3   42.36    6.08
  15   1   3   38.57    5.79
  15   1   3   39.88    5.50
  15  -1   4   14.30    3.43
  15  -1   4   16.71    4.02
  15   1   4   19.58    4.22
  15   1   4   15.37    3.69
  15   1   4   14.25    3.63
  15  -1   5   21.18    4.05
  15  -1   5   17.79    4.23
  15   1   5   19.89    3.82
  15   1   5   10.57    3.06
  15  -1   6    5.90    2.96
  15  -1   6    4.42    2.20
  15   1   6    3.56    2.09
  15   1   6    2.88    2.15
  15  -1   7   54.73    6.86
  15   1   7   56.31    6.70
  15   1   7   46.02    5.76
  15   1   8   13.28    3.42
  15  -1   8   14.03    3.53
  15   1   8   12.42    2.98
  15   1   9    3.16    1.82
  15  -1   9    2.66    1.67
  15   1   9    4.89    2.09
  15   1  10    2.31    1.88
  15  -1  10    3.05    2.17
  15   1  10    5.14    2.32
  15   1  11    0.28    1.66
  15  -1  11    2.59    2.10
  15   1  11    0.17    1.51
  15   1  12    9.64    3.21
  15  -1  12    6.62    2.26
  15  -1  13   70.96    8.00
  15   1  13   72.65    7.95
  15   1  14    3.36    2.24
  15  -1  14    4.66    2.84
  15   1  15   -1.05    1.80
  15  -1  15   -0.38    2.02
  15   1  16    5.38    2.63
  15  -1  16    9.68    3.28
  15   1  17   14.05    4.41
  15  -1  17   15.14    3.69
  15   1  18    2.29    2.26
  15  -1  18    3.00    1.91
  15   1  19    8.18    3.09
  15  -1  19    5.41    3.11
  15   1  20   -1.34    2.40
  15  -1  20   -0.65    2.81
  15   1  21    5.42    2.74
  15  -1  21   -3.43    3.24
  15  -2 -20   -1.03    0.99
  15  -2 -19    1.92    1.45
  15  -2 -18   -0.03    1.30
  15  -2 -17    0.16    1.79
  15  -2 -16    7.18    3.35
  15  -2 -15    2.67    1.43
  15  -2 -14    3.52    2.39
  15  -2 -13   11.61    2.85
  15   2 -13   18.97    4.11
  15  -2 -12    1.37    1.73
  15  -2 -12    0.17    2.22
  15   2 -12    4.12    2.07
  15  -2 -11    2.69    1.99
  15  -2 -11    0.43    1.07
  15   2 -11    3.95    2.38
  15  -2 -10    9.91    3.37
  15  -2 -10    2.76    2.29
  15   2 -10    2.13    1.42
  15   2 -10    6.36    2.55
  15  -2  -9    2.29    1.59
  15  -2  -9    2.94    1.84
  15   2  -9    5.81    2.20
  15   2  -9    1.62    1.15
  15  -2  -8    2.39    0.84
  15  -2  -8    0.82    2.03
  15   2  -8   -2.47    2.14
  15   2  -8    0.65    1.62
  15  -2  -7    7.42    2.53
  15   2  -7    6.38    1.91
  15  -2  -7    9.69    3.01
  15   2  -7    8.43    2.61
  15   2  -7    8.62    3.27
  15  -2  -6    0.70    1.96
  15   2  -6    0.54    1.15
  15  -2  -6    0.71    0.88
  15   2  -6    0.81    1.29
  15   2  -6   -0.36    1.63
  15  -2  -5    6.97    2.05
  15  -2  -5   10.39    3.22
  15   2  -5    9.50    3.00
  15   2  -5    6.18    2.51
  15   2  -5    2.42    2.20
  15  -2  -4    1.79    1.95
  15  -2  -4    0.20    0.83
  15   2  -4    2.50    0.79
  15   2  -4    1.07    2.02
  15   2  -4    0.38    2.23
  15  -2  -3    3.20    1.61
  15  -2  -3   -0.07    1.27
  15   2  -3    0.11    1.76
  15   2  -3   -0.55    1.21
  15   2  -3   -0.03    1.67
  15  -2  -2    0.57    2.16
  15  -2  -2    1.08    1.12
  15   2  -2   -0.31    1.22
  15   2  -2    0.97    1.40
  15   2  -2    0.47    0.74
  15  -2  -1    0.93    1.93
  15  -2  -1    2.60    2.50
  15   2  -1   -0.61    1.81
  15   2  -1    0.06    1.28
  15   2  -1    0.40    1.16
  15  -2   0   -0.39    0.87
  15  -2   0    0.38    1.28
  15   2   0    0.39    0.77
  15   2   0    0.43    2.06
  15   2   0    0.04    0.82
  15   2   1    1.73    1.69
  15  -2   1    3.50    1.71
  15  -2   1    2.80    1.57
  15   2   1    0.16    1.14
  15   2   1    1.16    1.15
  15   2   2    1.33    1.22
  15  -2   2    1.44    1.58
  15  -2   2    0.56    1.54
  15   2   2   -0.30    1.25
  15   2   2    2.82    1.93
  15   2   3    0.42    0.91
  15  -2   3   -0.47    1.17
  15  -2   3   -0.55    1.06
  15   2   3    1.21    1.41
  15   2   3   -0.02    0.86
  15   2   4    4.54    2.46
  15  -2   4    1.49    1.68
  15  -2   4    0.44    1.13
  15   2   4    1.04    0.93
  15   2   5   10.26    3.00
  15  -2   5    3.98    1.75
  15  -2   5    8.06    2.72
  15   2   5    5.90    1.98
  15   2   6    0.91    1.90
  15  -2   6    1.50    1.41
  15  -2   6    0.23    1.10
  15   2   6    0.94    0.82
  15   2   7    7.36    2.87
  15  -2   7    9.34    3.49
  15  -2   7    8.66    3.37
  15   2   7    4.48    1.56
  15   2   8    1.38    0.74
  15  -2   8    1.70    1.94
  15  -2   8    1.93    1.74
  15   2   8    5.67    1.82
  15   2   9    2.24    1.00
  15  -2   9    2.47    1.10
  15   2   9    5.55    2.47
  15   2  10    4.31    2.38
  15  -2  10    3.46    2.05
  15   2  10    6.64    2.12
  15   2  11    6.59    2.64
  15  -2  11    2.91    2.45
  15   2  11    3.57    2.31
  15   2  12   -0.11    1.21
  15  -2  12    1.10    1.11
  15   2  13   18.56    4.04
  15  -2  13   18.33    4.23
  15   2  14    5.78    2.46
  15  -2  14    4.49    2.21
  15   2  15    4.04    2.57
  15  -2  15    5.14    2.27
  15   2  16    5.96    2.82
  15  -2  16    6.69    3.17
  15   2  17   -0.93    1.79
  15  -2  17    0.71    1.36
  15   2  18    2.46    2.53
  15  -2  18    2.41    2.54
  15   2  19    4.35    1.93
  15  -2  19    1.88    1.38
  15   2  20    0.55    2.19
  15  -2  20   -1.42    1.24
  15  -3 -20    1.62    1.80
  15  -3 -19    2.23    2.24
  15  -3 -18   10.66    3.61
  15  -3 -17   19.69    4.35
  15  -3 -16    3.55    2.60
  15   3 -16    1.68    2.04
  15  -3 -15    0.58    1.71
  15   3 -15    3.04    1.55
  15  -3 -14   10.20    3.53
  15   3 -14    5.86    2.56
  15  -3 -13    4.07    2.55
  15  -3 -13    2.05    1.53
  15   3 -13    7.76    2.83
  15  -3 -12   29.41    5.31
  15   3 -12   26.52    5.06
  15  -3 -12   23.47    5.27
  15  -3 -11    3.91    2.64
  15  -3 -11    6.78    2.52
  15   3 -11    5.90    2.20
  15  -3 -10    2.08    0.87
  15  -3 -10    1.18    1.88
  15   3 -10   -0.60    1.95
  15  -3  -9    9.69    3.06
  15  -3  -9    7.91    2.54
  15   3  -9    5.64    2.49
  15  -3  -8   12.58    3.57
  15  -3  -8   10.33    3.41
  15   3  -8   16.00    4.00
  15  -3  -7   11.21    3.36
  15  -3  -7    9.15    2.90
  15   3  -7   10.69    2.66
  15  -3  -6   22.37    4.03
  15  -3  -6   11.18    3.22
  15   3  -6   16.39    4.05
  15   3  -6   14.58    3.56
  15  -3  -5   16.35    4.20
  15  -3  -5   14.94    3.61
  15   3  -5    9.18    3.04
  15   3  -5   11.56    3.23
  15  -3  -4    8.88    2.45
  15  -3  -4   10.80    3.69
  15   3  -4   16.00    3.33
  15   3  -4   10.33    2.35
  15  -3  -3   41.25    6.15
  15   3  -3   32.50    5.26
  15  -3  -3   31.51    5.61
  15   3  -3   39.08    5.70
  15   3  -3   45.43    6.10
  15   3  -2   10.01    3.25
  15  -3  -2   15.06    3.77
  15  -3  -2   19.53    3.97
  15   3  -2   11.80    3.04
  15   3  -2   12.88    3.48
  15   3  -1   13.96    3.26
  15  -3  -1   15.32    3.61
  15  -3  -1    9.95    3.04
  15   3  -1   13.73    3.23
  15   3  -1    9.91    2.71
  15   3   0   18.90    4.25
  15  -3   0   12.52    3.03
  15  -3   0   22.42    4.57
  15   3   0   14.35    3.80
  15   3   0   16.04    3.87
  15   3   1   16.61    3.62
  15  -3   1   13.16    3.15
  15  -3   1   10.26    3.18
  15   3   1   20.14    4.26
  15   3   1   10.40    3.43
  15   3   2   17.92    3.94
  15  -3   2   17.91    3.94
  15  -3   2   18.72    4.76
  15   3   2   19.38    4.16
  15   3   2   15.37    3.95
  15  -3   3   41.34    6.20
  15   3   3   55.27    6.64
  15  -3   3   49.60    6.46
  15   3   3   47.09    6.03
  15   3   4   13.21    3.18
  15  -3   4    7.20    2.66
  15  -3   4    7.06    2.79
  15   3   4    9.85    2.37
  15   3   5   10.00    2.84
  15   3   5    8.61    3.17
  15  -3   5    9.65    3.13
  15  -3   5   10.67    3.56
  15   3   6   15.08    4.06
  15   3   6   16.46    3.65
  15  -3   6   13.98    3.60
  15  -3   6   18.27    4.08
  15   3   7    8.19    2.11
  15   3   7   12.25    3.45
  15  -3   7   10.37    2.95
  15  -3   7    9.00    2.65
  15  -3   8   13.17    3.77
  15   3   8   23.19    4.90
  15  -3   8   15.20    4.27
  15   3   8   15.57    4.02
  15   3   9    7.01    2.12
  15  -3   9    3.63    1.74
  15  -3   9    4.80    2.10
  15   3   9    8.17    2.99
  15   3  10    3.15    2.57
  15  -3  10    3.11    2.17
  15  -3  10    3.14    2.41
  15   3  10    3.67    1.63
  15   3  11    6.60    2.35
  15  -3  11    9.24    2.99
  15  -3  11   13.71    3.82
  15   3  11    8.10    2.84
  15  -3  12   21.80    4.77
  15   3  12   27.21    5.12
  15   3  12   28.19    5.59
  15   3  13    3.63    1.89
  15  -3  13    2.34    2.24
  15   3  14   11.65    3.78
  15  -3  14   12.89    4.11
  15   3  15    0.31    1.07
  15  -3  15    4.23    3.15
  15   3  16    1.35    1.77
  15  -3  16    4.06    2.47
  15   3  17   22.55    5.03
  15  -3  17   27.29    5.90
  15   3  18   12.82    4.23
  15  -3  18    8.43    2.71
  15   3  19    1.19    1.54
  15  -3  19    1.62    1.92
  15   3  20    0.15    2.60
  15  -3  20   -1.81    1.30
  15  -4 -18   -0.20    1.34
  15   4 -18    1.39    1.87
  15  -4 -17    3.01    1.92
  15   4 -17    2.36    1.67
  15  -4 -16    3.32    2.13
  15   4 -16    2.84    1.99
  15  -4 -15    1.41    1.25
  15   4 -15    9.36    3.10
  15  -4 -14    7.70    3.40
  15  -4 -14   12.46    4.20
  15   4 -14    7.62    2.73
  15  -4 -13    8.31    3.50
  15  -4 -13    8.40    2.62
  15   4 -13    3.51    1.96
  15  -4 -12    2.15    1.00
  15  -4 -12   -0.50    1.44
  15  -4 -11   13.67    3.76
  15  -4 -11   12.65    4.13
  15   4 -11   17.80    4.16
  15  -4 -10   -0.32    1.72
  15  -4 -10    1.79    1.08
  15   4 -10    0.58    0.92
  15  -4  -9    8.62    3.04
  15  -4  -9    6.16    2.26
  15   4  -9    3.62    2.06
  15  -4  -8   12.00    3.29
  15  -4  -8   13.04    3.46
  15   4  -8   18.73    4.15
  15  -4  -7   13.45    3.52
  15  -4  -7   12.53    3.63
  15  -4  -6    5.03    2.30
  15   4  -6    3.91    0.92
  15  -4  -5    7.53    3.25
  15  -4  -5   11.65    3.77
  15   4  -5    5.79    1.96
  15   4  -4    2.31    1.37
  15   4  -4    2.63    1.25
  15  -4  -4    6.16    2.30
  15  -4  -4    3.91    1.88
  15   4  -3    2.10    1.84
  15   4  -3    2.69    1.89
  15  -4  -3    2.44    1.65
  15  -4  -3    3.23    1.16
  15   4  -2   -1.02    1.66
  15   4  -2    1.22    1.11
  15  -4  -2    1.11    0.73
  15  -4  -2    1.06    1.97
  15   4  -1    4.78    2.30
  15   4  -1    3.99    2.31
  15  -4  -1    4.55    1.92
  15  -4  -1    6.30    3.06
  15   4   0    7.18    2.04
  15   4   0    7.49    2.97
  15  -4   0    4.67    2.44
  15  -4   0    5.07    1.52
  15   4   1    5.42    2.48
  15   4   1    5.64    2.13
  15  -4   1    2.18    2.25
  15  -4   1    5.34    2.88
  15   4   2   -0.08    0.99
  15   4   2    0.30    1.81
  15  -4   2    2.67    2.81
  15  -4   2   -0.17    1.49
  15   4   3   -1.02    1.42
  15   4   3    2.67    2.18
  15  -4   3   -0.70    1.09
  15  -4   3    3.01    1.97
  15   4   4    5.69    2.25
  15   4   4    3.56    2.13
  15  -4   4    3.42    1.00
  15  -4   4    0.82    1.16
  15   4   5    9.26    3.13
  15   4   5    6.42    2.35
  15  -4   5   14.09    3.79
  15  -4   5    5.67    1.46
  15   4   6    6.26    2.74
  15   4   6   10.30    3.17
  15  -4   6    8.27    3.15
  15  -4   6    9.71    3.04
  15   4   7   16.83    3.61
  15   4   7   12.27    3.22
  15  -4   7   17.50    4.01
  15  -4   7   15.28    3.74
  15   4   8   17.30    4.42
  15   4   8    8.61    3.29
  15  -4   8   10.29    3.38
  15  -4   8   20.29    4.37
  15   4   9    6.21    2.70
  15   4   9    4.07    2.29
  15  -4   9   10.13    3.47
  15  -4   9    6.27    2.97
  15   4  10    1.38    1.44
  15   4  10    0.04    0.99
  15  -4  10    2.96    2.26
  15  -4  10    1.25    1.29
  15   4  11   12.08    3.29
  15   4  11   13.29    3.13
  15  -4  11   10.44    3.39
  15  -4  11   17.14    5.21
  15   4  12    1.19    1.91
  15   4  12    0.36    0.83
  15  -4  12    5.17    3.10
  15  -4  12   -0.81    2.35
  15   4  13    9.13    3.40
  15  -4  13    6.09    2.60
  15  -4  13   11.25    3.75
  15   4  14   12.03    3.19
  15  -4  14    5.74    2.78
  15  -4  14   11.04    3.67
  15   4  15    5.53    1.71
  15  -4  15    8.03    2.22
  15   4  16    9.89    3.36
  15  -4  16    5.70    2.61
  15   4  17    6.25    2.83
  15  -4  17    3.04    2.37
  15   4  18    3.27    2.31
  15  -4  18    1.73    1.20
  15  -5 -17   10.64    3.93
  15   5 -17    5.47    2.36
  15  -5 -16    1.77    1.65
  15   5 -16    1.36    1.17
  15  -5 -15    2.92    2.61
  15   5 -15    3.66    2.25
  15  -5 -15    3.90    2.38
  15  -5 -14    7.50    3.19
  15   5 -14    2.99    2.04
  15  -5 -13   23.14    4.75
  15  -5 -13   20.43    4.29
  15   5 -13   18.30    4.41
  15  -5 -12    2.93    1.91
  15  -5 -12    5.98    3.39
  15   5 -12    3.56    2.76
  15  -5 -11    5.68    2.68
  15  -5 -11    2.11    2.18
  15   5 -11    4.09    2.68
  15  -5 -10    6.05    1.64
  15  -5 -10   15.60    4.32
  15   5 -10   13.46    3.14
  15  -5  -9   35.21    5.57
  15  -5  -9   28.04    5.83
  15   5  -9   40.39    6.11
  15   5  -8    3.09    2.09
  15  -5  -8    2.14    2.13
  15  -5  -8   -0.50    1.12
  15   5  -7    8.22    3.40
  15  -5  -7    7.78    2.74
  15  -5  -7    4.89    2.40
  15   5  -6   14.72    3.87
  15  -5  -6   14.41    4.03
  15  -5  -6   10.77    3.69
  15   5  -5    0.22    2.03
  15  -5  -5    0.52    1.57
  15  -5  -5    1.53    1.72
  15   5  -4    7.09    3.19
  15  -5  -4    7.72    2.26
  15  -5  -4   13.12    3.51
  15   5  -3   27.80    4.72
  15  -5  -3   36.03    5.78
  15   5  -3   27.58    5.40
  15  -5  -3   30.96    5.54
  15   5  -2    0.39    1.90
  15   5  -2    3.09    2.14
  15  -5  -2    0.21    0.77
  15  -5  -2    0.73    1.45
  15  -5  -1   39.14    6.09
  15  -5  -1   32.83    5.38
  15   5  -1   30.02    5.35
  15   5  -1   30.57    5.36
  15   5   0   20.20    4.48
  15  -5   0   17.41    3.82
  15   5   0   21.38    4.49
  15  -5   0   20.20    4.76
  15  -5   1   25.45    5.40
  15   5   1   20.80    4.36
  15  -5   1   29.11    5.18
  15   5   1   32.62    5.27
  15   5   2    1.75    1.59
  15  -5   2    1.32    2.59
  15   5   2    1.36    1.27
  15  -5   2    2.26    2.35
  15  -5   3   22.93    4.72
  15  -5   3   32.43    5.58
  15   5   3   28.92    4.90
  15   5   3   31.25    5.53
  15   5   4    3.90    1.69
  15  -5   4    5.02    1.26
  15   5   4    3.60    1.93
  15  -5   4    1.55    1.55
  15   5   5   -0.73    1.40
  15  -5   5   -2.02    1.61
  15   5   5    0.45    1.06
  15  -5   5    1.19    2.28
  15   5   6    5.37    2.45
  15  -5   6   14.40    3.55
  15   5   6    8.21    2.52
  15  -5   6    8.30    3.19
  15   5   7   11.45    3.51
  15  -5   7   12.10    3.26
  15   5   7   11.45    3.75
  15  -5   7    6.03    2.60
  15   5   8   -1.41    2.38
  15  -5   8   -0.26    0.91
  15   5   8    3.44    2.24
  15  -5   8    1.95    1.30
  15   5   9   27.05    4.76
  15  -5   9   35.35    6.10
  15   5   9   28.15    4.84
  15  -5   9   30.83    5.31
  15   5  10   10.22    3.39
  15  -5  10    8.65    3.36
  15   5  10   12.21    3.30
  15  -5  10    9.99    4.00
  15   5  11    6.81    3.07
  15  -5  11    6.38    2.80
  15   5  11    3.01    1.97
  15  -5  11   -0.85    2.26
  15   5  12    4.10    2.28
  15  -5  12    5.47    2.44
  15   5  12    3.93    2.43
  15  -5  12    1.25    1.58
  15   5  13   15.87    3.96
  15  -5  13   20.12    4.32
  15   5  13   15.50    3.99
  15  -5  13   21.76    4.56
  15  -5  14    7.41    2.79
  15   5  14    5.84    2.42
  15  -5  14    9.08    2.99
  15  -5  15    3.14    2.24
  15   5  15    7.35    3.10
  15  -5  15    5.35    2.75
  15  -5  16   10.74    4.23
  15   5  16    4.55    2.94
  15  -5  16    3.29    1.88
  15   5  17    7.46    3.19
  15  -5  17    5.10    3.13
  15  -6 -14    1.55    2.12
  15  -6 -14   -1.99    1.59
  15   6 -14    0.15    2.31
  15  -6 -13   -1.67    1.55
  15   6 -13   -0.94    1.92
  15  -6 -13   -0.55    1.98
  15  -6 -12   -0.32    1.45
  15  -6 -12    0.72    1.55
  15   6 -12   -0.77    2.10
  15   6 -11    1.15    1.51
  15  -6 -11   -1.20    1.32
  15  -6 -11    3.20    2.05
  15   6 -10    4.90    2.78
  15  -6 -10    3.57    2.65
  15  -6 -10    5.70    2.50
  15   6  -9    3.64    2.42
  15  -6  -9    2.26    1.10
  15  -6  -9   -1.77    3.03
  15   6  -8    1.44    2.16
  15  -6  -8    1.38    2.22
  15  -6  -8    0.11    1.62
  15   6  -7    0.43    1.84
  15  -6  -7    2.35    2.53
  15  -6  -7   -0.53    1.46
  15   6  -6    6.67    2.58
  15  -6  -6   -0.28    1.79
  15  -6  -6    4.00    1.43
  15   6  -5    0.28    1.36
  15  -6  -5   -0.97    1.80
  15  -6  -5    0.49    1.35
  15   6  -4   11.27    3.66
  15  -6  -4   14.09    3.24
  15  -6  -4   12.09    3.41
  15   6  -3    0.73    1.41
  15  -6  -3   -2.17    1.66
  15  -6  -3    0.21    2.18
  15   6  -2    5.48    2.21
  15  -6  -2    3.12    1.40
  15   6  -2    2.16    2.58
  15  -6  -2    6.40    1.85
  15   6  -1    9.92    3.06
  15  -6  -1    5.13    2.12
  15   6  -1    8.03    3.27
  15   6   0   14.61    3.52
  15  -6   0   16.60    4.24
  15   6   0    6.84    3.06
  15  -6   0    9.03    3.62
  15   6   1   11.64    3.82
  15  -6   1    9.20    3.13
  15   6   1   11.03    2.79
  15  -6   1    8.47    3.14
  15   6   2    2.70    2.07
  15  -6   2    2.54    1.73
  15   6   2    4.41    2.48
  15  -6   2    5.13    2.35
  15   6   3    1.39    1.01
  15  -6   3   -1.66    1.37
  15   6   3    0.46    1.64
  15  -6   3   -0.10    2.05
  15   6   4    4.28    1.94
  15  -6   4   11.26    3.99
  15   6   4   10.78    3.20
  15  -6   4    9.67    3.54
  15   6   5    1.32    1.98
  15  -6   5    3.27    2.38
  15   6   5    1.44    2.33
  15  -6   5    1.51    1.92
  15   6   6    2.42    1.51
  15  -6   6    5.51    2.70
  15   6   6    4.09    2.24
  15  -6   6    3.34    2.77
  15   6   7   -0.70    1.69
  15  -6   7    1.63    1.73
  15   6   7    1.64    1.40
  15  -6   7    1.93    1.88
  15   6   8    1.07    1.42
  15  -6   8    0.10    0.95
  15   6   8   -0.22    0.87
  15   6   9    2.63    1.97
  15  -6   9    1.67    1.54
  15   6   9    2.19    1.89
  15  -6   9    3.15    1.70
  15   6  10    6.82    2.69
  15  -6  10    3.90    2.00
  15   6  10    2.29    0.87
  15  -6  10    2.20    1.85
  15   6  11   -1.13    2.02
  15  -6  11    0.79    1.82
  15   6  11    1.16    1.53
  15  -6  11    2.64    1.93
  15   6  12    3.77    1.83
  15  -6  12   -0.52    1.49
  15   6  12   -0.33    1.38
  15  -6  12    0.61    2.44
  15   6  13    2.02    2.06
  15  -6  13    1.00    1.37
  15   6  13    1.23    2.03
  15  -6  13    3.00    2.72
  15  -6  14   -1.21    2.53
  15   6  14    0.87    1.94
  15  -6  14   -0.79    2.47
  15  -7 -10    6.35    2.65
  15   7 -10    0.17    0.99
  15  -7 -10    2.73    2.69
  15  -7  -9    9.79    3.00
  15   7  -9    7.39    2.72
  15  -7  -9   12.76    4.17
  15   7  -8    0.17    0.86
  15  -7  -8    1.56    2.00
  15  -7  -8    1.68    1.13
  15   7  -7    7.16    1.86
  15  -7  -7    2.77    2.36
  15  -7  -7    7.42    2.45
  15   7  -6   -0.07    1.39
  15  -7  -6   -0.78    1.52
  15  -7  -6    1.91    1.77
  15   7  -5    2.09    1.89
  15  -7  -5    1.35    2.06
  15  -7  -5    2.42    1.91
  15   7  -4    1.27    1.99
  15  -7  -4    2.70    2.49
  15  -7  -4    0.20    2.06
  15   7  -3   10.77    3.61
  15  -7  -3   11.65    3.85
  15  -7  -3    9.18    3.80
  15   7  -2    2.52    1.96
  15  -7  -2    1.24    1.06
  15  -7  -2    1.71    1.48
  15   7  -1    4.76    2.95
  15  -7  -1    7.57    2.87
  15  -7  -1    9.75    3.31
  15   7   0    7.10    3.33
  15  -7   0    3.67    2.91
  15   7   0    4.95    1.95
  15  -7   0    5.30    2.67
  15   7   1    6.45    2.53
  15  -7   1   12.21    3.59
  15   7   1   13.81    3.83
  15  -7   1    8.07    3.21
  15   7   2    1.27    2.10
  15  -7   2    1.19    1.29
  15   7   2   -0.03    1.33
  15  -7   2   -0.70    2.25
  15   7   3    6.80    3.23
  15  -7   3   14.10    3.79
  15   7   3    8.13    3.45
  15  -7   3   10.64    3.20
  15   7   4    2.95    2.83
  15  -7   4    1.70    2.62
  15   7   4    4.95    2.18
  15  -7   4    1.29    1.07
  15   7   5    1.13    2.07
  15  -7   5    3.00    1.57
  15   7   5    2.67    1.57
  15  -7   5    4.69    1.84
  15   7   6    1.26    2.00
  15  -7   6    0.11    1.21
  15   7   6    1.14    1.58
  15  -7   6   -0.31    1.19
  15   7   7    8.11    3.87
  15  -7   7    7.14    3.71
  15   7   7    3.96    2.44
  15  -7   7   15.95    5.18
  15   7   8    0.45    2.66
  15  -7   8    1.50    1.72
  15   7   8    0.55    2.32
  15  -7   8    0.16    1.41
  15   7   9   11.57    3.76
  15  -7   9    7.59    2.80
  15   7   9   10.26    3.51
  15  -7   9    8.39    2.95
  15   7  10    6.63    3.56
  15  -7  10    9.93    3.97
  15   7  10    6.05    1.97
  15  -7  10    6.41    3.36
  15  -8  -3    3.22    0.92
  15   8  -3    1.85    1.07
  15  -8  -3    4.48    2.54
  15   8  -2    6.46    2.33
  15  -8  -2    4.01    2.84
  15  -8  -2    8.37    2.62
  15   8  -1    2.48    0.98
  15  -8  -1    0.64    1.65
  15  -8  -1    3.05    2.50
  15   8   0    1.52    1.64
  15  -8   0    4.18    2.64
  15  -8   0    7.65    3.33
  15   8   1    2.35    1.85
  15  -8   1    2.56    2.14
  15  -8   1   -1.20    2.55
  15   8   2    5.40    2.02
  15  -8   2    6.57    3.16
  15   8   2    3.71    2.53
  15  -8   2    3.91    2.43
  15   8   3    1.54    1.75
  15  -8   3    3.09    2.42
  15   8   3   -0.06    1.50
  15  -8   3    4.90    4.20
  16   0 -18   15.76    4.32
  16   0 -17   20.69    4.59
  16   0 -16    9.39    3.06
  16   0 -15    0.44    1.84
  16   0 -14    2.28    2.24
  16   0 -13   72.74    8.72
  16   0 -12    3.71    2.08
  16   0 -11   10.59    3.48
  16   0 -10   12.03    3.97
  16   0  -9    3.05    2.24
  16   0  -9   10.58    2.97
  16   0  -8   14.25    3.60
  16   0  -8    6.64    2.56
  16   0  -7   58.95    7.41
  16   0  -7   53.67    7.09
  16   0  -6    5.71    2.18
  16   0  -6    8.81    2.87
  16   0  -5    3.92    1.98
  16   0  -5    3.21    2.26
  16   0  -4   17.29    3.66
  16   0  -4   22.67    4.78
  16   0  -3   36.15    5.66
  16   0  -3   51.94    6.94
  16   0  -2   73.78    7.72
  16   0  -2   62.71    7.59
  16   0  -1   13.99    3.71
  16   0  -1    9.66    3.23
  16   0   0    5.75    2.85
  16   0   0    4.01    2.38
  16   0   1    6.99    2.23
  16   0   1    6.62    2.55
  16   0   2   67.13    7.54
  16   0   2   65.55    7.80
  16   0   3   51.11    6.51
  16   0   3   43.26    6.00
  16   0   4   23.32    4.51
  16   0   4   21.39    4.64
  16   0   5    0.43    1.11
  16   0   5    1.62    2.46
  16   0   6    6.43    3.10
  16   0   6    2.37    1.39
  16   0   7   59.70    7.52
  16   0   8    9.06    3.16
  16   0   9    6.38    2.69
  16   0  10    3.73    2.14
  16   0  11   11.25    3.73
  16   0  12    7.27    2.35
  16   0  13   72.63    8.51
  16   0  14    4.38    2.94
  16   0  15    3.32    1.72
  16   0  16    6.31    3.19
  16   0  17   16.44    3.78
  16   0  18   11.93    3.75
  16   0  19   31.57    6.08
  16  -1 -19   -2.00    2.44
  16  -1 -18   -1.00    1.92
  16  -1 -17    1.81    1.18
  16  -1 -16    0.61    2.11
  16  -1 -15    1.72    1.07
  16   1 -14   -4.08    1.95
  16  -1 -14    4.37    2.47
  16   1 -13    2.78    1.82
  16  -1 -13    2.55    1.62
  16   1 -12   -1.25    1.50
  16  -1 -12    0.69    1.78
  16  -1 -11    1.84    1.44
  16   1 -11   -1.15    1.89
  16  -1 -10   -1.04    1.12
  16  -1 -10    2.85    2.23
  16   1 -10    2.90    1.68
  16  -1  -9    0.36    1.59
  16  -1  -9    1.73    2.42
  16   1  -9    4.21    2.97
  16  -1  -8    0.48    1.61
  16   1  -8   -0.20    1.37
  16  -1  -8    0.11    1.51
  16   1  -8    1.87    1.85
  16  -1  -7   -0.94    1.21
  16   1  -7    0.89    1.09
  16  -1  -7    0.63    1.95
  16   1  -7    0.47    1.42
  16  -1  -6    2.30    1.45
  16   1  -6    0.82    0.83
  16  -1  -6    5.43    2.42
  16   1  -6    2.49    2.21
  16   1  -6    4.39    1.74
  16  -1  -5    4.51    2.16
  16   1  -5   10.96    3.19
  16  -1  -5   10.66    3.23
  16   1  -5   10.94    3.72
  16   1  -5    8.06    2.67
  16  -1  -4   -0.06    1.57
  16   1  -4   -0.11    1.08
  16  -1  -4    0.16    1.13
  16   1  -4   -0.47    1.90
  16   1  -4   -1.17    1.94
  16  -1  -3   12.50    3.60
  16   1  -3   16.31    4.00
  16  -1  -3   10.24    2.93
  16   1  -3   11.68    3.27
  16   1  -3   10.03    3.40
  16  -1  -2    0.51    1.88
  16   1  -2    0.11    0.90
  16  -1  -2    0.23    1.17
  16   1  -2   -0.19    0.79
  16   1  -2    3.64    2.26
  16  -1  -1    6.50    1.99
  16   1  -1    1.47    1.96
  16  -1  -1    3.45    1.73
  16   1  -1    5.63    2.88
  16   1  -1    4.98    2.40
  16  -1   0    0.96    0.66
  16  -1   0    2.53    2.05
  16   1   0    3.54    1.90
  16   1   0    0.85    2.50
  16   1   0    0.98    2.22
  16  -1   1    0.17    1.25
  16  -1   1    2.98    1.81
  16   1   1   -0.25    0.87
  16   1   1    3.92    2.30
  16   1   1    5.56    2.22
  16  -1   2    2.56    1.98
  16  -1   2    2.23    1.45
  16   1   2   -0.25    1.47
  16   1   2    2.20    0.84
  16   1   2   -1.03    1.10
  16  -1   3   14.13    3.79
  16  -1   3   14.29    4.08
  16   1   3    4.83    1.87
  16   1   3   13.99    3.82
  16   1   3    9.03    2.69
  16  -1   4   -0.59    0.90
  16  -1   4   -1.06    0.86
  16   1   4    1.54    2.07
  16   1   4    2.13    2.05
  16   1   4    0.97    2.08
  16  -1   5    8.81    3.18
  16  -1   5    8.59    3.35
  16   1   5    9.45    3.37
  16   1   5   10.12    3.06
  16   1   5    8.34    2.57
  16  -1   6    1.92    0.96
  16  -1   6    3.06    2.02
  16   1   6    2.22    1.83
  16   1   6    1.30    1.34
  16  -1   7    1.15    1.54
  16  -1   7   -0.73    1.35
  16   1   7    0.38    1.87
  16   1   7    1.53    1.24
  16  -1   8   -0.80    1.28
  16  -1   8    1.30    1.41
  16   1   8   -0.31    1.13
  16   1   8    0.24    1.63
  16  -1   9    9.08    3.34
  16   1   9    2.92    1.92
  16   1   9    2.05    2.26
  16  -1  10    0.57    1.38
  16   1  10    0.64    1.10
  16   1  10    0.90    1.22
  16   1  11   -0.51    0.99
  16  -1  11   -1.63    1.35
  16   1  12   -0.14    1.29
  16  -1  12   -1.36    1.18
  16   1  13    2.13    1.70
  16  -1  13    2.07    2.27
  16   1  14    6.55    2.97
  16  -1  14    8.61    2.98
  16   1  15    0.41    1.00
  16  -1  15    4.68    2.41
  16   1  16   -1.05    1.42
  16  -1  16    0.19    1.66
  16   1  17    2.08    1.84
  16  -1  17    6.49    2.60
  16   1  18    1.59    3.00
  16  -1  18    0.65    2.10
  16   1  19   -0.51    1.24
  16  -1  19    0.63    1.64
  16  -2 -19   -2.51    1.65
  16  -2 -18    5.82    2.34
  16  -2 -17   23.21    4.77
  16  -2 -16    1.63    1.29
  16  -2 -15    1.65    1.26
  16  -2 -14    1.08    0.99
  16  -2 -13   33.72    5.78
  16  -2 -12    1.10    2.50
  16  -2 -12   12.41    3.64
  16   2 -12    9.82    3.06
  16  -2 -11   11.05    3.52
  16  -2 -11    3.43    2.23
  16   2 -11    8.46    3.16
  16  -2 -10    3.19    1.36
  16  -2 -10    2.50    2.36
  16   2 -10    4.12    2.03
  16  -2  -9    4.24    2.01
  16  -2  -9    6.34    2.62
  16   2  -9    6.26    2.53
  16  -2  -8    1.44    1.20
  16  -2  -8    3.46    1.98
  16   2  -8    8.23    3.43
  16   2  -8    6.28    2.65
  16  -2  -7   22.66    4.38
  16   2  -7   27.97    5.29
  16  -2  -7   17.26    4.36
  16   2  -7   24.54    4.51
  16  -2  -6    3.33    2.36
  16   2  -6    2.15    1.88
  16  -2  -6    4.95    2.23
  16   2  -6    1.01    1.21
  16   2  -6    7.12    2.78
  16  -2  -5    4.44    2.14
  16   2  -5    1.61    0.78
  16  -2  -5    6.51    2.58
  16   2  -5    7.51    2.84
  16   2  -5    4.43    2.49
  16  -2  -4    6.40    2.02
  16  -2  -4    2.15    2.11
  16   2  -4    3.32    1.17
  16   2  -4    1.78    2.00
  16   2  -4    2.80    1.82
  16  -2  -3   43.40    6.44
  16   2  -3   37.93    5.63
  16  -2  -3   38.12    6.09
  16   2  -3   34.18    5.66
  16   2  -3   40.15    5.84
  16  -2  -2    3.73    1.82
  16  -2  -2    2.08    1.11
  16   2  -2    7.52    2.44
  16   2  -2    7.72    3.01
  16   2  -2    4.46    1.68
  16  -2  -1    4.37    2.23
  16  -2  -1    2.70    1.27
  16   2  -1    4.58    2.28
  16   2  -1    1.88    1.54
  16   2  -1    1.48    1.62
  16  -2   0   -0.95    0.84
  16  -2   0    4.25    2.03
  16   2   0   -1.06    1.29
  16   2   0    1.88    1.64
  16   2   0    2.27    1.41
  16  -2   1    3.31    2.52
  16  -2   1    3.18    2.50
  16   2   1    4.87    2.38
  16   2   1    1.30    1.59
  16   2   1    1.91    1.55
  16  -2   2    4.05    2.08
  16  -2   2    6.80    2.90
  16   2   2    4.64    2.49
  16   2   2    1.47    1.77
  16   2   2    6.09    2.56
  16  -2   3   39.96    6.00
  16   2   3   41.36    5.94
  16  -2   3   33.54    5.43
  16   2   3   32.49    5.25
  16   2   3   34.86    5.21
  16   2   4    6.49    2.81
  16  -2   4    6.06    2.58
  16  -2   4    3.99    2.29
  16   2   4    2.48    2.00
  16   2   4    5.60    2.60
  16   2   5    5.97    2.18
  16  -2   5    3.47    1.82
  16  -2   5    3.42    2.17
  16   2   5    4.68    2.91
  16   2   6    4.56    2.04
  16  -2   6    3.35    1.56
  16  -2   6    6.52    3.06
  16   2   6    5.15    2.99
  16  -2   7   27.86    5.20
  16   2   7   28.50    5.03
  16  -2   7   32.45    5.46
  16   2   7   22.73    4.60
  16   2   8    1.15    1.28
  16  -2   8    2.61    1.50
  16  -2   8    0.74    1.14
  16   2   8    0.45    0.85
  16   2   9    5.12    2.86
  16  -2   9    5.66    2.35
  16  -2   9    5.53    2.46
  16   2   9    6.26    2.84
  16   2  10    3.30    2.41
  16  -2  10    4.26    2.93
  16  -2  10    2.45    1.66
  16   2  10    1.42    1.84
  16   2  11    5.98    2.55
  16  -2  11    9.52    3.58
  16   2  11    6.29    1.98
  16   2  12    5.36    2.53
  16  -2  12    5.75    2.45
  16   2  13   22.74    4.92
  16  -2  13   30.79    5.53
  16   2  14    5.59    1.87
  16  -2  14    4.33    2.32
  16   2  15   -0.35    1.88
  16  -2  15   -0.49    1.42
  16   2  16   -0.12    1.98
  16  -2  16    3.57    1.52
  16   2  17   23.21    4.90
  16  -2  17   23.52    4.77
  16   2  18    2.64    2.23
  16  -2  18    7.52    3.38
  16   2  19    7.02    3.14
  16  -2  19    2.63    2.12
  16  -3 -18    3.79    3.70
  16  -3 -17   -0.58    1.93
  16  -3 -16    1.50    2.04
  16  -3 -15    1.15    1.14
  16   3 -15   -0.46    1.29
  16  -3 -14    0.78    0.85
  16   3 -14    0.95    1.33
  16  -3 -13    0.34    0.87
  16   3 -13    0.37    1.25
  16  -3 -12    0.50    1.16
  16  -3 -12   -0.02    2.28
  16   3 -12   -0.81    0.76
  16  -3 -11    6.61    2.91
  16  -3 -11    4.64    1.96
  16   3 -11    7.26    3.01
  16  -3 -10    0.49    1.16
  16  -3 -10    0.30    1.70
  16   3 -10    1.51    2.05
  16  -3  -9    0.64    1.14
  16  -3  -9    2.73    1.83
  16   3  -9    0.70    0.80
  16  -3  -8    3.64    2.70
  16  -3  -8    2.89    1.24
  16   3  -8    1.94    2.15
  16  -3  -7    2.45    1.83
  16  -3  -7    4.00    2.47
  16   3  -7    1.66    1.42
  16  -3  -6    1.31    1.95
  16  -3  -6   -1.06    0.82
  16   3  -6   -0.01    1.12
  16  -3  -5   -1.53    2.23
  16  -3  -5    4.16    1.49
  16   3  -5    0.15    0.95
  16   3  -5   -1.00    1.32
  16  -3  -4    0.80    1.38
  16  -3  -4    0.64    1.32
  16   3  -4    1.09    1.25
  16   3  -4   -0.78    1.61
  16  -3  -3   -0.82    1.42
  16  -3  -3    0.97    1.77
  16   3  -3   -3.86    1.85
  16   3  -3   -0.29    1.24
  16   3  -3    3.13    2.33
  16  -3  -2    1.02    1.17
  16  -3  -2    1.47    1.80
  16   3  -2    0.72    1.67
  16   3  -2    4.40    2.50
  16   3  -2   -0.24    1.32
  16  -3  -1   -0.56    1.43
  16  -3  -1    0.69    1.39
  16   3  -1   -0.56    1.94
  16   3  -1    2.01    2.46
  16   3  -1    0.43    1.23
  16   3   0   -1.21    1.64
  16  -3   0    0.80    1.19
  16  -3   0    2.29    2.02
  16   3   0   -0.47    1.25
  16   3   0    0.48    1.98
  16   3   1    2.24    1.75
  16  -3   1   -0.42    1.12
  16  -3   1    5.64    3.07
  16   3   1    0.51    1.46
  16   3   1    0.37    2.03
  16   3   2    1.00    1.51
  16  -3   2    0.42    1.73
  16  -3   2    1.07    2.55
  16   3   2    0.11    1.87
  16   3   2   -1.03    1.85
  16   3   3    0.52    1.62
  16  -3   3   -1.24    1.78
  16  -3   3   -1.42    2.14
  16   3   3   -1.21    1.11
  16   3   3    1.71    1.87
  16   3   4    0.80    0.87
  16  -3   4   -0.86    1.47
  16   3   4    0.24    1.14
  16   3   4   -1.97    1.58
  16   3   5    2.90    2.25
  16  -3   5    2.25    2.00
  16  -3   5    3.90    3.15
  16   3   5   -0.17    2.00
  16   3   6    0.89    1.09
  16  -3   6    0.11    1.28
  16  -3   6    0.70    1.88
  16   3   6    0.21    1.62
  16   3   7    3.56    2.07
  16  -3   7    1.59    1.55
  16  -3   7    0.40    1.57
  16   3   7    2.36    1.59
  16   3   8   -0.48    1.53
  16  -3   8   -1.03    1.53
  16  -3   8    2.09    1.98
  16   3   8    1.14    2.04
  16   3   9   -0.38    1.34
  16  -3   9    1.13    1.71
  16  -3   9    2.39    2.01
  16   3   9    0.22    1.15
  16   3  10    0.37    1.81
  16  -3  10   -1.72    2.60
  16  -3  10   -0.24    1.03
  16   3  10   -0.16    1.64
  16   3  11    1.04    1.38
  16  -3  11    3.33    1.41
  16  -3  11    4.14    2.58
  16   3  11    5.06    2.82
  16   3  12   -0.02    1.01
  16  -3  12   -1.04    1.69
  16  -3  12   -0.12    1.90
  16   3  13    0.07    1.39
  16  -3  13    4.57    2.97
  16  -3  13    1.27    2.25
  16   3  14    0.40    1.61
  16  -3  14    1.99    2.04
  16   3  15    1.25    1.58
  16  -3  15    3.25    3.25
  16   3  16    0.83    2.17
  16  -3  16    0.04    1.31
  16   3  17   -0.40    1.35
  16  -3  17   -0.63    1.70
  16   3  18   -1.91    2.31
  16  -3  18    1.49    1.73
  16  -4 -16    3.03    1.67
  16   4 -16    2.83    1.62
  16  -4 -15    0.23    1.15
  16   4 -15    0.97    1.93
  16  -4 -14    2.22    1.24
  16   4 -14    4.55    2.02
  16  -4 -13   34.74    5.86
  16  -4 -13   32.54    5.73
  16   4 -13   31.78    5.92
  16  -4 -12    3.02    2.60
  16  -4 -12    8.93    3.45
  16   4 -12    5.72    2.11
  16  -4 -11   11.43    3.99
  16  -4 -11    6.30    2.71
  16   4 -11    6.12    3.01
  16  -4 -10    8.36    3.31
  16  -4 -10    4.37    2.42
  16   4 -10    5.81    2.22
  16  -4  -9   18.40    4.49
  16  -4  -9   12.88    3.95
  16   4  -9   11.66    3.05
  16  -4  -8   -1.23    2.17
  16  -4  -8    2.18    1.07
  16   4  -8   -2.29    2.09
  16  -4  -7   18.81    4.35
  16  -4  -7   20.53    4.80
  16   4  -7   14.53    3.78
  16  -4  -6    0.92    1.08
  16  -4  -6    4.49    2.19
  16   4  -6    4.40    2.04
  16  -4  -5    9.67    3.50
  16  -4  -5    9.65    3.95
  16   4  -5    8.53    2.81
  16  -4  -4    6.44    2.99
  16  -4  -4    4.09    2.40
  16   4  -4    6.45    3.23
  16   4  -4    6.38    2.89
  16  -4  -3   34.24    5.86
  16   4  -3   34.21    5.43
  16  -4  -3   35.97    6.04
  16   4  -3   46.04    6.26
  16   4  -2    9.01    3.12
  16  -4  -2    3.96    2.53
  16  -4  -2    3.79    2.09
  16   4  -2    4.79    1.94
  16   4  -1    9.21    2.93
  16   4  -1    9.02    2.96
  16  -4  -1    5.77    2.82
  16  -4  -1   14.32    4.06
  16   4   0    1.80    1.57
  16   4   0   -0.47    1.30
  16  -4   0    0.55    0.88
  16  -4   0    0.64    1.06
  16   4   1    6.79    2.03
  16   4   1    7.91    2.39
  16  -4   1   13.24    3.92
  16  -4   1    4.15    2.29
  16   4   2    7.82    3.20
  16   4   2    5.75    2.12
  16  -4   2   10.71    3.13
  16  -4   2    3.53    2.11
  16  -4   3   52.71    6.83
  16  -4   3   38.83    6.20
  16   4   3   30.82    5.41
  16   4   3   47.69    6.82
  16   4   4    0.29    1.37
  16   4   4    6.07    2.77
  16  -4   4    3.45    1.52
  16  -4   4    5.50    2.44
  16   4   5    8.33    3.23
  16   4   5   12.20    3.61
  16  -4   5    3.99    2.67
  16  -4   5    7.73    2.68
  16   4   6    1.41    1.83
  16   4   6    2.33    1.90
  16  -4   6    0.38    1.56
  16  -4   6   -0.43    1.56
  16   4   7   15.82    3.81
  16   4   7   16.34    4.10
  16  -4   7   13.75    3.50
  16  -4   7   16.72    4.02
  16   4   8    0.24    1.74
  16   4   8    1.85    2.37
  16  -4   8   -0.96    1.20
  16  -4   8   -0.06    1.95
  16   4   9   18.44    4.23
  16   4   9   14.18    3.35
  16  -4   9   16.57    3.98
  16  -4   9   22.08    4.70
  16   4  10    3.05    2.32
  16   4  10    3.28    2.40
  16  -4  10    9.68    2.92
  16  -4  10    3.33    1.25
  16   4  11    8.71    3.98
  16   4  11    7.46    2.72
  16  -4  11    3.82    1.80
  16  -4  11    8.36    3.23
  16   4  12    3.82    3.01
  16   4  12    7.81    2.88
  16  -4  12    7.10    3.67
  16  -4  12    8.02    3.78
  16  -4  13   38.67    6.41
  16  -4  13   29.38    5.83
  16   4  13   37.80    6.11
  16   4  14    1.01    1.95
  16  -4  14    3.11    2.67
  16  -4  14    4.29    2.35
  16   4  15    1.16    2.24
  16  -4  15    1.12    1.79
  16   4  16    7.18    3.34
  16  -4  16    7.03    3.41
  16  -4  16    6.11    2.74
  16  -5 -14   10.74    3.90
  16  -5 -14    7.08    3.47
  16   5 -14    9.91    3.07
  16  -5 -13   -0.05    2.15
  16  -5 -13    0.74    2.15
  16   5 -13    1.42    1.83
  16  -5 -12    1.34    1.50
  16   5 -12    1.21    1.38
  16  -5 -11    4.47    2.86
  16  -5 -11    3.25    2.59
  16   5 -11    0.53    0.83
  16  -5 -10    4.31    2.28
  16  -5 -10    7.83    2.65
  16   5 -10    3.29    2.17
  16  -5  -9    0.49    1.02
  16  -5  -9    1.86    1.86
  16   5  -9    0.17    0.96
  16  -5  -8   -0.98    1.85
  16  -5  -8    0.68    1.13
  16   5  -8    1.26    1.16
  16  -5  -7    0.67    2.36
  16  -5  -7    1.10    2.09
  16   5  -7   -1.35    1.64
  16   5  -6   -1.13    1.11
  16  -5  -6    1.52    1.87
  16  -5  -6   -0.72    1.44
  16   5  -5    9.38    3.01
  16  -5  -5    6.00    2.43
  16  -5  -5    6.05    2.26
  16   5  -4    2.63    1.45
  16  -5  -4    4.96    2.67
  16  -5  -4    0.14    1.21
  16   5  -3    2.46    2.52
  16  -5  -3    4.28    2.40
  16  -5  -3    4.34    2.36
  16   5  -2    2.05    1.79
  16   5  -2    0.07    0.92
  16  -5  -2   -1.03    1.26
  16  -5  -2    1.89    2.74
  16   5  -1    4.00    2.47
  16   5  -1    7.49    2.79
  16  -5  -1    5.09    3.15
  16  -5  -1    0.23    1.47
  16   5   0    1.08    1.98
  16   5   0   -0.05    1.15
  16  -5   0    0.69    1.73
  16  -5   0   -0.17    1.31
  16   5   1    5.96    2.91
  16   5   1    9.06    3.54
  16  -5   1    1.34    1.93
  16  -5   1    6.06    2.65
  16   5   2    1.18    1.26
  16   5   2    1.79    1.87
  16  -5   2    0.59    1.54
  16  -5   2    0.82    2.73
  16   5   3    3.20    1.52
  16   5   3    1.69    1.51
  16  -5   3    8.01    2.86
  16  -5   3    6.46    2.80
  16   5   4   -0.52    2.54
  16   5   4    4.15    1.97
  16  -5   4    3.55    1.12
  16  -5   4    1.11    1.49
  16   5   5    7.23    2.16
  16   5   5   10.52    3.11
  16  -5   5   10.58    3.05
  16  -5   5    9.30    3.13
  16   5   6   -0.16    1.86
  16   5   6   -0.34    1.02
  16  -5   6   -0.48    2.19
  16  -5   6   -0.74    1.72
  16   5   7    0.86    2.57
  16  -5   7    0.39    1.49
  16   5   7    1.96    2.01
  16  -5   7   -0.79    1.59
  16   5   8   -0.77    2.04
  16  -5   8   -2.02    1.70
  16   5   8    2.90    1.99
  16  -5   8   -1.52    2.77
  16   5   9   -0.12    1.82
  16   5   9    2.61    1.74
  16  -5   9    0.91    1.11
  16  -5   9    1.75    2.09
  16   5  10    3.05    1.91
  16   5  10    1.89    1.41
  16  -5  10    6.85    2.95
  16   5  11    1.23    2.65
  16   5  11    2.78    2.45
  16  -5  11    2.41    1.48
  16  -5  11    0.52    1.82
  16   5  12    2.60    1.49
  16   5  12    0.18    1.51
  16  -5  12   -1.76    2.06
  16  -5  12    3.05    1.16
  16   5  13   -0.46    1.69
  16  -5  13    3.70    2.74
  16  -5  13    2.20    2.27
  16   5  14   11.10    3.61
  16  -5  14    4.81    1.49
  16  -5  14   13.65    3.96
  16  -6 -11    4.97    2.23
  16  -6 -11    6.57    3.41
  16   6 -11    3.68    2.11
  16  -6 -10    2.55    1.43
  16  -6 -10    4.61    3.23
  16   6 -10    7.50    2.88
  16   6  -9   14.02    3.86
  16  -6  -9   10.40    3.30
  16  -6  -9    9.54    3.37
  16   6  -8    3.04    2.62
  16  -6  -8    0.95    2.03
  16  -6  -8    2.41    1.33
  16   6  -7   10.30    3.02
  16  -6  -7   21.23    4.53
  16  -6  -7   22.04    4.71
  16   6  -6    4.95    2.65
  16  -6  -6    0.43    0.88
  16  -6  -6    1.19    2.29
  16   6  -5   -1.35    1.29
  16  -6  -5   -0.25    1.01
  16  -6  -5    1.05    2.14
  16   6  -4    5.17    1.91
  16  -6  -4    6.50    3.15
  16  -6  -4    7.50    2.88
  16   6  -3   26.63    5.30
  16  -6  -3   28.93    5.83
  16  -6  -3   28.42    5.25
  16   6  -2   17.56    4.19
  16  -6  -2   18.64    4.24
  16  -6  -2   21.96    4.83
  16   6  -1   20.69    4.88
  16  -6  -1   14.16    3.84
  16  -6  -1   12.66    3.35
  16   6  -1   21.49    5.43
  16   6   0    0.09    1.83
  16  -6   0    2.44    3.01
  16   6   0    2.03    0.98
  16  -6   0    2.19    2.39
  16   6   1   14.59    4.32
  16  -6   1   17.95    4.08
  16   6   1    9.08    3.13
  16  -6   1    6.23    3.43
  16   6   2   18.43    3.94
  16  -6   2   21.39    4.72
  16   6   2   17.32    4.14
  16  -6   2   16.55    4.77
  16   6   3   19.34    4.63
  16  -6   3   14.20    4.48
  16   6   3   23.54    4.90
  16  -6   3   13.89    4.29
  16   6   4    0.77    1.36
  16  -6   4    3.51    1.44
  16   6   4    4.79    2.72
  16  -6   4    3.62    1.99
  16   6   5    0.06    1.38
  16  -6   5    1.23    1.60
  16   6   5    0.22    1.13
  16  -6   5    3.18    2.18
  16   6   6    0.88    1.95
  16  -6   6    3.76    2.73
  16   6   6    2.51    2.20
  16  -6   6    2.62    2.36
  16   6   7   16.20    4.27
  16  -6   7   13.66    3.99
  16   6   7   18.44    4.47
  16  -6   7   18.07    4.70
  16   6   8    2.04    2.20
  16  -6   8   -1.63    1.47
  16   6   8    1.59    2.23
  16  -6   8    2.18    1.69
  16   6   9   23.65    5.58
  16  -6   9   12.92    3.51
  16   6   9   11.26    3.79
  16  -6   9   18.41    4.79
  16   6  10    3.90    2.22
  16  -6  10    5.29    2.56
  16   6  10    5.72    1.97
  16  -6  10    6.34    2.33
  16   6  11    4.74    1.55
  16  -6  11    5.82    2.48
  16   6  11    3.50    2.28
  16  -6  11    2.56    2.05
  16   7  -6    0.32    2.26
  16  -7  -6    3.74    2.49
  16  -7  -6    2.52    1.63
  16   7  -5    5.21    1.98
  16  -7  -5    5.47    1.96
  16   7  -4    1.22    1.89
  16  -7  -4    0.35    1.50
  16  -7  -4    0.01    2.15
  16   7  -3    5.55    2.39
  16  -7  -3    1.66    1.91
  16  -7  -3    7.50    3.38
  16   7  -2    2.60    2.25
  16  -7  -2   -0.35    1.81
  16  -7  -2    0.29    2.20
  16   7  -1    1.14    1.40
  16  -7  -1   -1.07    1.20
  16  -7  -1   -0.96    1.82
  16   7   0    1.28    1.52
  16  -7   0    2.60    2.38
  16  -7   0   -1.18    1.70
  16   7   1    0.09    2.55
  16  -7   1   -0.42    1.26
  16   7   1   -0.62    1.16
  16  -7   1   -0.27    1.31
  16   7   2    1.79    1.36
  16  -7   2   -1.81    1.69
  16   7   2   -1.04    1.09
  16  -7   2   -1.40    1.52
  16   7   3    0.56    1.80
  16  -7   3    5.16    2.47
  16   7   3    3.58    2.78
  16  -7   3    4.45    2.92
  16   7   4    1.07    2.08
  16  -7   4   -2.52    2.70
  16   7   4    3.73    2.48
  16  -7   4    3.23    2.94
  16   7   5    3.78    1.29
  16  -7   5    4.68    2.23
  16   7   5    9.74    2.98
  16  -7   5    8.08    3.46
  16   7   6   -0.15    1.92
  16  -7   6    3.30    2.99
  16   7   6    5.06    2.77
  16  -7   6    2.27    2.60
  17   0 -16   -1.44    1.17
  17   0 -15   -0.13    1.91
  17   0 -14    2.06    2.05
  17   0 -13   -1.28    2.31
  17   0 -12    1.86    2.08
  17   0 -11    1.25    2.03
  17   0 -10    2.68    1.32
  17   0  -9    0.50    1.72
  17   0  -8   -0.58    0.82
  17   0  -8    5.44    2.80
  17   0  -7   -1.52    1.98
  17   0  -7   -1.55    1.68
  17   0  -6   -1.10    1.40
  17   0  -6    2.02    1.78
  17   0  -5   -0.08    1.28
  17   0  -5   -0.87    1.16
  17   0  -4   -0.32    0.81
  17   0  -4    0.06    1.89
  17   0  -3    0.12    1.28
  17   0  -3   -0.18    1.38
  17   0  -2    0.09    1.19
  17   0  -2    1.93    1.59
  17   0  -1   -0.33    1.23
  17   0  -1    0.65    2.37
  17   0   0   -1.12    1.84
  17   0   0    2.02    1.44
  17   0   1   -0.63    0.77
  17   0   1    0.01    1.24
  17   0   2    0.12    1.05
  17   0   2    0.46    1.06
  17   0   3   -0.26    1.31
  17   0   3   -0.66    0.82
  17   0   4   -0.11    1.90
  17   0   4   -0.03    2.28
  17   0   5    1.37    1.88
  17   0   5    0.29    1.74
  17   0   6   -0.51    1.08
  17   0   6   -1.91    1.61
  17   0   7   -0.74    1.33
  17   0   7   -0.85    1.31
  17   0   8    0.70    1.13
  17   0   9    0.83    0.83
  17   0  10    0.47    2.30
  17   0  11    1.10    1.49
  17   0  12   -0.50    1.58
  17   0  13    0.74    1.88
  17   0  14   -0.18    2.03
  17   0  15    0.82    1.18
  17   0  16    0.74    0.97
  17   0  17   -0.45    1.69
  17  -1 -17   13.43    3.16
  17  -1 -16    8.94    3.31
  17  -1 -15    1.32    1.71
  17  -1 -14    3.51    1.44
  17  -1 -13    3.91    1.58
  17   1 -12   13.66    5.17
  17  -1 -12   11.65    3.90
  17  -1 -11   20.94    4.64
  17   1 -11   17.18    4.66
  17  -1 -10   13.62    4.53
  17  -1 -10   11.36    3.55
  17   1 -10   15.79    3.93
  17  -1  -9    1.73    0.94
  17  -1  -9    6.63    2.70
  17   1  -9    3.92    2.08
  17  -1  -8    6.16    2.52
  17  -1  -8    7.47    3.11
  17   1  -8    6.76    2.40
  17  -1  -7   -0.58    2.01
  17   1  -7    2.22    1.11
  17  -1  -7    0.79    1.60
  17   1  -7   -0.69    1.52
  17  -1  -6    3.17    1.77
  17   1  -6    4.94    2.76
  17  -1  -6    8.39    2.74
  17   1  -6    9.70    3.26
  17  -1  -5    6.18    2.77
  17   1  -5    3.52    0.85
  17  -1  -5   10.72    3.29
  17   1  -5    5.80    2.45
  17  -1  -4   28.17    5.51
  17   1  -4   26.79    5.13
  17  -1  -4   40.54    6.30
  17   1  -4   27.04    5.44
  17   1  -4   29.87    5.38
  17   1  -3   25.67    4.92
  17  -1  -3   22.40    4.34
  17  -1  -3   30.67    5.69
  17   1  -3   26.98    5.06
  17   1  -3   22.94    4.21
  17  -1  -2   17.97    4.09
  17   1  -2   22.02    4.42
  17  -1  -2   19.27    4.22
  17   1  -2   21.81    4.98
  17   1  -2   23.73    4.39
  17  -1  -1    9.99    3.06
  17   1  -1    5.92    2.89
  17  -1  -1    7.85    3.12
  17   1  -1    8.56    3.61
  17   1  -1    9.46    2.92
  17  -1   0   37.53    6.11
  17  -1   0   29.83    5.34
  17   1   0   20.51    4.47
  17   1   0   24.92    4.89
  17   1   0   24.11    4.64
  17  -1   1   10.11    3.57
  17   1   1    3.63    1.42
  17  -1   1   11.79    3.25
  17   1   1   10.26    3.37
  17   1   1    9.58    3.15
  17  -1   2   15.78    4.21
  17  -1   2   21.61    4.43
  17   1   2   15.90    4.24
  17   1   2   12.24    3.16
  17   1   2   14.29    3.85
  17  -1   3   28.12    5.18
  17  -1   3   27.60    5.22
  17   1   3   24.93    4.99
  17   1   3   21.89    4.63
  17   1   3   23.92    4.77
  17  -1   4   29.33    5.23
  17   1   4   28.04    5.03
  17  -1   4   29.05    5.46
  17   1   4   28.50    5.27
  17   1   4   20.71    4.03
  17  -1   5    4.29    1.95
  17  -1   5    6.68    2.94
  17   1   5    6.96    2.98
  17   1   5    7.96    2.15
  17   1   5    4.77    2.10
  17  -1   6    6.07    2.85
  17  -1   6    0.75    1.63
  17   1   6    6.88    2.16
  17   1   6    1.24    0.81
  17   1   6    4.46    1.84
  17  -1   7    4.26    2.62
  17  -1   7    2.42    2.22
  17   1   7    0.57    1.07
  17   1   7    2.35    1.71
  17  -1   8    8.46    2.93
  17  -1   8    7.24    3.13
  17   1   8    5.32    2.14
  17   1   8    6.74    2.36
  17  -1   9    8.10    2.93
  17  -1   9    9.56    3.20
  17   1   9    6.06    2.19
  17   1   9    8.27    2.73
  17  -1  10    9.08    3.14
  17   1  10    7.32    2.82
  17  -1  11   21.01    4.95
  17   1  11   18.92    4.56
  17  -1  12    5.88    2.66
  17   1  12    6.79    2.78
  17  -1  13    5.26    2.30
  17   1  13    2.27    2.26
  17  -1  14   10.18    3.17
  17   1  14    5.32    3.26
  17  -1  15    1.16    1.94
  17   1  15    4.39    2.68
  17  -1  16    8.29    2.69
  17   1  16   12.97    4.29
  17  -1  17   16.83    4.03
  17   1  17   26.50    5.41
  17  -2 -17    5.83    2.41
  17  -2 -16   -1.11    2.46
  17  -2 -15    0.42    1.63
  17  -2 -14    3.04    2.04
  17  -2 -13    1.14    1.45
  17  -2 -12    0.84    1.44
  17  -2 -11    4.10    2.97
  17  -2 -11    0.12    1.68
  17  -2 -10    3.01    2.75
  17  -2 -10    3.97    3.46
  17   2 -10    0.93    1.53
  17  -2  -9    3.52    2.14
  17  -2  -9    0.52    1.18
  17   2  -9    3.00    2.06
  17  -2  -8    4.52    2.05
  17  -2  -8    0.48    1.35
  17   2  -8    2.70    1.78
  17  -2  -7    4.37    2.99
  17  -2  -7    4.31    2.49
  17   2  -7    5.60    3.25
  17   2  -7   -0.45    1.27
  17  -2  -6    2.65    2.10
  17   2  -6    1.87    2.07
  17  -2  -6    5.76    2.59
  17   2  -6    5.41    1.87
  17  -2  -5    2.32    0.78
  17   2  -5   -0.62    1.79
  17  -2  -5    1.55    2.52
  17   2  -5    3.23    2.86
  17   2  -5    1.38    1.63
  17  -2  -4    2.87    1.33
  17   2  -4    1.82    1.14
  17  -2  -4    3.09    1.47
  17   2  -4    1.20    1.57
  17   2  -4    1.03    1.90
  17  -2  -3   -0.30    1.37
  17  -2  -3   -1.59    2.39
  17   2  -3    2.53    2.52
  17   2  -3    0.31    1.14
  17   2  -3   -1.60    1.47
  17  -2  -2    0.66    1.43
  17  -2  -2   -0.37    1.40
  17   2  -2    3.46    1.94
  17   2  -2   -0.19    1.67
  17   2  -2    1.90    1.41
  17  -2  -1   -0.91    1.35
  17  -2  -1    1.97    1.71
  17   2  -1   -0.03    2.04
  17   2  -1    0.07    1.51
  17   2  -1    1.69    2.17
  17  -2   0    1.12    1.38
  17  -2   0    1.20    2.15
  17   2   0    0.04    1.51
  17   2   0    0.64    0.76
  17   2   0    1.59    1.34
  17  -2   1    0.79    1.22
  17  -2   1    1.97    1.49
  17   2   1    0.12    0.96
  17   2   1   -0.35    1.46
  17   2   1    1.95    2.46
  17  -2   2    0.51    1.79
  17  -2   2   -1.59    1.63
  17   2   2    1.17    1.24
  17   2   2   -0.24    1.87
  17   2   2    2.27    2.61
  17  -2   3   -0.42    0.68
  17  -2   3   -0.13    0.91
  17   2   3    1.04    1.14
  17   2   3    1.48    1.41
  17   2   3   -2.36    1.77
  17  -2   4    2.77    1.61
  17  -2   4    3.63    2.33
  17   2   4    4.35    2.53
  17   2   4    4.02    1.71
  17   2   4    3.28    1.89
  17  -2   5    1.03    1.61
  17  -2   5    1.17    1.13
  17   2   5    1.50    2.01
  17   2   5    0.79    1.68
  17   2   5    2.88    1.65
  17   2   6    3.91    2.10
  17  -2   6    3.09    1.67
  17  -2   6    2.00    1.47
  17   2   6    3.09    2.33
  17   2   7    1.77    2.06
  17  -2   7    4.06    2.79
  17  -2   7    1.88    1.67
  17   2   7   -0.95    1.70
  17   2   8    3.93    1.57
  17  -2   8    6.71    2.53
  17  -2   8    8.70    3.35
  17   2   8    6.64    3.14
  17   2   9    2.34    1.33
  17  -2   9    1.24    2.35
  17  -2   9    6.01    2.89
  17   2   9    3.16    2.55
  17   2  10    0.97    2.01
  17  -2  10   -0.65    1.35
  17  -2  10    3.36    3.17
  17   2  10    5.86    2.46
  17   2  11    0.63    1.71
  17  -2  11    2.46    2.39
  17  -2  11    0.32    1.90
  17   2  12    1.46    1.35
  17  -2  12    1.49    1.05
  17   2  13    2.61    2.06
  17  -2  13    0.76    1.37
  17   2  14    0.84    1.95
  17  -2  14    1.55    1.63
  17   2  15    2.33    2.60
  17  -2  15    4.31    2.95
  17   2  16    0.68    1.78
  17  -2  16    1.06    2.44
  17   2  17    2.03    2.04
  17  -2  17    1.70    1.60
  17  -3 -16    0.38    2.39
  17  -3 -15    8.34    3.09
  17  -3 -14   -1.72    1.63
  17   3 -14    5.72    2.89
  17  -3 -13   10.43    3.50
  17   3 -13    7.83    2.98
  17  -3 -12    0.76    1.59
  17  -3 -12    1.11    1.65
  17   3 -12   -1.58    2.36
  17  -3 -11    9.46    3.99
  17  -3 -11    7.05    3.26
  17   3 -11    3.27    2.37
  17  -3 -10    3.86    2.35
  17  -3 -10   12.20    3.53
  17   3 -10   15.27    3.63
  17  -3  -9    1.73    0.82
  17  -3  -9    4.43    2.29
  17   3  -9    3.28    2.92
  17  -3  -8    0.29    1.91
  17   3  -8    1.30    1.27
  17  -3  -7   10.79    3.50
  17   3  -7    7.62    2.39
  17  -3  -6    0.90    1.74
  17  -3  -6    1.08    1.14
  17   3  -6    2.76    1.21
  17  -3  -5   25.14    4.82
  17  -3  -5   24.17    5.27
  17   3  -5   16.24    4.09
  17  -3  -4   20.72    4.58
  17  -3  -4   22.66    4.91
  17   3  -4   14.21    4.13
  17   3  -4   15.19    4.13
  17  -3  -3    4.42    2.06
  17  -3  -3    3.43    2.31
  17   3  -3    0.68    1.12
  17   3  -3    2.04    1.97
  17  -3  -2   12.96    3.46
  17  -3  -2   12.65    3.76
  17   3  -2   16.22    4.17
  17   3  -2   21.81    4.62
  17  -3  -1   53.67    7.15
  17   3  -1   49.48    6.57
  17  -3  -1   52.83    7.16
  17   3  -1   43.42    6.85
  17   3  -1   41.98    6.10
  17  -3   0   -0.23    1.23
  17  -3   0    2.42    1.51
  17   3   0    1.71    1.79
  17   3   0   -0.30    1.65
  17   3   0    0.86    2.55
  17  -3   1   39.43    6.29
  17   3   1   50.16    6.72
  17  -3   1   48.29    7.04
  17   3   1   46.45    7.11
  17   3   1   63.58    7.43
  17  -3   2   12.03    3.65
  17   3   2   20.31    4.81
  17  -3   2   20.70    4.37
  17   3   2   17.42    3.96
  17   3   2   26.80    5.09
  17   3   3    2.00    1.73
  17  -3   3   -0.25    1.88
  17  -3   3    0.24    1.39
  17   3   3    1.09    1.18
  17   3   3    3.31    1.25
  17   3   4   20.85    4.50
  17  -3   4   13.41    3.78
  17  -3   4   18.10    4.77
  17   3   4   18.13    4.91
  17   3   4   17.03    3.96
  17   3   5   17.68    3.99
  17  -3   5   23.69    4.92
  17  -3   5   28.11    5.24
  17   3   5   17.68    4.47
  17   3   5   30.65    5.26
  17   3   6   -0.49    1.60
  17  -3   6    0.09    0.87
  17  -3   6    2.30    2.65
  17   3   6    0.02    1.59
  17   3   7    5.37    1.98
  17  -3   7   10.81    3.54
  17  -3   7    8.57    3.12
  17   3   7    9.92    2.79
  17   3   8    0.14    1.35
  17  -3   8    0.52    1.20
  17  -3   8   -0.78    1.46
  17   3   8    3.20    2.58
  17   3   9    4.43    2.21
  17  -3   9    3.51    1.88
  17  -3   9    4.28    1.80
  17   3   9    8.73    3.45
  17   3  10   10.38    3.29
  17  -3  10   13.62    3.91
  17  -3  10   11.19    3.62
  17   3  10    9.79    3.48
  17   3  11    6.53    3.15
  17  -3  11    6.68    3.21
  17  -3  11    8.73    3.31
  17   3  11    4.34    1.95
  17   3  12    1.52    1.57
  17  -3  12    1.37    1.16
  17  -3  12   -0.20    1.75
  17   3  13    3.25    2.45
  17  -3  13    4.78    2.27
  17  -3  13    8.57    3.67
  17   3  14    3.79    1.16
  17  -3  14    3.02    1.46
  17  -3  14    6.70    3.68
  17   3  15    8.05    3.56
  17  -3  15   12.91    3.86
  17  -3  15   12.90    3.42
  17   3  16    3.93    2.51
  17  -3  16    2.23    2.74
  17  -4 -14   -0.38    1.24
  17   4 -14    2.06    1.73
  17  -4 -13    6.82    3.63
  17  -4 -13   11.23    3.95
  17   4 -13   11.83    3.74
  17  -4 -12    5.45    2.84
  17  -4 -12    2.81    2.61
  17   4 -12    1.29    1.49
  17  -4 -11    2.50    1.95
  17  -4 -11    4.44    2.14
  17   4 -11    2.75    1.85
  17  -4 -10    4.36    2.06
  17  -4 -10   -0.31    2.25
  17   4 -10    1.18    1.50
  17  -4  -9   -1.47    1.67
  17  -4  -9   -1.37    1.83
  17   4  -9    1.36    2.17
  17  -4  -8    0.55    2.13
  17  -4  -8    4.73    2.58
  17   4  -8    3.90    2.68
  17  -4  -7    0.62    1.69
  17  -4  -7    2.78    2.43
  17   4  -7    0.07    0.88
  17  -4  -6    2.33    1.54
  17   4  -6    0.27    1.09
  17  -4  -5   12.67    4.17
  17  -4  -5   14.00    3.68
  17   4  -5    5.04    1.79
  17  -4  -4    0.13    1.41
  17  -4  -4    1.80    2.06
  17  -4  -3    2.42    1.88
  17  -4  -3   -0.62    1.80
  17   4  -3    0.49    1.89
  17   4  -3    3.30    2.23
  17  -4  -2    5.29    2.31
  17  -4  -2    5.67    1.77
  17   4  -2    8.94    2.84
  17   4  -2    4.29    1.36
  17   4  -1    4.81    1.69
  17  -4  -1   12.87    3.75
  17  -4  -1   12.29    4.00
  17   4  -1   12.56    4.01
  17   4   0    5.03    2.14
  17  -4   0    3.26    2.46
  17  -4   0    7.08    3.01
  17   4   0    8.81    3.37
  17   4   1    3.96    1.73
  17  -4   1    4.64    2.13
  17  -4   1    6.04    2.34
  17   4   1    4.71    2.59
  17   4   2    6.38    2.76
  17  -4   2    3.44    1.70
  17  -4   2    5.09    2.15
  17   4   2    3.88    1.74
  17   4   3    0.09    1.85
  17  -4   3   -0.62    0.89
  17  -4   3    1.51    1.31
  17   4   3   -0.11    1.39
  17   4   4    1.76    1.98
  17  -4   4    1.20    1.51
  17  -4   4   -0.31    1.16
  17   4   4   -1.87    1.95
  17   4   5   14.08    4.21
  17  -4   5    9.59    3.38
  17  -4   5    3.53    1.70
  17   4   5   -0.52    0.89
  17   4   5    5.77    2.80
  17   4   6    5.28    2.19
  17  -4   6    6.99    3.45
  17  -4   6    4.51    1.89
  17   4   6    3.25    1.96
  17   4   7   -0.11    1.35
  17  -4   7    1.70    0.87
  17  -4   7    0.15    1.20
  17   4   7   -1.90    1.71
  17   4   8    2.18    2.02
  17  -4   8    2.86    1.45
  17  -4   8    3.16    1.74
  17   4   8    0.13    1.46
  17   4   9    2.24    2.14
  17  -4   9   -0.65    1.38
  17  -4   9   -0.47    1.17
  17   4   9   -1.47    2.15
  17   4  10    4.47    2.20
  17  -4  10    0.54    1.06
  17  -4  10    1.05    1.23
  17   4  10    0.81    2.33
  17   4  11    3.01    2.14
  17  -4  11    1.59    1.19
  17  -4  11    1.09    1.94
  17   4  11    5.96    3.19
  17   4  12    2.50    2.82
  17  -4  12    5.53    2.76
  17  -4  12    7.33    3.08
  17   4  13    8.90    3.43
  17  -4  13    7.93    3.27
  17  -4  13    5.29    2.62
  17   4  14    7.37    3.68
  17  -4  14    6.62    3.25
  17  -4  14   10.10    3.67
  17  -5 -11    2.89    2.71
  17  -5 -11    7.13    3.07
  17   5 -11    9.48    3.26
  17  -5 -10   15.97    4.02
  17  -5 -10    9.75    3.46
  17   5 -10   11.27    3.92
  17  -5  -9   -1.28    1.87
  17  -5  -9   -0.77    1.03
  17   5  -9    0.67    1.49
  17  -5  -8    0.48    1.75
  17   5  -8    0.42    1.52
  17  -5  -7    8.86    3.20
  17  -5  -7    3.89    2.43
  17   5  -7    4.57    2.42
  17  -5  -6   22.78    4.95
  17  -5  -6   22.86    5.20
  17   5  -6   13.46    3.72
  17  -5  -5    3.49    1.78
  17  -5  -5    3.66    2.68
  17   5  -5    7.75    2.50
  17  -5  -4    3.16    1.89
  17  -5  -4    5.39    2.47
  17   5  -4    1.86    0.85
  17  -5  -3    4.49    2.11
  17  -5  -3    5.32    3.34
  17   5  -3    4.39    2.16
  17   5  -2    8.46    3.44
  17   5  -2    5.19    2.67
  17  -5  -2    6.09    3.11
  17  -5  -2    2.94    2.00
  17   5  -1    5.32    2.08
  17   5  -1    6.66    3.00
  17  -5  -1    8.09    2.93
  17  -5  -1    4.00    2.85
  17   5   0   13.25    3.47
  17   5   0    5.97    2.55
  17  -5   0   13.04    4.06
  17  -5   0   12.15    2.62
  17   5   1    3.66    2.51
  17   5   1    7.10    3.40
  17  -5   1    7.28    2.82
  17  -5   1    5.72    2.85
  17   5   2    2.59    3.00
  17   5   2    3.11    2.59
  17  -5   2    6.74    2.87
  17  -5   2    2.85    2.80
  17   5   3    6.70    3.28
  17   5   3    3.45    1.87
  17  -5   3    8.22    2.98
  17  -5   3    8.85    3.60
  17   5   4    4.57    3.17
  17   5   4    3.57    1.96
  17  -5   4    2.80    1.97
  17  -5   4    4.43    2.49
  17   5   5    1.93    2.15
  17   5   5    7.41    2.65
  17  -5   5    6.40    3.02
  17  -5   5    7.38    2.67
  17   5   6   22.50    4.67
  17  -5   6   29.19    5.87
  17   5   6   22.90    4.82
  17  -5   6   16.31    4.26
  17   5   7   12.52    3.61
  17   5   7    7.19    2.43
  17  -5   7    8.63    3.59
  17  -5   7    6.46    2.44
  17   5   8    7.41    3.55
  17   5   8    4.09    2.32
  17  -5   8    5.56    2.84
  17  -5   8    3.11    2.08
  17   5   9    2.68    2.67
  17   5   9    2.84    2.67
  17  -5   9    2.21    2.13
  17  -5   9   -1.45    1.35
  17   5  10    9.96    4.08
  17   5  10   10.60    3.57
  17  -5  10   10.91    3.26
  17  -5  10   11.60    2.89
  17   5  11    5.37    3.97
  17   5  11    5.10    2.47
  17  -5  11    6.18    3.10
  17  -5  11   12.20    3.10
  17  -6  -7    1.15    2.05
  17  -6  -7    0.49    1.79
  17   6  -7   -2.42    2.07
  17   6  -6    1.85    2.03
  17  -6  -6    1.07    1.55
  17  -6  -6    4.20    2.32
  17   6  -5    1.23    1.87
  17  -6  -5    1.15    1.57
  17  -6  -5    1.40    1.78
  17   6  -4    4.32    2.14
  17  -6  -4    1.27    0.85
  17  -6  -4    3.59    2.56
  17   6  -3    2.51    2.07
  17  -6  -3    1.47    1.15
  17  -6  -3    6.56    3.77
  17   6  -2    3.10    2.13
  17  -6  -2    2.94    2.15
  17  -6  -2    1.44    1.77
  17   6  -1   -0.52    1.61
  17  -6  -1    1.93    1.92
  17  -6  -1   -1.93    1.92
  17   6   0   -1.03    1.88
  17   6   0    1.55    2.18
  17  -6   0    1.89    2.14
  17  -6   0   -3.22    2.49
  17   6   1    0.36    2.02
  17  -6   1    2.30    1.52
  17   6   1    0.53    1.24
  17  -6   1   -2.29    2.01
  17   6   2    1.86    2.19
  17  -6   2    4.53    1.45
  17   6   2    1.49    1.83
  17  -6   2    2.45    2.01
  17   6   3    2.43    1.25
  17  -6   3    0.46    1.54
  17   6   3    1.77    2.53
  17  -6   3   -0.45    2.19
  17   6   4    1.77    1.45
  17  -6   4    1.00    1.56
  17   6   4    0.18    1.54
  17  -6   4    5.86    2.82
  17   6   5   -0.71    1.70
  17  -6   5    3.64    2.75
  17   6   5    0.79    1.18
  17  -6   5    0.91    1.62
  17   6   6    3.89    1.73
  17  -6   6   -1.23    1.39
  17   6   6    0.93    1.44
  17  -6   6    4.98    2.80
  17   6   7    2.91    1.22
  17  -6   7   -0.37    1.06
  17   6   7   -1.59    1.65
  17  -6   7   -0.11    1.41
  18   0 -15  109.13   11.34
  18   0 -14    2.90    2.47
  18   0 -13   10.61    3.79
  18   0 -12   11.20    3.53
  18   0 -11  113.38   11.11
  18   0 -10   10.27    3.15
  18   0  -9    9.79    2.56
  18   0  -8   11.82    4.37
  18   0  -8    4.02    2.53
  18   0  -7    0.55    1.29
  18   0  -7    3.08    1.16
  18   0  -6    2.33    2.01
  18   0  -6   -0.63    1.46
  18   0  -5   54.45    7.31
  18   0  -5   47.91    6.70
  18   0  -4   37.09    6.11
  18   0  -4   39.50    6.62
  18   0  -3   41.01    6.40
  18   0  -3   29.40    5.49
  18   0  -2   23.20    4.82
  18   0  -2   24.35    5.06
  18   0  -1   30.67    5.64
  18   0  -1   28.81    5.83
  18   0   0    6.46    2.18
  18   0   0    9.93    3.35
  18   0   1   24.76    4.76
  18   0   1   31.28    5.50
  18   0   2   23.26    4.52
  18   0   2   19.12    4.38
  18   0   3   41.29    6.28
  18   0   3   46.84    6.75
  18   0   4   42.14    6.80
  18   0   4   40.98    6.61
  18   0   5   43.92    6.46
  18   0   5   57.30    7.64
  18   0   6    4.40    2.38
  18   0   6    0.73    1.33
  18   0   7    5.23    2.31
  18   0   7    2.43    1.18
  18   0   8    9.11    2.94
  18   0   8    3.03    1.65
  18   0   9   22.32    4.55
  18   0   9   14.30    3.85
  18   0  10    5.20    2.45
  18   0  11  136.37   11.67
  18   0  12   12.04    3.84
  18   0  13   13.32    3.90
  18   0  14    1.38    1.20
  18   0  15  110.10   10.95
  18  -1 -15    9.33    3.38
  18  -1 -14   -1.72    1.46
  18  -1 -13    0.68    2.38
  18  -1 -12    4.30    1.89
  18  -1 -11    2.01    1.02
  18   1 -11   -3.20    1.86
  18  -1 -10   17.77    4.57
  18   1 -10   16.38    4.28
  18  -1  -9    4.79    2.82
  18  -1  -9    2.62    1.86
  18   1  -9    1.22    1.70
  18  -1  -8    3.09    2.20
  18  -1  -8   -0.06    1.06
  18   1  -8    1.06    2.28
  18  -1  -7    0.78    1.62
  18  -1  -7    1.12    1.55
  18   1  -7   -0.35    1.50
  18  -1  -6    8.76    2.84
  18   1  -6   10.48    3.28
  18  -1  -6   11.95    3.88
  18   1  -6   16.37    4.21
  18  -1  -5   -0.26    1.95
  18   1  -5    3.60    2.23
  18  -1  -5    0.21    2.02
  18   1  -5    2.34    1.56
  18  -1  -4   -0.35    1.10
  18   1  -4   -1.66    1.39
  18  -1  -4    1.04    1.73
  18   1  -4   -0.72    1.41
  18  -1  -3    4.32    2.75
  18   1  -3    2.13    1.32
  18  -1  -3    1.97    2.02
  18   1  -3   -0.22    1.67
  18  -1  -2   -0.28    1.62
  18   1  -2   -0.01    0.90
  18  -1  -2   -0.18    0.88
  18   1  -2   -0.27    1.67
  18  -1  -1   -0.32    1.03
  18   1  -1    1.47    1.60
  18  -1  -1    0.86    1.69
  18   1  -1    2.02    2.44
  18  -1   0   -0.08    1.81
  18   1   0    0.70    2.05
  18  -1   0   -0.99    2.13
  18   1   0    0.98    1.83
  18  -1   1    1.56    1.90
  18   1   1    5.14    1.62
  18  -1   1    0.76    1.23
  18   1   1    0.31    1.55
  18  -1   2    2.32    1.78
  18   1   2   -0.30    0.88
  18  -1   2    1.21    1.12
  18   1   2   -0.81    1.36
  18   1   2    0.61    2.52
  18  -1   3    1.08    1.61
  18   1   3    0.30    1.85
  18  -1   3   -1.11    1.08
  18   1   3    0.18    1.29
  18   1   3    1.15    1.91
  18  -1   4    0.01    0.96
  18  -1   4    1.14    1.28
  18   1   4   -0.72    1.38
  18   1   4    0.05    1.44
  18  -1   5    1.48    2.22
  18  -1   5    2.03    1.38
  18   1   5   -0.08    0.97
  18   1   5    0.93    2.19
  18  -1   6    7.54    2.98
  18  -1   6    9.74    3.59
  18   1   6    9.06    2.92
  18   1   6   12.40    3.17
  18  -1   7    0.72    1.45
  18  -1   7    2.79    2.27
  18   1   7   -0.65    2.39
  18   1   7    1.66    0.91
  18  -1   8    1.27    1.67
  18  -1   8    0.94    1.55
  18   1   8    2.85    1.72
  18   1   8    1.89    2.28
  18  -1   9    1.14    1.61
  18  -1   9   -0.61    1.04
  18   1   9   -0.11    0.83
  18  -1  10   16.53    4.39
  18  -1  10   12.71    3.52
  18   1  10    9.56    3.46
  18  -1  11    2.45    1.75
  18  -1  11   -2.14    2.67
  18   1  11    0.69    1.56
  18  -1  12    0.89    1.39
  18   1  12    0.55    1.01
  18  -1  13   -1.77    1.16
  18   1  13    2.63    2.02
  18  -1  14   -0.20    1.52
  18   1  14   -0.57    2.03
  18  -1  15   14.86    4.04
  18   1  15   10.68    3.61
  18  -2 -14    4.75    2.73
  18  -2 -13    3.44    1.33
  18  -2 -12    1.16    1.92
  18  -2 -11   18.12    4.24
  18  -2 -10   11.06    3.89
  18  -2 -10   12.07    4.47
  18  -2  -9   -1.00    1.98
  18  -2  -9   -3.01    3.17
  18  -2  -8   -0.87    1.66
  18  -2  -8   -0.95    2.04
  18   2  -8    0.43    1.42
  18  -2  -7   -0.95    1.57
  18  -2  -7    1.48    2.62
  18   2  -7   -0.24    0.92
  18  -2  -6   11.03    3.36
  18  -2  -6    4.74    1.55
  18   2  -6    8.73    2.87
  18  -2  -5   21.46    4.84
  18   2  -5   27.88    6.10
  18   2  -5   18.91    4.60
  18  -2  -5   22.56    5.08
  18   2  -5   19.14    4.24
  18  -2  -4   14.13    3.94
  18   2  -4   12.70    4.27
  18  -2  -4    8.98    3.41
  18   2  -4   18.66    3.81
  18   2  -4   16.67    3.86
  18  -2  -3    4.11    1.89
  18   2  -3    4.59    1.83
  18  -2  -3    1.27    2.23
  18   2  -3    4.06    1.09
  18   2  -3    5.01    2.32
  18  -2  -2    3.93    2.39
  18   2  -2    3.60    2.39
  18  -2  -2    7.15    3.14
  18   2  -2    2.88    2.34
  18   2  -2    6.79    3.18
  18  -2  -1   29.18    5.43
  18  -2  -1   31.74    5.74
  18   2  -1   45.54    7.12
  18   2  -1   28.74    5.09
  18   2  -1   31.35    5.77
  18  -2   0   17.45    4.28
  18  -2   0   18.19    4.14
  18   2   0   16.42    4.24
  18   2   0   16.62    4.24
  18   2   0   24.77    4.96
  18  -2   1   40.57    6.30
  18   2   1   34.84    5.71
  18  -2   1   33.79    5.66
  18   2   1   33.38    5.74
  18   2   1   28.19    5.06
  18  -2   2    8.77    3.16
  18  -2   2    6.18    3.05
  18   2   2    9.10    3.38
  18   2   2    5.47    3.23
  18   2   2    7.53    3.00
  18  -2   3    6.69    3.40
  18  -2   3    0.78    1.29
  18   2   3    5.27    1.67
  18   2   3    9.27    3.42
  18   2   3    3.89    2.37
  18  -2   4    8.95    2.45
  18   2   4   10.71    3.13
  18   2   4   12.44    3.34
  18   2   4    9.14    3.12
  18  -2   5   27.88    5.16
  18   2   5   31.07    5.66
  18  -2   5   22.78    4.90
  18   2   5   14.96    3.65
  18   2   5   21.42    4.81
  18  -2   6   10.45    3.57
  18  -2   6    6.06    2.45
  18   2   6    8.13    2.56
  18   2   6   11.25    3.27
  18   2   6    7.20    3.14
  18  -2   7    1.79    1.35
  18  -2   7    1.24    2.34
  18   2   7    2.79    1.32
  18   2   7    4.64    1.76
  18   2   7    1.09    1.35
  18  -2   8   -2.40    2.30
  18  -2   8   -0.11    1.30
  18   2   8   -0.97    1.75
  18   2   8   -0.84    2.27
  18  -2   9    1.69    1.93
  18  -2   9    0.33    1.72
  18   2   9   -0.87    2.37
  18   2   9   -1.12    2.75
  18  -2  10   11.25    2.94
  18  -2  10   10.21    2.46
  18   2  10   10.04    3.19
  18   2  11   12.43    3.53
  18  -2  11   21.11    4.84
  18  -2  11   21.47    4.57
  18   2  12   -0.66    1.74
  18  -2  12   -1.41    1.53
  18  -2  12   -1.98    2.40
  18   2  13    5.17    2.90
  18  -2  13    1.11    1.57
  18  -2  13    4.24    3.27
  18   2  14    8.78    3.50
  18  -2  14    1.59    1.06
  18  -3 -13    0.12    1.36
  18   3 -13    1.92    1.49
  18  -3 -12    3.43    1.49
  18   3 -12    7.24    2.70
  18  -3 -11    1.25    0.94
  18  -3 -11   -0.88    1.51
  18   3 -11    1.51    1.57
  18  -3 -10    0.23    1.54
  18  -3 -10    3.29    1.80
  18   3 -10    4.61    2.40
  18  -3  -9    1.03    1.71
  18  -3  -9    3.58    2.81
  18   3  -9   -0.23    1.27
  18  -3  -8    4.28    3.10
  18  -3  -8    2.13    1.79
  18   3  -8    0.63    1.71
  18  -3  -7    0.13    1.73
  18  -3  -7   -0.30    1.29
  18   3  -7   -0.16    1.12
  18  -3  -6   10.70    3.40
  18  -3  -6   17.10    4.22
  18   3  -6   18.79    4.08
  18  -3  -5   -0.38    1.47
  18  -3  -5    0.68    1.70
  18   3  -5    3.13    2.22
  18  -3  -4    4.82    1.85
  18  -3  -4    3.08    1.29
  18   3  -4    2.66    2.63
  18   3  -4    5.58    1.93
  18  -3  -3    0.64    1.66
  18  -3  -3    0.01    1.02
  18   3  -3    0.66    1.70
  18   3  -3    2.55    1.76
  18  -3  -2   -0.60    1.64
  18  -3  -2    0.43    2.14
  18   3  -2   -0.34    1.49
  18   3  -2    0.08    1.45
  18  -3  -1    0.47    1.18
  18  -3  -1   -0.96    2.14
  18   3  -1    0.03    1.44
  18   3  -1    1.93    1.97
  18  -3   0    3.22    2.47
  18  -3   0    0.89    1.47
  18   3   0    4.66    2.05
  18   3   0    1.14    1.48
  18  -3   1   -0.81    1.65
  18  -3   1   -0.78    1.64
  18   3   1    3.19    4.02
  18   3   1   -0.80    1.99
  18   3   1   -0.49    1.58
  18  -3   2    3.47    2.01
  18  -3   2   -0.50    1.94
  18   3   2    2.15    1.43
  18   3   2    1.68    2.42
  18   3   2    0.61    1.55
  18  -3   3   -0.51    1.44
  18  -3   3    0.35    1.31
  18   3   3   -0.48    2.15
  18   3   3    0.86    1.50
  18   3   3    2.00    2.41
  18   3   4    6.43    2.85
  18  -3   4    2.44    1.39
  18  -3   4    6.96    2.52
  18   3   4    6.08    3.03
  18   3   4    9.78    3.63
  18   3   5    1.77    2.11
  18  -3   5    2.51    1.83
  18  -3   5    0.44    1.41
  18   3   5    2.87    1.76
  18   3   5    5.63    3.43
  18   3   6   22.32    4.70
  18  -3   6   16.45    4.22
  18  -3   6   10.99    2.80
  18   3   6   20.68    4.76
  18   3   6   20.78    5.17
  18   3   7    0.83    1.88
  18  -3   7    3.08    2.49
  18  -3   7    0.43    2.73
  18   3   7    0.58    1.48
  18   3   8   -0.03    0.88
  18  -3   8   -0.84    2.38
  18  -3   8    0.29    1.13
  18   3   8   -0.30    1.71
  18   3   9    5.81    3.69
  18  -3   9    1.81    2.54
  18  -3   9    0.83    2.65
  18   3   9   -1.32    1.52
  18   3  10    3.20    1.98
  18  -3  10    4.20    2.12
  18  -3  10    1.18    1.53
  18   3  10   -0.03    1.48
  18   3  11    1.60    2.22
  18  -3  11    1.19    2.52
  18  -3  11    1.88    1.45
  18   3  12    9.62    2.99
  18  -3  12    9.53    3.38
  18  -3  12   12.56    4.34
  18   3  13    7.52    2.66
  18  -3  13    6.91    2.57
  18  -3  13    5.49    3.29
  18  -4 -11    4.33    2.79
  18  -4 -11   16.34    4.62
  18   4 -11   11.45    4.01
  18  -4 -10   11.52    3.72
  18  -4 -10    8.59    2.94
  18   4 -10   19.52    4.25
  18  -4  -9    5.97    2.65
  18  -4  -9    5.06    1.75
  18   4  -9    1.98    1.75
  18  -4  -8    0.77    1.67
  18  -4  -8    4.10    2.60
  18   4  -8    0.98    1.87
  18  -4  -7   15.94    4.25
  18  -4  -7   12.30    3.93
  18   4  -7   11.08    3.43
  18  -4  -6   27.47    5.11
  18  -4  -6   19.42    4.24
  18   4  -6   21.01    4.05
  18  -4  -5   35.87    6.46
  18  -4  -5   16.27    4.08
  18   4  -5   29.95    5.10
  18  -4  -4    1.17    1.86
  18  -4  -4   -1.32    1.40
  18   4  -4    0.31    1.15
  18  -4  -3    1.08    2.40
  18  -4  -3    1.09    1.75
  18   4  -3    1.32    1.37
  18  -4  -2    2.11    2.41
  18  -4  -2    2.76    2.47
  18   4  -2    1.45    2.44
  18   4  -2    1.04    1.40
  18  -4  -1   22.26    4.67
  18  -4  -1   22.37    4.45
  18   4  -1   27.56    5.62
  18   4  -1   21.78    4.70
  18  -4   0   22.95    4.49
  18  -4   0   26.43    4.66
  18   4   0   21.95    4.35
  18   4   0   22.99    4.80
  18   4   1   21.19    4.33
  18  -4   1   28.62    5.13
  18  -4   1   15.84    4.53
  18   4   1   26.56    4.97
  18   4   2    0.77    1.47
  18  -4   2    0.46    1.34
  18  -4   2    0.40    2.22
  18   4   2    0.24    1.57
  18   4   3    0.22    1.75
  18  -4   3   -0.60    1.84
  18  -4   3    0.47    1.71
  18   4   3    1.86    2.05
  18   4   4    0.13    1.80
  18  -4   4   -0.32    1.75
  18  -4   4    0.32    1.25
  18   4   4    0.79    1.67
  18   4   5   26.87    5.28
  18  -4   5   23.40    5.01
  18  -4   5   32.26    5.85
  18   4   5   22.49    5.04
  18   4   6   17.69    4.48
  18  -4   6   30.88    5.74
  18  -4   6   23.13    5.30
  18   4   6   25.75    5.13
  18   4   7   14.72    4.07
  18  -4   7   21.04    4.82
  18  -4   7   19.25    5.19
  18   4   7   14.25    3.88
  18   4   8    2.75    2.31
  18  -4   8    1.84    1.61
  18  -4   8    0.85    1.63
  18   4   8   -0.48    1.63
  18   4   9    3.62    2.04
  18  -4   9    2.64    2.56
  18  -4   9    3.64    1.88
  18   4   9    5.69    3.43
  18   4  10   10.40    3.87
  18  -4  10    9.83    3.73
  18  -4  10    6.47    3.62
  18   4  10   11.49    3.77
  18   4  11   12.53    3.46
  18  -4  11   16.36    4.06
  18  -4  11   12.67    3.47
  18  -5  -7   -1.95    2.89
  18  -5  -7   -1.34    1.33
  18   5  -7    0.13    1.92
  18  -5  -6    4.18    2.16
  18  -5  -6    4.02    2.44
  18   5  -6    2.87    1.86
  18  -5  -5   -0.93    1.80
  18  -5  -5    0.85    1.82
  18   5  -5   -0.60    2.40
  18  -5  -4    7.40    3.80
  18  -5  -4    2.57    1.96
  18   5  -4    6.10    2.77
  18  -5  -3    0.02    1.63
  18  -5  -3    0.63    1.03
  18   5  -3   -0.76    1.18
  18  -5  -2    0.20    1.52
  18  -5  -2    1.17    1.75
  18   5  -2    0.46    1.37
  18   5  -1    3.16    2.30
  18  -5  -1    5.81    2.88
  18  -5  -1    0.87    1.58
  18   5  -1    1.22    1.39
  18   5   0   -0.14    1.85
  18  -5   0    1.81    2.25
  18  -5   0    0.08    1.27
  18   5   0    1.06    3.10
  18   5   1    0.67    1.86
  18  -5   1    2.87    2.37
  18  -5   1    6.30    2.72
  18   5   1    6.84    3.16
  18   5   2    2.91    1.22
  18  -5   2   -0.65    1.01
  18  -5   2   -0.69    1.92
  18   5   2   -0.47    1.99
  18   5   3    1.32    2.14
  18  -5   3    0.91    1.10
  18  -5   3    0.95    1.99
  18   5   3    0.26    1.94
  18   5   4    4.88    1.82
  18  -5   4    2.16    1.02
  18   5   4    2.95    5.40
  18  -5   4    2.34    3.01
  18   5   5    0.89    2.46
  18   5   5    0.91    2.01
  18  -5   5    2.78    1.62
  18  -5   5   -2.14    2.59
  18   5   6    0.49    1.71
  18   5   6    3.92    2.59
  18  -5   6    4.70    2.26
  18  -5   6    6.18    2.08
  18   5   7    1.64    1.40
  18   5   7   -1.50    1.48
  18  -5   7    2.23    1.87
  18  -5   7   -2.23    1.91
  19   0 -12    0.72    1.50
  19   0 -11    0.91    1.93
  19   0 -10   -0.66    1.73
  19   0  -9   -1.20    1.17
  19   0  -8    1.62    2.36
  19   0  -7   -2.35    2.70
  19   0  -7    0.87    2.22
  19   0  -6    0.45    1.56
  19   0  -6    2.15    2.98
  19   0  -5    0.58    1.70
  19   0  -5    1.48    2.06
  19   0  -4    0.68    1.39
  19   0  -4   -1.37    2.18
  19   0  -3    0.64    1.57
  19   0  -3    2.26    2.24
  19   0  -2    2.54    1.67
  19   0  -2    0.21    1.64
  19   0  -1    1.35    1.60
  19   0  -1   -0.02    1.57
  19   0   0   -0.41    1.36
  19   0   0    0.01    1.03
  19   0   1    0.45    1.07
  19   0   1   -1.01    1.73
  19   0   2    0.66    2.24
  19   0   2   -0.41    1.84
  19   0   3   -0.69    1.53
  19   0   3   -1.27    1.35
  19   0   4   -1.59    1.45
  19   0   4    0.78    2.34
  19   0   5    0.81    2.01
  19   0   5    1.51    2.34
  19   0   6    0.91    1.10
  19   0   6   -0.67    1.36
  19   0   7   -1.43    1.88
  19   0   7   -0.98    1.54
  19   0   8   -1.21    1.80
  19   0   8   -0.35    1.57
  19   0   9    0.14    1.31
  19   0   9    1.24    1.12
  19   0  10   -0.64    0.95
  19   0  10   -0.05    1.45
  19   0  11    3.58    3.22
  19   0  11   -0.35    1.33
  19   0  12    0.90    2.04
  19  -1 -12    3.02    1.64
  19  -1 -11   16.74    4.27
  19  -1 -10   11.61    3.75
  19  -1  -9    5.64    2.55
  19   1  -9   15.49    5.07
  19  -1  -8    6.11    2.91
  19  -1  -8    2.13    2.88
  19   1  -8    3.26    1.87
  19  -1  -7   12.97    3.48
  19  -1  -7    7.06    2.64
  19   1  -7    3.92    2.72
  19  -1  -6    6.61    2.33
  19  -1  -6    4.73    2.51
  19  -1  -5   16.07    4.15
  19   1  -5   16.09    4.54
  19  -1  -5   11.36    3.26
  19   1  -5   16.55    4.62
  19  -1  -4    7.54    2.83
  19   1  -4   10.35    3.38
  19  -1  -4    3.37    2.20
  19   1  -4   11.26    3.25
  19   1  -3    3.35    1.26
  19  -1  -3    1.70    2.16
  19   1  -3    1.46    2.32
  19   1  -2   26.70    5.50
  19  -1  -2   22.59    4.99
  19   1  -2   25.05    5.61
  19  -1  -1   13.02    3.98
  19   1  -1   14.27    3.41
  19  -1  -1   15.48    4.49
  19   1  -1    8.44    3.04
  19  -1   0    3.27    1.28
  19   1   0    0.56    1.17
  19  -1   0    0.40    1.47
  19   1   0    2.77    3.02
  19  -1   1   15.49    3.87
  19   1   1   12.37    3.86
  19  -1   1   11.69    4.05
  19   1   1   10.63    3.44
  19  -1   2   35.07    5.89
  19  -1   2   34.77    5.98
  19   1   2   20.69    4.75
  19   1   2   25.59    5.22
  19  -1   3    5.05    3.30
  19   1   3    2.77    1.82
  19  -1   3    3.53    2.14
  19   1   3    5.54    3.29
  19  -1   4   14.74    3.50
  19   1   4   12.31    3.62
  19  -1   4    8.97    3.23
  19   1   4   14.74    3.94
  19  -1   5   14.88    3.94
  19   1   5   11.76    2.98
  19  -1   5   16.12    4.40
  19   1   5   12.00    3.85
  19  -1   6   10.95    3.17
  19   1   6    8.89    3.43
  19  -1   6   11.31    2.96
  19   1   6   11.52    3.58
  19  -1   7   12.96    3.50
  19  -1   7   16.20    4.59
  19   1   7   15.36    4.23
  19   1   7    8.08    2.87
  19  -1   8    3.36    2.34
  19  -1   8    4.72    2.85
  19   1   8    5.33    2.54
  19   1   8    7.69    2.99
  19  -1   9    3.09    1.70
  19  -1   9    4.10    2.56
  19   1   9    5.80    3.03
  19   1   9    9.47    3.01
  19  -1  10   20.28    4.32
  19  -1  10   20.44    4.54
  19   1  10   27.11    5.23
  19  -1  11   20.16    4.65
  19  -1  11   19.37    4.47
  19   1  11   13.94    3.92
  19  -1  12    0.52    1.13
  19  -1  12    2.99    2.25
  19   1  12   -0.35    1.51
  19  -2 -11    1.68    1.49
  19  -2 -10    3.50    2.10
  19  -2  -9    4.19    2.95
  19  -2  -9    0.92    2.14
  19  -2  -8    3.21    2.29
  19  -2  -8    1.68    1.01
  19  -2  -7    7.23    3.11
  19  -2  -7    8.77    3.51
  19  -2  -6    2.86    1.76
  19  -2  -6    6.89    3.05
  19  -2  -5    8.97    2.83
  19  -2  -5   13.80    4.13
  19   2  -5    9.71    3.44
  19  -2  -4    1.84    1.17
  19   2  -4    1.67    1.70
  19  -2  -4    5.82    2.43
  19   2  -4    2.74    2.31
  19  -2  -3    0.22    2.04
  19   2  -3    9.46    4.03
  19  -2  -3    2.88    2.22
  19   2  -3   10.35    4.02
  19   2  -3    1.61    0.90
  19  -2  -2    1.79    1.33
  19   2  -2    2.04    0.91
  19  -2  -2    8.14    3.28
  19   2  -2    3.19    2.13
  19   2  -2    3.22    2.17
  19  -2  -1    3.95    1.54
  19   2  -1    2.11    2.73
  19  -2  -1    1.78    1.98
  19   2  -1    3.64    1.29
  19   2  -1    0.88    1.18
  19  -2   0    2.32    2.64
  19  -2   0   -0.01    1.39
  19   2   0    5.02    2.93
  19   2   0    1.39    2.08
  19   2   0    4.43    2.68
  19  -2   1    8.04    3.68
  19  -2   1    4.66    2.92
  19   2   1    7.26    2.98
  19   2   1    4.01    2.08
  19   2   1    4.96    2.01
  19  -2   2    3.83    3.21
  19  -2   2    2.42    1.82
  19   2   2    2.44    1.38
  19   2   2    1.28    0.80
  19   2   2    3.92    2.37
  19  -2   3    4.75    1.73
  19  -2   3    0.34    1.77
  19   2   3    4.57    2.48
  19   2   3    2.14    2.21
  19   2   3    6.16    3.23
  19  -2   4    0.04    1.21
  19  -2   4    4.71    2.73
  19   2   4    1.94    1.99
  19   2   4    3.06    2.97
  19   2   4   -1.17    1.54
  19  -2   5    9.68    3.24
  19  -2   5    9.83    3.41
  19   2   5    5.13    3.21
  19   2   5    7.62    2.34
  19  -2   6   10.79    3.65
  19  -2   6    5.06    2.58
  19   2   6   10.35    4.31
  19   2   6    7.73    2.99
  19   2   6    7.40    3.34
  19  -2   7    1.70    2.15
  19  -2   7    1.19    2.06
  19   2   7    0.08    1.85
  19   2   7   -0.95    1.86
  19   2   7    5.37    2.59
  19  -2   8    0.63    1.39
  19  -2   8    5.14    2.96
  19   2   8   -0.26    1.57
  19   2   8    0.98    1.78
  19   2   8    0.34    1.16
  19  -2   9    0.51    1.18
  19  -2   9    0.83    2.23
  19   2   9    4.27    2.86
  19   2   9   -1.00    1.84
  19  -2  10    5.04    2.86
  19  -2  10    0.38    1.71
  19   2  10    3.28    2.26
  19  -2  11    2.68    1.73
  19   2  11    2.65    1.68
  19  -3  -9    5.61    2.49
  19  -3  -9    2.00    2.93
  19   3  -9    8.92    3.37
  19  -3  -8   13.79    4.27
  19  -3  -8   12.76    4.00
  19   3  -8   10.48    3.41
  19  -3  -7    1.84    2.14
  19  -3  -7    2.38    1.44
  19   3  -7    2.53    2.06
  19  -3  -6    0.94    1.56
  19  -3  -6    4.51    2.29
  19   3  -6    0.77    1.26
  19  -3  -5    2.07    1.21
  19  -3  -5    6.64    3.28
  19   3  -5    5.67    2.21
  19  -3  -4   -2.75    1.79
  19  -3  -4    3.44    2.63
  19   3  -4    0.57    1.55
  19  -3  -3    0.36    0.97
  19  -3  -3    1.59    2.06
  19   3  -3    2.38    1.90
  19   3  -3    3.83    2.78
  19  -3  -2    9.15    3.37
  19  -3  -2    3.51    1.57
  19   3  -2    2.60    2.57
  19   3  -2    9.61    3.68
  19  -3  -1    2.90    2.33
  19  -3  -1    5.32    2.97
  19   3  -1    0.47    1.54
  19   3  -1    3.73    1.82
  19  -3   0   -0.80    1.43
  19  -3   0   -0.62    1.36
  19   3   0    0.86    1.73
  19   3   0    0.60    1.66
  19  -3   1    3.63    1.97
  19  -3   1    0.35    1.93
  19   3   1    1.31    2.75
  19   3   1    0.97    1.40
  19  -3   2    7.26    2.86
  19  -3   2    5.19    2.37
  19   3   2    6.98    3.16
  19   3   2    6.79    2.82
  19  -3   3    2.96    2.79
  19  -3   3    2.90    1.75
  19   3   3    4.50    3.81
  19   3   3    4.37    2.58
  19   3   3    1.51    1.58
  19  -3   4   -0.18    1.58
  19  -3   4    1.87    2.72
  19   3   4    0.37    1.68
  19   3   4   -0.54    1.45
  19   3   4    1.21    1.16
  19  -3   5    4.64    2.34
  19  -3   5    2.91    2.02
  19   3   5    3.63    2.65
  19   3   5    8.23    3.71
  19   3   5    6.56    2.77
  19  -3   6    3.73    2.37
  19  -3   6    3.24    1.98
  19   3   6    5.53    3.13
  19   3   6    4.06    2.18
  19   3   6    1.31    0.91
  19  -3   7    4.90    3.50
  19  -3   7    7.39    2.86
  19   3   7    5.72    2.69
  19   3   7    1.40    1.65
  19   3   7    2.69    1.86
  19   3   8   11.08    3.80
  19  -3   8   15.95    4.35
  19  -3   8   14.65    4.99
  19   3   8    6.13    2.97
  19   3   8    8.25    3.45
  19   3   9    4.74    2.68
  19  -3   9    5.83    2.39
  19  -3   9    7.86    3.65
  19   3   9    3.11    3.02
  19  -4  -6    0.75    0.86
  19  -4  -6    2.09    1.56
  19   4  -6    0.72    1.13
  19  -4  -5   -2.66    2.13
  19  -4  -5    1.10    1.35
  19   4  -5    1.45    1.66
  19  -4  -4   -0.37    1.57
  19  -4  -4    2.53    2.92
  19   4  -4   -0.89    1.64
  19  -4  -3    1.31    1.49
  19  -4  -3    2.81    2.07
  19   4  -3    3.05    2.11
  19  -4  -2    1.33    2.33
  19  -4  -2    0.94    0.94
  19   4  -2    3.01    1.57
  19  -4  -1    2.44    2.50
  19  -4  -1   -1.36    1.70
  19   4  -1   -1.50    1.24
  19   4  -1    0.02    1.52
  19  -4   0    3.62    2.31
  19  -4   0    1.09    1.42
  19   4   0   -0.92    1.71
  19   4   0   -1.09    2.13
  19  -4   1    0.29    1.79
  19  -4   1   -0.88    0.89
  19   4   1   -0.21    2.00
  19   4   1    0.15    1.52
  19  -4   2    1.87    1.63
  19  -4   2    2.81    1.47
  19   4   2    3.10    1.67
  19   4   2    1.30    1.25
  19   4   3    3.42    2.91
  19  -4   3    3.80    1.97
  19  -4   3    3.75    1.70
  19   4   3    4.23    2.48
  19   4   4    3.70    1.81
  19  -4   4    4.86    2.18
  19  -4   4    1.29    1.27
  19   4   4    0.29    1.35
  19   4   5    0.35    1.81
  19  -4   5    1.02    2.40
  19  -4   5    3.92    2.57
  19   4   5    3.43    2.87
  19   4   6    3.80    2.03
  19  -4   6   -1.85    1.04
  19  -4   6    0.55    2.23
  19   4   6    2.88    2.26
  20   0  -8   70.34    8.75
  20   0  -7    0.36    1.97
  20   0  -6   -1.83    2.76
  20   0  -6   -1.40    1.68
  20   0  -5   15.00    4.30
  20   0  -5   14.38    4.02
  20   0  -4   71.56    9.22
  20   0  -4   85.66    9.77
  20   0  -3    3.76    3.22
  20   0  -3    1.86    1.66
  20   0  -2   91.21    9.98
  20   0  -2   84.22    9.62
  20   0  -1    5.82    3.16
  20   0  -1   -0.87    1.48
  20   0   0   -1.50    1.26
  20   0   0   -0.65    2.30
  20   0   1    3.92    2.10
  20   0   1    3.92    1.74
  20   0   2   93.02    9.89
  20   0   2   67.68    8.35
  20   0   3   -1.65    1.33
  20   0   3    0.56    0.99
  20   0   4   83.61    9.15
  20   0   4   86.88    9.99
  20   0   5   28.75    5.74
  20   0   5   19.15    4.88
  20   0   6    0.20    1.42
  20   0   6   -2.00    2.17
  20   0   7    0.39    1.62
  20   0   7    1.58    1.77
  20   0   8   61.56    8.24
  20   0   8   67.77    8.77
  20  -1  -7    0.89    1.58
  20  -1  -7    0.69    1.06
  20   1  -7    3.38    3.50
  20  -1  -6   -1.85    2.68
  20  -1  -6    0.55    2.01
  20   1  -6    0.12    1.46
  20  -1  -5    2.41    1.41
  20   1  -5    6.23    4.26
  20  -1  -5    5.68    2.64
  20   1  -5    4.02    3.00
  20  -1  -4    1.69    2.29
  20   1  -4    1.96    2.17
  20  -1  -4   -1.23    1.84
  20   1  -4    0.97    1.88
  20  -1  -3    8.79    3.03
  20   1  -3   10.12    3.20
  20  -1  -3    5.92    3.11
  20   1  -3    2.60    2.21
  20  -1  -2    1.84    1.94
  20   1  -2    2.80    2.06
  20  -1  -2    3.12    1.65
  20   1  -2   -1.07    1.93
  20  -1  -1    2.40    2.75
  20   1  -1    3.03    2.38
  20  -1  -1    3.50    2.41
  20   1  -1    2.31    2.33
  20  -1   0   -0.51    1.99
  20   1   0    0.02    1.53
  20  -1   0    0.10    1.48
  20   1   0    1.60    1.65
  20  -1   1    1.92    2.14
  20   1   1    3.46    2.50
  20  -1   1    1.68    1.68
  20   1   1    5.85    3.96
  20  -1   2    5.16    2.38
  20   1   2    1.01    0.97
  20  -1   2    4.93    3.37
  20   1   2    1.73    2.20
  20  -1   3    9.10    3.29
  20   1   3   10.14    3.99
  20  -1   3   12.73    3.59
  20   1   3    6.84    2.46
  20  -1   4   -1.95    2.03
  20   1   4   -0.14    1.36
  20  -1   4   -2.27    2.39
  20   1   4    0.89    2.18
  20  -1   5    7.38    3.66
  20   1   5    0.59    1.56
  20  -1   5    4.84    2.40
  20   1   5    3.77    1.68
  20  -1   6    2.38    1.94
  20   1   6    1.26    1.98
  20  -1   6   -0.16    1.41
  20   1   6   -0.17    2.44
  20  -1   7   -0.39    1.43
  20   1   7    0.79    2.38
  20  -1   7    0.61    2.09
  20   1   7    1.91    2.98
  20  -2  -6    8.13    2.81
  20  -2  -6    4.63    2.71
  20  -2  -5    3.78    2.74
  20  -2  -5   -0.54    1.76
  20  -2  -4   10.83    3.78
  20  -2  -4    5.77    2.73
  20  -2  -3   -1.34    1.22
  20   2  -3    0.47    2.55
  20  -2  -3    1.40    2.22
  20  -2  -2   27.11    5.30
  20  -2  -2   33.86    6.36
  20   2  -2   26.42    5.15
  20   2  -2   31.37    5.32
  20  -2  -1    2.11    1.84
  20   2  -1    0.39    1.88
  20  -2  -1    1.41    1.61
  20   2  -1    0.24    1.81
  20   2  -1    1.39    2.63
  20  -2   0   -0.15    2.35
  20   2   0    0.15    2.08
  20  -2   0    2.27    1.69
  20   2   0   -2.23    2.65
  20   2   0    1.11    2.92
  20  -2   1   -1.04    1.15
  20   2   1   -0.66    1.26
  20  -2   1   -0.08    1.59
  20   2   1    1.59    1.19
  20   2   1   -0.04    1.48
  20  -2   2   40.33    6.72
  20  -2   2   43.66    7.45
  20   2   2   16.21    4.12
  20   2   2   32.67    6.33
  20   2   2   23.63    5.05
  20  -2   3    4.26    2.57
  20  -2   3    0.81    2.00
  20   2   3    0.18    1.23
  20   2   3    2.24    3.27
  20   2   3    5.90    2.90
  20  -2   4    7.57    3.22
  20  -2   4    7.76    3.40
  20   2   4   10.79    3.91
  20   2   4    7.20    2.62
  20   2   4    8.48    3.89
  20  -2   5    1.58    2.01
  20  -2   5    0.76    1.52
  20   2   5    1.63    2.11
  20   2   5    2.43    1.90
  20   2   5   -2.14    1.73
  20  -2   6   -0.53    1.10
  20   2   6    3.68    2.23
  20   2   6    1.52    1.56
  20   2   6    3.13    2.05
  20  -3  -1   -1.08    1.86
  20  -3  -1    1.39    0.92
  20   3  -1   -0.27    2.17
  20   3  -1   -0.30    1.08
  20  -3   0    0.11    1.24
  20  -3   0    1.07    2.68
  20   3   0   -0.34    1.56
  20   3   0   -1.66    2.39
  20  -3   1    0.34    1.67
  20  -3   1    2.72    2.14
  20   3   1    1.53    2.40
  20   3   1    0.16    1.71
   0   0   0    0.00    0.00
TITL 004_280K_SulfamerazineF1_ in Pna2(1)
REM Pna2(1) (#33, found as Pbn2(1) in ba-c setting)
CELL 0.68890  14.497256   8.211823  21.965848  90.0000  90.0000  90.0000
ZERR    8.00   0.000158   0.000097   0.000349   0.0000   0.0000   0.0000
LATT -1
SYMM -x,-y, z+1/2
SYMM  x+1/2,-y+1/2, z
SYMM -x+1/2, y+1/2, z+1/2
SFAC C H N O S
UNIT 88.00 96.00 32.00 16.00 8.00
TREF
HKLF 4
END
_computing_structure_solution     'SHELXT 2014/5 (Sheldrick, 2014)'
;
_shelx_hkl_checksum              52781
loop_
_space_group_symop_operation_xyz
'x, y, z'
'-x, -y, z+1/2'
'x+1/2, -y+1/2, z'
'-x+1/2, y+1/2, z+1/2'
loop_
_atom_site_label
_atom_site_type_symbol
_atom_site_fract_x
_atom_site_fract_y
_atom_site_fract_z
_atom_site_U_iso_or_equiv
_atom_site_adp_type
_atom_site_occupancy
_atom_site_site_symmetry_order
_atom_site_calc_flag
_atom_site_refinement_flags_posn
_atom_site_refinement_flags_adp
_atom_site_refinement_flags_occupancy
_atom_site_disorder_assembly
_atom_site_disorder_group
S1 S 0.64698(6) 0.49598(10) 0.34456(5) 0.0390(2) Uani 1 1 d . . . . .
S2 S 0.57777(6) 0.49473(10) 0.65235(5) 0.0383(2) Uani 1 1 d . . . . .
O1 O 0.6903(2) 0.3718(3) 0.30914(14) 0.0509(7) Uani 1 1 d . . . . .
O2 O 0.55000(18) 0.5230(3) 0.33793(15) 0.0502(7) Uani 1 1 d . . . . .
O3 O 0.67486(18) 0.4669(3) 0.65858(14) 0.0490(7) Uani 1 1 d . . . . .
O4 O 0.53570(19) 0.6220(3) 0.68660(14) 0.0505(7) Uani 1 1 d . . . . .
N1 N 0.8435(3) 1.1163(5) 0.3121(2) 0.0585(10) Uani 1 1 d . . . . .
N2 N 0.6561(2) 0.4495(4) 0.41731(17) 0.0441(8) Uani 1 1 d . . . . .
N3 N 0.8154(2) 0.4102(4) 0.41773(16) 0.0438(7) Uani 1 1 d . . . . .
N4 N 0.7284(3) 0.4280(5) 0.50920(17) 0.0608(10) Uani 1 1 d . . . . .
N5 N 0.3805(3) -0.1201(4) 0.6961(2) 0.0747(13) Uani 1 1 d . . . . .
H5A H 0.3243 -0.1188 0.7086 0.097 Uiso 1 1 calc R U . . .
H5B H 0.4079 -0.2114 0.6897 0.097 Uiso 1 1 calc R U . . .
N6 N 0.5683(2) 0.5356(5) 0.57912(16) 0.0466(8) Uani 1 1 d . . . . .
N7 N 0.4101(2) 0.5846(4) 0.57946(17) 0.0469(8) Uani 1 1 d . . . . .
N8 N 0.4968(2) 0.5666(5) 0.48753(18) 0.0586(9) Uani 1 1 d . . . . .
C1 C 0.7059(2) 0.6777(4) 0.33421(19) 0.0352(7) Uani 1 1 d . . . . .
C2 C 0.7954(2) 0.6796(4) 0.31097(17) 0.0380(8) Uani 1 1 d . . . . .
H2 H 0.8244 0.5825 0.3006 0.049 Uiso 1 1 calc R U . . .
C3 C 0.8406(2) 0.8255(4) 0.30344(19) 0.0378(8) Uani 1 1 d . . . . .
H3 H 0.9003 0.8262 0.2879 0.049 Uiso 1 1 calc R U . . .
C4 C 0.7980(3) 0.9727(4) 0.31891(18) 0.0398(8) Uani 1 1 d . . . . .
C5 C 0.7078(3) 0.9687(4) 0.3428(2) 0.0449(9) Uani 1 1 d . . . . .
H5 H 0.6787 1.0653 0.3536 0.058 Uiso 1 1 calc R U . . .
C6 C 0.6626(2) 0.8231(4) 0.3500(2) 0.0444(9) Uani 1 1 d . . . . .
H6 H 0.6029 0.8215 0.3655 0.058 Uiso 1 1 calc R U . . .
C7 C 0.7380(2) 0.4290(5) 0.44927(18) 0.0408(8) Uani 1 1 d . . . . .
C8 C 0.8064(3) 0.4020(9) 0.5406(3) 0.0821(18) Uani 1 1 d . . . . .
H8 H 0.8035 0.3972 0.5828 0.107 Uiso 1 1 calc R U . . .
C9 C 0.8901(3) 0.3822(8) 0.5126(3) 0.0780(16) Uani 1 1 d . . . . .
H9 H 0.9435 0.3652 0.5352 0.101 Uiso 1 1 calc R U . . .
C10 C 0.8926(3) 0.3884(5) 0.4502(2) 0.0544(11) Uani 1 1 d . . . . .
C11 C 0.9800(3) 0.3706(7) 0.4149(3) 0.0740(15) Uani 1 1 d . . . . .
H11A H 0.9773 0.2731 0.3908 0.096 Uiso 1 1 calc R U . . .
H11B H 1.0312 0.3642 0.4425 0.096 Uiso 1 1 calc R U . . .
H11C H 0.9877 0.4631 0.3887 0.096 Uiso 1 1 calc R U . . .
C12 C 0.5193(2) 0.3140(4) 0.66564(17) 0.0364(7) Uani 1 1 d . . . . .
C13 C 0.5634(3) 0.1671(4) 0.6555(2) 0.0492(10) Uani 1 1 d . . . . .
H13 H 0.6239 0.1658 0.6415 0.064 Uiso 1 1 calc R U . . .
C14 C 0.5180(3) 0.0236(5) 0.6660(2) 0.0559(12) Uani 1 1 d . . . . .
H14 H 0.5484 -0.0747 0.6596 0.073 Uiso 1 1 calc R U . . .
C15 C 0.4264(3) 0.0232(4) 0.6864(2) 0.0477(10) Uani 1 1 d . . . . .
C16 C 0.3828(3) 0.1721(4) 0.69659(19) 0.0432(9) Uani 1 1 d . . . . .
H16 H 0.3221 0.1738 0.7104 0.056 Uiso 1 1 calc R U . . .
C17 C 0.4283(2) 0.3164(4) 0.68648(19) 0.0385(8) Uani 1 1 d . . . . .
H17 H 0.3987 0.4151 0.6935 0.050 Uiso 1 1 calc R U . . .
C18 C 0.4868(3) 0.5638(5) 0.54796(19) 0.0421(8) Uani 1 1 d . . . . .
C19 C 0.4192(3) 0.5986(9) 0.4569(2) 0.0823(18) Uani 1 1 d . . . . .
H19 H 0.4215 0.6025 0.4146 0.107 Uiso 1 1 calc R U . . .
C20 C 0.3370(3) 0.6256(8) 0.4851(3) 0.0812(17) Uani 1 1 d . . . . .
H20 H 0.2846 0.6514 0.4625 0.106 Uiso 1 1 calc R U . . .
C21 C 0.3329(3) 0.6142(6) 0.5471(2) 0.0557(11) Uani 1 1 d . . . . .
C22 C 0.2463(3) 0.6339(8) 0.5833(3) 0.0820(16) Uani 1 1 d . . . . .
H22A H 0.2382 0.7465 0.5937 0.107 Uiso 1 1 calc R U . . .
H22B H 0.2505 0.5702 0.6198 0.107 Uiso 1 1 calc R U . . .
H22C H 0.1947 0.5975 0.5595 0.107 Uiso 1 1 calc R U . . .
H1N1 H 0.892(4) 1.122(8) 0.289(3) 0.11(2) Uiso 1 1 d . . . . .
H2N1 H 0.812(4) 1.202(7) 0.315(3) 0.086(18) Uiso 1 1 d . . . . .
H1N2 H 0.612(3) 0.483(5) 0.439(2) 0.048(13) Uiso 1 1 d . . . . .
H1N6 H 0.619(4) 0.505(6) 0.562(3) 0.081(18) Uiso 1 1 d . . . . .
loop_
_atom_site_aniso_label
_atom_site_aniso_U_11
_atom_site_aniso_U_22
_atom_site_aniso_U_33
_atom_site_aniso_U_23
_atom_site_aniso_U_13
_atom_site_aniso_U_12
S1 0.0364(4) 0.0415(4) 0.0391(5) 0.0031(4) -0.0015(4) -0.0025(3)
S2 0.0355(4) 0.0416(4) 0.0378(5) 0.0040(4) -0.0016(4) -0.0026(3)
O1 0.0605(17) 0.0426(13) 0.0497(18) -0.0051(13) 0.0026(14) -0.0026(12)
O2 0.0379(13) 0.0637(16) 0.0490(18) 0.0078(15) -0.0084(14) -0.0059(12)
O3 0.0370(13) 0.0643(16) 0.0457(17) 0.0091(14) -0.0075(13) -0.0050(11)
O4 0.0567(17) 0.0406(13) 0.0541(18) -0.0053(12) -0.0002(14) -0.0005(12)
N1 0.055(2) 0.0427(18) 0.078(3) -0.0106(19) 0.018(2) -0.0074(16)
N2 0.0334(15) 0.0563(19) 0.043(2) 0.0110(16) -0.0007(15) 0.0020(13)
N3 0.0370(15) 0.0476(16) 0.047(2) 0.0051(15) 0.0020(14) 0.0035(13)
N4 0.0441(19) 0.096(3) 0.042(2) 0.009(2) -0.0024(16) 0.0155(19)
N5 0.066(2) 0.0432(18) 0.114(4) -0.005(2) 0.021(3) -0.0105(17)
N6 0.0336(15) 0.069(2) 0.037(2) 0.0137(17) 0.0025(14) 0.0019(15)
N7 0.0383(16) 0.0526(18) 0.050(2) 0.0023(16) 0.0021(14) 0.0050(13)
N8 0.0431(18) 0.090(3) 0.043(2) 0.0052(19) -0.0023(16) 0.0153(18)
C1 0.0347(16) 0.0371(15) 0.0337(19) 0.0017(14) 0.0025(15) 0.0021(12)
C2 0.0365(17) 0.0420(17) 0.036(2) -0.0018(15) 0.0012(15) 0.0059(13)
C3 0.0329(17) 0.0464(19) 0.034(2) -0.0021(16) 0.0050(15) 0.0005(13)
C4 0.0392(18) 0.0430(18) 0.037(2) -0.0033(14) 0.0011(15) -0.0025(13)
C5 0.0442(19) 0.0404(17) 0.050(2) -0.0049(18) 0.007(2) 0.0030(14)
C6 0.0359(16) 0.0459(18) 0.052(2) -0.0017(18) 0.0088(17) 0.0033(13)
C7 0.0365(18) 0.0449(18) 0.041(2) 0.0066(16) -0.0007(16) 0.0023(14)
C8 0.056(3) 0.137(5) 0.053(3) 0.002(3) -0.008(2) 0.026(3)
C9 0.044(2) 0.124(4) 0.066(4) -0.001(3) -0.014(3) 0.022(3)
C10 0.040(2) 0.058(2) 0.065(3) -0.001(2) 0.000(2) 0.0077(17)
C11 0.041(2) 0.095(4) 0.085(4) -0.004(3) 0.008(2) 0.011(2)
C12 0.0350(16) 0.0374(15) 0.037(2) 0.0005(14) 0.0017(15) 0.0004(12)
C13 0.0378(19) 0.0441(19) 0.066(3) -0.002(2) 0.009(2) 0.0051(14)
C14 0.049(2) 0.0376(18) 0.082(4) -0.0003(19) 0.010(2) 0.0049(15)
C15 0.052(2) 0.0405(18) 0.051(3) -0.0018(16) 0.0046(19) -0.0033(15)
C16 0.0384(18) 0.0469(19) 0.044(2) -0.0068(16) 0.0055(16) -0.0046(14)
C17 0.0373(18) 0.0378(17) 0.040(2) -0.0010(15) 0.0036(16) 0.0022(13)
C18 0.0370(18) 0.0461(18) 0.043(2) 0.0065(17) -0.0001(16) 0.0017(14)
C19 0.057(3) 0.147(6) 0.042(3) 0.006(3) -0.009(2) 0.029(3)
C20 0.049(2) 0.131(5) 0.063(4) -0.004(3) -0.015(3) 0.031(3)
C21 0.040(2) 0.065(3) 0.062(3) -0.001(2) -0.002(2) 0.0127(18)
C22 0.042(2) 0.106(4) 0.098(4) -0.002(4) 0.009(3) 0.015(3)
loop_
_atom_type_symbol
_atom_type_description
_atom_type_scat_dispersion_real
_atom_type_scat_dispersion_imag
_atom_type_scat_source
C C 0.0033 0.0016 'International Tables Vol C Tables 4.2.6.8 and 6.1.1.4'
H H 0.0000 0.0000 'International Tables Vol C Tables 4.2.6.8 and 6.1.1.4'
N N 0.0061 0.0033 'International Tables Vol C Tables 4.2.6.8 and 6.1.1.4'
O O 0.0106 0.0060 'International Tables Vol C Tables 4.2.6.8 and 6.1.1.4'
S S 0.1246 0.1234 'International Tables Vol C Tables 4.2.6.8 and 6.1.1.4'
loop_
_geom_angle_atom_site_label_1
_geom_angle_atom_site_label_2
_geom_angle_atom_site_label_3
_geom_angle
_geom_angle_site_symmetry_1
_geom_angle_site_symmetry_3
O1 S1 O2 119.18(18) . .
O1 S1 N2 109.13(19) . .
O2 S1 N2 102.32(18) . .
O1 S1 C1 109.03(18) . .
O2 S1 C1 109.72(16) . .
N2 S1 C1 106.66(19) . .
O4 S2 O3 119.15(19) . .
O4 S2 N6 109.28(19) . .
O3 S2 N6 101.99(18) . .
O4 S2 C12 109.25(18) . .
O3 S2 C12 109.14(17) . .
N6 S2 C12 107.30(19) . .
C4 N1 H1N1 120(4) . .
C4 N1 H2N1 117(4) . .
H1N1 N1 H2N1 116(6) . .
C7 N2 S1 125.9(3) . .
C7 N2 H1N2 114(3) . .
S1 N2 H1N2 114(3) . .
C7 N3 C10 116.3(4) . .
C7 N4 C8 115.1(4) . .
C15 N5 H5A 120.0 . .
C15 N5 H5B 120.0 . .
H5A N5 H5B 120.0 . .
C18 N6 S2 126.0(3) . .
C18 N6 H1N6 124(4) . .
S2 N6 H1N6 107(4) . .
C18 N7 C21 116.5(4) . .
C18 N8 C19 114.4(4) . .
C2 C1 C6 120.1(3) . .
C2 C1 S1 121.1(3) . .
C6 C1 S1 118.8(3) . .
C3 C2 C1 119.8(3) . .
C3 C2 H2 120.1 . .
C1 C2 H2 120.1 . .
C2 C3 C4 120.8(3) . .
C2 C3 H3 119.6 . .
C4 C3 H3 119.6 . .
N1 C4 C3 120.6(4) . .
N1 C4 C5 120.8(3) . .
C3 C4 C5 118.7(3) . .
C6 C5 C4 120.4(3) . .
C6 C5 H5 119.8 . .
C4 C5 H5 119.8 . .
C5 C6 C1 120.1(3) . .
C5 C6 H6 119.9 . .
C1 C6 H6 119.9 . .
N4 C7 N3 127.3(4) . .
N4 C7 N2 114.4(4) . .
N3 C7 N2 118.2(3) . .
N4 C8 C9 122.4(5) . .
N4 C8 H8 118.8 . .
C9 C8 H8 118.8 . .
C8 C9 C10 117.9(5) . .
C8 C9 H9 121.1 . .
C10 C9 H9 121.1 . .
N3 C10 C9 121.0(4) . .
N3 C10 C11 116.4(4) . .
C9 C10 C11 122.6(4) . .
C10 C11 H11A 109.5 . .
C10 C11 H11B 109.5 . .
H11A C11 H11B 109.5 . .
C10 C11 H11C 109.5 . .
H11A C11 H11C 109.5 . .
H11B C11 H11C 109.5 . .
C13 C12 C17 120.1(3) . .
C13 C12 S2 119.6(3) . .
C17 C12 S2 120.3(3) . .
C14 C13 C12 120.1(3) . .
C14 C13 H13 119.9 . .
C12 C13 H13 119.9 . .
C13 C14 C15 120.7(3) . .
C13 C14 H14 119.6 . .
C15 C14 H14 119.6 . .
N5 C15 C16 120.6(4) . .
N5 C15 C14 120.8(4) . .
C16 C15 C14 118.6(3) . .
C17 C16 C15 120.8(3) . .
C17 C16 H16 119.6 . .
C15 C16 H16 119.6 . .
C16 C17 C12 119.6(3) . .
C16 C17 H17 120.2 . .
C12 C17 H17 120.2 . .
N7 C18 N8 127.5(4) . .
N7 C18 N6 118.8(4) . .
N8 C18 N6 113.7(3) . .
N8 C19 C20 122.8(5) . .
N8 C19 H19 118.6 . .
C20 C19 H19 118.6 . .
C19 C20 C21 118.6(5) . .
C19 C20 H20 120.7 . .
C21 C20 H20 120.7 . .
N7 C21 C20 120.2(4) . .
N7 C21 C22 115.9(5) . .
C20 C21 C22 123.9(5) . .
C21 C22 H22A 109.5 . .
C21 C22 H22B 109.5 . .
H22A C22 H22B 109.5 . .
C21 C22 H22C 109.5 . .
H22A C22 H22C 109.5 . .
H22B C22 H22C 109.5 . .
loop_
_geom_bond_atom_site_label_1
_geom_bond_atom_site_label_2
_geom_bond_distance
_geom_bond_site_symmetry_2
S1 O1 1.428(3) .
S1 O2 1.431(3) .
S1 N2 1.648(4) .
S1 C1 1.735(3) .
S2 O4 1.425(3) .
S2 O3 1.432(3) .
S2 N6 1.649(4) .
S2 C12 1.734(3) .
N1 C4 1.360(5) .
N1 H1N1 0.87(7) .
N1 H2N1 0.84(6) .
N2 C7 1.390(5) .
N2 H1N2 0.85(5) .
N3 C7 1.328(4) .
N3 C10 1.340(5) .
N4 C7 1.324(5) .
N4 C8 1.340(6) .
N5 C15 1.368(5) .
N5 H5A 0.8600 .
N5 H5B 0.8600 .
N6 C18 1.385(5) .
N6 H1N6 0.86(6) .
N7 C18 1.321(5) .
N7 C21 1.347(5) .
N8 C18 1.335(5) .
N8 C19 1.336(6) .
C1 C2 1.394(5) .
C1 C6 1.394(5) .
C2 C3 1.375(5) .
C2 H2 0.9300 .
C3 C4 1.400(5) .
C3 H3 0.9300 .
C4 C5 1.410(5) .
C5 C6 1.373(5) .
C5 H5 0.9300 .
C6 H6 0.9300 .
C8 C9 1.370(7) .
C8 H8 0.9300 .
C9 C10 1.371(7) .
C9 H9 0.9300 .
C10 C11 1.493(6) .
C11 H11A 0.9600 .
C11 H11B 0.9600 .
C11 H11C 0.9600 .
C12 C13 1.383(5) .
C12 C17 1.397(5) .
C13 C14 1.369(5) .
C13 H13 0.9300 .
C14 C15 1.402(6) .
C14 H14 0.9300 .
C15 C16 1.394(5) .
C16 C17 1.374(5) .
C16 H16 0.9300 .
C17 H17 0.9300 .
C19 C20 1.361(7) .
C19 H19 0.9300 .
C20 C21 1.368(7) .
C20 H20 0.9300 .
C21 C22 1.494(6) .
C22 H22A 0.9600 .
C22 H22B 0.9600 .
C22 H22C 0.9600 .
loop_
_geom_hbond_atom_site_label_D
_geom_hbond_atom_site_label_H
_geom_hbond_atom_site_label_A
_geom_hbond_distance_DH
_geom_hbond_distance_HA
_geom_hbond_distance_DA
_geom_hbond_angle_DHA
_geom_hbond_site_symmetry_A
N5 H5B O4 0.86 2.30 3.097(5) 153.4 1_545
C19 H19 O2 0.93 2.60 3.288(7) 131.7 .
N1 H1N1 O4 0.87(7) 2.48(7) 3.266(5) 151(6) 4_654
N1 H2N1 O1 0.84(6) 2.26(6) 3.056(5) 160(5) 1_565
N2 H1N2 N8 0.85(5) 2.10(5) 2.939(5) 177(5) .
N6 H1N6 N4 0.86(6) 2.07(6) 2.921(5) 171(6) .
loop_
_geom_torsion_atom_site_label_1
_geom_torsion_atom_site_label_2
_geom_torsion_atom_site_label_3
_geom_torsion_atom_site_label_4
_geom_torsion
_geom_torsion_site_symmetry_1
_geom_torsion_site_symmetry_2
_geom_torsion_site_symmetry_3
_geom_torsion_site_symmetry_4
O1 S1 N2 C7 60.3(4) . . . .
O2 S1 N2 C7 -172.6(3) . . . .
C1 S1 N2 C7 -57.4(4) . . . .
O4 S2 N6 C18 -56.5(4) . . . .
O3 S2 N6 C18 176.5(4) . . . .
C12 S2 N6 C18 61.8(4) . . . .
O1 S1 C1 C2 -18.2(4) . . . .
O2 S1 C1 C2 -150.4(3) . . . .
N2 S1 C1 C2 99.5(3) . . . .
O1 S1 C1 C6 162.3(3) . . . .
O2 S1 C1 C6 30.1(4) . . . .
N2 S1 C1 C6 -80.0(4) . . . .
C6 C1 C2 C3 -0.3(6) . . . .
S1 C1 C2 C3 -179.8(3) . . . .
C1 C2 C3 C4 0.1(6) . . . .
C2 C3 C4 N1 179.2(4) . . . .
C2 C3 C4 C5 0.4(6) . . . .
N1 C4 C5 C6 -179.4(4) . . . .
C3 C4 C5 C6 -0.6(6) . . . .
C4 C5 C6 C1 0.4(7) . . . .
C2 C1 C6 C5 0.0(6) . . . .
S1 C1 C6 C5 179.5(4) . . . .
C8 N4 C7 N3 -1.3(7) . . . .
C8 N4 C7 N2 177.5(5) . . . .
C10 N3 C7 N4 -0.3(6) . . . .
C10 N3 C7 N2 -179.1(4) . . . .
S1 N2 C7 N4 165.7(3) . . . .
S1 N2 C7 N3 -15.4(5) . . . .
C7 N4 C8 C9 1.7(9) . . . .
N4 C8 C9 C10 -0.5(10) . . . .
C7 N3 C10 C9 1.6(6) . . . .
C7 N3 C10 C11 -178.8(4) . . . .
C8 C9 C10 N3 -1.2(8) . . . .
C8 C9 C10 C11 179.2(6) . . . .
O4 S2 C12 C13 -157.7(3) . . . .
O3 S2 C12 C13 -25.8(4) . . . .
N6 S2 C12 C13 83.9(4) . . . .
O4 S2 C12 C17 22.2(4) . . . .
O3 S2 C12 C17 154.1(3) . . . .
N6 S2 C12 C17 -96.1(3) . . . .
C17 C12 C13 C14 -0.2(7) . . . .
S2 C12 C13 C14 179.8(4) . . . .
C12 C13 C14 C15 0.8(7) . . . .
C13 C14 C15 N5 179.0(5) . . . .
C13 C14 C15 C16 -0.9(7) . . . .
N5 C15 C16 C17 -179.5(4) . . . .
C14 C15 C16 C17 0.5(6) . . . .
C15 C16 C17 C12 0.1(6) . . . .
C13 C12 C17 C16 -0.3(6) . . . .
S2 C12 C17 C16 179.8(3) . . . .
C21 N7 C18 N8 -1.0(6) . . . .
C21 N7 C18 N6 179.0(4) . . . .
C19 N8 C18 N7 1.9(7) . . . .
C19 N8 C18 N6 -178.1(5) . . . .
S2 N6 C18 N7 10.8(5) . . . .
S2 N6 C18 N8 -169.3(3) . . . .
C18 N8 C19 C20 -0.1(9) . . . .
N8 C19 C20 C21 -2.3(11) . . . .
C18 N7 C21 C20 -1.6(7) . . . .
C18 N7 C21 C22 178.7(4) . . . .
C19 C20 C21 N7 3.2(9) . . . .
C19 C20 C21 C22 -177.3(6) . . . .
