#------------------------------------------------------------------------------
#$Date: 2017-09-12 06:00:19 +0300 (Tue, 12 Sep 2017) $
#$Revision: 200567 $
#$URL: file:///home/coder/svn-repositories/cod/cif/1/54/70/1547058.cif $
#------------------------------------------------------------------------------
#
# This file is available in the Crystallography Open Database (COD),
# http://www.crystallography.net/
#
# All data on this site have been placed in the public domain by the
# contributors.
#
data_1547058
loop_
_publ_author_name
'Meng, Jiang'
'Jia, Renmeng'
'Leng, Jiaying'
'Wen, Min'
'Yu, Xingxin'
'Deng, Wei-Ping'
_publ_section_title
;
 Carbon-Carbon Bond Formation by Reaction of Rhodium Azavinylcarbenes with
 Secondary Amides: Access to Indigo Analogues from Isatins.
;
_journal_issue                   17
_journal_name_full               'Organic letters'
_journal_page_first              4520
_journal_page_last               4523
_journal_paper_doi               10.1021/acs.orglett.7b02096
_journal_volume                  19
_journal_year                    2017
_chemical_formula_sum            'C24 H18 Cl4 N2 O4 S'
_chemical_formula_weight         572.26
_chemical_name_systematic
; 
 ? 
;
_space_group_crystal_system      monoclinic
_space_group_IT_number           14
_space_group_name_Hall           '-P 2ybc'
_space_group_name_H-M_alt        'P 1 21/c 1'
_symmetry_space_group_name_Hall  '-P 2ybc'
_symmetry_space_group_name_H-M   'P 1 21/c 1'
_atom_sites_solution_hydrogens   mixed
_audit_creation_method           SHELXL-2013
_cell_angle_alpha                90
_cell_angle_beta                 101.576(2)
_cell_angle_gamma                90
_cell_formula_units_Z            4
_cell_length_a                   12.3024(12)
_cell_length_b                   11.6242(12)
_cell_length_c                   18.662(2)
_cell_measurement_reflns_used    2964
_cell_measurement_temperature    293(2)
_cell_measurement_theta_max      47.395
_cell_measurement_theta_min      4.869
_cell_volume                     2614.5(5)
_computing_cell_refinement       'Bruker SMART'
_computing_data_collection       'Bruker SMART'
_computing_data_reduction        'Bruker SHELXTL'
_computing_molecular_graphics    'Bruker SHELXTL'
_computing_publication_material  'Bruker SHELXTL'
_computing_structure_refinement  'SHELXL-2013 (Sheldrick, 2013)'
_computing_structure_solution    'Bruker SHELXTL'
_diffrn_ambient_temperature      293(2)
_diffrn_measured_fraction_theta_full 1.000
_diffrn_measured_fraction_theta_max 1.000
_diffrn_measurement_device_type  'CCD area detector'
_diffrn_measurement_method       'phi and omega scans'
_diffrn_radiation_type           MoK\a
_diffrn_radiation_wavelength     0.71073
_diffrn_reflns_av_R_equivalents  0.0379
_diffrn_reflns_av_unetI/netI     0.0411
_diffrn_reflns_Laue_measured_fraction_full 1.000
_diffrn_reflns_Laue_measured_fraction_max 1.000
_diffrn_reflns_limit_h_max       14
_diffrn_reflns_limit_h_min       -13
_diffrn_reflns_limit_k_max       12
_diffrn_reflns_limit_k_min       -14
_diffrn_reflns_limit_l_max       18
_diffrn_reflns_limit_l_min       -22
_diffrn_reflns_number            14740
_diffrn_reflns_point_group_measured_fraction_full 1.000
_diffrn_reflns_point_group_measured_fraction_max 1.000
_diffrn_reflns_theta_full        25.242
_diffrn_reflns_theta_max         25.497
_diffrn_reflns_theta_min         1.690
_exptl_absorpt_coefficient_mu    0.566
_exptl_absorpt_correction_T_max  0.7456
_exptl_absorpt_correction_T_min  0.6699
_exptl_absorpt_correction_type   multi-scan
_exptl_absorpt_process_details   sadabs
_exptl_crystal_colour            red
_exptl_crystal_density_diffrn    1.454
_exptl_crystal_description       prismatic
_exptl_crystal_F_000             1168
_exptl_crystal_size_max          0.200
_exptl_crystal_size_mid          0.160
_exptl_crystal_size_min          0.110
_refine_diff_density_max         0.442
_refine_diff_density_min         -0.353
_refine_diff_density_rms         0.052
_refine_ls_extinction_method     none
_refine_ls_goodness_of_fit_ref   1.043
_refine_ls_hydrogen_treatment    mixed
_refine_ls_matrix_type           full
_refine_ls_number_parameters     361
_refine_ls_number_reflns         4872
_refine_ls_number_restraints     44
_refine_ls_restrained_S_all      1.068
_refine_ls_R_factor_all          0.0810
_refine_ls_R_factor_gt           0.0572
_refine_ls_shift/su_max          0.001
_refine_ls_shift/su_mean         0.000
_refine_ls_structure_factor_coef Fsqd
_refine_ls_weighting_details
'w=1/[\s^2^(Fo^2^)+(0.0783P)^2^+1.0793P] where P=(Fo^2^+2Fc^2^)/3'
_refine_ls_weighting_scheme      calc
_refine_ls_wR_factor_gt          0.1468
_refine_ls_wR_factor_ref         0.1636
_reflns_Friedel_coverage         0.000
_reflns_number_gt                3428
_reflns_number_total             4872
_reflns_threshold_expression     'I > 2\s(I)'
_cod_data_source_file            ol7b02096_si_002.cif
_cod_data_source_block           cd16580
_cod_original_cell_volume        2614.4(5)
_cod_database_code               1547058
_shelx_space_group_comment
; 
The symmetry employed for this shelxl refinement is uniquely defined 
by the following loop, which should always be used as a source of 
symmetry information in preference to the above space-group names. 
They are only intended as comments. 
;
_shelx_estimated_absorpt_t_min   0.895
_shelx_estimated_absorpt_t_max   0.940
_shelxl_version_number           2013-4
_shelx_res_file
; 
TITL cd16580 in P2(1)/c 
CELL 0.71073  12.3024  11.6242  18.6617  90.000 101.576  90.000 
ZERR    4.00   0.0012   0.0012   0.0020   0.000   0.002   0.000 
LATT 1 
SYMM -X, 0.5+Y, 0.5-Z 
SFAC C  H  N  O  S  Cl 
UNIT 96 72 8 16 4 16 
OMIT  -3.00  51.00 
L.S. 10 
ACTA 
BOND $H 
FMAP 2 
PLAN 20 
HTAB N2 O2_$5 
EQIV $5 -x+1, y-1/2, -z+1/2 
HTAB N2 O1 
HTAB N1 O4_$4 
EQIV $4 -x+1, y+1/2, -z+1/2 
HTAB N1 O2 
HTAB C24' Cl1_$3 
EQIV $3 -x, y-1/2, -z+3/2 
HTAB C24 O4_$2 
EQIV $2 x, y, z+1 
HTAB C3 O3_$1 
EQIV $1 x, -y+3/2, z+1/2 
conf 
htab 
mpla c11 > c16 
mpla c1 > c8 n1 
mpla c17 > c22 
size 0.20 0.16 0.11 
wpdb -1 
dfix 0.83 0.02 n1 h1a n2 h2a 
simu 0.004 c24 c24' cl2 cl3 cl4 
simu 0.004 cl2' cl3' cl4' 
WGHT    0.078300    1.079300 
FVAR       0.10006 
MOLE 1 
S1    5    0.346692    0.436549    0.148942    11.00000    0.06472    0.04788 = 
         0.04447    0.00123    0.01646    0.00593 
CL1   6    0.275048    0.615724    0.611835    11.00000    0.09371    0.11881 = 
         0.06061   -0.01364    0.03809    0.01924 
N1    3    0.512902    0.630519    0.369935    11.00000    0.07363    0.04236 = 
         0.05445   -0.00392    0.02646   -0.00762 
N2    3    0.440624    0.410664    0.223125    11.00000    0.06412    0.03582 = 
         0.04523    0.00309    0.01979    0.00103 
O1    4    0.335947    0.393784    0.346165    11.00000    0.07850    0.05268 = 
         0.05558   -0.00672    0.02844   -0.01533 
O2    4    0.604041    0.666440    0.250230    11.00000    0.13311    0.04579 = 
         0.09917   -0.00828    0.07072   -0.02098 
O3    4    0.386784    0.531592    0.113743    11.00000    0.07719    0.07071 = 
         0.05941    0.02229    0.02217    0.00520 
O4    4    0.326057    0.329083    0.112215    11.00000    0.08445    0.06376 = 
         0.05570   -0.01559    0.01313    0.00920 
C1    1    0.464926    0.639283    0.431214    11.00000    0.06178    0.04225 = 
         0.04542    0.00123    0.01440    0.00697 
C2    1    0.484293    0.721010    0.486227    11.00000    0.07485    0.04666 = 
         0.05719   -0.00639    0.01337    0.00343 
AFIX  43 
H2    2    0.535458    0.779894    0.486187    11.00000   -1.20000 
AFIX   0 
C3    1    0.424552    0.711552    0.541172    11.00000    0.07975    0.06364 = 
         0.05046   -0.01603    0.01195    0.01592 
AFIX  43 
H3    2    0.435686    0.764855    0.579106    11.00000   -1.20000 
AFIX   0 
C4    1    0.347680    0.623084    0.540558    11.00000    0.06873    0.07022 = 
         0.04733   -0.00274    0.02140    0.01904 
C5    1    0.328809    0.541920    0.486330    11.00000    0.05945    0.05840 = 
         0.05145    0.00111    0.02053    0.00716 
AFIX  43 
H5    2    0.278181    0.482613    0.486684    11.00000   -1.20000 
AFIX   0 
C6    1    0.388182    0.551682    0.430885    11.00000    0.05759    0.04537 = 
         0.04239   -0.00142    0.01533    0.00787 
C7    1    0.386787    0.481181    0.365557    11.00000    0.05514    0.04132 = 
         0.04283    0.00270    0.01503    0.00351 
C8    1    0.468256    0.540695    0.326625    11.00000    0.05648    0.03652 = 
         0.04548    0.00258    0.01604    0.00273 
C9    1    0.494177    0.506769    0.262115    11.00000    0.05883    0.03317 = 
         0.04449    0.00310    0.01708    0.00491 
C10   1    0.579878    0.567554    0.231075    11.00000    0.07279    0.04244 = 
         0.05193    0.00501    0.02427    0.00012 
C11   1    0.639200    0.509517    0.179051    11.00000    0.05338    0.05929 = 
         0.04734   -0.00123    0.01687   -0.00270 
C12   1    0.666346    0.393719    0.184087    11.00000    0.05942    0.06346 = 
         0.05983   -0.01219    0.01518   -0.00184 
AFIX  43 
H12   2    0.643685    0.347765    0.219168    11.00000   -1.20000 
AFIX   0 
C13   1    0.727400    0.346944    0.136561    11.00000    0.06145    0.08832 = 
         0.10401   -0.04263    0.02275   -0.00266 
AFIX  43 
H13   2    0.748628    0.270049    0.140543    11.00000   -1.20000 
AFIX   0 
C14   1    0.756548    0.416201    0.082895    11.00000    0.07390    0.15258 = 
         0.08986   -0.05123    0.04626   -0.01982 
AFIX  43 
H14   2    0.795633    0.384361    0.049947    11.00000   -1.20000 
AFIX   0 
C15   1    0.729214    0.529613    0.077424    11.00000    0.09280    0.13235 = 
         0.06698   -0.00031    0.04197   -0.01189 
AFIX  43 
H15   2    0.748929    0.574427    0.040762    11.00000   -1.20000 
AFIX   0 
C16   1    0.672340    0.577890    0.126242    11.00000    0.06548    0.09128 = 
         0.06117    0.01080    0.02602   -0.00290 
AFIX  43 
H16   2    0.656095    0.656102    0.123921    11.00000   -1.20000 
AFIX   0 
C17   1    0.226054    0.479094    0.178248    11.00000    0.05758    0.05038 = 
         0.05117   -0.00106    0.01077    0.00278 
C18   1    0.211073    0.592540    0.193895    11.00000    0.06942    0.05029 = 
         0.10462    0.00014    0.02496    0.00571 
AFIX  43 
H18   2    0.262409    0.647814    0.186584    11.00000   -1.20000 
AFIX   0 
C19   1    0.118351    0.623264    0.220716    11.00000    0.07862    0.06950 = 
         0.12035   -0.01756    0.02413    0.01963 
AFIX  43 
H19   2    0.108078    0.700200    0.231310    11.00000   -1.20000 
AFIX   0 
C20   1    0.041315    0.544569    0.232196    11.00000    0.06020    0.10317 = 
         0.07856   -0.01941    0.01464    0.00753 
C21   1    0.059145    0.432082    0.216145    11.00000    0.06995    0.09496 = 
         0.11077   -0.01520    0.03691   -0.02167 
AFIX  43 
H21   2    0.007704    0.376906    0.223432    11.00000   -1.20000 
AFIX   0 
C22   1    0.150309    0.398009    0.189681    11.00000    0.07843    0.05910 = 
         0.10207   -0.01651    0.03322   -0.01141 
AFIX  43 
H22   2    0.160654    0.320882    0.179610    11.00000   -1.20000 
AFIX   0 
C23   1   -0.060191    0.579117    0.261750    11.00000    0.07750    0.16175 = 
         0.12752   -0.03475    0.03720    0.01604 
AFIX 137 
H23A  2   -0.117531    0.522742    0.247696    11.00000   -1.50000 
H23B  2   -0.086240    0.652713    0.242124    11.00000   -1.50000 
H23C  2   -0.041036    0.583760    0.314133    11.00000   -1.50000 
PART 1 
AFIX   0 
C24   1    0.088786    0.238057    1.005410    10.50000    0.31831    0.15397 = 
         0.15859    0.01919    0.12591    0.06159 
AFIX  13 
H24   2    0.158269    0.276186    1.028019    10.50000   -1.20000 
AFIX   0 
CL2   6    0.105642    0.187949    0.910407    10.50000    0.30013    0.13919 = 
         0.14487    0.02846    0.13683    0.07210 
CL3   6    0.081715    0.131802    1.047522    10.50000    0.36653    0.15703 = 
         0.13981    0.01698    0.11244    0.03536 
CL4   6   -0.001402    0.336048    0.984324    10.50000    0.29735    0.18176 = 
         0.20362    0.00273    0.11968    0.09372 
PART 2 
C24'  1    0.024737    0.218287    0.970067    10.50000    0.31943    0.15585 = 
         0.15865    0.01824    0.12649    0.06450 
AFIX  13 
H24'  2   -0.047437    0.207440    0.937294    10.50000   -1.20000 
AFIX   0 
CL2'  6    0.088044    0.170167    0.916569    10.50000    0.21085    0.21450 = 
         0.19934    0.03966    0.05571    0.11261 
CL3'  6   -0.016566    0.160766    1.041278    10.50000    0.21689    0.16562 = 
         0.13023    0.03235    0.03226   -0.05210 
CL4'  6    0.005561    0.376604    0.978019    10.50000    0.11411    0.12751 = 
         0.16305    0.02444    0.07108    0.02903 
PART 0 
H1A   2    0.553392    0.679147    0.357068    11.00000    0.05705 
H2A   2    0.418704    0.359011    0.246165    11.00000    0.04152 
HKLF 4 
  
REM  cd16580 in P2(1)/c 
REM R1 =  0.0572 for    3428 Fo > 4sig(Fo)  and  0.0810 for all    4872 data 
REM    361 parameters refined using     44 restraints 
  
END 
  
WGHT      0.0782      1.0880 
  
REM Instructions for potential hydrogen bonds 
HTAB C3 O3_$1 
HTAB C24 O4_$2 
HTAB C24' Cl1_$3 
HTAB N1 O2 
HTAB N1 O4_$4 
HTAB N2 O1 
HTAB N2 O2_$5 
  
REM Highest difference peak  0.442,  deepest hole -0.353,  1-sigma level  0.052 
Q1    1  -0.0476  0.2313  1.0017  11.00000  0.05    0.37 
Q2    1  -0.0192  0.2404  0.9557  11.00000  0.05    0.30 
Q3    1   0.1464  0.1969  1.0339  11.00000  0.05    0.30 
Q4    1   0.0148  0.1630  0.9750  11.00000  0.05    0.29 
Q5    1   0.1421  0.1156  1.0648  11.00000  0.05    0.28 
Q6    1   0.0054  0.1010  0.9970  11.00000  0.05    0.28 
Q7    1   0.0318  0.1664  1.0552  11.00000  0.05    0.26 
Q8    1   0.2698  0.5418  0.6044  11.00000  0.05    0.26 
Q9    1   0.3365  0.4966  0.1065  11.00000  0.05    0.23 
Q10   1   0.5046  0.5034  0.3056  11.00000  0.05    0.23 
Q11   1   0.4054  0.4316  0.1930  11.00000  0.05    0.23 
Q12   1   0.3883  0.5186  0.4054  11.00000  0.05    0.22 
Q13   1   0.2686  0.4654  0.1564  11.00000  0.05    0.21 
Q14   1   0.6215  0.5306  0.2072  11.00000  0.05    0.21 
Q15   1   0.0397  0.2221  0.9224  11.00000  0.05    0.20 
Q16   1   0.3032  0.2656  0.1327  11.00000  0.05    0.20 
Q17   1   0.4561  0.4714  0.2426  11.00000  0.05    0.19 
Q18   1   0.4639  0.5427  0.2855  11.00000  0.05    0.19 
Q19   1   0.2540  0.5154  0.2222  11.00000  0.05    0.19 
Q20   1   0.2283  0.6550  0.5783  11.00000  0.05    0.19 
;
_shelx_res_checksum              90768
_shelx_hkl_file
; 
   1   0   0  117.84    3.95 
   2   0   0   81.27    2.71 
   2   0   0   81.11    2.61 
   3   0   0  442.10   14.72 
   3   0   0  448.53   14.15 
  -4   0   0   -0.02    0.01 
   4   0   0   -0.03    0.04 
   4   0   0   -0.03    0.03 
   5   0   0   10.33    0.41 
   5   0   0   10.12    0.40 
   6   0   0   11.35    0.46 
   6   0   0   11.22    0.45 
   7   0   0   10.05    0.44 
   7   0   0   10.47    0.44 
   8   0   0    5.81    0.31 
   8   0   0    6.25    0.32 
  -9   0   0    0.85    0.11 
   9   0   0    0.57    0.12 
   9   0   0    0.67    0.13 
 -10   0   0    3.72    0.23 
  10   0   0    3.42    0.26 
  10   0   0    4.11    0.26 
  11   0   0   -0.02    0.07 
  11   0   0    0.09    0.11 
  12   0   0    0.51    0.15 
  12   0   0    0.50    0.15 
  13   0   0    1.04    0.20 
  14   0   0   -0.11    0.12 
  15   0   0    0.24    0.17 
  16   0   0    0.17    0.18 
  16  -1   0   -0.02    0.17 
  15  -1   0   -0.01    0.15 
  14  -1   0    0.03    0.13 
  13  -1   0    0.03    0.13 
  13  -1   0    0.00    0.12 
  12  -1   0    0.25    0.13 
  12  -1   0    0.06    0.12 
  11  -1   0    1.22    0.19 
  11  -1   0    1.03    0.18 
  10  -1   0    1.52    0.19 
  10  -1   0    1.46    0.18 
 -10   1   0    1.23    0.14 
   9  -1   0    0.70    0.13 
   9  -1   0    0.52    0.12 
  -9   1   0    0.89    0.11 
   8  -1   0    2.65    0.20 
   8  -1   0    2.68    0.19 
  -8   1   0    2.50    0.16 
   7  -1   0    2.38    0.18 
   7  -1   0    2.20    0.17 
  -7   1   0    2.40    0.15 
   6  -1   0    2.96    0.19 
   6  -1   0    2.69    0.17 
  -6   1   0    3.30    0.16 
   5  -1   0   28.99    1.06 
   5  -1   0   29.57    1.01 
  -5   1   0   29.99    1.00 
   4  -1   0   15.69    0.59 
   4  -1   0   15.60    0.55 
  -4   1   0   15.42    0.54 
   3  -1   0  140.53    4.33 
   3  -1   0  137.95    4.51 
  -3   1   0  127.03    4.33 
  -2   1   0    8.39    0.29 
   1  -1   0    3.33    0.15 
   1  -1   0    3.63    0.14 
   0  -1   0   -0.24    0.02 
  -1  -1   0    3.76    0.15 
   1   1   0    3.59    0.14 
  -2  -1   0   18.13    0.60 
   2   1   0   17.80    0.60 
   2   1   0   16.83    0.60 
  -3  -1   0  138.41    4.45 
   3   1   0  141.00    4.60 
   3   1   0  135.43    4.43 
  -4  -1   0   14.81    0.55 
   4   1   0   15.77    0.56 
   4   1   0   15.74    0.56 
  -5  -1   0   28.13    0.96 
   5   1   0   26.96    0.97 
   5   1   0   28.56    0.98 
  -6  -1   0    3.38    0.18 
   6   1   0    3.20    0.20 
   6   1   0    3.17    0.17 
  -7  -1   0    2.13    0.15 
   7   1   0    2.26    0.15 
   7   1   0    2.18    0.18 
  -8  -1   0    2.59    0.17 
   8   1   0    2.36    0.17 
   8   1   0    2.78    0.20 
  -9  -1   0    0.67    0.11 
   9   1   0    0.79    0.16 
   9   1   0    0.82    0.12 
 -10  -1   0    0.49    0.10 
  10   1   0    1.25    0.19 
  10   1   0    0.99    0.13 
  11   1   0    1.16    0.19 
  11   1   0    1.71    0.17 
  12   1   0    0.08    0.12 
  13   1   0    0.02    0.13 
  14   1   0    0.11    0.14 
  15   1   0    0.02    0.15 
  16   1   0    0.02    0.17 
  14  -2   0    0.05    0.14 
  14  -2   0    0.06    0.14 
  13  -2   0   -0.12    0.11 
  13  -2   0    0.09    0.12 
  12  -2   0    0.15    0.13 
  12  -2   0    0.20    0.13 
  11  -2   0    0.08    0.12 
  11  -2   0   -0.06    0.10 
  10  -2   0    2.68    0.23 
  10  -2   0    1.86    0.22 
 -10   2   0    2.21    0.17 
   9  -2   0    0.15    0.08 
   9  -2   0    0.14    0.09 
  -9   2   0    0.23    0.07 
   8  -2   0    1.39    0.15 
   8  -2   0    1.47    0.17 
  -8   2   0    1.57    0.13 
   7  -2   0   18.96    0.78 
   7  -2   0   19.59    0.72 
  -7   2   0   19.95    0.70 
   6  -2   0    0.99    0.13 
   6  -2   0    0.90    0.10 
  -6   2   0    0.89    0.09 
   5  -2   0    6.85    0.28 
   5  -2   0    6.21    0.31 
  -5   2   0    6.68    0.26 
   4  -2   0    5.79    0.27 
  -4   2   0    6.00    0.23 
   3  -2   0   57.44    1.88 
   3  -2   0   57.40    1.97 
   2  -2   0   50.53    1.73 
   2  -2   0   51.04    1.66 
   1  -2   0  153.59    5.22 
   1  -2   0  160.33    5.04 
   0  -2   0  276.55    8.86 
  -1  -2   0  159.37    4.99 
  -1  -2   0  154.26    5.19 
   1   2   0  151.59    4.95 
  -2  -2   0   52.51    1.67 
   2   2   0   48.48    1.65 
  -3  -2   0   58.61    1.91 
   3   2   0   57.36    1.95 
   3   2   0   57.77    1.90 
  -4  -2   0    5.99    0.26 
   4   2   0    5.50    0.26 
   4   2   0    6.05    0.23 
  -5  -2   0    6.68    0.30 
   5   2   0    6.67    0.31 
   5   2   0    6.94    0.27 
  -6  -2   0    0.86    0.10 
   6   2   0    0.87    0.12 
   6   2   0    0.91    0.08 
  -7  -2   0   18.83    0.72 
   7   2   0   19.62    0.72 
   7   2   0   19.57    0.75 
  -8  -2   0    1.65    0.16 
   8   2   0    1.41    0.12 
   8   2   0    1.53    0.17 
  -9  -2   0    0.18    0.08 
   9   2   0    0.22    0.07 
   9   2   0    0.10    0.11 
 -10  -2   0    2.32    0.20 
  10   2   0    2.41    0.24 
  10   2   0    2.13    0.17 
 -11  -2   0    0.04    0.08 
  11   2   0    0.10    0.12 
  12   2   0   -0.11    0.11 
  13   2   0    0.02    0.13 
  14   2   0   -0.04    0.14 
  15   2   0    0.06    0.15 
  15  -3   0    0.22    0.20 
  14  -3   0    0.32    0.17 
  13  -3   0   -0.08    0.11 
  13  -3   0    0.11    0.14 
  12  -3   0    0.16    0.13 
  12  -3   0    0.01    0.12 
  11  -3   0    3.88    0.28 
  11  -3   0    2.86    0.29 
  10  -3   0    1.35    0.17 
  10  -3   0    1.34    0.20 
   9  -3   0    0.06    0.09 
   9  -3   0    0.02    0.08 
  -9   3   0    0.07    0.06 
   8  -3   0    1.10    0.16 
   8  -3   0    1.25    0.14 
  -8   3   0    1.57    0.13 
   7  -3   0   14.47    0.56 
   7  -3   0   14.41    0.63 
  -7   3   0   14.91    0.54 
   6  -3   0    2.98    0.20 
  -6   3   0    2.82    0.15 
   5  -3   0    1.25    0.14 
  -5   3   0    1.21    0.09 
   4  -3   0    1.31    0.13 
   4  -3   0    1.41    0.10 
   3  -3   0   74.79    2.58 
   3  -3   0   76.17    2.46 
   2  -3   0   12.71    0.45 
   2  -3   0   12.05    0.48 
   1  -3   0    0.15    0.05 
   1  -3   0    0.18    0.04 
   0  -3   0    0.00    0.02 
   0  -3   0    0.08    0.03 
  -1  -3   0    0.16    0.03 
  -1  -3   0    0.13    0.04 
   1   3   0    0.12    0.04 
  -2  -3   0   12.68    0.48 
  -2  -3   0   12.69    0.44 
   2   3   0   12.61    0.47 
  -3  -3   0   80.14    2.58 
   3   3   0   76.31    2.55 
  -4  -3   0    1.48    0.13 
   4   3   0    1.68    0.13 
  -5  -3   0    0.99    0.11 
   5   3   0    1.06    0.06 
   5   3   0    1.03    0.12 
  -6  -3   0    3.05    0.20 
   6   3   0    3.31    0.14 
   6   3   0    2.37    0.19 
  -7  -3   0   13.69    0.57 
   7   3   0   13.50    0.51 
   7   3   0   14.50    0.59 
  -8  -3   0    1.48    0.16 
   8   3   0    1.44    0.18 
   8   3   0    1.53    0.11 
  -9  -3   0    0.06    0.08 
   9   3   0   -0.15    0.09 
 -10  -3   0    1.25    0.16 
  10   3   0    1.32    0.20 
 -11  -3   0    4.07    0.28 
  11   3   0    3.65    0.30 
 -12  -3   0    0.06    0.10 
  12   3   0    0.28    0.15 
  13   3   0   -0.04    0.11 
  14   3   0   -0.08    0.13 
  15   3   0    0.15    0.18 
  15  -4   0   -0.01    0.17 
  14  -4   0    0.22    0.17 
  13  -4   0    0.31    0.17 
  12  -4   0    0.28    0.16 
  11  -4   0    0.68    0.18 
  11  -4   0    0.76    0.15 
  10  -4   0    0.86    0.14 
  10  -4   0    0.62    0.16 
   9  -4   0    2.12    0.18 
   9  -4   0    2.09    0.24 
  -9   4   0    2.18    0.16 
   8  -4   0    0.83    0.16 
  -8   4   0    0.82    0.10 
   7  -4   0    4.90    0.25 
   7  -4   0    5.74    0.33 
  -7   4   0    5.74    0.25 
   6  -4   0    4.75    0.23 
   6  -4   0    4.70    0.28 
  -6   4   0    4.88    0.22 
   5  -4   0    8.48    0.40 
   5  -4   0    8.25    0.35 
   5  -4   0    8.40    0.33 
   4  -4   0    8.27    0.34 
   4  -4   0    8.36    0.39 
   3  -4   0   34.69    1.15 
   3  -4   0   32.32    1.20 
   2  -4   0    2.15    0.15 
   2  -4   0    2.25    0.14 
   1  -4   0   34.11    1.16 
   1  -4   0   31.71    1.12 
   0  -4   0  166.53    5.55 
  -1  -4   0   33.88    1.16 
  -1  -4   0   34.24    1.16 
   1   4   0   33.02    1.13 
  -2  -4   0    2.30    0.15 
  -2  -4   0    2.29    0.10 
   2   4   0    2.13    0.14 
  -3  -4   0   33.51    1.17 
   3   4   0   33.35    1.15 
  -4  -4   0    7.78    0.35 
   4   4   0    8.04    0.35 
  -5  -4   0    7.93    0.37 
   5   4   0    8.13    0.37 
  -6  -4   0    4.56    0.27 
   6   4   0    5.30    0.29 
  -7  -4   0    5.21    0.30 
   7   4   0    5.84    0.32 
  -8  -4   0    0.58    0.12 
   8   4   0    0.56    0.14 
  -9  -4   0    2.42    0.22 
   9   4   0    2.21    0.23 
 -10  -4   0    0.67    0.14 
  10   4   0    0.67    0.17 
 -11  -4   0    0.55    0.14 
  11   4   0    0.56    0.17 
 -12  -4   0    0.34    0.12 
  12   4   0    0.19    0.14 
  13   4   0    0.10    0.14 
  14   4   0    0.08    0.18 
  15   4   0    0.26    0.19 
  15  -5   0    0.06    0.19 
  14  -5   0    0.12    0.18 
  13  -5   0    0.78    0.21 
  12  -5   0    1.40    0.26 
  11  -5   0    1.35    0.23 
  10  -5   0   -0.03    0.11 
  10  -5   0    0.00    0.08 
   9  -5   0    0.40    0.10 
   9  -5   0    0.58    0.16 
   8  -5   0    0.36    0.09 
   8  -5   0    0.26    0.14 
  -8   5   0    0.47    0.09 
   7  -5   0   -0.11    0.08 
   7  -5   0    0.17    0.06 
  -7   5   0    0.03    0.05 
   6  -5   0    1.51    0.11 
   6  -5   0    1.48    0.18 
  -6   5   0    1.35    0.12 
   5  -5   0    0.57    0.09 
   5  -5   0    0.39    0.10 
   4  -5   0    5.36    0.30 
   4  -5   0    5.21    0.26 
   3  -5   0   17.25    0.66 
   3  -5   0   18.24    0.70 
   2  -5   0    0.70    0.09 
   2  -5   0    0.57    0.09 
   1  -5   0    8.74    0.37 
   1  -5   0    8.18    0.36 
   0  -5   0   -0.01    0.03 
   0  -5   0   -0.02    0.04 
  -1  -5   0    8.94    0.38 
  -1  -5   0    8.53    0.34 
  -2  -5   0    0.70    0.06 
  -2  -5   0    0.48    0.09 
   2   5   0    0.66    0.09 
  -3  -5   0   18.63    0.62 
  -3  -5   0   17.73    0.69 
   3   5   0   17.16    0.67 
  -4  -5   0    5.06    0.28 
   4   5   0    5.57    0.28 
  -5  -5   0    0.43    0.10 
   5   5   0    0.55    0.12 
  -6  -5   0    1.27    0.15 
   6   5   0    1.46    0.16 
  -7  -5   0   -0.04    0.06 
   7   5   0   -0.09    0.09 
  -8  -5   0    0.38    0.11 
   8   5   0    0.46    0.14 
  -9  -5   0    0.30    0.11 
   9   5   0    0.46    0.16 
 -10  -5   0    0.00    0.09 
  10   5   0   -0.04    0.10 
 -11  -5   0    1.23    0.19 
  11   5   0    1.59    0.24 
 -12  -5   0    1.19    0.19 
  12   5   0    1.26    0.24 
  13   5   0    0.57    0.20 
  14   5   0   -0.13    0.16 
  15   5   0    0.38    0.20 
  14  -6   0    0.08    0.19 
  13  -6   0    0.54    0.20 
  12  -6   0    0.40    0.19 
  11  -6   0    0.09    0.12 
  10  -6   0    2.79    0.29 
   9  -6   0    2.48    0.27 
   8  -6   0    5.18    0.37 
  -8   6   0    4.91    0.26 
   7  -6   0   -0.13    0.10 
   7  -6   0    0.05    0.07 
  -7   6   0    0.17    0.07 
   6  -6   0    0.11    0.05 
   6  -6   0    0.04    0.10 
   6  -6   0    0.20    0.07 
   5  -6   0    0.29    0.08 
   5  -6   0    0.27    0.10 
   4  -6   0    0.84    0.13 
   4  -6   0    0.85    0.11 
   3  -6   0    0.02    0.04 
   3  -6   0    0.00    0.06 
   2  -6   0    8.63    0.40 
   2  -6   0    8.54    0.38 
   1  -6   0    0.42    0.09 
   1  -6   0    0.39    0.09 
   0  -6   0    0.02    0.05 
   0  -6   0    0.03    0.05 
  -1  -6   0    0.39    0.07 
  -1  -6   0    0.47    0.10 
  -2  -6   0    9.10    0.36 
  -2  -6   0    9.00    0.41 
   2   6   0    8.95    0.39 
  -3  -6   0    0.00    0.05 
  -3  -6   0    0.01    0.03 
   3   6   0    0.10    0.07 
  -4  -6   0    0.81    0.13 
   4   6   0    1.05    0.14 
  -5  -6   0    0.08    0.07 
   5   6   0    0.16    0.09 
  -6  -6   0    0.11    0.07 
   6   6   0    0.08    0.08 
  -7  -6   0   -0.04    0.07 
   7   6   0    0.12    0.11 
  -8  -6   0    4.94    0.32 
   8   6   0    4.83    0.34 
  -9  -6   0    2.54    0.25 
   9   6   0    2.74    0.27 
 -10  -6   0    2.60    0.26 
  10   6   0    2.71    0.28 
 -11  -6   0    0.00    0.10 
  11   6   0    0.02    0.13 
 -12  -6   0    0.57    0.15 
  12   6   0    0.47    0.17 
 -13  -6   0    0.39    0.17 
  13   6   0    0.55    0.19 
  14   6   0    0.35    0.19 
  14  -7   0   -0.01    0.20 
  13  -7   0    0.05    0.16 
  12  -7   0    0.31    0.18 
  11  -7   0    0.07    0.13 
  10  -7   0   -0.02    0.13 
   9  -7   0    0.06    0.12 
   8  -7   0    0.99    0.20 
   7  -7   0    3.93    0.31 
   7  -7   0    3.96    0.25 
   6  -7   0    0.03    0.06 
   6  -7   0   -0.24    0.09 
   5  -7   0    0.44    0.10 
   5  -7   0    0.19    0.12 
   4  -7   0    1.33    0.15 
   4  -7   0    1.35    0.17 
   3  -7   0    7.66    0.39 
   3  -7   0    7.68    0.37 
   2  -7   0    0.40    0.11 
   2  -7   0    0.44    0.09 
   1  -7   0   13.17    0.54 
   1  -7   0   12.76    0.54 
   0  -7   0    0.02    0.05 
   0  -7   0    0.00    0.05 
  -1  -7   0   11.82    0.53 
  -1  -7   0   13.11    0.50 
  -2  -7   0    0.40    0.10 
  -2  -7   0    0.39    0.07 
  -3  -7   0    8.18    0.31 
  -3  -7   0    7.19    0.39 
   3   7   0    7.93    0.37 
  -4  -7   0    1.18    0.16 
   4   7   0    1.57    0.17 
  -5  -7   0    0.41    0.12 
   5   7   0    0.32    0.11 
  -6  -7   0    0.08    0.08 
   6   7   0   -0.03    0.09 
  -7  -7   0    3.34    0.27 
   7   7   0    3.84    0.29 
  -8  -7   0    0.76    0.16 
   8   7   0    0.78    0.17 
  -9  -7   0    0.05    0.10 
   9   7   0   -0.01    0.11 
 -10  -7   0   -0.10    0.09 
  10   7   0    0.26    0.14 
 -11  -7   0    0.03    0.11 
  11   7   0    0.03    0.14 
 -12  -7   0    0.22    0.13 
  12   7   0    0.38    0.19 
 -13  -7   0    0.28    0.13 
  13   7   0    0.45    0.22 
  14   7   0   -0.02    0.18 
  13  -8   0    0.07    0.19 
  12  -8   0    0.23    0.18 
  11  -8   0    0.15    0.16 
  10  -8   0    0.35    0.17 
   9  -8   0    0.56    0.17 
   8  -8   0    2.19    0.27 
   7  -8   0    0.30    0.14 
   7  -8   0    0.18    0.07 
   6  -8   0    0.36    0.14 
   6  -8   0    0.56    0.11 
   5  -8   0    1.48    0.16 
   5  -8   0    1.36    0.21 
   4  -8   0   10.17    0.51 
   4  -8   0   10.08    0.47 
   3  -8   0    4.54    0.28 
   3  -8   0    4.56    0.29 
   2  -8   0    0.04    0.07 
   2  -8   0   -0.09    0.07 
   1  -8   0    0.26    0.08 
   1  -8   0    0.23    0.10 
   0  -8   0    0.00    0.06 
   0  -8   0    0.02    0.07 
  -1  -8   0    0.21    0.08 
  -1  -8   0    0.29    0.09 
  -2  -8   0    0.11    0.09 
  -2  -8   0    0.03    0.06 
  -3  -8   0    4.87    0.32 
  -4  -8   0    9.64    0.50 
   4   8   0   10.37    0.47 
  -5  -8   0    1.57    0.20 
   5   8   0    1.76    0.20 
  -6  -8   0    0.58    0.14 
   6   8   0    0.54    0.15 
  -7  -8   0    0.06    0.10 
   7   8   0    0.32    0.14 
  -8  -8   0    1.97    0.25 
   8   8   0    2.06    0.25 
  -9  -8   0    0.72    0.17 
   9   8   0    0.87    0.20 
 -10  -8   0    0.62    0.17 
  10   8   0    0.61    0.18 
 -11  -8   0    0.15    0.12 
  11   8   0    0.04    0.15 
 -12  -8   0    0.10    0.13 
  12   8   0    0.00    0.15 
 -13  -8   0   -0.02    0.13 
  13   8   0    0.09    0.19 
  13  -9   0    0.27    0.23 
  12  -9   0    0.20    0.18 
  11  -9   0    0.23    0.19 
  10  -9   0    0.06    0.16 
   9  -9   0    0.03    0.12 
   8  -9   0    0.05    0.13 
   7  -9   0    1.71    0.20 
   7  -9   0    1.52    0.24 
   6  -9   0    3.44    0.25 
   6  -9   0    3.51    0.32 
   5  -9   0    0.40    0.15 
   5  -9   0    0.60    0.12 
   4  -9   0    0.22    0.13 
   4  -9   0    0.36    0.11 
   3  -9   0    2.85    0.26 
   3  -9   0    2.81    0.23 
   2  -9   0    3.46    0.26 
   2  -9   0    3.65    0.26 
   1  -9   0    3.43    0.25 
   1  -9   0    2.72    0.22 
   0  -9   0    0.01    0.08 
   0  -9   0    0.03    0.06 
  -1  -9   0    2.88    0.20 
  -1  -9   0    3.00    0.24 
  -2  -9   0    3.62    0.22 
  -2  -9   0    3.87    0.28 
  -3  -9   0    3.26    0.26 
  -4  -9   0    0.37    0.13 
  -5  -9   0    0.51    0.14 
   5   9   0    0.70    0.16 
  -6  -9   0    3.39    0.30 
   6   9   0    3.16    0.28 
  -7  -9   0    1.55    0.22 
   7   9   0    2.02    0.24 
  -8  -9   0    0.36    0.13 
   8   9   0    0.23    0.13 
  -9  -9   0    0.05    0.10 
   9   9   0   -0.01    0.13 
 -10  -9   0    0.05    0.11 
  10   9   0    0.07    0.15 
 -11  -9   0    0.29    0.15 
  11   9   0    0.27    0.17 
 -12  -9   0    0.08    0.14 
  12   9   0    0.02    0.17 
 -13  -9   0    0.11    0.14 
  13   9   0    0.19    0.22 
  12 -10   0    0.00    0.20 
  11 -10   0   -0.19    0.15 
  10 -10   0    0.24    0.17 
   9 -10   0   -0.03    0.12 
   8 -10   0    0.05    0.12 
   7 -10   0    0.08    0.13 
   6 -10   0    0.20    0.11 
   6 -10   0    0.05    0.10 
   5 -10   0   -0.02    0.12 
   5 -10   0    0.01    0.09 
   4 -10   0    0.31    0.14 
   4 -10   0    0.28    0.11 
   3 -10   0    2.44    0.25 
   3 -10   0    2.46    0.25 
   2 -10   0    1.16    0.18 
   2 -10   0    0.83    0.17 
   1 -10   0    0.37    0.12 
   1 -10   0    0.40    0.13 
   0 -10   0    0.46    0.13 
   0 -10   0    0.07    0.06 
  -1 -10   0    0.25    0.10 
  -1 -10   0    0.44    0.15 
  -2 -10   0    1.45    0.21 
  -3 -10   0    2.97    0.29 
  -4 -10   0    0.51    0.15 
  -5 -10   0    0.02    0.10 
  -6 -10   0   -0.07    0.09 
   6  10   0    0.32    0.14 
  -7 -10   0    0.16    0.12 
   7  10   0    0.09    0.13 
  -8 -10   0   -0.01    0.11 
   8  10   0    0.19    0.15 
  -9 -10   0    0.15    0.13 
   9  10   0    0.22    0.16 
 -10 -10   0    0.11    0.13 
  10  10   0    0.05    0.14 
 -11 -10   0    0.08    0.14 
  11  10   0    0.07    0.16 
 -12 -10   0    0.07    0.14 
  12  10   0   -0.03    0.17 
  11 -11   0    0.20    0.20 
  10 -11   0    0.18    0.19 
   9 -11   0   -0.01    0.15 
   8 -11   0    0.53    0.19 
   7 -11   0    0.08    0.14 
   6 -11   0   -0.07    0.10 
   6 -11   0    0.16    0.13 
   5 -11   0    0.35    0.13 
   5 -11   0    0.22    0.13 
   4 -11   0    0.92    0.19 
   4 -11   0    1.05    0.19 
   3 -11   0    1.33    0.20 
   3 -11   0    0.95    0.19 
   2 -11   0    3.62    0.28 
   2 -11   0    3.45    0.31 
   1 -11   0    1.88    0.21 
   1 -11   0    2.13    0.25 
   0 -11   0   -0.04    0.09 
   0 -11   0    0.02    0.06 
  -1 -11   0    2.01    0.25 
  -2 -11   0    3.94    0.32 
  -3 -11   0    1.00    0.19 
  -4 -11   0    1.02    0.20 
  -5 -11   0    0.13    0.12 
  -6 -11   0    0.14    0.12 
  -7 -11   0    0.31    0.14 
  -8 -11   0    0.45    0.16 
   8  11   0    0.29    0.16 
  -9 -11   0    0.05    0.12 
   9  11   0   -0.16    0.13 
 -10 -11   0    0.13    0.14 
  10  11   0    0.12    0.18 
 -11 -11   0    0.04    0.15 
  11  11   0    0.30    0.22 
  10 -12   0    0.19    0.20 
   9 -12   0    0.03    0.17 
   8 -12   0    0.27    0.17 
   7 -12   0    0.17    0.17 
   6 -12   0    0.16    0.15 
   5 -12   0    0.13    0.11 
   5 -12   0    0.20    0.15 
   4 -12   0    0.03    0.12 
   4 -12   0   -0.06    0.08 
   3 -12   0   -0.06    0.10 
   3 -12   0   -0.06    0.12 
   2 -12   0   -0.13    0.11 
   2 -12   0    0.07    0.11 
   1 -12   0    0.17    0.13 
   0 -12   0    0.19    0.13 
  -1 -12   0    0.11    0.12 
  -2 -12   0    0.07    0.12 
  -3 -12   0    0.13    0.12 
  -4 -12   0    0.04    0.12 
  -5 -12   0    0.23    0.15 
  -6 -12   0    0.26    0.15 
  -7 -12   0    0.29    0.15 
  -8 -12   0    0.28    0.15 
  -9 -12   0   -0.07    0.15 
 -10 -12   0   -0.03    0.16 
   8 -13   0    0.23    0.18 
   7 -13   0   -0.03    0.16 
   6 -13   0    0.14    0.16 
   5 -13   0    0.42    0.18 
   5 -13   0    0.48    0.16 
   4 -13   0    0.44    0.17 
   4 -13   0    0.54    0.17 
   3 -13   0    0.43    0.15 
   3 -13   0    0.89    0.20 
   2 -13   0    0.28    0.15 
   1 -13   0    0.26    0.15 
   0 -13   0   -0.15    0.11 
  -1 -13   0    0.20    0.15 
  -2 -13   0    0.33    0.16 
  -3 -13   0    0.01    0.13 
  -4 -13   0    0.32    0.16 
  -5 -13   0    0.14    0.15 
  -6 -13   0   -0.01    0.14 
  -7 -13   0    0.07    0.13 
  -8 -13   0    0.22    0.16 
   6 -14   0    0.17    0.17 
   5 -14   0    0.11    0.16 
   4 -14   0    0.14    0.18 
   4 -14   0    0.02    0.15 
   3 -14   0    0.35    0.16 
   2 -14   0    0.21    0.15 
   1 -14   0    0.69    0.20 
   0 -14   0    0.16    0.15 
  -1 -14   0    0.40    0.19 
  -2 -14   0    0.31    0.19 
  -3 -14   0    0.13    0.16 
  -4 -14   0   -0.06    0.14 
  -5 -14   0    0.13    0.18 
  -6 -14   0   -0.19    0.16 
   3 -15   0    0.06    0.17 
   2 -15   0    0.22    0.19 
   1 -15   0    0.06    0.17 
   0 -15   0   -0.17    0.15 
  -1 -15   0    0.18    0.18 
  -2 -15   0    0.18    0.20 
  -3 -15   0    0.22    0.20 
  -4 -15   0   -0.13    0.16 
  -4 -15   1   -0.05    0.17 
  -3 -15   1    0.25    0.21 
  -2 -15   1    0.06    0.18 
  -1 -15   1    0.15    0.19 
   0 -15   1    0.06    0.18 
   1 -15   1   -0.01    0.16 
   2 -15   1    0.11    0.17 
   3 -15   1   -0.18    0.16 
  -7 -14   1    0.49    0.20 
  -6 -14   1    0.03    0.17 
  -5 -14   1    0.09    0.16 
  -4 -14   1    0.33    0.19 
  -3 -14   1   -0.19    0.12 
  -2 -14   1   -0.12    0.13 
  -1 -14   1    0.58    0.19 
   0 -14   1   -0.10    0.13 
   1 -14   1    0.21    0.16 
   2 -14   1    1.25    0.24 
   3 -14   1    0.78    0.21 
   4 -14   1    0.34    0.19 
   4 -14   1    0.30    0.16 
   5 -14   1    0.24    0.17 
   6 -14   1    0.88    0.24 
  -8 -13   1   -0.08    0.13 
  -7 -13   1   -0.08    0.13 
  -6 -13   1    0.03    0.13 
  -5 -13   1   -0.12    0.13 
  -4 -13   1    0.00    0.13 
  -3 -13   1    0.09    0.13 
  -2 -13   1    0.39    0.16 
  -1 -13   1    0.03    0.13 
   0 -13   1    0.45    0.17 
   1 -13   1    0.10    0.13 
   2 -13   1    0.46    0.16 
   3 -13   1    1.32    0.24 
   3 -13   1    1.18    0.22 
   4 -13   1    0.58    0.19 
   4 -13   1    0.55    0.17 
   5 -13   1    0.20    0.13 
   5 -13   1   -0.03    0.13 
   6 -13   1    0.36    0.18 
   7 -13   1    0.18    0.19 
   8 -13   1    0.05    0.18 
  10  12  -1    0.06    0.20 
 -10 -12   1   -0.04    0.13 
   9  12  -1    0.21    0.18 
  -9 -12   1    0.25    0.17 
  -8 -12   1    0.47    0.18 
  -7 -12   1    1.18    0.23 
  -6 -12   1   -0.12    0.09 
  -5 -12   1   -0.02    0.10 
  -4 -12   1    0.02    0.11 
  -3 -12   1    0.06    0.11 
  -2 -12   1    1.21    0.23 
  -1 -12   1    0.23    0.14 
   0 -12   1    0.19    0.13 
   1 -12   1    0.78    0.19 
   2 -12   1    2.12    0.25 
   2 -12   1    2.01    0.26 
   3 -12   1    2.19    0.27 
   3 -12   1    2.51    0.28 
   4 -12   1    0.11    0.11 
   4 -12   1    0.08    0.13 
   5 -12   1    0.56    0.19 
   5 -12   1    0.65    0.17 
   6 -12   1    0.51    0.18 
   7 -12   1    0.26    0.17 
   8 -12   1    0.69    0.22 
   9 -12   1    0.33    0.20 
  11  11  -1   -0.10    0.18 
 -11 -11   1    0.03    0.15 
  10  11  -1   -0.05    0.16 
 -10 -11   1    0.07    0.14 
   9  11  -1    0.53    0.19 
  -9 -11   1    0.08    0.14 
   8  11  -1   -0.09    0.12 
  -8 -11   1    0.14    0.13 
   7  11  -1    0.09    0.13 
  -7 -11   1   -0.03    0.12 
  -6 -11   1    0.09    0.12 
  -5 -11   1    0.18    0.12 
  -4 -11   1   -0.03    0.10 
  -3 -11   1    1.53    0.24 
  -2 -11   1    1.08    0.20 
  -1 -11   1    1.56    0.23 
   0 -11   1    2.73    0.29 
   1 -11   1    2.01    0.22 
   1 -11   1    2.54    0.27 
   2 -11   1   -0.02    0.11 
   2 -11   1   -0.07    0.10 
   3 -11   1   -0.02    0.12 
   3 -11   1    0.07    0.11 
   4 -11   1    0.27    0.13 
   4 -11   1    0.36    0.15 
   5 -11   1    0.75    0.19 
   5 -11   1    0.79    0.17 
   6 -11   1    1.22    0.20 
   6 -11   1    1.33    0.24 
   7 -11   1    0.18    0.15 
   8 -11   1    0.00    0.14 
   9 -11   1    0.35    0.18 
  10 -11   1    0.19    0.19 
  11 -11   1   -0.19    0.16 
  12  10  -1   -0.19    0.16 
 -12 -10   1    0.11    0.15 
  11  10  -1    0.35    0.21 
 -11 -10   1    0.21    0.16 
  10  10  -1    0.50    0.18 
 -10 -10   1    0.60    0.18 
   9  10  -1    0.24    0.15 
  -9 -10   1    0.14    0.13 
   8  10  -1    0.16    0.14 
  -8 -10   1    0.11    0.13 
   7  10  -1    0.86    0.18 
  -7 -10   1    0.32    0.14 
   6  10  -1    0.02    0.12 
  -6 -10   1    0.27    0.15 
   5  10  -1   -0.04    0.11 
  -5 -10   1    0.01    0.10 
  -4 -10   1    0.54    0.15 
  -3 -10   1    0.59    0.17 
  -2 -10   1    3.76    0.32 
  -1 -10   1    0.57    0.12 
  -1 -10   1    0.26    0.12 
   0 -10   1    1.04    0.18 
   1 -10   1    0.01    0.09 
   1 -10   1    0.09    0.10 
   2 -10   1    0.09    0.11 
   2 -10   1    0.13    0.11 
   3 -10   1    0.22    0.12 
   3 -10   1    0.26    0.11 
   4 -10   1    0.29    0.12 
   4 -10   1    0.17    0.13 
   5 -10   1    8.03    0.47 
   5 -10   1    6.98    0.41 
   6 -10   1    3.49    0.33 
   6 -10   1    3.62    0.28 
   7 -10   1    0.95    0.22 
   8 -10   1   -0.10    0.13 
   9 -10   1    0.19    0.15 
  10 -10   1    0.36    0.19 
  11 -10   1   -0.22    0.15 
  12 -10   1    0.02    0.20 
  13   9  -1    0.49    0.23 
 -13  -9   1    0.21    0.16 
  12   9  -1    0.64    0.24 
 -12  -9   1    0.42    0.17 
  11   9  -1    0.16    0.17 
 -11  -9   1    0.09    0.12 
  10   9  -1    0.34    0.17 
 -10  -9   1    0.63    0.18 
   9   9  -1    0.95    0.20 
  -9  -9   1    0.63    0.17 
   8   9  -1    0.77    0.18 
  -8  -9   1    0.84    0.19 
   7   9  -1    1.04    0.19 
  -7  -9   1    0.77    0.18 
   6   9  -1    1.67    0.21 
  -6  -9   1    1.54    0.22 
   5   9  -1    2.76    0.25 
  -5  -9   1    2.33    0.25 
   4   9  -1    4.99    0.31 
  -4  -9   1    5.79    0.36 
  -3  -9   1    0.74    0.16 
  -2  -9   1    3.37    0.26 
  -2  -9   1    3.41    0.21 
  -1  -9   1    1.19    0.14 
  -1  -9   1    1.30    0.19 
   0  -9   1    4.63    0.28 
   0  -9   1    5.69    0.34 
   1  -9   1    6.68    0.36 
   1  -9   1    6.84    0.38 
   2  -9   1   -0.07    0.08 
   2  -9   1    0.14    0.10 
   3  -9   1    1.37    0.19 
   3  -9   1    1.47    0.19 
   4  -9   1    4.72    0.31 
   4  -9   1    5.30    0.35 
   5  -9   1    0.14    0.10 
   5  -9   1    0.14    0.11 
   6  -9   1    0.18    0.10 
   6  -9   1   -0.02    0.10 
   7  -9   1    1.34    0.18 
   7  -9   1    1.37    0.22 
   8  -9   1    1.11    0.23 
   9  -9   1    0.49    0.17 
  10  -9   1   -0.05    0.13 
  11  -9   1    0.04    0.19 
  12  -9   1    0.13    0.20 
  13   8  -1    0.11    0.17 
 -13  -8   1    0.06    0.14 
  12   8  -1    0.18    0.17 
 -12  -8   1   -0.06    0.12 
  11   8  -1   -0.04    0.14 
 -11  -8   1    0.18    0.13 
  10   8  -1   -0.03    0.13 
 -10  -8   1    0.22    0.13 
   9   8  -1    0.02    0.12 
  -9  -8   1    0.07    0.10 
   8   8  -1    0.49    0.16 
  -8  -8   1    0.70    0.16 
   7   8  -1    2.25    0.24 
  -7  -8   1    2.22    0.24 
   6   8  -1    0.77    0.16 
  -6  -8   1    0.46    0.15 
   5   8  -1    1.30    0.18 
  -5  -8   1    1.39    0.19 
   4   8  -1    0.02    0.08 
  -4  -8   1   -0.06    0.08 
   3   8  -1    0.78    0.13 
  -3  -8   1    0.69    0.14 
  -3  -8   1    0.72    0.08 
  -2  -8   1    2.74    0.24 
  -2  -8   1    2.78    0.17 
  -1  -8   1    4.33    0.28 
  -1  -8   1    3.97    0.23 
   0  -8   1   11.65    0.50 
   0  -8   1   11.28    0.52 
   1  -8   1    8.17    0.40 
   1  -8   1    9.07    0.43 
   2  -8   1    4.36    0.27 
   2  -8   1    3.81    0.26 
   3  -8   1    1.79    0.18 
   3  -8   1    1.54    0.18 
   4  -8   1    1.55    0.20 
   4  -8   1    1.44    0.17 
   5  -8   1    0.39    0.11 
   5  -8   1    0.12    0.12 
   6  -8   1    0.41    0.10 
   6  -8   1    0.29    0.13 
   7  -8   1    0.24    0.08 
   7  -8   1   -0.06    0.09 
   8  -8   1    1.18    0.21 
   9  -8   1    0.13    0.14 
  10  -8   1    1.05    0.24 
  11  -8   1   -0.09    0.13 
  12  -8   1    0.02    0.17 
  13  -8   1   -0.11    0.18 
  14   7  -1    0.19    0.19 
  13   7  -1    0.40    0.21 
 -13  -7   1    0.44    0.17 
  12   7  -1    0.03    0.16 
 -12  -7   1    0.29    0.14 
  11   7  -1   -0.02    0.13 
 -11  -7   1   -0.14    0.09 
  10   7  -1    1.33    0.22 
 -10  -7   1    1.31    0.20 
   9   7  -1    1.07    0.19 
  -9  -7   1    0.86    0.18 
   8   7  -1    1.13    0.19 
  -8  -7   1    1.35    0.20 
   7   7  -1    0.34    0.13 
  -7  -7   1    0.18    0.10 
   6   7  -1    1.78    0.20 
  -6  -7   1    2.01    0.22 
   5   7  -1    7.27    0.37 
  -5  -7   1    7.23    0.39 
   4   7  -1    1.48    0.16 
  -4  -7   1    1.75    0.19 
   3   7  -1    1.98    0.17 
  -3  -7   1    2.18    0.20 
  -3  -7   1    2.08    0.12 
   2   7  -1    4.99    0.26 
  -2  -7   1    5.01    0.23 
  -2  -7   1    4.67    0.28 
  -1  -7   1    1.83    0.18 
  -1  -7   1    1.78    0.14 
   0  -7   1    3.03    0.20 
   0  -7   1    2.47    0.17 
   1  -7   1   12.21    0.52 
   1  -7   1   12.21    0.52 
   2  -7   1    1.39    0.15 
   2  -7   1    1.68    0.17 
   3  -7   1    0.00    0.07 
   3  -7   1    0.03    0.06 
   4  -7   1    3.00    0.24 
   4  -7   1    3.32    0.22 
   5  -7   1    0.17    0.11 
   5  -7   1    0.08    0.06 
   6  -7   1    0.07    0.06 
   6  -7   1   -0.09    0.09 
  -7   7  -1    2.00    0.17 
   7  -7   1    3.60    0.29 
  -8   7  -1    0.16    0.08 
   8  -7   1    0.20    0.12 
   9  -7   1    0.15    0.13 
  10  -7   1    0.05    0.14 
  11  -7   1    0.35    0.17 
  12  -7   1    0.58    0.21 
  13  -7   1   -0.20    0.14 
  14  -7   1   -0.01    0.20 
  14   6  -1    0.17    0.16 
  13   6  -1    0.20    0.17 
  12   6  -1   -0.01    0.15 
 -12  -6   1   -0.04    0.09 
  11   6  -1    0.16    0.15 
 -11  -6   1    0.18    0.12 
  10   6  -1    0.33    0.14 
 -10  -6   1    0.10    0.12 
   9   6  -1    1.31    0.20 
  -9  -6   1    1.42    0.19 
   8   6  -1    7.09    0.41 
  -8  -6   1    7.16    0.39 
   7   6  -1    7.05    0.39 
  -7  -6   1    7.32    0.39 
   6   6  -1    0.14    0.08 
  -6  -6   1    0.03    0.06 
   5   6  -1    0.42    0.11 
  -5  -6   1    0.38    0.10 
   4   6  -1    0.98    0.13 
  -4  -6   1    0.93    0.14 
   3   6  -1    7.72    0.34 
  -3  -6   1    7.46    0.28 
  -3  -6   1    7.01    0.36 
   2   6  -1    8.59    0.36 
  -2  -6   1    8.49    0.34 
  -2  -6   1    8.20    0.39 
  -1  -6   1    1.16    0.13 
  -1  -6   1    0.83    0.09 
   0  -6   1    4.22    0.24 
   0  -6   1    4.14    0.22 
   1  -6   1   13.93    0.57 
   1  -6   1   14.27    0.57 
   2  -6   1    3.81    0.22 
   2  -6   1    3.80    0.24 
   3  -6   1    0.71    0.12 
   3  -6   1    0.76    0.11 
   4  -6   1    0.08    0.07 
   4  -6   1    0.16    0.07 
   5  -6   1    0.40    0.06 
   5  -6   1    0.34    0.08 
   5  -6   1    0.30    0.10 
   6  -6   1    1.05    0.09 
   6  -6   1    1.13    0.13 
   6  -6   1    0.93    0.17 
  -7   6  -1    0.01    0.04 
   7  -6   1   -0.11    0.08 
  -8   6  -1    1.01    0.13 
   8  -6   1    1.05    0.19 
   9  -6   1    1.21    0.22 
  10  -6   1    0.33    0.17 
  11  -6   1    0.51    0.18 
  12  -6   1    0.16    0.15 
  13  -6   1    0.06    0.15 
  14  -6   1   -0.01    0.18 
  15   5  -1   -0.17    0.15 
  14   5  -1    0.02    0.17 
  13   5  -1    0.22    0.15 
  12   5  -1    0.65    0.18 
 -12  -5   1    0.89    0.18 
  11   5  -1    1.69    0.25 
 -11  -5   1    1.51    0.20 
  10   5  -1    0.79    0.18 
 -10  -5   1    0.64    0.14 
   9   5  -1    1.01    0.19 
  -9  -5   1    0.74    0.15 
   8   5  -1    1.02    0.17 
  -8  -5   1    0.85    0.14 
   7   5  -1    0.32    0.12 
  -7  -5   1    0.53    0.11 
   6   5  -1    0.58    0.11 
  -6  -5   1    0.43    0.10 
   5   5  -1    1.01    0.13 
  -5  -5   1    0.74    0.12 
   4   5  -1   11.21    0.45 
  -4  -5   1   10.38    0.47 
   3   5  -1    0.01    0.06 
  -3  -5   1   -0.03    0.05 
  -3  -5   1    0.02    0.02 
   2   5  -1    9.70    0.39 
  -2  -5   1    9.64    0.42 
  -2  -5   1   10.11    0.37 
   1   5  -1    3.07    0.16 
  -1  -5   1    3.11    0.19 
  -1  -5   1    3.10    0.16 
   0  -5   1    2.70    0.17 
   0  -5   1    2.71    0.16 
   1  -5   1    6.24    0.29 
   1  -5   1    6.20    0.29 
   2  -5   1   15.27    0.60 
   2  -5   1   16.57    0.64 
   3  -5   1   17.91    0.68 
   3  -5   1   18.44    0.72 
   4  -5   1    0.35    0.09 
   4  -5   1    0.49    0.09 
   5  -5   1    9.66    0.42 
   5  -5   1   10.06    0.48 
   5  -5   1   10.36    0.38 
  -6   5  -1   -0.01    0.03 
   6  -5   1    0.00    0.07 
   6  -5   1    0.00    0.05 
  -7   5  -1    0.26    0.07 
   7  -5   1    0.20    0.10 
   7  -5   1    0.35    0.08 
  -8   5  -1    0.45    0.09 
   8  -5   1    0.44    0.10 
   8  -5   1    0.40    0.13 
  -9   5  -1    0.77    0.12 
   9  -5   1    0.85    0.12 
   9  -5   1    0.63    0.16 
  10  -5   1   -0.20    0.11 
  11  -5   1    0.04    0.14 
  12  -5   1    0.23    0.17 
  13  -5   1    0.39    0.18 
  14  -5   1   -0.12    0.16 
  15  -5   1   -0.14    0.20 
  15   4  -1   -0.12    0.13 
  14   4  -1    0.28    0.16 
  13   4  -1    0.04    0.15 
  12   4  -1    0.03    0.12 
 -12  -4   1    0.05    0.10 
  11   4  -1    1.00    0.20 
 -11  -4   1    1.05    0.17 
  10   4  -1    2.20    0.24 
 -10  -4   1    2.06    0.20 
   9   4  -1    0.08    0.11 
  -9  -4   1    0.13    0.08 
   8   4  -1    1.76    0.20 
  -8  -4   1    1.92    0.18 
   7   4  -1    0.50    0.12 
  -7  -4   1    0.32    0.09 
   6   4  -1    3.22    0.22 
  -6  -4   1    4.02    0.23 
   5   4  -1    5.31    0.27 
  -5  -4   1    4.70    0.26 
   4   4  -1   22.15    0.82 
  -4  -4   1   23.10    0.83 
   3   4  -1    0.76    0.09 
  -3  -4   1    0.69    0.10 
   2   4  -1    6.56    0.28 
  -2  -4   1    6.88    0.30 
  -2  -4   1    6.61    0.25 
   1   4  -1   47.68    1.57 
  -1  -4   1   49.05    1.62 
  -1  -4   1   46.38    1.60 
   0  -4   1   -0.02    0.04 
   0  -4   1   -0.01    0.04 
   1  -4   1    3.82    0.21 
   1  -4   1    4.42    0.21 
   2  -4   1    0.37    0.07 
   2  -4   1    0.29    0.07 
   3  -4   1    7.39    0.32 
   3  -4   1    7.21    0.34 
   4  -4   1    3.19    0.15 
   4  -4   1    3.14    0.18 
   4  -4   1    3.27    0.22 
  -5   4  -1    0.53    0.08 
   5  -4   1    0.89    0.13 
   5  -4   1    0.93    0.08 
   6  -4   1    1.04    0.10 
   6  -4   1    1.12    0.15 
  -7   4  -1    1.08    0.11 
   7  -4   1    0.95    0.11 
   7  -4   1    1.18    0.16 
  -8   4  -1   -0.02    0.05 
   8  -4   1    0.03    0.07 
   8  -4   1    0.09    0.09 
  -9   4  -1    3.11    0.19 
   9  -4   1    2.83    0.26 
  10  -4   1    1.30    0.16 
  10  -4   1    1.82    0.24 
  11  -4   1   -0.02    0.11 
  11  -4   1    0.00    0.12 
  12  -4   1    1.35    0.24 
  13  -4   1   -0.14    0.13 
  14  -4   1    0.15    0.17 
  15  -4   1   -0.06    0.19 
  15   3  -1   -0.17    0.15 
  14   3  -1   -0.04    0.14 
  13   3  -1   -0.02    0.13 
  12   3  -1    0.44    0.16 
  11   3  -1    1.54    0.22 
 -11  -3   1    1.60    0.19 
  10   3  -1    2.67    0.26 
 -10  -3   1    2.74    0.22 
   9   3  -1    0.04    0.11 
  -9  -3   1   -0.07    0.06 
   8   3  -1    2.87    0.15 
   8   3  -1    2.34    0.22 
  -8  -3   1    2.76    0.20 
   7   3  -1    5.51    0.31 
   7   3  -1    5.86    0.24 
  -7  -3   1    5.84    0.30 
   6   3  -1    0.15    0.07 
   6   3  -1    0.17    0.04 
  -6  -3   1    0.21    0.07 
   5   3  -1    0.02    0.02 
   5   3  -1   -0.03    0.05 
  -5  -3   1    0.05    0.05 
   4   3  -1    4.97    0.23 
  -4  -3   1    4.19    0.22 
   3   3  -1    6.77    0.28 
  -3  -3   1    6.58    0.29 
   2   3  -1   21.24    0.75 
  -2  -3   1   22.57    0.78 
  -2  -3   1   22.00    0.75 
   1   3  -1    8.93    0.32 
  -1  -3   1    7.93    0.33 
  -1  -3   1    8.78    0.32 
   0   3  -1  101.32    3.24 
   0  -3   1  104.49    3.29 
   0  -3   1   97.99    3.38 
   1  -3   1   18.25    0.67 
   1  -3   1   18.40    0.65 
   2  -3   1   94.22    3.05 
   2  -3   1   92.66    3.16 
   3  -3   1    5.85    0.21 
   3  -3   1    5.04    0.27 
   3  -3   1    5.65    0.24 
  -4   3  -1    0.92    0.08 
   4  -3   1    0.82    0.07 
   4  -3   1    1.02    0.12 
   5  -3   1   24.23    0.81 
   5  -3   1   22.57    0.89 
   6  -3   1   10.15    0.40 
  -7   3  -1    0.40    0.08 
   7  -3   1    0.38    0.10 
   7  -3   1    0.10    0.05 
  -8   3  -1    0.11    0.06 
   8  -3   1    0.05    0.07 
   8  -3   1   -0.05    0.06 
  -9   3  -1    1.86    0.16 
   9  -3   1    2.06    0.18 
   9  -3   1    1.69    0.21 
  10  -3   1    0.16    0.09 
  10  -3   1    0.12    0.11 
  11  -3   1    0.11    0.12 
  11  -3   1    0.02    0.11 
  12  -3   1    0.10    0.13 
  12  -3   1    0.02    0.12 
  13  -3   1    0.30    0.15 
  14  -3   1    0.43    0.19 
  16   2  -1   -0.06    0.17 
  15   2  -1    0.08    0.16 
  14   2  -1    0.49    0.18 
  13   2  -1    0.23    0.14 
  12   2  -1    0.07    0.13 
  11   2  -1    2.10    0.23 
  10   2  -1    4.17    0.24 
  10   2  -1    4.19    0.30 
 -10  -2   1    3.33    0.23 
   9   2  -1   -0.03    0.06 
   9   2  -1    0.04    0.10 
  -9  -2   1    0.10    0.07 
   8   2  -1    1.85    0.13 
   8   2  -1    1.49    0.17 
  -8  -2   1    1.88    0.16 
   7   2  -1    3.89    0.24 
   7   2  -1    4.13    0.20 
  -7  -2   1    4.46    0.23 
   6   2  -1   11.02    0.42 
   6   2  -1   10.85    0.46 
  -6  -2   1   11.23    0.45 
   5   2  -1    7.96    0.35 
   5   2  -1    8.38    0.32 
  -5  -2   1    8.66    0.35 
   4   2  -1    9.00    0.36 
   4   2  -1    8.93    0.33 
  -4  -2   1    9.23    0.36 
   3   2  -1   99.57    3.27 
   3   2  -1   91.84    3.14 
  -3  -2   1  101.08    3.17 
   2   2  -1    0.23    0.05 
  -2  -2   1    0.18    0.04 
   1   2  -1   51.66    1.69 
  -1  -2   1   52.27    1.71 
  -1  -2   1   52.38    1.75 
   0   2  -1   24.79    0.80 
   0  -2   1   24.68    0.82 
   0  -2   1   23.73    0.84 
   1  -2   1   13.80    0.51 
   1  -2   1   14.41    0.50 
   2  -2   1  531.17   16.90 
   2  -2   1  511.53   17.52 
   2  -2   1  547.89   16.94 
  -3   2  -1   30.69    1.06 
   3  -2   1   32.16    1.13 
   3  -2   1   32.95    1.05 
  -4   2  -1    0.05    0.03 
   4  -2   1    0.05    0.05 
   4  -2   1    0.02    0.03 
   5  -2   1   13.39    0.49 
  -6   2  -1    0.05    0.03 
   6  -2   1    0.14    0.07 
   6  -2   1    0.16    0.06 
  -7   2  -1    5.82    0.31 
   7  -2   1    8.80    0.35 
   7  -2   1    8.03    0.38 
  -8   2  -1    0.92    0.11 
   8  -2   1    0.98    0.15 
   8  -2   1    0.92    0.12 
  -9   2  -1    3.66    0.21 
   9  -2   1    3.67    0.26 
   9  -2   1    3.46    0.24 
 -10   2  -1    4.72    0.26 
  10  -2   1    5.27    0.34 
  10  -2   1    4.15    0.29 
  11  -2   1    0.22    0.13 
  11  -2   1    0.11    0.12 
  12  -2   1    1.50    0.23 
  12  -2   1    1.79    0.22 
  13  -2   1    0.46    0.15 
  13  -2   1    0.64    0.18 
  14  -2   1   -0.03    0.15 
  14  -2   1    0.02    0.14 
  16   1  -1   -0.09    0.15 
  15   1  -1   -0.08    0.15 
  14   1  -1    0.13    0.15 
  13   1  -1    0.28    0.14 
  12   1  -1   -0.07    0.10 
  11   1  -1    0.09    0.07 
  11   1  -1   -0.08    0.10 
 -11  -1   1    0.17    0.08 
  10   1  -1    0.01    0.07 
  10   1  -1    0.07    0.10 
 -10  -1   1   -0.02    0.07 
   9   1  -1    9.30    0.39 
   9   1  -1    8.62    0.41 
  -9  -1   1    6.78    0.35 
   8   1  -1    4.91    0.28 
   8   1  -1    5.16    0.26 
   7   1  -1    3.69    0.20 
   7   1  -1    3.55    0.22 
   6   1  -1   15.89    0.60 
   6   1  -1   15.28    0.59 
   5   1  -1    6.30    0.29 
   5   1  -1    6.36    0.27 
   4   1  -1    6.68    0.27 
   4   1  -1    6.89    0.29 
   3   1  -1  141.00    4.38 
   3   1  -1  134.71    4.23 
  -3  -1   1  119.18    4.23 
   2   1  -1   29.80    0.97 
   2   1  -1   27.49    0.94 
  -2  -1   1   28.49    0.95 
   1   1  -1   65.66    2.19 
  -1  -1   1   70.67    2.21 
   0   1  -1    1.19    0.06 
   0  -1   1    1.02    0.07 
   0  -1   1    0.76    0.07 
   1  -1   1    3.08    0.12 
   1  -1   1    3.01    0.14 
   1  -1   1    2.84    0.15 
  -2   1  -1   63.71    2.02 
   2  -1   1   60.51    2.10 
  -3   1  -1   14.81    0.50 
   3  -1   1   15.53    0.54 
   3  -1   1   12.59    0.49 
  -4   1  -1    5.61    0.25 
   4  -1   1    6.23    0.28 
   4  -1   1    7.08    0.26 
   5  -1   1   31.91    1.16 
   5  -1   1   32.89    1.10 
   6  -1   1    2.34    0.16 
   6  -1   1    2.50    0.17 
   7  -1   1    7.86    0.35 
   7  -1   1    7.56    0.37 
   8  -1   1    9.48    0.45 
   8  -1   1    9.80    0.43 
  -9   1  -1    0.02    0.05 
   9  -1   1    0.13    0.08 
   9  -1   1    0.00    0.08 
 -10   1  -1    3.13    0.20 
  10  -1   1    2.66    0.24 
  10  -1   1    2.84    0.24 
  11  -1   1    0.29    0.13 
  11  -1   1    0.20    0.12 
  12  -1   1    0.81    0.17 
  12  -1   1    0.46    0.16 
  13  -1   1   -0.18    0.10 
  13  -1   1   -0.01    0.12 
  14  -1   1   -0.18    0.12 
  15  -1   1   -0.16    0.13 
  16   0  -1   -0.22    0.14 
  15   0  -1    0.01    0.14 
  14   0  -1   -0.10    0.13 
  13   0  -1   -0.03    0.13 
  12   0  -1    0.00    0.10 
  12   0  -1    0.22    0.13 
  11   0  -1   -0.17    0.09 
  11   0  -1    0.11    0.08 
  10   0  -1    0.10    0.08 
  10   0  -1    0.04    0.10 
 -10   0   1   -0.05    0.06 
   9   0  -1   -0.06    0.07 
   9   0  -1    0.02    0.07 
  -9   0   1    0.08    0.06 
   8   0  -1   -0.01    0.07 
   8   0  -1   -0.09    0.05 
  -8   0   1   -0.03    0.05 
   7   0  -1   -0.01    0.06 
   7   0  -1    0.02    0.07 
  -7   0   1   -0.01    0.04 
   6   0  -1   -0.09    0.04 
   6   0  -1    0.01    0.05 
  -6   0   1    0.01    0.04 
   5   0  -1    0.06    0.04 
   5   0  -1    0.01    0.04 
  -5   0   1    0.01    0.03 
   4   0  -1    0.00    0.03 
   4   0  -1    0.14    0.04 
  -4   0   1   -0.05    0.02 
   3   0  -1    0.01    0.03 
   3   0  -1   -0.01    0.03 
  -3   0   1   -0.02    0.02 
   2   0  -1   -0.08    0.02 
   2   0  -1   -0.05    0.02 
  -2   0   1   -0.06    0.01 
   1   0  -1   -0.01    0.01 
   1   0  -1   -0.01    0.01 
  -1   0   1    0.00    0.00 
   0   0  -1    0.01    0.00 
  -1   0  -1   -0.01    0.01 
   1   0   1    0.00    0.01 
   1   0   1   -0.03    0.01 
  -2   0  -1   -0.07    0.02 
   2   0   1   -0.07    0.02 
   2   0   1   -0.02    0.02 
  -3   0  -1    0.01    0.03 
   3   0   1    0.03    0.04 
   3   0   1   -0.03    0.03 
  -4   0  -1   -0.01    0.03 
   4   0   1   -0.01    0.04 
   4   0   1    0.06    0.04 
  -5   0  -1   -0.03    0.03 
   5   0   1    0.04    0.05 
   5   0   1    0.02    0.04 
  -6   0  -1    0.00    0.04 
   6   0   1    0.03    0.06 
   6   0   1    0.01    0.05 
  -7   0  -1    0.02    0.05 
   7   0   1    0.01    0.07 
   7   0   1    0.02    0.06 
  -8   0  -1    0.04    0.06 
   8   0   1   -0.07    0.06 
   8   0   1   -0.06    0.06 
  -9   0  -1   -0.01    0.06 
   9   0   1   -0.05    0.06 
   9   0   1   -0.02    0.08 
 -10   0  -1    0.02    0.05 
  10   0   1    0.05    0.07 
  10   0   1   -0.08    0.10 
 -11   0  -1    0.03    0.05 
  11   0   1   -0.02    0.08 
  11   0   1    0.08    0.11 
  12   0   1    0.02    0.11 
  12   0   1   -0.18    0.10 
  13   0   1    0.27    0.15 
  14   0   1    0.10    0.14 
  15   0   1    0.13    0.17 
  16  -1  -1   -0.04    0.16 
  15  -1  -1   -0.02    0.13 
  14  -1  -1    0.27    0.15 
  13  -1  -1    0.16    0.14 
  13  -1  -1    0.22    0.14 
  12  -1  -1   -0.02    0.11 
  12  -1  -1   -0.09    0.11 
  11  -1  -1    0.08    0.11 
  11  -1  -1    0.13    0.11 
  10  -1  -1   -0.01    0.09 
  10  -1  -1   -0.04    0.07 
 -10   1   1   -0.04    0.05 
   9  -1  -1    8.76    0.42 
   9  -1  -1    9.26    0.45 
  -9   1   1    8.93    0.38 
   8  -1  -1    5.10    0.29 
   8  -1  -1    5.55    0.29 
  -8   1   1    5.02    0.24 
   7  -1  -1    3.51    0.22 
   7  -1  -1    3.70    0.22 
  -7   1   1    3.79    0.18 
   6  -1  -1   15.54    0.62 
   6  -1  -1   15.84    0.59 
  -6   1   1   15.80    0.56 
   5  -1  -1    6.17    0.27 
   5  -1  -1    6.29    0.29 
  -5   1   1    6.42    0.24 
   4  -1  -1    6.61    0.29 
   4  -1  -1    6.70    0.27 
  -4   1   1    6.63    0.24 
   3  -1  -1  138.37    4.73 
  -3   1   1  145.70    4.56 
   2  -1  -1   27.49    0.94 
  -2   1   1   27.20    0.89 
   1  -1  -1   67.70    2.22 
   1  -1  -1   68.56    2.28 
   0  -1  -1    0.53    0.05 
  -1  -1  -1    3.12    0.14 
   1   1   1    3.05    0.15 
  -2  -1  -1   60.79    1.98 
   2   1   1   61.00    1.97 
   2   1   1   60.58    2.04 
  -3  -1  -1   15.79    0.56 
   3   1   1   16.57    0.57 
   3   1   1   15.73    0.57 
  -4  -1  -1    6.95    0.29 
   4   1   1    7.04    0.30 
   4   1   1    7.06    0.28 
  -5  -1  -1   33.84    1.16 
   5   1   1   34.96    1.19 
   5   1   1   33.29    1.17 
  -6  -1  -1    2.60    0.16 
   6   1   1    2.50    0.15 
   6   1   1    2.64    0.18 
  -7  -1  -1    7.69    0.34 
   7   1   1    6.91    0.33 
   7   1   1    7.58    0.36 
  -8  -1  -1    9.38    0.41 
   8   1   1    9.15    0.41 
   8   1   1    9.25    0.43 
  -9  -1  -1    0.10    0.07 
   9   1   1    0.12    0.11 
   9   1   1    0.14    0.08 
 -10  -1  -1    2.73    0.20 
  10   1   1    2.87    0.21 
  10   1   1    2.63    0.25 
 -11  -1  -1    0.13    0.09 
  11   1   1    0.33    0.09 
  11   1   1    0.27    0.13 
  12   1   1    0.60    0.16 
  13   1   1   -0.09    0.12 
  14   1   1    0.03    0.14 
  15   1   1   -0.03    0.16 
  15  -2  -1   -0.02    0.15 
  14  -2  -1    0.45    0.17 
  14  -2  -1    0.57    0.18 
  13  -2  -1    0.50    0.16 
  13  -2  -1    0.33    0.14 
  12  -2  -1    0.17    0.12 
  12  -2  -1    0.10    0.12 
  11  -2  -1    2.30    0.24 
  11  -2  -1    2.77    0.24 
  10  -2  -1    4.20    0.28 
  10  -2  -1    4.09    0.30 
   9  -2  -1    0.05    0.08 
   9  -2  -1    0.12    0.09 
  -9   2   1    0.04    0.05 
   8  -2  -1    1.96    0.18 
   8  -2  -1    1.69    0.16 
  -8   2   1    1.73    0.12 
   7  -2  -1    4.15    0.23 
   7  -2  -1    4.35    0.26 
  -7   2   1    3.95    0.19 
   6  -2  -1   10.99    0.45 
   6  -2  -1   11.40    0.49 
  -6   2   1   11.85    0.42 
   5  -2  -1    8.64    0.39 
   5  -2  -1    8.60    0.35 
  -5   2   1    8.88    0.32 
   4  -2  -1    9.25    0.39 
  -4   2   1    9.01    0.32 
   3  -2  -1   98.34    3.29 
   3  -2  -1   97.02    3.15 
   2  -2  -1    0.19    0.05 
   2  -2  -1    0.24    0.03 
   1  -2  -1   51.01    1.67 
   1  -2  -1   51.80    1.74 
   0  -2  -1   26.04    0.87 
  -1  -2  -1   15.80    0.53 
  -1  -2  -1   14.99    0.51 
   1   2   1   13.75    0.51 
  -2  -2  -1  548.97   16.94 
   2   2   1  511.46   16.84 
  -3  -2  -1   31.14    1.07 
   3   2   1   32.01    1.08 
  -4  -2  -1    0.04    0.04 
   4   2   1    0.12    0.03 
   4   2   1   -0.04    0.05 
  -5  -2  -1   21.17    0.75 
   5   2   1   20.77    0.76 
   5   2   1   20.43    0.74 
  -6  -2  -1    0.20    0.07 
   6   2   1    0.27    0.06 
   6   2   1    0.18    0.08 
  -7  -2  -1    8.34    0.38 
   7   2   1    8.89    0.37 
   7   2   1    8.43    0.41 
  -8  -2  -1    0.78    0.12 
   8   2   1    0.73    0.10 
   8   2   1    0.58    0.13 
  -9  -2  -1    3.28    0.23 
   9   2   1    3.79    0.28 
   9   2   1    3.92    0.22 
 -10  -2  -1    5.18    0.30 
  10   2   1    4.78    0.32 
 -11  -2  -1    0.22    0.11 
  11   2   1    0.36    0.13 
 -12  -2  -1    2.00    0.22 
  12   2   1    2.28    0.27 
  13   2   1    0.16    0.14 
  14   2   1   -0.16    0.13 
  15   2   1    0.24    0.19 
  15  -3  -1    0.04    0.18 
  14  -3  -1    0.04    0.14 
  14  -3  -1    0.09    0.15 
  13  -3  -1   -0.08    0.12 
  13  -3  -1    0.30    0.15 
  12  -3  -1    0.38    0.14 
  12  -3  -1    0.40    0.14 
  11  -3  -1    1.63    0.23 
  11  -3  -1    1.83    0.21 
  10  -3  -1    2.47    0.25 
  10  -3  -1    2.43    0.21 
   9  -3  -1    0.04    0.08 
   9  -3  -1    0.22    0.12 
  -9   3   1    0.06    0.06 
   8  -3  -1    2.73    0.22 
   8  -3  -1    2.89    0.20 
  -8   3   1    2.90    0.16 
   7  -3  -1    5.53    0.32 
   7  -3  -1    5.69    0.28 
  -7   3   1    5.90    0.25 
   6  -3  -1    0.10    0.07 
   6  -3  -1    0.18    0.06 
  -6   3   1    0.09    0.04 
   5  -3  -1    0.06    0.06 
  -5   3   1    0.01    0.03 
   4  -3  -1    4.54    0.19 
   4  -3  -1    4.29    0.24 
   3  -3  -1    6.15    0.29 
   3  -3  -1    6.53    0.25 
   2  -3  -1   21.40    0.78 
   2  -3  -1   22.08    0.74 
   1  -3  -1    8.54    0.34 
   1  -3  -1    8.51    0.32 
   0  -3  -1   71.40    2.40 
  -1  -3  -1   19.10    0.65 
  -1  -3  -1   18.53    0.66 
   1   3   1   18.35    0.65 
  -2  -3  -1  101.36    3.27 
  -2  -3  -1   98.99    3.20 
   2   3   1   93.59    3.17 
  -3  -3  -1    5.53    0.20 
  -3  -3  -1    5.69    0.26 
   3   3   1    5.60    0.26 
  -4  -3  -1    0.98    0.11 
   4   3   1    1.07    0.11 
  -5  -3  -1   23.15    0.83 
   5   3   1   22.07    0.83 
  -6  -3  -1   14.99    0.59 
   6   3   1   15.16    0.54 
   6   3   1   14.04    0.59 
  -7  -3  -1    0.44    0.10 
   7   3   1    0.27    0.05 
   7   3   1    0.37    0.11 
  -8  -3  -1    0.25    0.09 
   8   3   1    0.14    0.10 
   8   3   1    0.13    0.05 
  -9  -3  -1    1.55    0.18 
   9   3   1    2.06    0.22 
 -10  -3  -1    0.16    0.10 
  10   3   1    0.07    0.11 
 -11  -3  -1    0.11    0.11 
  11   3   1    0.06    0.12 
 -12  -3  -1    0.03    0.10 
  12   3   1   -0.06    0.11 
  13   3   1    0.05    0.16 
  14   3   1    0.47    0.19 
  15   3   1    0.29    0.19 
  15  -4  -1   -0.08    0.17 
  14  -4  -1    0.42    0.18 
  13  -4  -1    0.11    0.16 
  12  -4  -1   -0.12    0.11 
  12  -4  -1    0.04    0.12 
  11  -4  -1    1.29    0.18 
  11  -4  -1    0.75    0.18 
  10  -4  -1    2.44    0.21 
  10  -4  -1    2.38    0.26 
   9  -4  -1    0.10    0.11 
   9  -4  -1    0.10    0.09 
   8  -4  -1    1.72    0.20 
   8  -4  -1    2.02    0.16 
  -8   4   1    1.85    0.13 
   7  -4  -1    0.56    0.12 
   7  -4  -1    0.16    0.06 
  -7   4   1    0.53    0.07 
   6  -4  -1    3.48    0.24 
  -6   4   1    3.46    0.17 
   5  -4  -1    5.20    0.29 
   5  -4  -1    5.11    0.23 
   4  -4  -1   23.89    0.83 
   4  -4  -1   23.46    0.90 
   3  -4  -1    0.80    0.10 
   3  -4  -1    0.84    0.08 
   2  -4  -1    6.59    0.30 
   2  -4  -1    6.47    0.27 
   1  -4  -1   46.31    1.57 
   1  -4  -1   47.69    1.62 
   0  -4  -1    0.00    0.03 
   0  -4  -1    0.08    0.04 
  -1  -4  -1    4.46    0.22 
  -1  -4  -1    4.37    0.19 
  -2  -4  -1    0.28    0.04 
  -2  -4  -1    0.23    0.06 
   2   4   1    0.26    0.07 
  -3  -4  -1    7.21    0.33 
  -3  -4  -1    7.50    0.26 
   3   4   1    7.12    0.32 
  -4  -4  -1    2.98    0.20 
   4   4   1    3.43    0.21 
  -5  -4  -1    0.76    0.11 
   5   4   1    0.80    0.12 
  -6  -4  -1    0.89    0.13 
   6   4   1    1.05    0.14 
  -7  -4  -1    1.03    0.15 
   7   4   1    1.04    0.15 
  -8  -4  -1    0.06    0.07 
   8   4   1    0.00    0.10 
  -9  -4  -1    3.07    0.24 
   9   4   1    3.02    0.27 
 -10  -4  -1    2.18    0.22 
  10   4   1    1.79    0.23 
 -11  -4  -1    0.07    0.09 
  11   4   1    0.03    0.12 
 -12  -4  -1    0.92    0.18 
  12   4   1    1.33    0.24 
  13   4   1    0.11    0.14 
  14   4   1    0.47    0.20 
  15   4   1    0.01    0.18 
  15  -5  -1    0.03    0.18 
  14  -5  -1    0.00    0.16 
  13  -5  -1    0.28    0.18 
  12  -5  -1    1.03    0.22 
  11  -5  -1    1.76    0.25 
  10  -5  -1    0.78    0.19 
   9  -5  -1    1.00    0.19 
   8  -5  -1    0.76    0.16 
   8  -5  -1    0.84    0.12 
  -8   5   1    1.01    0.10 
   7  -5  -1    0.50    0.14 
   7  -5  -1    0.45    0.09 
  -7   5   1    0.57    0.08 
   6  -5  -1    0.55    0.12 
   6  -5  -1    0.61    0.08 
   5  -5  -1    0.90    0.14 
   5  -5  -1    0.87    0.10 
   4  -5  -1   10.75    0.48 
   4  -5  -1   10.77    0.43 
   3  -5  -1    0.04    0.04 
   3  -5  -1    0.02    0.06 
   2  -5  -1    9.80    0.40 
   2  -5  -1   10.32    0.43 
   1  -5  -1    2.99    0.17 
   1  -5  -1    3.03    0.18 
   0  -5  -1    2.71    0.16 
   0  -5  -1    1.85    0.13 
  -1  -5  -1    6.16    0.30 
  -1  -5  -1    6.41    0.27 
  -2  -5  -1   16.76    0.58 
  -2  -5  -1   15.63    0.62 
   2   5   1   15.86    0.61 
  -3  -5  -1   19.54    0.66 
  -3  -5  -1   18.08    0.72 
   3   5   1   19.21    0.72 
  -4  -5  -1    0.67    0.11 
   4   5   1    0.55    0.11 
  -5  -5  -1    9.60    0.44 
   5   5   1    9.60    0.44 
  -6  -5  -1    0.05    0.07 
   6   5   1    0.03    0.08 
  -7  -5  -1    0.37    0.10 
   7   5   1    0.34    0.12 
  -8  -5  -1    0.44    0.12 
   8   5   1    0.31    0.13 
  -9  -5  -1    0.80    0.15 
   9   5   1    0.84    0.18 
 -10  -5  -1    0.10    0.11 
  10   5   1   -0.01    0.12 
 -11  -5  -1    0.10    0.11 
  11   5   1    0.16    0.14 
 -12  -5  -1    0.23    0.11 
  12   5   1   -0.03    0.13 
 -13  -5  -1    0.46    0.15 
  13   5   1    0.62    0.20 
  14   5   1   -0.16    0.14 
  15   5   1    0.32    0.20 
  14  -6  -1    0.22    0.20 
  13  -6  -1    0.11    0.17 
  12  -6  -1   -0.15    0.12 
  11  -6  -1   -0.03    0.11 
  10  -6  -1    0.30    0.15 
   9  -6  -1    1.36    0.22 
   8  -6  -1    7.34    0.33 
   8  -6  -1    6.41    0.41 
   7  -6  -1    7.35    0.42 
   7  -6  -1    7.61    0.33 
  -7   6   1    7.38    0.33 
   6  -6  -1   -0.16    0.08 
   6  -6  -1    0.06    0.05 
   5  -6  -1    0.63    0.10 
   5  -6  -1    0.40    0.11 
   4  -6  -1    0.86    0.11 
   4  -6  -1    0.97    0.14 
   3  -6  -1    7.47    0.34 
   3  -6  -1    7.70    0.38 
   2  -6  -1    7.74    0.35 
   2  -6  -1    8.02    0.37 
   1  -6  -1    1.02    0.12 
   1  -6  -1    0.82    0.11 
   0  -6  -1    2.94    0.18 
   0  -6  -1    4.21    0.22 
  -1  -6  -1   14.40    0.55 
  -1  -6  -1   14.66    0.59 
  -2  -6  -1    3.56    0.17 
  -2  -6  -1    3.59    0.22 
  -3  -6  -1    0.64    0.06 
  -3  -6  -1    0.64    0.11 
   3   6   1    0.65    0.11 
  -4  -6  -1    0.06    0.07 
   4   6   1    0.16    0.08 
  -5  -6  -1    0.46    0.11 
   5   6   1    0.38    0.10 
  -6  -6  -1    0.67    0.13 
   6   6   1    0.80    0.16 
  -7  -6  -1    0.06    0.08 
   7   6   1    0.20    0.12 
  -8  -6  -1    1.03    0.17 
   8   6   1    0.78    0.18 
  -9  -6  -1    1.26    0.19 
   9   6   1    0.87    0.18 
 -10  -6  -1    0.24    0.12 
  10   6   1    0.17    0.14 
 -11  -6  -1    0.63    0.15 
  11   6   1    0.30    0.16 
 -12  -6  -1    0.13    0.11 
  12   6   1    0.08    0.16 
 -13  -6  -1    0.18    0.13 
  13   6   1    0.02    0.16 
  14   6   1    0.06    0.17 
  14  -7  -1    0.08    0.21 
  13  -7  -1    0.53    0.21 
  12  -7  -1    0.43    0.19 
  11  -7  -1    0.09    0.14 
  10  -7  -1    1.50    0.25 
   9  -7  -1    0.92    0.20 
   8  -7  -1    1.90    0.25 
   7  -7  -1    0.33    0.09 
   7  -7  -1    0.17    0.12 
   6  -7  -1    1.56    0.21 
   6  -7  -1    2.18    0.18 
   5  -7  -1    6.80    0.39 
   5  -7  -1    6.87    0.34 
   4  -7  -1    1.44    0.18 
   4  -7  -1    1.56    0.15 
   3  -7  -1    2.38    0.17 
   3  -7  -1    1.85    0.18 
   2  -7  -1    5.11    0.29 
   2  -7  -1    5.15    0.28 
   1  -7  -1    2.00    0.16 
   1  -7  -1    2.05    0.17 
   0  -7  -1    2.92    0.19 
   0  -7  -1    1.88    0.15 
  -1  -7  -1   12.72    0.55 
  -1  -7  -1   13.09    0.51 
  -2  -7  -1    1.65    0.17 
  -2  -7  -1    1.41    0.11 
  -3  -7  -1    0.12    0.05 
  -3  -7  -1    0.13    0.07 
   3   7   1    0.06    0.08 
  -4  -7  -1    3.10    0.23 
   4   7   1    3.39    0.24 
  -5  -7  -1    0.08    0.08 
   5   7   1    0.04    0.09 
  -6  -7  -1    0.04    0.09 
   6   7   1    0.00    0.10 
  -7  -7  -1    4.44    0.31 
   7   7   1    4.22    0.32 
  -8  -7  -1    0.23    0.11 
   8   7   1    0.13    0.14 
  -9  -7  -1    0.23    0.12 
   9   7   1    0.33    0.15 
 -10  -7  -1    0.08    0.10 
  10   7   1    0.17    0.13 
 -11  -7  -1    0.53    0.15 
  11   7   1    0.46    0.19 
 -12  -7  -1    0.20    0.13 
  12   7   1    0.07    0.18 
 -13  -7  -1   -0.01    0.12 
  13   7   1   -0.28    0.15 
  14   7   1   -0.02    0.18 
  13  -8  -1    0.16    0.21 
  12  -8  -1    0.00    0.16 
  11  -8  -1    0.02    0.15 
  10  -8  -1    0.06    0.15 
   9  -8  -1   -0.03    0.12 
   8  -8  -1    0.57    0.17 
   7  -8  -1    2.84    0.20 
   7  -8  -1    2.10    0.25 
   6  -8  -1    0.37    0.16 
   6  -8  -1    0.69    0.12 
   5  -8  -1    1.53    0.21 
   5  -8  -1    1.47    0.16 
   4  -8  -1    0.18    0.12 
   4  -8  -1    0.02    0.06 
   3  -8  -1    0.77    0.15 
   3  -8  -1    0.95    0.14 
   2  -8  -1    2.64    0.20 
   2  -8  -1    2.69    0.22 
   1  -8  -1    3.76    0.24 
   1  -8  -1    3.82    0.25 
   0  -8  -1    7.10    0.34 
  -1  -8  -1    8.47    0.43 
  -1  -8  -1    9.52    0.40 
  -2  -8  -1    3.63    0.26 
  -2  -8  -1    4.30    0.22 
  -3  -8  -1    1.38    0.18 
  -4  -8  -1    1.33    0.18 
   4   8   1    1.27    0.17 
  -5  -8  -1    0.27    0.12 
   5   8   1    0.28    0.13 
  -6  -8  -1    0.09    0.09 
   6   8   1    0.28    0.13 
  -7  -8  -1    0.04    0.10 
   7   8   1    0.11    0.11 
  -8  -8  -1    1.30    0.20 
   8   8   1    1.45    0.22 
  -9  -8  -1    0.09    0.11 
   9   8   1    0.11    0.13 
 -10  -8  -1    1.06    0.20 
  10   8   1    0.72    0.21 
 -11  -8  -1    0.03    0.10 
  11   8   1    0.13    0.16 
 -12  -8  -1    0.16    0.13 
  12   8   1    0.23    0.18 
 -13  -8  -1   -0.05    0.12 
  13   8   1    0.26    0.20 
  13  -9  -1    0.58    0.25 
  12  -9  -1    0.62    0.24 
  11  -9  -1   -0.09    0.16 
  10  -9  -1    0.47    0.20 
   9  -9  -1    1.00    0.22 
   8  -9  -1    1.03    0.22 
   7  -9  -1    0.86    0.19 
   6  -9  -1    1.85    0.24 
   6  -9  -1    1.80    0.19 
   5  -9  -1    2.42    0.19 
   5  -9  -1    2.16    0.24 
   4  -9  -1    5.08    0.31 
   4  -9  -1    5.68    0.35 
   3  -9  -1    0.67    0.13 
   3  -9  -1    0.81    0.17 
   2  -9  -1    3.29    0.24 
   2  -9  -1    3.65    0.26 
   1  -9  -1    1.22    0.16 
   1  -9  -1    1.60    0.19 
  -1  -9  -1    6.94    0.34 
  -1  -9  -1    6.46    0.38 
  -2  -9  -1    0.12    0.11 
  -2  -9  -1    0.07    0.07 
  -3  -9  -1    1.57    0.21 
  -4  -9  -1    5.03    0.35 
  -5  -9  -1    0.06    0.10 
   5   9   1    0.07    0.11 
  -6  -9  -1   -0.02    0.10 
   6   9   1    0.06    0.12 
  -7  -9  -1    1.16    0.20 
   7   9   1    1.73    0.23 
  -8  -9  -1    0.69    0.18 
   8   9   1    0.87    0.19 
  -9  -9  -1    0.63    0.18 
   9   9   1    0.66    0.19 
 -10  -9  -1   -0.07    0.10 
  10   9   1   -0.09    0.14 
 -11  -9  -1   -0.14    0.11 
  11   9   1    0.31    0.19 
 -12  -9  -1    0.06    0.13 
  12   9   1    0.00    0.19 
  12 -10  -1    0.10    0.21 
  11 -10  -1    0.18    0.18 
  10 -10  -1    0.46    0.18 
   9 -10  -1    0.17    0.13 
   8 -10  -1    0.31    0.16 
   7 -10  -1    0.88    0.21 
   6 -10  -1    0.33    0.12 
   6 -10  -1    0.03    0.12 
   5 -10  -1   -0.05    0.13 
   5 -10  -1    0.04    0.09 
   4 -10  -1    0.42    0.15 
   4 -10  -1    0.97    0.16 
   3 -10  -1    0.65    0.16 
   3 -10  -1    0.66    0.15 
   2 -10  -1    3.38    0.27 
   2 -10  -1    3.56    0.27 
   1 -10  -1    0.35    0.12 
   1 -10  -1    0.42    0.13 
   0 -10  -1    1.10    0.18 
  -1 -10  -1   -0.04    0.10 
  -1 -10  -1    0.04    0.09 
  -2 -10  -1   -0.01    0.11 
  -3 -10  -1    0.17    0.12 
  -4 -10  -1    0.24    0.12 
  -5 -10  -1    7.73    0.46 
  -6 -10  -1    3.74    0.34 
  -7 -10  -1    0.45    0.15 
   7  10   1    0.43    0.16 
  -8 -10  -1    0.12    0.12 
   8  10   1    0.31    0.16 
  -9 -10  -1    0.01    0.12 
   9  10   1    0.05    0.14 
 -10 -10  -1    0.26    0.15 
  10  10   1    0.06    0.16 
 -11 -10  -1   -0.11    0.13 
  11  10   1    0.28    0.20 
 -12 -10  -1   -0.01    0.13 
  12  10   1    0.07    0.20 
  11 -11  -1   -0.15    0.16 
  10 -11  -1    0.00    0.16 
   9 -11  -1    0.16    0.17 
   8 -11  -1    0.06    0.13 
   7 -11  -1    0.00    0.13 
   6 -11  -1   -0.05    0.10 
   5 -11  -1   -0.06    0.12 
   5 -11  -1   -0.08    0.08 
   4 -11  -1   -0.05    0.12 
   4 -11  -1   -0.10    0.09 
   3 -11  -1    1.13    0.20 
   3 -11  -1    1.38    0.21 
   2 -11  -1    1.72    0.22 
   2 -11  -1    1.48    0.21 
   1 -11  -1    1.66    0.20 
   1 -11  -1    1.90    0.23 
   0 -11  -1    2.74    0.28 
  -1 -11  -1    1.71    0.24 
  -2 -11  -1   -0.03    0.09 
  -3 -11  -1    0.10    0.12 
  -4 -11  -1    0.39    0.14 
  -5 -11  -1    0.36    0.15 
  -6 -11  -1    1.37    0.23 
  -7 -11  -1    0.26    0.13 
  -8 -11  -1   -0.02    0.11 
  -9 -11  -1    0.73    0.19 
 -10 -11  -1    0.27    0.16 
  10  11   1    0.20    0.19 
 -11 -11  -1    0.28    0.18 
  11  11   1    0.16    0.21 
  10 -12  -1    0.07    0.20 
   9 -12  -1    0.02    0.17 
   8 -12  -1    0.89    0.23 
   7 -12  -1    0.84    0.21 
   6 -12  -1   -0.01    0.13 
   5 -12  -1    0.82    0.19 
   5 -12  -1    0.55    0.15 
   4 -12  -1    0.14    0.14 
   4 -12  -1    0.25    0.12 
   3 -12  -1   -0.08    0.11 
   3 -12  -1    0.03    0.11 
   2 -12  -1    1.36    0.22 
   2 -12  -1    1.39    0.20 
   1 -12  -1    0.39    0.13 
   0 -12  -1    0.23    0.12 
  -1 -12  -1    0.81    0.19 
  -2 -12  -1    1.57    0.25 
  -3 -12  -1    2.52    0.30 
  -4 -12  -1   -0.01    0.12 
  -5 -12  -1    0.16    0.14 
  -6 -12  -1    0.59    0.18 
  -7 -12  -1    0.64    0.20 
  -8 -12  -1    0.16    0.15 
  -9 -12  -1    0.15    0.16 
 -10 -12  -1    0.08    0.15 
   8 -13  -1    0.14    0.18 
   7 -13  -1   -0.07    0.16 
   6 -13  -1    0.07    0.15 
   5 -13  -1    0.04    0.14 
   4 -13  -1    0.02    0.11 
   4 -13  -1    0.07    0.15 
   3 -13  -1    0.19    0.14 
   3 -13  -1    0.09    0.13 
   2 -13  -1    0.05    0.12 
   1 -13  -1    0.25    0.14 
   0 -13  -1    0.46    0.16 
  -1 -13  -1    0.11    0.13 
  -2 -13  -1    0.20    0.15 
  -3 -13  -1    0.98    0.22 
  -4 -13  -1    0.40    0.18 
  -5 -13  -1   -0.16    0.11 
  -6 -13  -1    0.14    0.13 
  -7 -13  -1    0.27    0.18 
  -8 -13  -1    0.11    0.15 
   6 -14  -1    0.17    0.18 
   5 -14  -1    0.07    0.16 
   4 -14  -1    0.26    0.19 
   4 -14  -1    0.48    0.18 
   3 -14  -1    0.03    0.13 
   2 -14  -1   -0.09    0.13 
   1 -14  -1    0.35    0.16 
   0 -14  -1   -0.07    0.14 
  -1 -14  -1    0.32    0.17 
  -2 -14  -1    0.71    0.21 
  -3 -14  -1    0.66    0.23 
  -4 -14  -1    0.15    0.16 
  -5 -14  -1    0.11    0.16 
  -6 -14  -1    0.47    0.21 
   3 -15  -1    0.38    0.20 
   2 -15  -1   -0.10    0.16 
   1 -15  -1   -0.10    0.15 
   0 -15  -1   -0.04    0.15 
  -1 -15  -1    0.09    0.18 
  -2 -15  -1   -0.11    0.17 
  -3 -15  -1    0.41    0.23 
  -4 -15   2    0.21    0.20 
  -3 -15   2   -0.07    0.17 
  -2 -15   2   -0.18    0.17 
  -1 -15   2    0.24    0.21 
   0 -15   2    0.11    0.18 
   1 -15   2   -0.02    0.17 
   2 -15   2   -0.01    0.17 
   3 -15   2    0.17    0.20 
  -7 -14   2    0.11    0.18 
  -6 -14   2    0.10    0.15 
  -5 -14   2    0.39    0.20 
  -4 -14   2    0.41    0.20 
  -3 -14   2   -0.02    0.15 
  -2 -14   2    0.01    0.16 
  -1 -14   2    0.00    0.14 
   0 -14   2   -0.06    0.14 
   1 -14   2    0.21    0.17 
   2 -14   2    0.26    0.17 
   3 -14   2    0.48    0.18 
   4 -14   2    0.09    0.18 
   4 -14   2    0.10    0.15 
   5 -14   2    0.34    0.21 
   5 -14   2    0.36    0.19 
   6 -14   2   -0.06    0.16 
  -8 -13   2   -0.07    0.14 
  -7 -13   2    0.52    0.21 
  -6 -13   2    0.25    0.16 
  -5 -13   2   -0.04    0.12 
  -4 -13   2    0.00    0.13 
  -3 -13   2    0.55    0.18 
  -2 -13   2   -0.09    0.12 
  -1 -13   2    0.65    0.18 
   0 -13   2    1.25    0.24 
   1 -13   2    1.52    0.26 
   2 -13   2    0.25    0.15 
   3 -13   2    0.59    0.17 
   3 -13   2    0.40    0.17 
   4 -13   2    0.57    0.18 
   4 -13   2    0.39    0.17 
   5 -13   2   -0.20    0.12 
   5 -13   2    0.05    0.15 
   6 -13   2    0.60    0.20 
   7 -13   2    1.12    0.25 
   8 -13   2    0.41    0.21 
  10  12  -2    0.20    0.19 
 -10 -12   2   -0.08    0.14 
   9  12  -2    0.20    0.17 
  -9 -12   2   -0.09    0.12 
   8  12  -2   -0.20    0.13 
  -8 -12   2    0.13    0.14 
  -7 -12   2    0.39    0.16 
  -6 -12   2   -0.02    0.11 
  -5 -12   2    0.05    0.12 
  -4 -12   2   -0.02    0.12 
  -3 -12   2   -0.06    0.10 
  -2 -12   2    0.25    0.15 
  -1 -12   2    1.21    0.22 
   0 -12   2    3.35    0.33 
   1 -12   2    2.06    0.24 
   1 -12   2    2.13    0.28 
   2 -12   2   -0.01    0.10 
   2 -12   2    0.16    0.14 
   3 -12   2   -0.11    0.11 
   3 -12   2   -0.02    0.10 
   4 -12   2   -0.02    0.10 
   4 -12   2    0.14    0.14 
   5 -12   2    0.24    0.13 
   5 -12   2   -0.17    0.13 
   6 -12   2   -0.03    0.14 
   6 -12   2   -0.02    0.12 
   7 -12   2    0.08    0.16 
   8 -12   2    0.04    0.15 
   9 -12   2    0.05    0.15 
  11  11  -2    0.07    0.19 
 -11 -11   2    0.22    0.16 
  10  11  -2   -0.15    0.15 
 -10 -11   2    0.18    0.16 
   9  11  -2    0.10    0.15 
  -9 -11   2   -0.12    0.11 
   8  11  -2    0.57    0.17 
  -8 -11   2    0.54    0.19 
   7  11  -2    0.30    0.15 
  -7 -11   2    0.58    0.18 
   6  11  -2    0.46    0.16 
  -6 -11   2    0.58    0.17 
  -5 -11   2    0.07    0.11 
  -4 -11   2    1.93    0.26 
  -3 -11   2    9.47    0.53 
  -2 -11   2    1.87    0.25 
  -1 -11   2    0.85    0.19 
   0 -11   2    5.09    0.36 
   1 -11   2    2.21    0.26 
   1 -11   2    2.00    0.23 
   2 -11   2    0.43    0.15 
   2 -11   2    0.22    0.12 
   3 -11   2    1.81    0.24 
   3 -11   2    2.16    0.25 
   4 -11   2    1.81    0.25 
   4 -11   2    1.75    0.23 
   5 -11   2    0.32    0.13 
   5 -11   2    0.34    0.15 
   6 -11   2    0.18    0.16 
   6 -11   2    0.17    0.11 
   7 -11   2    0.14    0.14 
   8 -11   2    0.29    0.18 
   9 -11   2    0.29    0.18 
  10 -11   2    0.14    0.16 
  12  10  -2    0.13    0.20 
 -12 -10   2    0.13    0.14 
  11  10  -2    0.32    0.20 
 -11 -10   2    0.23    0.15 
  10  10  -2    0.38    0.19 
 -10 -10   2    0.14    0.13 
   9  10  -2    0.65    0.19 
  -9 -10   2    0.22    0.15 
   8  10  -2    0.52    0.16 
  -8 -10   2    0.74    0.19 
   7  10  -2    0.06    0.11 
  -7 -10   2    0.00    0.10 
   6  10  -2    3.12    0.27 
  -6 -10   2    2.33    0.28 
   5  10  -2    5.93    0.36 
  -5 -10   2    6.01    0.40 
   4  10  -2    3.87    0.28 
  -4 -10   2    3.46    0.32 
  -3 -10   2    0.23    0.13 
  -2 -10   2    1.36    0.21 
  -1 -10   2    0.07    0.11 
  -1 -10   2    0.16    0.09 
   0 -10   2    1.52    0.21 
   0 -10   2    1.38    0.17 
   1 -10   2    1.02    0.18 
   1 -10   2    0.67    0.15 
   2 -10   2    1.50    0.21 
   2 -10   2    1.46    0.20 
   3 -10   2    0.63    0.16 
   3 -10   2    0.76    0.16 
   4 -10   2    1.34    0.20 
   4 -10   2    1.28    0.21 
   5 -10   2    2.84    0.27 
   5 -10   2    2.81    0.29 
   6 -10   2    0.17    0.15 
   6 -10   2    0.38    0.13 
   7 -10   2    0.44    0.15 
   7 -10   2    0.42    0.17 
   8 -10   2    0.67    0.20 
   9 -10   2    0.06    0.15 
  10 -10   2    0.24    0.17 
  11 -10   2    0.00    0.18 
  13   9  -2    0.37    0.23 
 -13  -9   2    0.05    0.16 
  12   9  -2    0.06    0.18 
 -12  -9   2   -0.05    0.11 
  11   9  -2    0.03    0.16 
 -11  -9   2    0.03    0.12 
  10   9  -2   -0.15    0.12 
 -10  -9   2   -0.06    0.10 
   9   9  -2    0.28    0.15 
  -9  -9   2    0.13    0.12 
   8   9  -2    0.75    0.18 
  -8  -9   2    0.57    0.16 
   7   9  -2    0.22    0.13 
  -7  -9   2    0.28    0.13 
   6   9  -2    0.48    0.15 
  -6  -9   2    0.47    0.14 
   5   9  -2    3.53    0.27 
  -5  -9   2    4.27    0.32 
   4   9  -2    4.10    0.27 
  -4  -9   2    3.79    0.29 
   3   9  -2   15.74    0.65 
  -3  -9   2   16.10    0.72 
  -2  -9   2    0.45    0.14 
  -2  -9   2    0.31    0.09 
  -1  -9   2   -0.03    0.08 
  -1  -9   2   -0.02    0.07 
   0  -9   2    0.04    0.08 
   0  -9   2   -0.07    0.07 
   1  -9   2    0.05    0.09 
   1  -9   2   -0.01    0.07 
   2  -9   2    0.83    0.16 
   2  -9   2    1.07    0.16 
   3  -9   2    1.05    0.17 
   3  -9   2    1.05    0.18 
   4  -9   2    3.11    0.25 
   4  -9   2    3.19    0.29 
   5  -9   2    0.03    0.08 
   5  -9   2    0.04    0.11 
   6  -9   2    0.44    0.13 
   6  -9   2    0.18    0.13 
   7  -9   2    0.01    0.09 
   7  -9   2    0.08    0.13 
   8  -9   2    0.08    0.13 
   9  -9   2    0.12    0.13 
  10  -9   2    0.12    0.17 
  11  -9   2    0.21    0.21 
  12  -9   2    0.07    0.22 
  13   8  -2   -0.07    0.17 
 -13  -8   2   -0.03    0.15 
  12   8  -2    0.37    0.19 
 -12  -8   2    0.49    0.16 
  11   8  -2    1.72    0.27 
 -11  -8   2    1.94    0.26 
  10   8  -2    0.85    0.20 
 -10  -8   2    0.66    0.17 
   9   8  -2    0.31    0.13 
  -9  -8   2    0.40    0.14 
   8   8  -2    0.21    0.13 
  -8  -8   2    0.12    0.12 
   7   8  -2    0.90    0.18 
  -7  -8   2    0.95    0.18 
   6   8  -2    5.62    0.35 
  -6  -8   2    6.19    0.38 
   5   8  -2   11.10    0.51 
  -5  -8   2   11.05    0.54 
   4   8  -2    0.48    0.12 
  -4  -8   2    0.56    0.14 
   3   8  -2    0.05    0.08 
  -3  -8   2    0.11    0.09 
  -3  -8   2    0.10    0.05 
   2   8  -2   19.94    0.75 
  -2  -8   2   20.96    0.76 
  -2  -8   2   18.82    0.81 
  -1  -8   2    0.54    0.12 
  -1  -8   2    0.30    0.09 
   0  -8   2    1.46    0.18 
   0  -8   2    1.58    0.16 
   1  -8   2    0.68    0.13 
   1  -8   2    0.67    0.13 
   2  -8   2    3.11    0.23 
   2  -8   2    3.15    0.24 
   3  -8   2    4.53    0.29 
   3  -8   2    5.19    0.32 
   4  -8   2    2.80    0.21 
   4  -8   2    2.06    0.23 
   5  -8   2    2.14    0.24 
   5  -8   2    2.40    0.21 
   6  -8   2    1.86    0.19 
   6  -8   2    1.85    0.24 
   7  -8   2    2.04    0.21 
   7  -8   2    1.78    0.24 
  -8   8  -2    4.23    0.28 
   8  -8   2    4.33    0.36 
   9  -8   2    0.30    0.16 
  10  -8   2   -0.34    0.12 
  11  -8   2    0.04    0.16 
  12  -8   2    0.13    0.18 
  13  -8   2    0.23    0.23 
  14   7  -2    0.26    0.20 
  13   7  -2    0.00    0.17 
  12   7  -2   -0.03    0.15 
 -12  -7   2    0.19    0.13 
  11   7  -2    0.65    0.19 
 -11  -7   2    0.46    0.15 
  10   7  -2    0.06    0.12 
 -10  -7   2    0.00    0.10 
   9   7  -2    0.13    0.12 
  -9  -7   2    0.24    0.12 
   8   7  -2    0.39    0.14 
  -8  -7   2    0.44    0.13 
   7   7  -2    1.53    0.19 
  -7  -7   2    1.48    0.20 
   6   7  -2   12.10    0.55 
  -6  -7   2   12.71    0.58 
   5   7  -2    4.22    0.26 
  -5  -7   2    3.87    0.28 
   4   7  -2    4.10    0.24 
  -4  -7   2    3.44    0.25 
   3   7  -2   10.69    0.45 
  -3  -7   2    9.98    0.48 
  -3  -7   2   10.75    0.41 
   2   7  -2   17.07    0.65 
  -2  -7   2   16.92    0.71 
  -2  -7   2   18.40    0.66 
  -1  -7   2    0.02    0.06 
  -1  -7   2    0.21    0.07 
   0  -7   2    4.95    0.27 
   0  -7   2    5.22    0.29 
   1  -7   2    4.59    0.27 
   1  -7   2    4.70    0.27 
   2  -7   2    4.57    0.27 
   2  -7   2    4.30    0.26 
   3  -7   2    3.02    0.22 
   3  -7   2    3.11    0.21 
   4  -7   2    1.40    0.16 
   4  -7   2    1.29    0.17 
   5  -7   2    0.16    0.08 
   5  -7   2   -0.04    0.09 
   6  -7   2    0.41    0.10 
   6  -7   2    0.46    0.14 
  -7   7  -2    0.28    0.09 
   7  -7   2   -0.02    0.10 
  -8   7  -2    0.10    0.08 
   8  -7   2    0.03    0.11 
   9  -7   2    1.07    0.22 
  10  -7   2    0.59    0.19 
  11  -7   2    0.04    0.15 
  12  -7   2    0.05    0.15 
  13  -7   2    0.09    0.17 
  15   6  -2    0.23    0.19 
  14   6  -2    0.26    0.19 
  13   6  -2    0.14    0.16 
  12   6  -2    0.68    0.21 
 -12  -6   2    0.91    0.18 
  11   6  -2    0.25    0.14 
 -11  -6   2    0.07    0.11 
  10   6  -2    0.42    0.15 
 -10  -6   2    0.40    0.14 
   9   6  -2    0.10    0.13 
  -9  -6   2    0.00    0.09 
   8   6  -2    3.21    0.28 
  -8  -6   2    3.08    0.26 
   7   6  -2    2.75    0.24 
  -7  -6   2    1.95    0.21 
   6   6  -2   -0.02    0.07 
  -6  -6   2   -0.02    0.06 
   5   6  -2    0.30    0.09 
  -5  -6   2    0.28    0.09 
   4   6  -2    0.14    0.07 
  -4  -6   2    0.11    0.07 
   3   6  -2    0.11    0.06 
  -3  -6   2    0.03    0.06 
  -3  -6   2    0.11    0.04 
   2   6  -2    0.03    0.06 
  -2  -6   2   -0.01    0.05 
  -2  -6   2   -0.03    0.04 
   1   6  -2    3.35    0.18 
  -1  -6   2    3.52    0.19 
  -1  -6   2    3.42    0.22 
   0  -6   2    7.62    0.37 
   0  -6   2    8.00    0.35 
   1  -6   2   22.57    0.85 
   1  -6   2   21.79    0.83 
   2  -6   2    2.64    0.19 
   2  -6   2    3.12    0.20 
   3  -6   2   11.09    0.50 
   3  -6   2   10.77    0.47 
   4  -6   2    0.22    0.08 
   4  -6   2    0.19    0.03 
   4  -6   2    0.11    0.08 
   5  -6   2    0.66    0.06 
   5  -6   2    0.68    0.11 
   5  -6   2    0.44    0.12 
   6  -6   2    0.20    0.07 
   6  -6   2    0.00    0.09 
  -7   6  -2   -0.06    0.05 
   7  -6   2   -0.10    0.09 
   8  -6   2    2.58    0.27 
  -9   6  -2    2.46    0.19 
   9  -6   2    3.04    0.30 
  10  -6   2    2.59    0.30 
  11  -6   2    0.03    0.14 
  12  -6   2    0.64    0.21 
  13  -6   2    0.29    0.19 
  14  -6   2    0.07    0.19 
  15   5  -2   -0.20    0.15 
  14   5  -2    0.04    0.15 
  13   5  -2   -0.04    0.13 
  12   5  -2    0.22    0.15 
 -12  -5   2    0.06    0.10 
  11   5  -2    0.09    0.13 
 -11  -5   2   -0.09    0.08 
  10   5  -2    0.06    0.11 
 -10  -5   2   -0.10    0.08 
   9   5  -2    0.62    0.16 
  -9  -5   2    0.49    0.12 
   8   5  -2    0.18    0.11 
  -8  -5   2    0.36    0.10 
   7   5  -2    3.69    0.25 
  -7  -5   2    3.57    0.24 
   6   5  -2    0.16    0.08 
  -6  -5   2    0.33    0.09 
   5   5  -2    1.72    0.15 
  -5  -5   2    1.58    0.16 
   4   5  -2   -0.01    0.05 
  -4  -5   2    0.01    0.05 
   3   5  -2   14.24    0.54 
  -3  -5   2   13.84    0.56 
   2   5  -2    3.53    0.19 
  -2  -5   2    3.60    0.17 
  -2  -5   2    3.52    0.21 
   1   5  -2   18.83    0.67 
  -1  -5   2   19.38    0.73 
  -1  -5   2   19.48    0.70 
   0  -5   2    0.58    0.09 
   0  -5   2    0.67    0.08 
   1  -5   2    0.90    0.11 
   1  -5   2    0.72    0.10 
   2  -5   2    0.90    0.11 
   2  -5   2    1.12    0.12 
   3  -5   2    0.03    0.04 
   3  -5   2    0.08    0.07 
   4  -5   2    6.75    0.35 
   4  -5   2    6.55    0.24 
   4  -5   2    6.59    0.32 
   5  -5   2    0.21    0.05 
   5  -5   2    0.05    0.08 
   5  -5   2    0.20    0.07 
  -6   5  -2    0.06    0.06 
   6  -5   2   -0.03    0.07 
   6  -5   2   -0.02    0.04 
  -7   5  -2    1.21    0.13 
   7  -5   2    1.09    0.18 
   7  -5   2    1.56    0.12 
   8  -5   2    0.32    0.09 
   8  -5   2    0.26    0.13 
  -9   5  -2    1.68    0.16 
   9  -5   2    1.84    0.24 
  10  -5   2    2.91    0.31 
  11  -5   2    1.18    0.22 
  12  -5   2   -0.06    0.14 
  13  -5   2   -0.12    0.15 
  14  -5   2    0.37    0.21 
  15   4  -2   -0.04    0.15 
  14   4  -2   -0.03    0.13 
  13   4  -2    0.02    0.13 
  12   4  -2   -0.08    0.11 
  11   4  -2    1.22    0.21 
 -11  -4   2    1.04    0.16 
  10   4  -2    1.37    0.20 
 -10  -4   2    1.61    0.18 
   9   4  -2    0.51    0.14 
  -9  -4   2    0.43    0.11 
   8   4  -2    9.55    0.46 
  -8  -4   2    9.02    0.43 
   7   4  -2    2.73    0.20 
  -7  -4   2    2.77    0.20 
   6   4  -2    0.08    0.06 
  -6  -4   2    0.10    0.07 
   5   4  -2    2.03    0.16 
  -5  -4   2    1.88    0.16 
   4   4  -2   31.31    1.10 
  -4  -4   2   31.92    1.12 
   3   4  -2    3.61    0.18 
  -3  -4   2    3.15    0.19 
   2   4  -2   16.02    0.57 
  -2  -4   2   15.31    0.60 
  -2  -4   2   16.10    0.56 
   1   4  -2   55.97    1.86 
  -1  -4   2   58.68    1.94 
  -1  -4   2   56.64    1.91 
   0   4  -2    0.19    0.04 
   0  -4   2    0.05    0.04 
   0  -4   2    0.16    0.05 
   1  -4   2    0.24    0.06 
   1  -4   2    0.48    0.08 
   2  -4   2    7.69    0.34 
   2  -4   2    7.38    0.33 
   3  -4   2   10.97    0.49 
   3  -4   2   12.20    0.40 
   3  -4   2   11.56    0.46 
   4  -4   2   21.56    0.89 
   4  -4   2   23.49    0.85 
   4  -4   2   24.93    0.79 
  -5   4  -2    0.48    0.08 
   5  -4   2    0.43    0.06 
   5  -4   2    0.65    0.12 
  -6   4  -2   13.21    0.51 
   6  -4   2   12.69    0.58 
   6  -4   2   13.43    0.49 
  -7   4  -2    0.01    0.05 
   7  -4   2   -0.02    0.06 
   7  -4   2   -0.03    0.07 
  -8   4  -2    0.02    0.04 
   8  -4   2   -0.03    0.09 
   8  -4   2    0.15    0.08 
  -9   4  -2    0.49    0.10 
   9  -4   2    0.49    0.15 
   9  -4   2    0.75    0.13 
  10  -4   2    1.83    0.24 
  11  -4   2    0.02    0.12 
  12  -4   2    0.32    0.16 
  13  -4   2    0.15    0.16 
  14  -4   2   -0.13    0.14 
  15  -4   2   -0.06    0.19 
  15   3  -2   -0.06    0.15 
  14   3  -2    0.10    0.15 
  13   3  -2    0.13    0.13 
  12   3  -2    0.05    0.13 
  11   3  -2    3.27    0.29 
 -11  -3   2    3.23    0.24 
  10   3  -2    2.93    0.27 
 -10  -3   2    2.91    0.21 
   9   3  -2    2.15    0.22 
  -9  -3   2    1.77    0.17 
   8   3  -2    0.08    0.09 
   8   3  -2    0.17    0.05 
  -8  -3   2    0.11    0.07 
   7   3  -2    7.11    0.29 
   7   3  -2    6.75    0.35 
  -7  -3   2    7.41    0.34 
   6   3  -2    3.75    0.23 
   6   3  -2    3.98    0.17 
  -6  -3   2    3.69    0.21 
   5   3  -2    1.75    0.14 
   5   3  -2    1.91    0.09 
  -5  -3   2    1.85    0.14 
   4   3  -2    3.15    0.12 
   4   3  -2    2.95    0.17 
  -4  -3   2    3.18    0.18 
   3   3  -2    0.92    0.05 
   3   3  -2    0.82    0.08 
  -3  -3   2    0.83    0.09 
   2   3  -2    4.94    0.21 
  -2  -3   2    4.65    0.22 
   1   3  -2   22.04    0.73 
  -1  -3   2   22.05    0.76 
  -1  -3   2   21.07    0.76 
   0   3  -2    7.28    0.25 
   0  -3   2    6.94    0.29 
   0  -3   2    7.02    0.29 
   1  -3   2   48.83    1.62 
   1  -3   2   47.96    1.66 
   2  -3   2  103.11    3.47 
   2  -3   2  102.43    3.35 
   3  -3   2   50.65    1.73 
   3  -3   2   53.09    1.67 
   3  -3   2   51.39    1.80 
  -4   3  -2    6.17    0.27 
   4  -3   2    6.03    0.24 
   4  -3   2    6.32    0.31 
  -5   3  -2    2.34    0.15 
   5  -3   2    2.60    0.19 
   5  -3   2    2.51    0.14 
  -6   3  -2    2.79    0.17 
   6  -3   2    2.90    0.17 
   6  -3   2    2.48    0.21 
  -7   3  -2    2.55    0.17 
   7  -3   2    2.76    0.22 
  -8   3  -2    0.14    0.05 
   8  -3   2    0.36    0.11 
   8  -3   2    0.23    0.08 
   9  -3   2    2.57    0.20 
   9  -3   2    1.76    0.22 
 -10   3  -2    1.68    0.16 
  10  -3   2    1.63    0.21 
  10  -3   2    1.46    0.17 
  11  -3   2    1.76    0.24 
  11  -3   2    1.69    0.20 
  12  -3   2    0.07    0.13 
  12  -3   2    0.08    0.13 
  13  -3   2    0.08    0.14 
  14  -3   2    0.23    0.16 
  16   2  -2    0.14    0.18 
  15   2  -2    0.39    0.19 
  14   2  -2    0.68    0.21 
  13   2  -2    0.04    0.13 
  12   2  -2    0.35    0.15 
  11   2  -2   -0.11    0.10 
 -11  -2   2   -0.03    0.07 
  10   2  -2    0.89    0.12 
  10   2  -2    0.78    0.17 
 -10  -2   2    0.52    0.10 
   9   2  -2    0.24    0.07 
   9   2  -2    0.06    0.09 
  -9  -2   2   -0.01    0.04 
   8   2  -2    0.00    0.05 
   8   2  -2    0.14    0.08 
  -8  -2   2    0.04    0.04 
   7   2  -2    1.87    0.12 
   7   2  -2    1.95    0.17 
  -7  -2   2    1.52    0.14 
   6   2  -2    0.26    0.08 
   6   2  -2    0.26    0.06 
  -6  -2   2    0.26    0.06 
   5   2  -2    1.07    0.08 
   5   2  -2    1.05    0.11 
  -5  -2   2    1.18    0.10 
   4   2  -2    4.47    0.17 
   4   2  -2    4.39    0.21 
  -4  -2   2    3.95    0.20 
   3   2  -2   13.64    0.47 
   3   2  -2   13.31    0.49 
  -3  -2   2   13.39    0.49 
   2   2  -2   36.28    1.21 
  -2  -2   2   36.92    1.22 
   1   2  -2    1.28    0.07 
  -1  -2   2    0.98    0.06 
  -1  -2   2    1.28    0.08 
   0   2  -2  299.48   10.13 
   0  -2   2  315.98   10.48 
   0  -2   2  333.67   10.14 
   1  -2   2    5.47    0.23 
   1  -2   2    5.50    0.24 
   2  -2   2  310.74   10.58 
   2  -2   2  324.27   10.20 
   2  -2   2  322.31   10.23 
  -3   2  -2    5.37    0.23 
   3  -2   2    5.50    0.26 
   3  -2   2    5.80    0.22 
  -4   2  -2   12.69    0.47 
   4  -2   2   13.00    0.52 
   4  -2   2   12.62    0.46 
  -5   2  -2    0.53    0.08 
   5  -2   2    0.49    0.10 
  -6   2  -2    5.82    0.27 
   6  -2   2    6.14    0.32 
   6  -2   2    5.50    0.26 
  -7   2  -2    6.65    0.30 
   7  -2   2    5.82    0.30 
   7  -2   2    6.57    0.35 
  -8   2  -2    1.29    0.13 
   8  -2   2    1.30    0.15 
   8  -2   2    1.62    0.18 
  -9   2  -2    0.20    0.07 
   9  -2   2    0.61    0.13 
   9  -2   2    0.41    0.13 
 -10   2  -2    0.03    0.05 
  10  -2   2   -0.03    0.09 
  10  -2   2    0.09    0.11 
  11  -2   2    0.64    0.16 
  11  -2   2    0.90    0.17 
  12  -2   2    0.13    0.14 
  12  -2   2    0.25    0.13 
  13  -2   2    0.65    0.19 
  13  -2   2    0.62    0.17 
  14  -2   2    0.03    0.15 
  16   1  -2   -0.06    0.14 
  15   1  -2   -0.25    0.13 
  14   1  -2    0.01    0.12 
  13   1  -2    0.20    0.14 
  12   1  -2   -0.09    0.10 
  11   1  -2    1.39    0.20 
  11   1  -2    1.51    0.16 
  10   1  -2    2.03    0.22 
  10   1  -2    1.96    0.18 
 -10  -1   2    2.03    0.17 
   9   1  -2    0.37    0.10 
   9   1  -2    0.63    0.13 
  -9  -1   2    0.34    0.08 
   8   1  -2    0.23    0.09 
   8   1  -2    0.25    0.07 
  -8  -1   2    0.33    0.08 
   7   1  -2    0.59    0.09 
   7   1  -2    0.62    0.11 
  -7  -1   2    0.76    0.09 
   6   1  -2   24.47    0.88 
   6   1  -2   23.52    0.88 
  -6  -1   2   25.17    0.85 
   5   1  -2    3.06    0.18 
   5   1  -2    3.52    0.17 
  -5  -1   2    3.11    0.16 
   4   1  -2    4.19    0.18 
   4   1  -2    3.84    0.19 
   3   1  -2    3.79    0.18 
   3   1  -2    4.21    0.17 
   2   1  -2   88.50    2.85 
   2   1  -2   88.54    2.95 
  -1  -1   2    8.96    0.32 
   0  -1   2    0.11    0.03 
   0  -1   2    0.10    0.03 
   1  -1   2   79.16    2.55 
   1  -1   2   78.10    2.64 
  -2   1  -2  184.57    5.73 
   2  -1   2  181.80    5.95 
   2  -1   2  169.38    5.69 
  -3   1  -2   34.77    1.16 
   3  -1   2   34.55    1.21 
  -4   1  -2   36.73    1.21 
   4  -1   2   36.48    1.20 
   4  -1   2   34.84    1.27 
  -5   1  -2    4.94    0.23 
   5  -1   2    4.57    0.22 
   5  -1   2    4.89    0.25 
  -6   1  -2    5.73    0.27 
   6  -1   2    5.47    0.29 
   6  -1   2    5.71    0.27 
  -7   1  -2    7.25    0.32 
   7  -1   2    6.71    0.35 
   7  -1   2    7.03    0.33 
  -8   1  -2    0.27    0.08 
   8  -1   2    0.32    0.10 
   8  -1   2    0.24    0.09 
  -9   1  -2   -0.01    0.07 
   9  -1   2    0.07    0.08 
   9  -1   2    0.12    0.08 
 -10   1  -2    0.30    0.09 
  10  -1   2    0.33    0.12 
  10  -1   2    0.32    0.13 
 -11   1  -2   -0.05    0.05 
  11  -1   2    0.07    0.11 
  11  -1   2   -0.13    0.10 
  12  -1   2    0.33    0.14 
  12  -1   2    0.10    0.13 
  13  -1   2    0.04    0.13 
  13  -1   2   -0.02    0.12 
  14  -1   2    0.08    0.15 
  15  -1   2    0.14    0.20 
  16   0  -2    0.21    0.18 
  15   0  -2    0.95    0.23 
  14   0  -2    0.82    0.20 
  13   0  -2    0.05    0.13 
  12   0  -2    1.87    0.23 
  12   0  -2    1.71    0.21 
  11   0  -2    0.32    0.13 
  11   0  -2    0.29    0.09 
  10   0  -2    2.72    0.24 
  10   0  -2    2.94    0.22 
 -10   0   2    2.77    0.19 
   9   0  -2    0.68    0.13 
   9   0  -2    0.50    0.11 
  -9   0   2    0.32    0.08 
   8   0  -2    8.32    0.39 
   8   0  -2    8.12    0.39 
  -8   0   2    8.22    0.34 
   7   0  -2   17.80    0.68 
   7   0  -2   17.41    0.68 
  -7   0   2   17.61    0.63 
   6   0  -2    9.53    0.40 
   6   0  -2    9.25    0.39 
  -6   0   2    9.29    0.35 
   5   0  -2    0.81    0.08 
   5   0  -2    0.73    0.09 
  -5   0   2    0.86    0.07 
   4   0  -2   53.80    1.82 
   4   0  -2   51.99    1.77 
  -4   0   2   54.92    1.74 
   3   0  -2   23.40    0.84 
  -3   0   2   25.04    0.80 
   2   0  -2   10.17    0.37 
  -2   0   2   10.29    0.35 
   1   0  -2  182.97    5.52 
  -1   0   2  148.27    5.34 
   0   0  -2    0.04    0.01 
  -1   0  -2   31.08    1.06 
   1   0   2   30.51    1.10 
  -2   0  -2   11.10    0.40 
   2   0   2   11.27    0.42 
   2   0   2   11.36    0.40 
  -3   0  -2   82.15    2.59 
   3   0   2   77.87    2.57 
   3   0   2   78.38    2.68 
  -4   0  -2   41.59    1.39 
   4   0   2   41.94    1.44 
   4   0   2   41.05    1.39 
  -5   0  -2    0.46    0.07 
   5   0   2    0.59    0.08 
   5   0   2    0.39    0.08 
  -6   0  -2    1.10    0.11 
   6   0   2    1.06    0.11 
   6   0   2    1.06    0.12 
  -7   0  -2    4.15    0.23 
   7   0   2    4.01    0.24 
   7   0   2    3.70    0.23 
  -8   0  -2    1.34    0.14 
   8   0   2    1.09    0.14 
   8   0   2    1.59    0.16 
  -9   0  -2    0.07    0.07 
   9   0   2    0.06    0.09 
   9   0   2    0.00    0.06 
 -10   0  -2    0.35    0.10 
  10   0   2    0.43    0.10 
  10   0   2    0.51    0.14 
 -11   0  -2    2.71    0.22 
  11   0   2    2.42    0.24 
  11   0   2    2.29    0.24 
  12   0   2    0.04    0.12 
  12   0   2   -0.03    0.10 
  13   0   2    1.30    0.22 
  14   0   2    0.08    0.15 
  15   0   2    0.16    0.18 
  16  -1  -2    0.12    0.17 
  15  -1  -2   -0.06    0.13 
  14  -1  -2    0.05    0.14 
  13  -1  -2    0.26    0.14 
  13  -1  -2   -0.04    0.12 
  12  -1  -2    0.18    0.13 
  12  -1  -2    0.03    0.10 
  11  -1  -2    1.84    0.21 
  11  -1  -2    1.53    0.20 
  10  -1  -2    2.07    0.21 
  10  -1  -2    2.13    0.21 
   9  -1  -2    0.43    0.12 
   9  -1  -2    0.34    0.11 
  -9   1   2    0.40    0.07 
   8  -1  -2    0.31    0.10 
   8  -1  -2    0.27    0.09 
  -8   1   2    0.36    0.06 
   7  -1  -2    0.82    0.11 
   7  -1  -2    0.78    0.12 
  -7   1   2    0.71    0.07 
   6  -1  -2   23.00    0.88 
   6  -1  -2   24.18    0.85 
  -6   1   2   24.39    0.81 
   5  -1  -2    3.04    0.18 
   5  -1  -2    3.14    0.17 
  -5   1   2    3.25    0.13 
   4  -1  -2    3.57    0.19 
  -4   1   2    3.81    0.14 
   3  -1  -2    3.72    0.18 
   2  -1  -2   93.23    3.12 
   1  -1  -2    9.05    0.33 
   1  -1  -2    9.00    0.31 
   0  -1  -2    0.11    0.02 
   0  -1  -2    0.15    0.03 
  -1  -1  -2   78.38    2.53 
  -2  -1  -2  178.18    5.72 
   2   1   2  177.86    5.69 
  -3  -1  -2   34.73    1.18 
   3   1   2   35.36    1.18 
   3   1   2   35.44    1.21 
  -4  -1  -2   35.17    1.19 
   4   1   2   35.85    1.20 
   4   1   2   34.36    1.22 
  -5  -1  -2    4.69    0.24 
   5   1   2    5.28    0.24 
   5   1   2    5.18    0.26 
  -6  -1  -2    5.87    0.28 
   6   1   2    5.88    0.27 
   6   1   2    5.35    0.29 
  -7  -1  -2    6.54    0.32 
   7   1   2    6.91    0.34 
   7   1   2    6.11    0.31 
  -8  -1  -2    0.13    0.07 
   8   1   2    0.10    0.09 
   8   1   2    0.38    0.09 
  -9  -1  -2    0.03    0.07 
   9   1   2    0.02    0.07 
   9   1   2    0.16    0.12 
 -10  -1  -2    0.43    0.12 
  10   1   2    0.48    0.11 
  10   1   2    0.25    0.14 
 -11  -1  -2   -0.02    0.09 
  11   1   2   -0.03    0.11 
  11   1   2    0.26    0.08 
 -12  -1  -2    0.17    0.12 
  12   1   2    0.02    0.13 
  13   1   2   -0.02    0.13 
  14   1   2   -0.04    0.12 
  15   1   2   -0.03    0.16 
  16  -2  -2   -0.11    0.18 
  15  -2  -2    0.44    0.18 
  14  -2  -2    0.75    0.19 
  14  -2  -2    0.78    0.19 
  13  -2  -2   -0.08    0.10 
  13  -2  -2    0.03    0.11 
  12  -2  -2    0.25    0.13 
  12  -2  -2    0.27    0.13 
  11  -2  -2   -0.06    0.10 
  11  -2  -2   -0.08    0.10 
  10  -2  -2    0.74    0.16 
  10  -2  -2    0.71    0.15 
   9  -2  -2    0.18    0.09 
   9  -2  -2    0.14    0.09 
  -9   2   2    0.07    0.05 
   8  -2  -2    0.15    0.08 
   8  -2  -2    0.02    0.07 
  -8   2   2    0.06    0.04 
   7  -2  -2    1.92    0.15 
   7  -2  -2    1.71    0.17 
  -7   2   2    1.59    0.10 
   6  -2  -2    0.12    0.07 
   6  -2  -2    0.18    0.07 
  -6   2   2    0.36    0.05 
   5  -2  -2    1.27    0.12 
  -5   2   2    1.06    0.07 
   4  -2  -2    4.00    0.21 
  -4   2   2    4.25    0.16 
   3  -2  -2   14.09    0.53 
   3  -2  -2   13.85    0.47 
   2  -2  -2   36.46    1.27 
   2  -2  -2   37.17    1.20 
   1  -2  -2    1.39    0.07 
   1  -2  -2    1.35    0.09 
   0  -2  -2  334.67   10.93 
   0  -2  -2  325.68   10.55 
  -1  -2  -2    5.38    0.20 
  -1  -2  -2    4.19    0.18 
  -2  -2  -2  310.15    9.89 
   2   2   2  307.60    9.85 
  -3  -2  -2    4.92    0.23 
   3   2   2    5.30    0.24 
  -4  -2  -2   12.28    0.47 
   4   2   2   11.95    0.45 
   4   2   2   12.29    0.48 
  -5  -2  -2    0.48    0.09 
   5   2   2    0.50    0.06 
   5   2   2    0.50    0.10 
  -6  -2  -2    5.88    0.28 
   6   2   2    5.24    0.29 
   6   2   2    5.67    0.26 
  -7  -2  -2    6.06    0.30 
   7   2   2    5.84    0.28 
   7   2   2    5.65    0.32 
  -8  -2  -2    1.59    0.16 
   8   2   2    1.44    0.13 
   8   2   2    1.32    0.17 
  -9  -2  -2    0.57    0.12 
   9   2   2    0.72    0.11 
   9   2   2    0.40    0.13 
 -10  -2  -2    0.18    0.10 
  10   2   2    0.07    0.12 
 -11  -2  -2    1.06    0.17 
  11   2   2    0.81    0.18 
 -12  -2  -2    0.29    0.12 
  12   2   2    0.08    0.14 
  13   2   2    0.61    0.19 
  14   2   2   -0.06    0.14 
  15   2   2   -0.05    0.15 
  15  -3  -2    0.13    0.20 
  14  -3  -2    0.06    0.14 
  14  -3  -2   -0.06    0.12 
  13  -3  -2    0.10    0.13 
  13  -3  -2    0.00    0.13 
  12  -3  -2    0.21    0.13 
  12  -3  -2   -0.14    0.10 
  11  -3  -2    3.54    0.26 
  11  -3  -2    3.18    0.30 
  10  -3  -2    2.88    0.27 
  10  -3  -2    2.84    0.23 
   9  -3  -2    1.37    0.19 
   9  -3  -2    1.65    0.17 
   8  -3  -2    0.03    0.08 
   8  -3  -2    0.12    0.07 
  -8   3   2    0.12    0.05 
   7  -3  -2    7.77    0.39 
   7  -3  -2    7.20    0.34 
  -7   3   2    7.53    0.29 
   6  -3  -2    3.84    0.24 
  -6   3   2    3.86    0.17 
   5  -3  -2    2.00    0.16 
  -5   3   2    1.94    0.10 
   4  -3  -2    2.92    0.14 
   4  -3  -2    3.03    0.18 
   3  -3  -2    0.83    0.10 
   3  -3  -2    1.00    0.07 
   2  -3  -2    5.31    0.21 
   2  -3  -2    5.13    0.24 
   1  -3  -2   21.71    0.76 
   1  -3  -2   21.06    0.73 
   0  -3  -2    7.32    0.29 
   0  -3  -2    7.18    0.28 
  -1  -3  -2   52.20    1.75 
  -1  -3  -2   51.58    1.72 
  -2  -3  -2  102.35    3.39 
  -2  -3  -2  106.88    3.46 
   2   3   2  102.57    3.37 
  -3  -3  -2   49.32    1.68 
   3   3   2   50.79    1.68 
  -4  -3  -2    5.69    0.28 
   4   3   2    6.29    0.29 
  -5  -3  -2    2.50    0.17 
   5   3   2    2.33    0.18 
  -6  -3  -2    2.55    0.19 
   6   3   2    2.47    0.21 
  -7  -3  -2    2.95    0.21 
   7   3   2    2.70    0.23 
   7   3   2    3.03    0.16 
  -8  -3  -2    0.49    0.11 
   8   3   2    0.48    0.13 
   8   3   2    0.60    0.08 
  -9  -3  -2    2.16    0.21 
   9   3   2    2.25    0.24 
 -10  -3  -2    1.66    0.20 
  10   3   2    1.33    0.22 
 -11  -3  -2    1.59    0.20 
  11   3   2    1.73    0.25 
 -12  -3  -2    0.23    0.12 
  12   3   2    0.22    0.13 
  13   3   2    0.22    0.16 
  14   3   2    0.12    0.16 
  15   3   2   -0.19    0.16 
  15  -4  -2    0.23    0.19 
  14  -4  -2   -0.11    0.13 
  13  -4  -2   -0.03    0.13 
  13  -4  -2    0.02    0.13 
  12  -4  -2    0.03    0.11 
  12  -4  -2   -0.15    0.11 
  11  -4  -2    1.46    0.18 
  11  -4  -2    1.61    0.24 
  10  -4  -2    1.85    0.23 
  10  -4  -2    1.91    0.19 
   9  -4  -2    0.41    0.15 
   9  -4  -2    0.39    0.10 
   8  -4  -2   10.03    0.50 
   8  -4  -2   10.03    0.43 
  -8   4   2    9.93    0.38 
   7  -4  -2    3.03    0.23 
   7  -4  -2    2.54    0.17 
  -7   4   2    2.82    0.14 
   6  -4  -2    0.19    0.09 
  -6   4   2    0.19    0.05 
   5  -4  -2    1.80    0.11 
   5  -4  -2    2.04    0.17 
   4  -4  -2   30.00    1.02 
   4  -4  -2   29.93    1.10 
   3  -4  -2    3.03    0.19 
   3  -4  -2    3.39    0.16 
   2  -4  -2   15.69    0.60 
   2  -4  -2   15.77    0.57 
   1  -4  -2   55.88    1.87 
   1  -4  -2   56.85    1.93 
   0  -4  -2    0.43    0.06 
   0  -4  -2    0.10    0.04 
  -1  -4  -2    0.41    0.06 
  -1  -4  -2    0.41    0.07 
  -2  -4  -2    8.16    0.30 
  -2  -4  -2    7.50    0.34 
   2   4   2    7.26    0.33 
  -3  -4  -2   12.29    0.43 
  -3  -4  -2   12.14    0.49 
   3   4   2   11.58    0.48 
  -4  -4  -2   23.64    0.80 
  -4  -4  -2   23.02    0.86 
   4   4   2   22.86    0.86 
  -5  -4  -2    0.36    0.10 
   5   4   2    0.41    0.10 
  -6  -4  -2   12.47    0.54 
   6   4   2   12.83    0.55 
  -7  -4  -2   -0.02    0.06 
   7   4   2    0.04    0.09 
  -8  -4  -2    0.02    0.07 
   8   4   2   -0.05    0.09 
  -9  -4  -2    0.57    0.13 
   9   4   2    0.42    0.15 
 -10  -4  -2    1.86    0.21 
  10   4   2    1.51    0.23 
 -11  -4  -2    0.02    0.11 
  11   4   2    0.13    0.14 
 -12  -4  -2    0.13    0.11 
  12   4   2   -0.05    0.13 
 -13  -4  -2    0.06    0.11 
  13   4   2   -0.02    0.13 
  14   4   2   -0.14    0.15 
  15   4   2    0.16    0.20 
  15  -5  -2    0.00    0.19 
  14  -5  -2    0.13    0.17 
  13  -5  -2    0.20    0.16 
  12  -5  -2    0.05    0.12 
  11  -5  -2   -0.06    0.11 
  11  -5  -2    0.04    0.11 
  10  -5  -2    0.34    0.14 
  10  -5  -2    0.00    0.09 
   9  -5  -2    0.58    0.16 
   9  -5  -2    0.37    0.10 
   8  -5  -2    0.24    0.08 
   8  -5  -2    0.41    0.14 
   7  -5  -2    3.76    0.28 
  -7   5   2    3.71    0.19 
   6  -5  -2    0.23    0.05 
   6  -5  -2    0.06    0.08 
   5  -5  -2    1.59    0.11 
   5  -5  -2    1.73    0.18 
   4  -5  -2    0.08    0.04 
   4  -5  -2    0.03    0.06 
   3  -5  -2   14.64    0.59 
   3  -5  -2   14.61    0.55 
   2  -5  -2    3.35    0.18 
   2  -5  -2    3.73    0.20 
   1  -5  -2   19.42    0.71 
   1  -5  -2   19.29    0.72 
   0  -5  -2    0.54    0.09 
   0  -5  -2    0.55    0.07 
  -1  -5  -2    0.74    0.08 
  -1  -5  -2    0.81    0.10 
  -2  -5  -2    1.03    0.12 
  -2  -5  -2    0.93    0.07 
  -3  -5  -2    0.08    0.03 
  -3  -5  -2    0.01    0.05 
   3   5   2    0.08    0.07 
  -4  -5  -2    6.95    0.25 
  -4  -5  -2    6.57    0.34 
   4   5   2    6.84    0.34 
  -5  -5  -2    0.22    0.09 
   5   5   2    0.19    0.09 
  -6  -5  -2   -0.01    0.06 
   6   5   2   -0.04    0.08 
  -7  -5  -2    1.05    0.15 
   7   5   2    0.92    0.17 
  -8  -5  -2    0.34    0.12 
   8   5   2    0.36    0.14 
  -9  -5  -2    1.96    0.22 
   9   5   2    2.06    0.24 
 -10  -5  -2    3.43    0.27 
  10   5   2    2.60    0.28 
 -11  -5  -2    0.98    0.19 
  11   5   2    1.36    0.23 
 -12  -5  -2    0.12    0.11 
  12   5   2    0.16    0.15 
 -13  -5  -2    0.15    0.13 
  13   5   2    0.21    0.17 
  14   5   2    0.21    0.19 
  15  -6  -2   -0.24    0.19 
  14  -6  -2    0.24    0.20 
  13  -6  -2    0.31    0.17 
  12  -6  -2    0.97    0.21 
  11  -6  -2    0.17    0.13 
  10  -6  -2    0.39    0.15 
   9  -6  -2    0.01    0.11 
   9  -6  -2    0.12    0.08 
   8  -6  -2    2.74    0.19 
   8  -6  -2    3.21    0.30 
   7  -6  -2    2.07    0.23 
   6  -6  -2   -0.06    0.09 
   6  -6  -2    0.14    0.06 
   5  -6  -2    0.46    0.08 
   5  -6  -2    0.35    0.11 
   4  -6  -2    0.05    0.05 
   4  -6  -2    0.04    0.08 
   3  -6  -2    0.05    0.05 
   3  -6  -2    0.15    0.08 
   2  -6  -2    0.00    0.05 
   2  -6  -2   -0.04    0.06 
   1  -6  -2    3.71    0.21 
   1  -6  -2    3.67    0.21 
   0  -6  -2    6.93    0.32 
   0  -6  -2    8.13    0.36 
  -1  -6  -2   21.94    0.82 
  -1  -6  -2   21.49    0.79 
  -2  -6  -2    3.25    0.17 
  -2  -6  -2    3.41    0.22 
  -3  -6  -2   11.41    0.42 
  -3  -6  -2   11.08    0.49 
   3   6   2   11.12    0.49 
  -4  -6  -2    0.17    0.08 
  -4  -6  -2    0.14    0.03 
   4   6   2    0.18    0.08 
  -5  -6  -2    0.43    0.11 
   5   6   2    0.76    0.14 
  -6  -6  -2    0.13    0.09 
   6   6   2    0.02    0.10 
  -7  -6  -2   -0.02    0.08 
   7   6   2    0.00    0.10 
  -8  -6  -2    2.98    0.27 
   8   6   2    2.99    0.28 
  -9  -6  -2    3.01    0.28 
   9   6   2    3.80    0.33 
 -10  -6  -2    2.54    0.26 
  10   6   2    2.64    0.30 
 -11  -6  -2    0.01    0.10 
  11   6   2    0.17    0.14 
 -12  -6  -2    0.74    0.17 
  12   6   2    0.47    0.19 
 -13  -6  -2   -0.01    0.11 
  13   6   2    0.14    0.16 
  14   6   2   -0.22    0.15 
  14  -7  -2    0.18    0.20 
  13  -7  -2    0.00    0.16 
  12  -7  -2   -0.21    0.14 
  11  -7  -2    0.20    0.17 
  10  -7  -2   -0.07    0.12 
   9  -7  -2    0.16    0.12 
   8  -7  -2    0.27    0.14 
   7  -7  -2    1.41    0.14 
   7  -7  -2    1.81    0.23 
   6  -7  -2   10.97    0.55 
   6  -7  -2   11.19    0.47 
   5  -7  -2    3.66    0.22 
   5  -7  -2    3.40    0.27 
   4  -7  -2    4.30    0.24 
   4  -7  -2    3.99    0.27 
   3  -7  -2   11.03    0.49 
   3  -7  -2   10.24    0.45 
   2  -7  -2   16.35    0.66 
   2  -7  -2   17.12    0.68 
   1  -7  -2   -0.04    0.06 
   1  -7  -2    0.02    0.06 
   0  -7  -2    4.34    0.24 
   0  -7  -2    4.67    0.26 
  -1  -7  -2    4.80    0.24 
  -1  -7  -2    4.68    0.27 
  -2  -7  -2    4.58    0.28 
  -2  -7  -2    4.44    0.22 
  -3  -7  -2    3.39    0.23 
  -3  -7  -2    3.07    0.16 
  -4  -7  -2    1.37    0.18 
   4   7   2    1.91    0.19 
  -5  -7  -2   -0.06    0.06 
   5   7   2    0.11    0.11 
  -6  -7  -2    0.68    0.14 
   6   7   2    0.36    0.14 
  -7  -7  -2    0.18    0.11 
   7   7   2    0.19    0.13 
  -8  -7  -2    0.03    0.09 
   8   7   2    0.14    0.12 
  -9  -7  -2    0.78    0.17 
   9   7   2    1.12    0.22 
 -10  -7  -2    0.68    0.17 
  10   7   2    1.03    0.21 
 -11  -7  -2    0.10    0.11 
  11   7   2   -0.16    0.13 
 -12  -7  -2    0.10    0.12 
  12   7   2    0.03    0.15 
 -13  -7  -2    0.21    0.14 
  13   7   2    0.17    0.18 
  14   7   2   -0.01    0.17 
  13  -8  -2    0.15    0.19 
  12  -8  -2    0.17    0.17 
  11  -8  -2    1.54    0.27 
  10  -8  -2    0.83    0.21 
   9  -8  -2    0.24    0.15 
   8  -8  -2    0.03    0.13 
   7  -8  -2    0.58    0.17 
   6  -8  -2    6.71    0.34 
   6  -8  -2    6.21    0.40 
   5  -8  -2   12.20    0.57 
   5  -8  -2   10.75    0.49 
   4  -8  -2    0.50    0.11 
   4  -8  -2    0.56    0.15 
   3  -8  -2    0.06    0.09 
   3  -8  -2    0.01    0.06 
   2  -8  -2   20.65    0.81 
   2  -8  -2   18.96    0.77 
   1  -8  -2    0.32    0.10 
   1  -8  -2    0.42    0.10 
   0  -8  -2    1.62    0.17 
   0  -8  -2    1.03    0.13 
  -1  -8  -2    0.56    0.12 
  -1  -8  -2    0.84    0.11 
  -2  -8  -2    2.77    0.23 
  -2  -8  -2    3.24    0.19 
  -3  -8  -2    4.69    0.31 
  -4  -8  -2    2.29    0.23 
  -5  -8  -2    1.92    0.22 
   5   8   2    1.89    0.22 
  -6  -8  -2    1.55    0.21 
   6   8   2    1.53    0.21 
  -7  -8  -2    2.10    0.25 
   7   8   2    2.23    0.25 
  -8  -8  -2    3.19    0.30 
   8   8   2    4.42    0.34 
  -9  -8  -2    0.48    0.14 
   9   8   2    0.47    0.17 
 -10  -8  -2    0.01    0.11 
  10   8   2    0.20    0.16 
 -11  -8  -2    0.43    0.15 
  11   8   2    0.26    0.18 
 -12  -8  -2    0.06    0.12 
  12   8   2    0.13    0.17 
 -13  -8  -2    0.22    0.15 
  13   8   2   -0.08    0.16 
  13  -9  -2    0.06    0.20 
  12  -9  -2    0.10    0.18 
  11  -9  -2   -0.02    0.15 
  10  -9  -2   -0.09    0.13 
   9  -9  -2    0.14    0.15 
   8  -9  -2    0.81    0.19 
   7  -9  -2    0.19    0.13 
   6  -9  -2    0.28    0.14 
   6  -9  -2    0.57    0.11 
   5  -9  -2    4.07    0.26 
   5  -9  -2    4.22    0.32 
   4  -9  -2    4.66    0.32 
   4  -9  -2    4.44    0.28 
   3  -9  -2   14.37    0.64 
   3  -9  -2   16.35    0.69 
   2  -9  -2    0.42    0.12 
   2  -9  -2    0.33    0.10 
   1  -9  -2   -0.03    0.08 
   1  -9  -2   -0.05    0.07 
   0  -9  -2   -0.08    0.08 
   0  -9  -2    0.04    0.06 
  -1  -9  -2    0.01    0.07 
  -1  -9  -2    0.03    0.09 
  -2  -9  -2    0.91    0.12 
  -2  -9  -2    1.08    0.18 
  -3  -9  -2    0.85    0.17 
  -4  -9  -2    2.94    0.28 
  -5  -9  -2    0.04    0.11 
  -6  -9  -2    0.56    0.16 
  -7  -9  -2    0.02    0.10 
   7   9   2    0.03    0.11 
  -8  -9  -2    0.27    0.13 
   8   9   2    0.18    0.14 
  -9  -9  -2    0.03    0.11 
   9   9   2   -0.16    0.12 
 -10  -9  -2    0.35    0.15 
  10   9   2    0.27    0.18 
 -11  -9  -2    0.39    0.16 
  11   9   2    0.19    0.17 
 -12  -9  -2    0.17    0.14 
  12   9   2   -0.07    0.17 
  12 -10  -2    0.27    0.22 
  11 -10  -2    0.07    0.17 
  10 -10  -2    0.67    0.20 
   9 -10  -2    0.24    0.16 
   8 -10  -2    0.84    0.20 
   7 -10  -2    0.09    0.13 
   6 -10  -2    2.73    0.29 
   5 -10  -2    6.74    0.42 
   5 -10  -2    6.06    0.36 
   4 -10  -2    3.67    0.30 
   4 -10  -2    3.54    0.27 
   3 -10  -2    0.10    0.12 
   3 -10  -2    0.09    0.10 
   2 -10  -2    1.51    0.20 
   2 -10  -2    1.50    0.19 
   1 -10  -2    0.12    0.10 
   1 -10  -2    0.21    0.10 
   0 -10  -2    1.35    0.20 
  -1 -10  -2    0.72    0.12 
  -1 -10  -2    0.88    0.17 
  -2 -10  -2    1.08    0.19 
  -3 -10  -2    0.46    0.15 
  -4 -10  -2    1.71    0.24 
  -5 -10  -2    3.43    0.33 
  -6 -10  -2    0.29    0.13 
  -7 -10  -2    0.36    0.15 
  -8 -10  -2    0.41    0.15 
  -9 -10  -2   -0.14    0.11 
   9  10   2    0.15    0.14 
 -10 -10  -2   -0.01    0.11 
  10  10   2    0.11    0.17 
 -11 -10  -2    0.06    0.14 
  11  10   2    0.12    0.20 
  11 -11  -2    0.20    0.19 
  10 -11  -2    0.10    0.15 
   9 -11  -2    0.16    0.17 
   8 -11  -2    0.55    0.20 
   7 -11  -2    0.48    0.18 
   6 -11  -2    0.41    0.17 
   5 -11  -2    0.07    0.10 
   5 -11  -2   -0.12    0.10 
   4 -11  -2    2.39    0.27 
   4 -11  -2    2.06    0.24 
   3 -11  -2    9.25    0.50 
   3 -11  -2    8.67    0.48 
   2 -11  -2    1.80    0.22 
   2 -11  -2    1.83    0.23 
   1 -11  -2    0.94    0.18 
   1 -11  -2    1.20    0.18 
   0 -11  -2    5.73    0.38 
  -1 -11  -2    1.94    0.25 
  -2 -11  -2    0.48    0.16 
  -3 -11  -2    1.80    0.25 
  -4 -11  -2    1.85    0.26 
  -5 -11  -2   -0.25    0.09 
  -6 -11  -2    0.39    0.15 
  -7 -11  -2    0.08    0.13 
  -8 -11  -2    0.15    0.12 
  -9 -11  -2    0.01    0.13 
 -10 -11  -2    0.50    0.18 
 -11 -11  -2    0.22    0.16 
  10 -12  -2   -0.09    0.17 
   9 -12  -2   -0.22    0.12 
   8 -12  -2    0.26    0.16 
   7 -12  -2    0.44    0.18 
   6 -12  -2   -0.04    0.13 
   5 -12  -2    0.48    0.17 
   4 -12  -2    0.09    0.11 
   4 -12  -2   -0.08    0.12 
   3 -12  -2   -0.05    0.13 
   3 -12  -2   -0.01    0.11 
   2 -12  -2    0.24    0.14 
   2 -12  -2    0.38    0.15 
   1 -12  -2    1.74    0.24 
   0 -12  -2    3.16    0.31 
  -1 -12  -2    1.93    0.27 
  -2 -12  -2    0.45    0.15 
  -3 -12  -2    0.04    0.10 
  -4 -12  -2    0.21    0.14 
  -5 -12  -2    0.12    0.13 
  -6 -12  -2   -0.10    0.10 
  -7 -12  -2    0.07    0.13 
  -8 -12  -2    0.16    0.16 
  -9 -12  -2   -0.03    0.14 
   8 -13  -2    0.01    0.17 
   7 -13  -2    0.68    0.20 
   6 -13  -2    0.61    0.18 
   5 -13  -2   -0.07    0.13 
   4 -13  -2    0.26    0.14 
   4 -13  -2    0.17    0.14 
   3 -13  -2    0.15    0.12 
   3 -13  -2    0.15    0.14 
   2 -13  -2    0.16    0.13 
   1 -13  -2    0.74    0.18 
   0 -13  -2    1.32    0.23 
  -1 -13  -2    1.10    0.22 
  -2 -13  -2    0.48    0.18 
  -3 -13  -2    0.35    0.17 
  -4 -13  -2    0.65    0.20 
  -5 -13  -2    0.01    0.14 
  -6 -13  -2    0.05    0.16 
  -7 -13  -2    1.23    0.26 
  -8 -13  -2    0.72    0.22 
   7 -14  -2    0.37    0.21 
   6 -14  -2    0.11    0.16 
   5 -14  -2    0.34    0.18 
   4 -14  -2    0.42    0.19 
   3 -14  -2   -0.11    0.11 
   2 -14  -2    0.18    0.15 
   1 -14  -2    0.14    0.14 
   0 -14  -2   -0.07    0.13 
  -1 -14  -2    0.14    0.16 
  -2 -14  -2    0.68    0.22 
  -3 -14  -2    0.48    0.20 
  -4 -14  -2    0.34    0.19 
  -5 -14  -2   -0.09    0.16 
  -6 -14  -2    0.14    0.18 
   3 -15  -2    0.04    0.19 
   2 -15  -2   -0.08    0.15 
   1 -15  -2    0.35    0.20 
   0 -15  -2    0.07    0.17 
  -1 -15  -2    0.23    0.20 
  -2 -15  -2   -0.21    0.16 
  -3 -15  -2    0.22    0.20 
  -3 -15   3    0.20    0.21 
  -2 -15   3   -0.03    0.17 
  -1 -15   3   -0.12    0.16 
   0 -15   3    0.26    0.19 
   1 -15   3    0.18    0.17 
   2 -15   3    0.03    0.16 
   3 -15   3    0.27    0.20 
  -7 -14   3    0.17    0.18 
  -6 -14   3    0.03    0.15 
  -5 -14   3    0.45    0.20 
  -4 -14   3   -0.09    0.15 
  -3 -14   3   -0.01    0.15 
  -2 -14   3    0.10    0.16 
  -1 -14   3   -0.16    0.14 
   0 -14   3   -0.10    0.13 
   1 -14   3   -0.03    0.13 
   2 -14   3    0.08    0.13 
   3 -14   3    0.05    0.15 
   4 -14   3    0.15    0.15 
   4 -14   3    0.18    0.17 
   5 -14   3   -0.02    0.16 
   5 -14   3   -0.07    0.15 
   6 -14   3    0.04    0.17 
  -8 -13   3   -0.10    0.14 
  -7 -13   3   -0.17    0.12 
  -6 -13   3   -0.02    0.13 
  -5 -13   3    0.13    0.13 
  -4 -13   3    0.04    0.14 
  -3 -13   3   -0.10    0.12 
  -2 -13   3   -0.02    0.12 
  -1 -13   3    1.04    0.24 
   0 -13   3    0.89    0.21 
   1 -13   3   -0.03    0.11 
   2 -13   3   -0.05    0.11 
   3 -13   3    0.16    0.14 
   3 -13   3    0.07    0.12 
   4 -13   3    0.04    0.14 
   4 -13   3    0.37    0.15 
   5 -13   3    0.04    0.12 
   5 -13   3    0.07    0.15 
   6 -13   3    0.22    0.17 
   7 -13   3    0.18    0.19 
   8 -13   3    0.47    0.23 
  10  12  -3    0.04    0.17 
 -10 -12   3    0.05    0.15 
   9  12  -3    0.12    0.15 
  -9 -12   3    0.08    0.13 
   8  12  -3    1.16    0.23 
  -8 -12   3    0.91    0.23 
   7  12  -3    0.50    0.18 
  -7 -12   3    0.19    0.15 
  -6 -12   3    0.59    0.18 
  -5 -12   3    0.99    0.21 
  -4 -12   3    0.22    0.16 
  -3 -12   3    0.70    0.18 
  -2 -12   3    3.12    0.33 
  -1 -12   3    0.54    0.17 
   0 -12   3    0.31    0.14 
   1 -12   3    0.18    0.14 
   1 -12   3    0.63    0.17 
   2 -12   3    0.39    0.14 
   2 -12   3    0.74    0.18 
   3 -12   3    0.22    0.13 
   3 -12   3    0.14    0.13 
   4 -12   3    1.95    0.27 
   4 -12   3    2.00    0.27 
   5 -12   3    2.43    0.29 
   5 -12   3    2.48    0.31 
   6 -12   3    0.81    0.21 
   6 -12   3    0.93    0.19 
   7 -12   3    0.06    0.16 
   8 -12   3    0.13    0.17 
   9 -12   3    0.49    0.22 
  11  11  -3   -0.07    0.17 
 -11 -11   3   -0.04    0.14 
  10  11  -3   -0.05    0.16 
 -10 -11   3   -0.01    0.14 
   9  11  -3    0.20    0.17 
  -9 -11   3    0.09    0.13 
   8  11  -3    0.39    0.16 
  -8 -11   3    0.67    0.20 
   7  11  -3    0.26    0.14 
  -7 -11   3    0.15    0.12 
   6  11  -3   -0.02    0.11 
  -6 -11   3    0.08    0.12 
   5  11  -3    0.01    0.11 
  -5 -11   3    0.17    0.13 
  -4 -11   3    0.14    0.12 
  -3 -11   3    0.42    0.15 
  -2 -11   3    0.32    0.14 
  -1 -11   3   -0.06    0.08 
   0 -11   3   -0.04    0.09 
   0 -11   3   -0.06    0.09 
   1 -11   3   -0.05    0.09 
   1 -11   3    0.13    0.12 
   2 -11   3    0.60    0.16 
   2 -11   3    0.37    0.14 
   3 -11   3    0.90    0.18 
   3 -11   3    0.84    0.19 
   4 -11   3    2.49    0.28 
   4 -11   3    2.36    0.27 
   5 -11   3    0.01    0.10 
   5 -11   3    0.18    0.14 
   6 -11   3    0.20    0.15 
   6 -11   3    0.02    0.10 
   7 -11   3    0.16    0.12 
   7 -11   3   -0.13    0.13 
   8 -11   3   -0.08    0.15 
   9 -11   3   -0.09    0.14 
  10 -11   3    0.04    0.18 
  12  10  -3    0.58    0.22 
 -12 -10   3    0.41    0.18 
  11  10  -3    0.44    0.20 
 -11 -10   3    0.65    0.19 
  10  10  -3    0.07    0.15 
 -10 -10   3    0.25    0.15 
   9  10  -3    0.36    0.17 
  -9 -10   3    0.49    0.16 
   8  10  -3    0.75    0.19 
  -8 -10   3    0.46    0.17 
   7  10  -3    0.07    0.12 
  -7 -10   3    0.04    0.11 
   6  10  -3    0.16    0.12 
  -6 -10   3    0.23    0.13 
   5  10  -3    1.23    0.18 
  -5 -10   3    1.03    0.20 
   4  10  -3    0.08    0.09 
  -4 -10   3   -0.04    0.10 
  -3 -10   3    2.60    0.27 
  -2 -10   3    3.81    0.30 
  -1 -10   3    0.63    0.15 
  -1 -10   3    0.50    0.12 
   0 -10   3    1.38    0.17 
   0 -10   3    1.18    0.20 
   1 -10   3    3.62    0.27 
   1 -10   3    4.04    0.30 
   2 -10   3    6.04    0.38 
   2 -10   3    6.54    0.39 
   3 -10   3    2.09    0.24 
   3 -10   3    2.36    0.25 
   4 -10   3    1.74    0.24 
   4 -10   3    1.56    0.22 
   5 -10   3    2.19    0.25 
   5 -10   3    2.01    0.26 
   6 -10   3    0.03    0.12 
   6 -10   3    0.02    0.09 
   7 -10   3    1.03    0.19 
   7 -10   3    1.44    0.24 
   8 -10   3    0.78    0.20 
   9 -10   3    0.17    0.14 
  10 -10   3   -0.05    0.15 
  11 -10   3   -0.06    0.18 
  13   9  -3    0.25    0.23 
 -13  -9   3    0.58    0.20 
  12   9  -3   -0.27    0.14 
 -12  -9   3    0.00    0.12 
  11   9  -3    0.13    0.15 
 -11  -9   3    0.04    0.12 
  10   9  -3    0.15    0.14 
 -10  -9   3    0.23    0.12 
   9   9  -3   -0.08    0.11 
  -9  -9   3   -0.01    0.10 
   8   9  -3   -0.05    0.09 
  -8  -9   3    0.03    0.10 
   7   9  -3    0.03    0.10 
  -7  -9   3   -0.07    0.09 
   6   9  -3    0.84    0.17 
  -6  -9   3    0.95    0.19 
   5   9  -3    0.01    0.10 
  -5  -9   3   -0.04    0.08 
   4   9  -3    0.94    0.14 
  -4  -9   3    0.55    0.15 
   3   9  -3    3.27    0.22 
  -3  -9   3    3.22    0.29 
  -2  -9   3    0.38    0.10 
  -2  -9   3    0.45    0.14 
  -1  -9   3   13.43    0.58 
  -1  -9   3   13.63    0.63 
   0  -9   3    2.65    0.25 
   0  -9   3    3.06    0.23 
   1  -9   3    2.60    0.25 
   1  -9   3    2.76    0.23 
   2  -9   3    6.27    0.38 
   2  -9   3    6.88    0.39 
   3  -9   3   18.16    0.77 
   3  -9   3   17.96    0.79 
   4  -9   3    1.40    0.19 
   4  -9   3    1.33    0.21 
   5  -9   3    0.15    0.10 
   5  -9   3    0.19    0.12 
   6  -9   3    0.60    0.17 
   6  -9   3    0.30    0.12 
   7  -9   3    0.96    0.18 
   7  -9   3    1.12    0.22 
  -8   9  -3    0.00    0.11 
   8  -9   3    0.00    0.13 
   9  -9   3    0.03    0.12 
  10  -9   3    0.17    0.17 
  11  -9   3   -0.05    0.18 
  12  -9   3    0.10    0.22 
  14   8  -3   -0.04    0.19 
  13   8  -3   -0.27    0.16 
  12   8  -3    0.04    0.14 
 -12  -8   3    0.03    0.12 
  11   8  -3   -0.05    0.14 
 -11  -8   3   -0.03    0.10 
  10   8  -3    0.16    0.15 
 -10  -8   3    0.23    0.13 
   9   8  -3    0.09    0.13 
  -9  -8   3    0.00    0.09 
   8   8  -3    5.32    0.35 
  -8  -8   3    4.83    0.35 
   7   8  -3    0.23    0.12 
  -7  -8   3    0.56    0.15 
   6   8  -3    0.33    0.14 
  -6  -8   3    0.29    0.14 
   5   8  -3   -0.01    0.09 
  -5  -8   3    0.04    0.10 
   4   8  -3    1.90    0.18 
  -4  -8   3    1.96    0.21 
   3   8  -3    0.08    0.08 
  -3  -8   3    0.20    0.07 
  -3  -8   3    0.20    0.11 
   2   8  -3    0.49    0.10 
  -2  -8   3    0.22    0.11 
  -2  -8   3    0.27    0.08 
  -1  -8   3    0.22    0.09 
  -1  -8   3    0.35    0.11 
   0  -8   3    0.15    0.09 
   0  -8   3    0.14    0.08 
   1  -8   3    0.41    0.11 
   1  -8   3    0.70    0.13 
   2  -8   3    0.81    0.14 
   2  -8   3    0.87    0.15 
   3  -8   3    0.39    0.13 
   3  -8   3    0.39    0.11 
   4  -8   3    0.12    0.11 
   4  -8   3    0.19    0.09 
   5  -8   3    0.50    0.13 
   5  -8   3    0.83    0.18 
   6  -8   3    0.04    0.12 
   6  -8   3    0.03    0.08 
  -7   8  -3    1.07    0.16 
   7  -8   3    0.83    0.18 
  -8   8  -3    0.64    0.15 
   8  -8   3    0.70    0.18 
   9  -8   3    0.07    0.14 
  10  -8   3   -0.15    0.14 
  11  -8   3   -0.04    0.16 
  12  -8   3    0.03    0.19 
  13  -8   3   -0.14    0.19 
  14   7  -3    0.36    0.22 
  13   7  -3    0.42    0.20 
  12   7  -3    0.15    0.16 
 -12  -7   3    0.34    0.14 
  11   7  -3   -0.05    0.13 
 -11  -7   3    0.19    0.11 
  10   7  -3    0.06    0.12 
 -10  -7   3   -0.11    0.09 
   9   7  -3    0.07    0.11 
  -9  -7   3   -0.03    0.09 
   8   7  -3    0.14    0.12 
  -8  -7   3    0.30    0.13 
   7   7  -3    0.15    0.11 
  -7  -7   3    0.14    0.10 
   6   7  -3    5.89    0.35 
  -6  -7   3    7.44    0.40 
   5   7  -3    1.44    0.16 
  -5  -7   3    1.41    0.19 
   4   7  -3    1.81    0.17 
  -4  -7   3    1.92    0.20 
   3   7  -3    3.52    0.21 
  -3  -7   3    3.97    0.26 
  -3  -7   3    3.76    0.19 
   2   7  -3    1.60    0.14 
  -2  -7   3    1.48    0.17 
  -2  -7   3    1.57    0.13 
   1   7  -3    9.49    0.37 
  -1  -7   3    9.16    0.43 
  -1  -7   3    8.42    0.39 
   0  -7   3   21.45    0.82 
   0  -7   3   20.99    0.83 
   1  -7   3    3.36    0.23 
   1  -7   3    3.49    0.24 
   2  -7   3    5.18    0.30 
   2  -7   3    4.94    0.29 
   3  -7   3    0.32    0.11 
   3  -7   3    0.13    0.06 
   4  -7   3    0.13    0.10 
   4  -7   3    0.22    0.08 
   5  -7   3    1.20    0.16 
   5  -7   3    0.98    0.17 
   6  -7   3    1.04    0.15 
   6  -7   3    0.69    0.16 
  -7   7  -3    1.57    0.17 
   7  -7   3    1.48    0.22 
  -8   7  -3   -0.01    0.08 
   8  -7   3    0.04    0.12 
   9  -7   3    0.06    0.14 
  10  -7   3    0.02    0.13 
  11  -7   3   -0.15    0.12 
  12  -7   3    0.15    0.17 
  13  -7   3    0.19    0.23 
  15   6  -3    0.13    0.19 
  14   6  -3   -0.06    0.16 
  13   6  -3    0.00    0.16 
  12   6  -3    0.86    0.21 
 -12  -6   3    1.00    0.19 
  11   6  -3    0.54    0.17 
 -11  -6   3    0.71    0.16 
  10   6  -3    0.15    0.12 
 -10  -6   3    0.14    0.10 
   9   6  -3    7.94    0.45 
  -9  -6   3    8.63    0.45 
   8   6  -3   12.66    0.59 
  -8  -6   3   12.41    0.58 
   7   6  -3    3.43    0.25 
  -7  -6   3    3.51    0.26 
   6   6  -3    7.06    0.36 
  -6  -6   3    6.92    0.37 
   5   6  -3    1.56    0.16 
  -5  -6   3    1.23    0.16 
   4   6  -3    3.01    0.19 
  -4  -6   3    2.95    0.22 
   3   6  -3    7.79    0.34 
  -3  -6   3    7.17    0.37 
   2   6  -3   15.36    0.57 
  -2  -6   3   15.93    0.58 
  -2  -6   3   14.95    0.63 
   1   6  -3    7.40    0.29 
  -1  -6   3    5.31    0.29 
  -1  -6   3    8.24    0.36 
   0  -6   3    0.76    0.12 
   0  -6   3    0.80    0.11 
   1  -6   3    3.46    0.22 
   1  -6   3    3.38    0.22 
   2  -6   3   46.66    1.65 
   2  -6   3   45.21    1.60 
   3  -6   3    5.34    0.31 
   3  -6   3    5.65    0.30 
   4  -6   3    1.65    0.16 
   4  -6   3    1.32    0.17 
   5  -6   3    2.45    0.19 
   5  -6   3    2.68    0.24 
  -6   6  -3    0.11    0.07 
   6  -6   3    0.12    0.11 
  -7   6  -3    2.36    0.18 
   7  -6   3    2.47    0.25 
  -8   6  -3    3.62    0.23 
   8  -6   3    3.46    0.32 
  -9   6  -3   -0.02    0.08 
   9  -6   3    0.21    0.14 
  10  -6   3    0.49    0.18 
  11  -6   3    0.14    0.15 
  12  -6   3   -0.05    0.15 
  13  -6   3   -0.01    0.17 
  14  -6   3    0.13    0.21 
  15   5  -3    0.12    0.18 
  14   5  -3    0.04    0.16 
  13   5  -3   -0.08    0.13 
  12   5  -3   -0.01    0.13 
 -12  -5   3    0.05    0.11 
  11   5  -3   -0.10    0.11 
 -11  -5   3   -0.03    0.09 
  10   5  -3    0.77    0.18 
 -10  -5   3    1.08    0.17 
   9   5  -3    1.66    0.21 
  -9  -5   3    1.38    0.18 
   8   5  -3    0.11    0.11 
  -8  -5   3    0.41    0.11 
   7   5  -3    3.79    0.26 
  -7  -5   3    3.90    0.26 
   6   5  -3    0.57    0.12 
  -6  -5   3    0.40    0.10 
   5   5  -3    0.77    0.11 
  -5  -5   3    0.87    0.13 
   4   5  -3    4.82    0.25 
  -4  -5   3    4.69    0.26 
   3   5  -3    0.00    0.05 
  -3  -5   3    0.09    0.06 
   2   5  -3    0.95    0.09 
  -2  -5   3    0.91    0.08 
  -2  -5   3    0.71    0.11 
   1   5  -3   60.22    1.98 
  -1  -5   3   61.18    2.05 
   0   5  -3    0.99    0.07 
   0  -5   3    1.02    0.11 
   0  -5   3    1.20    0.13 
   1  -5   3   32.93    1.18 
   1  -5   3   31.83    1.15 
   2  -5   3    0.24    0.07 
   2  -5   3    0.22    0.07 
   3  -5   3    6.21    0.32 
   3  -5   3    5.76    0.30 
   4  -5   3   13.18    0.54 
   4  -5   3   12.33    0.56 
   5  -5   3    0.10    0.05 
   5  -5   3    0.03    0.04 
   5  -5   3    0.05    0.07 
  -6   5  -3    1.22    0.13 
   6  -5   3    1.32    0.10 
   6  -5   3    1.03    0.16 
  -7   5  -3    0.42    0.09 
   7  -5   3    0.27    0.12 
   7  -5   3    0.61    0.09 
  -8   5  -3    1.08    0.13 
   8  -5   3    0.83    0.18 
  -9   5  -3    0.32    0.10 
   9  -5   3    0.17    0.13 
  10  -5   3    0.16    0.13 
  11  -5   3    0.13    0.13 
  12  -5   3   -0.10    0.12 
  13  -5   3   -0.16    0.15 
  14  -5   3    0.04    0.18 
  15   4  -3    0.13    0.16 
  14   4  -3   -0.14    0.13 
  13   4  -3    0.81    0.20 
  12   4  -3    0.75    0.18 
  11   4  -3    0.99    0.19 
 -11  -4   3    0.98    0.16 
  10   4  -3    3.37    0.29 
 -10  -4   3    2.53    0.22 
   9   4  -3    3.16    0.27 
  -9  -4   3    2.94    0.22 
   8   4  -3    1.11    0.16 
  -8  -4   3    1.32    0.15 
   7   4  -3    0.59    0.12 
   7   4  -3    0.77    0.06 
  -7  -4   3    0.46    0.11 
   6   4  -3   -0.01    0.06 
  -6  -4   3   -0.03    0.05 
   5   4  -3    4.70    0.25 
  -5  -4   3    5.24    0.27 
   4   4  -3   19.17    0.66 
   4   4  -3   18.84    0.70 
  -4  -4   3   20.22    0.73 
   3   4  -3    0.28    0.06 
  -3  -4   3    0.29    0.07 
   2   4  -3    1.10    0.09 
  -2  -4   3    1.08    0.08 
  -2  -4   3    0.90    0.11 
   1   4  -3   27.80    0.92 
  -1  -4   3   26.88    0.97 
   0   4  -3   21.19    0.69 
   0  -4   3   20.87    0.77 
   0  -4   3   20.56    0.76 
   1  -4   3    0.00    0.04 
   1  -4   3    0.04    0.04 
   2  -4   3    8.65    0.38 
   2  -4   3    8.78    0.39 
   3  -4   3    6.18    0.29 
   3  -4   3    6.12    0.31 
   4  -4   3   28.86    1.08 
   4  -4   3   30.70    1.14 
   4  -4   3   31.43    1.00 
  -5   4  -3    0.68    0.10 
   5  -4   3    0.62    0.12 
   5  -4   3    0.63    0.07 
  -6   4  -3    4.77    0.25 
   6  -4   3    5.01    0.23 
   6  -4   3    4.98    0.31 
  -7   4  -3    1.94    0.15 
   7  -4   3    1.66    0.20 
   7  -4   3    2.00    0.15 
  -8   4  -3    2.77    0.19 
   8  -4   3    2.28    0.24 
   8  -4   3    2.41    0.18 
  -9   4  -3    2.15    0.18 
   9  -4   3    1.38    0.21 
   9  -4   3    1.77    0.17 
 -10   4  -3    0.07    0.07 
  10  -4   3    0.17    0.13 
  11  -4   3    0.72    0.19 
  12  -4   3    0.07    0.14 
  13  -4   3    0.16    0.16 
  14  -4   3    0.18    0.18 
  16   3  -3   -0.04    0.16 
  15   3  -3   -0.03    0.14 
  14   3  -3    0.13    0.15 
  13   3  -3    0.00    0.12 
  12   3  -3    0.07    0.12 
  11   3  -3   -0.11    0.10 
 -11  -3   3    0.00    0.05 
  10   3  -3    0.01    0.10 
 -10  -3   3    0.16    0.07 
   9   3  -3    0.67    0.15 
  -9  -3   3    0.53    0.10 
   8   3  -3    0.28    0.10 
   8   3  -3    0.63    0.08 
  -8  -3   3    0.50    0.10 
   7   3  -3    1.18    0.15 
   7   3  -3    1.17    0.09 
  -7  -3   3    1.07    0.12 
   6   3  -3    2.16    0.17 
   6   3  -3    1.99    0.11 
  -6  -3   3    1.68    0.15 
   5   3  -3   18.62    0.64 
   5   3  -3   17.93    0.69 
  -5  -3   3   18.80    0.69 
   4   3  -3    8.60    0.31 
   4   3  -3    8.34    0.35 
  -4  -3   3    8.12    0.35 
   3   3  -3   50.63    1.70 
  -3  -3   3   52.12    1.72 
   2   3  -3    5.33    0.22 
  -2  -3   3    5.38    0.24 
   1   3  -3    1.02    0.07 
  -1  -3   3    0.99    0.09 
   0   3  -3    0.91    0.05 
   0  -3   3    0.91    0.08 
   0  -3   3    0.96    0.09 
   1  -3   3    2.87    0.16 
   1  -3   3    2.72    0.16 
   2  -3   3   23.51    0.86 
   2  -3   3   22.92    0.83 
   3  -3   3    7.84    0.28 
   3  -3   3    7.53    0.35 
   3  -3   3    7.74    0.34 
  -4   3  -3    3.82    0.20 
   4  -3   3    3.84    0.17 
   4  -3   3    3.79    0.23 
  -5   3  -3    0.09    0.06 
   5  -3   3   -0.04    0.06 
   5  -3   3    0.11    0.05 
  -6   3  -3    1.32    0.13 
   6  -3   3    1.28    0.16 
   6  -3   3    1.23    0.11 
  -7   3  -3   12.89    0.53 
   7  -3   3   14.34    0.53 
   7  -3   3   13.04    0.60 
  -8   3  -3    3.18    0.20 
   8  -3   3    2.76    0.25 
  -9   3  -3    0.22    0.09 
   9  -3   3    0.10    0.08 
   9  -3   3    0.14    0.11 
 -10   3  -3    0.42    0.11 
  10  -3   3    0.58    0.16 
  10  -3   3    0.46    0.13 
  11  -3   3    0.05    0.12 
  11  -3   3   -0.05    0.11 
  12  -3   3    0.17    0.15 
  13  -3   3    0.19    0.15 
  14  -3   3    0.14    0.18 
  16   2  -3    0.08    0.18 
  15   2  -3   -0.05    0.14 
  14   2  -3    0.12    0.15 
  13   2  -3    1.81    0.26 
  12   2  -3    0.02    0.11 
  11   2  -3    0.94    0.18 
  10   2  -3    0.56    0.10 
  10   2  -3    0.52    0.14 
 -10  -2   3    0.42    0.10 
   9   2  -3    0.30    0.08 
   9   2  -3    0.20    0.11 
  -9  -2   3    0.37    0.09 
   8   2  -3    1.10    0.15 
   8   2  -3    1.19    0.11 
  -8  -2   3    0.97    0.11 
   7   2  -3    0.22    0.06 
   7   2  -3    0.31    0.09 
  -7  -2   3    0.11    0.04 
   6   2  -3   40.73    1.38 
   6   2  -3   39.31    1.38 
   5   2  -3   14.18    0.49 
   5   2  -3   14.64    0.53 
  -5  -2   3   11.14    0.49 
   4   2  -3    9.38    0.38 
   4   2  -3   10.05    0.36 
  -4  -2   3    9.37    0.37 
   3   2  -3   11.46    0.44 
   3   2  -3   12.60    0.43 
  -3  -2   3   12.10    0.45 
   2   2  -3   95.78    3.11 
  -2  -2   3   97.23    3.13 
  -1  -2   3    2.52    0.13 
   0  -2   3   74.85    2.55 
   0  -2   3   76.90    2.48 
   1  -2   3    2.01    0.13 
   2  -2   3  137.51    4.63 
   2  -2   3  138.84    4.47 
  -3   2  -3   20.19    0.71 
   3  -2   3   19.88    0.67 
   3  -2   3   19.81    0.75 
  -4   2  -3    4.09    0.20 
   4  -2   3    4.36    0.24 
   4  -2   3    4.08    0.19 
  -5   2  -3    3.82    0.20 
   5  -2   3    3.56    0.22 
  -6   2  -3    2.33    0.16 
   6  -2   3    2.27    0.18 
  -7   2  -3    0.09    0.07 
   7  -2   3   -0.03    0.06 
   7  -2   3    0.13    0.08 
  -8   2  -3    0.10    0.07 
   8  -2   3   -0.03    0.07 
   8  -2   3    0.16    0.09 
  -9   2  -3    0.27    0.09 
   9  -2   3    0.17    0.10 
   9  -2   3    0.35    0.13 
 -10   2  -3    0.03    0.07 
  10  -2   3   -0.08    0.09 
  10  -2   3   -0.07    0.10 
 -11   2  -3    1.04    0.16 
  11  -2   3    0.86    0.18 
  11  -2   3    0.78    0.17 
  12  -2   3   -0.06    0.10 
  12  -2   3    0.01    0.12 
  13  -2   3    0.34    0.17 
  13  -2   3    0.30    0.16 
  16   1  -3    0.15    0.18 
  15   1  -3   -0.06    0.13 
  14   1  -3    0.06    0.14 
  13   1  -3    1.27    0.22 
  12   1  -3    1.85    0.23 
  11   1  -3    0.83    0.17 
  11   1  -3    0.85    0.14 
  10   1  -3    5.06    0.29 
  10   1  -3    4.80    0.32 
 -10  -1   3    4.72    0.26 
   9   1  -3   15.41    0.62 
   9   1  -3   13.89    0.63 
  -9  -1   3   15.52    0.58 
   8   1  -3   -0.06    0.05 
   8   1  -3   -0.02    0.07 
  -8  -1   3    0.01    0.05 
   7   1  -3    8.38    0.39 
   7   1  -3    8.64    0.37 
  -7  -1   3    8.33    0.34 
   6   1  -3    9.12    0.39 
   6   1  -3    8.97    0.37 
  -6  -1   3    9.20    0.36 
   5   1  -3   86.82    2.94 
   5   1  -3   86.72    2.87 
  -5  -1   3   89.16    2.85 
   4   1  -3   73.17    2.40 
   4   1  -3   74.23    2.47 
  -4  -1   3   72.89    2.39 
  -2  -1   3    0.21    0.03 
  -1  -1   3    2.19    0.11 
   0  -1   3  267.53    8.57 
  -1   1  -3   37.26    1.23 
   1  -1   3   36.95    1.28 
  -2   1  -3  231.99    7.14 
   2  -1   3  229.15    7.41 
   2  -1   3  206.83    7.09 
  -3   1  -3  264.00    8.41 
   3  -1   3  260.74    8.72 
  -4   1  -3   70.74    2.31 
   4  -1   3   69.60    2.29 
   4  -1   3   69.89    2.40 
  -5   1  -3   21.00    0.76 
   5  -1   3   21.34    0.76 
   5  -1   3   21.33    0.81 
  -6   1  -3   37.60    1.26 
   6  -1   3   35.40    1.31 
   6  -1   3   35.32    1.24 
  -7   1  -3   15.23    0.59 
   7  -1   3   14.02    0.62 
   7  -1   3   15.08    0.59 
  -8   1  -3    2.31    0.18 
   8  -1   3    2.41    0.21 
   8  -1   3    2.69    0.20 
  -9   1  -3    2.24    0.18 
   9  -1   3    2.35    0.22 
   9  -1   3    2.29    0.21 
 -10   1  -3    3.40    0.24 
  10  -1   3    3.77    0.28 
  10  -1   3    3.60    0.27 
 -11   1  -3    0.11    0.11 
  11  -1   3    0.06    0.11 
  11  -1   3    0.08    0.11 
  12  -1   3    0.04    0.12 
  12  -1   3   -0.01    0.13 
  13  -1   3    0.28    0.15 
  13  -1   3    0.33    0.16 
  14  -1   3    0.50    0.19 
  16   0  -3   -0.06    0.15 
  15   0  -3   -0.08    0.13 
  14   0  -3   -0.24    0.10 
  13   0  -3   -0.11    0.10 
  12   0  -3    0.24    0.12 
  12   0  -3   -0.06    0.10 
  11   0  -3    0.11    0.08 
  11   0  -3   -0.05    0.10 
  10   0  -3    0.00    0.10 
  10   0  -3    0.02    0.07 
   9   0  -3    0.01    0.07 
   9   0  -3    0.04    0.08 
  -9   0   3    0.02    0.05 
   8   0  -3   -0.05    0.06 
   8   0  -3   -0.09    0.07 
  -8   0   3    0.02    0.04 
   7   0  -3    0.00    0.05 
   7   0  -3    0.02    0.06 
  -7   0   3    0.03    0.04 
   6   0  -3    0.02    0.05 
   6   0  -3    0.06    0.05 
  -6   0   3   -0.01    0.03 
   5   0  -3    0.00    0.04 
   5   0  -3    0.03    0.05 
  -5   0   3    0.01    0.02 
   4   0  -3    0.02    0.03 
  -4   0   3    0.04    0.02 
   3   0  -3   -0.13    0.04 
  -3   0   3   -0.23    0.02 
   2   0  -3   -0.02    0.02 
  -2   0   3    0.20    0.02 
   1   0  -3   -0.04    0.02 
   0   0  -3   -0.03    0.01 
  -1   0  -3   -0.16    0.03 
  -2   0  -3    0.00    0.03 
   2   0   3    0.03    0.03 
   2   0   3    0.01    0.04 
  -3   0  -3   -0.06    0.04 
   3   0   3   -0.06    0.04 
   3   0   3   -0.03    0.05 
  -4   0  -3    0.04    0.04 
   4   0   3   -0.03    0.03 
   4   0   3    0.04    0.05 
  -5   0  -3    0.01    0.04 
   5   0   3   -0.01    0.05 
   5   0   3    0.12    0.05 
  -6   0  -3   -0.04    0.05 
   6   0   3    0.02    0.06 
   6   0   3    0.03    0.05 
  -7   0  -3   -0.09    0.05 
   7   0   3    0.03    0.07 
   7   0   3   -0.04    0.05 
  -8   0  -3   -0.04    0.06 
   8   0   3   -0.11    0.07 
   8   0   3    0.00    0.06 
  -9   0  -3   -0.04    0.07 
   9   0   3    0.04    0.07 
   9   0   3    0.02    0.09 
 -10   0  -3   -0.03    0.07 
  10   0   3   -0.06    0.10 
  10   0   3    0.00    0.07 
 -11   0  -3    0.03    0.09 
  11   0   3    0.09    0.10 
  11   0   3    0.06    0.12 
  12   0   3   -0.02    0.14 
  12   0   3   -0.03    0.11 
  13   0   3    0.12    0.14 
  14   0   3    0.02    0.14 
  15   0   3    0.15    0.17 
  16  -1  -3    0.36    0.18 
  15  -1  -3   -0.01    0.14 
  14  -1  -3    0.05    0.13 
  13  -1  -3    1.07    0.20 
  13  -1  -3    1.19    0.20 
  12  -1  -3    1.52    0.21 
  12  -1  -3    1.80    0.22 
  11  -1  -3    0.82    0.16 
  11  -1  -3    1.07    0.18 
  10  -1  -3    4.57    0.30 
  10  -1  -3    5.13    0.32 
   9  -1  -3   15.72    0.65 
   9  -1  -3   15.78    0.67 
  -9   1   3   15.61    0.57 
   8  -1  -3    0.00    0.06 
   8  -1  -3   -0.15    0.06 
  -8   1   3    0.00    0.04 
   7  -1  -3    8.38    0.38 
   7  -1  -3    8.44    0.39 
  -7   1   3    8.59    0.32 
   6  -1  -3    8.65    0.37 
   6  -1  -3    8.55    0.38 
  -6   1   3    8.72    0.31 
   5  -1  -3   87.53    3.08 
  -5   1   3   94.03    2.93 
   4  -1  -3   70.15    2.38 
   3  -1  -3   29.58    1.04 
   2  -1  -3    0.46    0.03 
   2  -1  -3    0.54    0.06 
   1  -1  -3    1.84    0.10 
   1  -1  -3    2.17    0.09 
   0  -1  -3  248.65    7.96 
  -1  -1  -3   37.71    1.25 
  -2  -1  -3  226.44    7.33 
   2   1   3  230.79    7.31 
  -3  -1  -3  264.96    8.34 
   3   1   3  260.98    8.31 
   3   1   3  253.91    8.62 
  -4  -1  -3   70.08    2.28 
   4   1   3   68.46    2.27 
   4   1   3   68.33    2.34 
  -5  -1  -3   20.33    0.75 
   5   1   3   20.02    0.76 
   5   1   3   20.96    0.75 
  -6  -1  -3   32.97    1.19 
   6   1   3   35.33    1.21 
   6   1   3   33.65    1.22 
  -7  -1  -3   15.45    0.59 
   7   1   3   13.71    0.59 
   7   1   3   14.84    0.60 
  -8  -1  -3    2.40    0.19 
   8   1   3    2.83    0.20 
   8   1   3    2.82    0.23 
  -9  -1  -3    2.32    0.20 
   9   1   3    2.11    0.22 
   9   1   3    2.51    0.19 
 -10  -1  -3    3.76    0.26 
  10   1   3    4.22    0.32 
  10   1   3    4.08    0.26 
 -11  -1  -3    0.07    0.10 
  11   1   3   -0.01    0.12 
  11   1   3    0.28    0.09 
 -12  -1  -3   -0.06    0.10 
  12   1   3   -0.06    0.12 
  13   1   3    0.29    0.17 
  14   1   3    0.63    0.20 
  15   1   3   -0.28    0.15 
  16  -2  -3    0.20    0.17 
  15  -2  -3    0.21    0.16 
  14  -2  -3    0.10    0.14 
  14  -2  -3    0.24    0.16 
  13  -2  -3    2.42    0.26 
  13  -2  -3    2.58    0.27 
  12  -2  -3    0.24    0.12 
  12  -2  -3    0.18    0.13 
  11  -2  -3    0.71    0.16 
  11  -2  -3    0.72    0.15 
  10  -2  -3    0.57    0.15 
  10  -2  -3    0.65    0.15 
   9  -2  -3    0.31    0.11 
   9  -2  -3    0.38    0.11 
   8  -2  -3    1.08    0.15 
   8  -2  -3    1.37    0.15 
  -8   2   3    1.25    0.09 
   7  -2  -3    0.22    0.08 
   7  -2  -3    0.21    0.08 
  -7   2   3    0.39    0.05 
   6  -2  -3   39.88    1.45 
  -6   2   3   40.98    1.32 
   5  -2  -3   13.82    0.57 
  -5   2   3   14.42    0.47 
   4  -2  -3    9.52    0.40 
   3  -2  -3   12.69    0.49 
   3  -2  -3   12.37    0.42 
   2  -2  -3  100.51    3.36 
   2  -2  -3   99.40    3.22 
   1  -2  -3    2.43    0.13 
   1  -2  -3    2.46    0.11 
   0  -2  -3   77.16    2.56 
   0  -2  -3   75.58    2.48 
  -1  -2  -3    2.05    0.12 
  -2  -2  -3  136.33    4.43 
   2   2   3  137.61    4.42 
  -3  -2  -3   18.62    0.69 
   3   2   3   19.79    0.70 
  -4  -2  -3    4.23    0.22 
   4   2   3    3.88    0.22 
  -5  -2  -3    3.66    0.21 
   5   2   3    3.67    0.19 
   5   2   3    4.04    0.23 
  -6  -2  -3    2.18    0.17 
   6   2   3    2.35    0.18 
   6   2   3    2.32    0.15 
  -7  -2  -3   -0.01    0.06 
   7   2   3    0.09    0.06 
   7   2   3   -0.04    0.08 
  -8  -2  -3    0.01    0.07 
   8   2   3    0.06    0.06 
   8   2   3    0.12    0.11 
  -9  -2  -3    0.19    0.09 
   9   2   3    0.28    0.09 
   9   2   3    0.23    0.13 
 -10  -2  -3   -0.03    0.08 
  10   2   3   -0.05    0.11 
 -11  -2  -3    0.92    0.17 
  11   2   3    0.95    0.20 
 -12  -2  -3    0.11    0.12 
  12   2   3    0.08    0.13 
  13   2   3    0.25    0.16 
  14   2   3   -0.09    0.15 
  15   2   3    0.11    0.18 
  15  -3  -3    0.08    0.16 
  15  -3  -3   -0.09    0.17 
  14  -3  -3    0.23    0.14 
  14  -3  -3    0.17    0.14 
  13  -3  -3    0.12    0.14 
  13  -3  -3    0.14    0.13 
  12  -3  -3   -0.04    0.11 
  12  -3  -3    0.06    0.12 
  11  -3  -3    0.20    0.12 
  11  -3  -3    0.10    0.12 
  10  -3  -3    0.41    0.15 
  10  -3  -3    0.10    0.10 
   9  -3  -3    0.52    0.14 
   9  -3  -3    0.42    0.11 
   8  -3  -3    0.56    0.11 
   8  -3  -3    0.61    0.13 
  -8   3   3    0.53    0.06 
   7  -3  -3    1.12    0.15 
  -7   3   3    1.13    0.07 
   6  -3  -3    1.94    0.17 
  -6   3   3    1.94    0.10 
   5  -3  -3   19.10    0.75 
  -5   3   3   19.20    0.64 
   4  -3  -3    8.93    0.38 
   4  -3  -3    8.36    0.31 
   3  -3  -3   53.93    1.72 
   3  -3  -3   51.39    1.82 
   2  -3  -3    5.53    0.22 
   2  -3  -3    5.16    0.24 
   1  -3  -3    0.96    0.09 
   1  -3  -3    0.97    0.07 
   0  -3  -3    0.95    0.08 
   0  -3  -3    1.03    0.09 
  -1  -3  -3    2.81    0.15 
  -2  -3  -3   23.09    0.82 
  -3  -3  -3    7.19    0.33 
   3   3   3    8.28    0.35 
  -4  -3  -3    3.53    0.21 
   4   3   3    4.15    0.23 
  -5  -3  -3    0.16    0.08 
   5   3   3    0.03    0.07 
  -6  -3  -3    1.02    0.13 
   6   3   3    1.03    0.15 
  -7  -3  -3   13.13    0.56 
   7   3   3   13.09    0.57 
  -8  -3  -3    2.83    0.22 
   8   3   3    2.80    0.24 
  -9  -3  -3    0.36    0.12 
   9   3   3    0.09    0.12 
 -10  -3  -3    0.55    0.14 
  10   3   3    0.47    0.16 
 -11  -3  -3    0.01    0.10 
  11   3   3    0.12    0.12 
 -12  -3  -3    0.17    0.11 
  12   3   3    0.05    0.14 
 -13  -3  -3    0.45    0.17 
  13   3   3    0.05    0.14 
  14   3   3   -0.04    0.14 
  15   3   3   -0.07    0.17 
  15  -4  -3    0.38    0.20 
  14  -4  -3    0.10    0.15 
  13  -4  -3    0.77    0.20 
  13  -4  -3    0.84    0.18 
  12  -4  -3    0.69    0.19 
  12  -4  -3    0.86    0.17 
  11  -4  -3    0.97    0.20 
  11  -4  -3    1.03    0.17 
  10  -4  -3    2.50    0.26 
  10  -4  -3    2.80    0.22 
   9  -4  -3    3.20    0.28 
   9  -4  -3    2.75    0.21 
   8  -4  -3    1.12    0.13 
   8  -4  -3    1.16    0.18 
   7  -4  -3    0.56    0.13 
  -7   4   3    0.66    0.06 
   6  -4  -3   -0.02    0.06 
  -6   4   3    0.06    0.03 
   5  -4  -3    5.15    0.28 
   5  -4  -3    4.93    0.21 
   4  -4  -3   19.88    0.76 
   4  -4  -3   19.03    0.67 
   3  -4  -3    0.35    0.05 
   3  -4  -3    0.25    0.07 
   2  -4  -3    0.92    0.10 
   2  -4  -3    1.08    0.08 
   1  -4  -3   27.17    0.94 
   1  -4  -3   27.43    0.98 
   0  -4  -3   20.96    0.74 
   0  -4  -3   20.02    0.73 
  -1  -4  -3    0.04    0.04 
  -1  -4  -3    0.00    0.04 
  -2  -4  -3    8.97    0.38 
  -2  -4  -3    8.70    0.34 
  -3  -4  -3    5.50    0.28 
  -3  -4  -3    5.79    0.23 
   3   4   3    6.24    0.30 
  -4  -4  -3   28.68    1.06 
   4   4   3   30.10    1.06 
  -5  -4  -3    0.23    0.09 
   5   4   3    0.64    0.12 
  -6  -4  -3    4.56    0.27 
   6   4   3    4.72    0.29 
  -7  -4  -3    2.15    0.20 
   7   4   3    2.14    0.22 
  -8  -4  -3    2.74    0.24 
   8   4   3    2.60    0.25 
  -9  -4  -3    1.99    0.22 
   9   4   3    1.50    0.22 
 -10  -4  -3    0.17    0.12 
  10   4   3   -0.01    0.11 
 -11  -4  -3    0.87    0.17 
  11   4   3    0.80    0.20 
 -12  -4  -3    0.28    0.12 
  12   4   3    0.11    0.15 
 -13  -4  -3   -0.05    0.11 
  13   4   3   -0.03    0.15 
  14   4   3    0.24    0.19 
  15   4   3    0.31    0.21 
  15  -5  -3   -0.14    0.18 
  14  -5  -3    0.05    0.15 
  13  -5  -3    0.09    0.13 
  12  -5  -3    0.08    0.13 
  12  -5  -3   -0.03    0.12 
  11  -5  -3    0.02    0.12 
  11  -5  -3    0.06    0.11 
  10  -5  -3    0.66    0.14 
  10  -5  -3    0.99    0.20 
   9  -5  -3    1.47    0.16 
   9  -5  -3    1.83    0.23 
   8  -5  -3    0.54    0.16 
   7  -5  -3    3.65    0.28 
  -7   5   3    3.88    0.18 
   6  -5  -3    0.32    0.10 
   6  -5  -3    0.63    0.07 
   5  -5  -3    0.75    0.08 
   5  -5  -3    0.57    0.11 
   4  -5  -3    4.44    0.21 
   4  -5  -3    4.29    0.25 
   3  -5  -3   -0.01    0.05 
   3  -5  -3    0.06    0.04 
   2  -5  -3    0.82    0.09 
   2  -5  -3    0.89    0.11 
   1  -5  -3   61.11    2.10 
   1  -5  -3   60.88    2.04 
   0  -5  -3    1.16    0.11 
   0  -5  -3    1.11    0.10 
  -1  -5  -3   35.53    1.22 
  -1  -5  -3   34.37    1.22 
  -2  -5  -3    0.17    0.06 
  -2  -5  -3    0.20    0.05 
  -3  -5  -3    6.30    0.25 
  -3  -5  -3    5.94    0.31 
  -4  -5  -3   13.18    0.47 
  -4  -5  -3   12.17    0.54 
   4   5   3   13.31    0.55 
  -5  -5  -3    0.06    0.03 
  -5  -5  -3   -0.02    0.06 
   5   5   3    0.15    0.09 
  -6  -5  -3    1.21    0.16 
   6   5   3    0.86    0.16 
  -7  -5  -3    0.48    0.12 
   7   5   3    0.45    0.14 
  -8  -5  -3    1.03    0.17 
   8   5   3    1.00    0.18 
  -9  -5  -3    0.26    0.12 
   9   5   3    0.28    0.14 
 -10  -5  -3    0.02    0.11 
  10   5   3    0.16    0.13 
 -11  -5  -3    0.42    0.14 
  11   5   3    0.16    0.15 
 -12  -5  -3    0.08    0.11 
  12   5   3    0.03    0.14 
 -13  -5  -3    0.30    0.14 
  13   5   3   -0.17    0.15 
  14   5   3    0.03    0.16 
  15  -6  -3   -0.09    0.20 
  14  -6  -3    0.19    0.18 
  13  -6  -3   -0.12    0.13 
  12  -6  -3    1.33    0.26 
  11  -6  -3    0.79    0.19 
  10  -6  -3    0.16    0.09 
  10  -6  -3    0.34    0.15 
   9  -6  -3    8.40    0.49 
   8  -6  -3   12.20    0.61 
   7  -6  -3    3.61    0.19 
   7  -6  -3    3.45    0.29 
   6  -6  -3    6.00    0.37 
   6  -6  -3    6.66    0.29 
   5  -6  -3    1.46    0.12 
   5  -6  -3    1.15    0.16 
   4  -6  -3    2.96    0.22 
   4  -6  -3    3.09    0.18 
   3  -6  -3    7.72    0.37 
   3  -6  -3    7.48    0.33 
   2  -6  -3   15.93    0.61 
   2  -6  -3   15.62    0.63 
   1  -6  -3    8.04    0.36 
   1  -6  -3    8.25    0.37 
   0  -6  -3    0.78    0.11 
   0  -6  -3    0.61    0.09 
  -1  -6  -3    3.79    0.23 
  -1  -6  -3    3.60    0.19 
  -2  -6  -3   44.45    1.59 
  -2  -6  -3   46.61    1.57 
  -3  -6  -3    5.59    0.24 
  -3  -6  -3    5.68    0.31 
  -4  -6  -3    1.59    0.18 
  -4  -6  -3    1.59    0.10 
   4   6   3    1.74    0.18 
  -5  -6  -3    2.56    0.22 
   5   6   3    2.71    0.24 
  -6  -6  -3    0.21    0.10 
   6   6   3    0.14    0.11 
  -7  -6  -3    2.28    0.23 
   7   6   3    2.22    0.24 
  -8  -6  -3    4.09    0.30 
   8   6   3    3.97    0.32 
  -9  -6  -3    0.12    0.11 
   9   6   3    0.01    0.12 
 -10  -6  -3    0.62    0.16 
  10   6   3    0.62    0.19 
 -11  -6  -3    0.15    0.12 
  11   6   3   -0.01    0.12 
 -12  -6  -3   -0.10    0.10 
  12   6   3    0.13    0.14 
 -13  -6  -3   -0.18    0.10 
  13   6   3    0.14    0.17 
  14   6   3    0.07    0.18 
  14  -7  -3    0.10    0.20 
  13  -7  -3    0.07    0.18 
  12  -7  -3    0.05    0.17 
  11  -7  -3    0.17    0.15 
  10  -7  -3   -0.10    0.11 
   9  -7  -3    0.09    0.12 
   8  -7  -3    0.52    0.16 
   7  -7  -3    0.25    0.14 
   6  -7  -3    7.61    0.43 
   6  -7  -3    7.43    0.34 
   5  -7  -3    1.64    0.14 
   5  -7  -3    1.52    0.20 
   4  -7  -3    1.64    0.19 
   4  -7  -3    1.75    0.15 
   3  -7  -3    3.85    0.22 
   3  -7  -3    3.54    0.25 
   2  -7  -3    1.56    0.16 
   2  -7  -3    1.61    0.15 
   1  -7  -3   10.01    0.43 
   1  -7  -3    9.31    0.43 
   0  -7  -3   22.19    0.81 
   0  -7  -3   20.68    0.82 
  -1  -7  -3    3.29    0.22 
  -1  -7  -3    3.15    0.19 
  -2  -7  -3    5.15    0.30 
  -2  -7  -3    5.11    0.24 
  -3  -7  -3    0.19    0.06 
  -3  -7  -3    0.27    0.09 
  -4  -7  -3    0.04    0.08 
  -5  -7  -3    0.74    0.14 
   5   7   3    1.14    0.18 
  -6  -7  -3    0.95    0.17 
   6   7   3    0.81    0.17 
  -7  -7  -3    1.64    0.21 
   7   7   3    1.43    0.21 
  -8  -7  -3    0.02    0.09 
   8   7   3   -0.06    0.11 
  -9  -7  -3    0.11    0.10 
   9   7   3    0.24    0.16 
 -10  -7  -3   -0.10    0.09 
  10   7   3    0.07    0.14 
 -11  -7  -3    0.10    0.11 
  11   7   3    0.05    0.16 
 -12  -7  -3    0.33    0.15 
  12   7   3    0.05    0.14 
 -13  -7  -3   -0.05    0.11 
  13   7   3    0.10    0.18 
  14  -8  -3   -0.01    0.20 
  13  -8  -3    0.25    0.21 
  12  -8  -3   -0.02    0.18 
  11  -8  -3    0.00    0.14 
  10  -8  -3    0.36    0.17 
   9  -8  -3   -0.08    0.12 
   8  -8  -3    5.09    0.37 
   7  -8  -3    0.68    0.18 
   6  -8  -3    0.24    0.15 
   6  -8  -3    0.51    0.10 
   5  -8  -3    0.21    0.08 
   5  -8  -3   -0.08    0.10 
   4  -8  -3    2.00    0.16 
   4  -8  -3    2.04    0.22 
   3  -8  -3    0.18    0.10 
   3  -8  -3    0.23    0.08 
   2  -8  -3    0.55    0.13 
   2  -8  -3    0.22    0.09 
   1  -8  -3    0.18    0.08 
   1  -8  -3    0.20    0.09 
   0  -8  -3    0.09    0.08 
   0  -8  -3    0.24    0.09 
  -1  -8  -3    0.59    0.10 
  -1  -8  -3    0.79    0.14 
  -2  -8  -3    0.86    0.11 
  -2  -8  -3    0.88    0.15 
  -3  -8  -3    0.44    0.13 
  -4  -8  -3    0.21    0.11 
  -5  -8  -3    0.37    0.13 
  -6  -8  -3    0.03    0.09 
   6   8   3    0.03    0.12 
  -7  -8  -3    0.74    0.17 
   7   8   3    0.68    0.17 
  -8  -8  -3    0.63    0.16 
   8   8   3    0.53    0.17 
  -9  -8  -3   -0.02    0.09 
   9   8   3    0.08    0.13 
 -10  -8  -3    0.26    0.15 
  10   8   3    0.25    0.16 
 -11  -8  -3    0.14    0.12 
  11   8   3   -0.17    0.15 
 -12  -8  -3    0.05    0.13 
  12   8   3    0.28    0.20 
 -13  -8  -3   -0.03    0.13 
  13   8   3    0.05    0.19 
  13  -9  -3    0.33    0.23 
  12  -9  -3   -0.10    0.18 
  11  -9  -3   -0.15    0.16 
  10  -9  -3    0.29    0.17 
   9  -9  -3   -0.10    0.12 
   8  -9  -3   -0.04    0.11 
   7  -9  -3    0.12    0.12 
   6  -9  -3    1.01    0.14 
   6  -9  -3    0.86    0.19 
   5  -9  -3    0.11    0.07 
   5  -9  -3    0.09    0.13 
   4  -9  -3    0.86    0.14 
   4  -9  -3    0.83    0.17 
   3  -9  -3    3.29    0.27 
   3  -9  -3    3.08    0.22 
   2  -9  -3    0.77    0.15 
   2  -9  -3    0.53    0.12 
   1  -9  -3   11.96    0.56 
   1  -9  -3   12.78    0.56 
   0  -9  -3    2.55    0.23 
   0  -9  -3    1.89    0.17 
  -1  -9  -3    2.77    0.25 
  -1  -9  -3    2.28    0.19 
  -2  -9  -3    7.58    0.43 
  -3  -9  -3   18.37    0.80 
  -4  -9  -3    1.21    0.20 
  -5  -9  -3    0.20    0.12 
  -6  -9  -3    0.37    0.13 
  -7  -9  -3    0.65    0.16 
  -8  -9  -3   -0.02    0.10 
   8   9   3   -0.01    0.12 
  -9  -9  -3    0.11    0.12 
   9   9   3   -0.09    0.13 
 -10  -9  -3    0.05    0.13 
  10   9   3    0.03    0.16 
 -11  -9  -3    0.00    0.13 
  11   9   3    0.04    0.15 
 -12  -9  -3    0.01    0.14 
  12   9   3   -0.11    0.19 
  12 -10  -3    0.34    0.22 
  11 -10  -3    0.68    0.23 
  10 -10  -3    0.29    0.17 
   9 -10  -3    0.56    0.18 
   8 -10  -3    0.62    0.19 
   7 -10  -3    0.02    0.12 
   6 -10  -3    0.13    0.13 
   5 -10  -3    1.67    0.19 
   5 -10  -3    1.33    0.22 
   4 -10  -3    0.23    0.13 
   4 -10  -3    0.16    0.10 
   3 -10  -3    2.52    0.23 
   3 -10  -3    2.35    0.25 
   2 -10  -3    3.62    0.27 
   2 -10  -3    3.82    0.28 
   1 -10  -3    0.32    0.11 
   1 -10  -3    0.45    0.13 
   0 -10  -3    1.30    0.20 
  -1 -10  -3    4.23    0.26 
  -1 -10  -3    4.50    0.31 
  -2 -10  -3    5.76    0.38 
  -3 -10  -3    2.15    0.25 
  -4 -10  -3    1.34    0.21 
  -5 -10  -3    1.93    0.25 
  -6 -10  -3    0.08    0.10 
  -7 -10  -3    1.08    0.21 
  -8 -10  -3    0.63    0.18 
  -9 -10  -3    0.16    0.14 
 -10 -10  -3    0.12    0.14 
 -11 -10  -3    0.19    0.14 
  11 -11  -3    0.03    0.18 
  10 -11  -3    0.06    0.17 
   9 -11  -3    0.21    0.18 
   8 -11  -3    0.55    0.20 
   7 -11  -3    0.24    0.15 
   6 -11  -3    0.08    0.13 
   5 -11  -3    0.05    0.12 
   5 -11  -3    0.02    0.10 
   4 -11  -3    0.25    0.13 
   4 -11  -3    0.29    0.15 
   3 -11  -3    0.52    0.14 
   3 -11  -3    0.62    0.17 
   2 -11  -3    0.08    0.11 
   2 -11  -3    0.44    0.14 
   1 -11  -3   -0.01    0.09 
   1 -11  -3    0.08    0.11 
   0 -11  -3    0.04    0.10 
  -1 -11  -3    0.06    0.10 
  -2 -11  -3    0.52    0.15 
  -3 -11  -3    0.88    0.19 
  -4 -11  -3    2.18    0.28 
  -5 -11  -3    0.10    0.12 
  -6 -11  -3    0.29    0.14 
  -7 -11  -3   -0.04    0.12 
  -8 -11  -3    0.04    0.13 
  -9 -11  -3   -0.13    0.12 
 -10 -11  -3   -0.01    0.12 
  10 -12  -3    0.01    0.18 
   9 -12  -3    0.36    0.20 
   8 -12  -3    1.25    0.26 
   7 -12  -3    0.50    0.20 
   6 -12  -3    0.59    0.19 
   5 -12  -3    0.76    0.19 
   4 -12  -3    0.41    0.16 
   4 -12  -3    0.28    0.13 
   3 -12  -3    1.08    0.19 
   3 -12  -3    0.85    0.19 
   2 -12  -3    2.99    0.28 
   2 -12  -3    3.22    0.31 
   1 -12  -3    0.58    0.16 
   0 -12  -3    0.31    0.14 
  -1 -12  -3    0.56    0.17 
  -2 -12  -3    0.68    0.18 
  -3 -12  -3   -0.15    0.09 
  -4 -12  -3    2.55    0.31 
  -5 -12  -3    2.19    0.31 
  -6 -12  -3    0.28    0.16 
  -7 -12  -3    0.14    0.14 
  -8 -12  -3    0.11    0.15 
  -9 -12  -3    0.09    0.16 
   8 -13  -3    0.05    0.16 
   7 -13  -3    0.04    0.16 
   6 -13  -3    0.22    0.17 
   5 -13  -3    0.17    0.16 
   4 -13  -3   -0.02    0.13 
   4 -13  -3    0.12    0.13 
   3 -13  -3    0.15    0.13 
   3 -13  -3    0.09    0.14 
   2 -13  -3    0.23    0.14 
   1 -13  -3    0.91    0.21 
   0 -13  -3    0.76    0.20 
  -1 -13  -3    0.20    0.14 
  -2 -13  -3    0.23    0.14 
  -3 -13  -3    0.16    0.16 
  -4 -13  -3    0.08    0.14 
  -5 -13  -3    0.21    0.17 
  -6 -13  -3    0.04    0.17 
  -7 -13  -3   -0.03    0.15 
  -8 -13  -3    0.11    0.15 
   6 -14  -3    0.07    0.15 
   5 -14  -3    0.13    0.16 
   3 -14  -3    0.16    0.14 
   2 -14  -3    0.28    0.15 
   1 -14  -3    0.21    0.16 
   0 -14  -3   -0.05    0.14 
  -1 -14  -3   -0.09    0.13 
  -2 -14  -3    0.12    0.16 
  -3 -14  -3   -0.06    0.14 
  -4 -14  -3    0.07    0.16 
  -5 -14  -3   -0.10    0.17 
  -6 -14  -3   -0.02    0.17 
   2 -15  -3    0.09    0.17 
   1 -15  -3    0.18    0.18 
   0 -15  -3    0.17    0.19 
  -1 -15  -3    0.17    0.19 
  -2 -15  -3    0.07    0.19 
  -3 -15  -3    0.24    0.22 
  -3 -15   4   -0.26    0.16 
  -2 -15   4   -0.07    0.17 
  -1 -15   4    0.12    0.19 
   0 -15   4   -0.09    0.17 
   1 -15   4    0.15    0.20 
   2 -15   4    0.12    0.19 
  -6 -14   4    0.04    0.17 
  -5 -14   4   -0.01    0.15 
  -4 -14   4    0.13    0.17 
  -3 -14   4    0.44    0.21 
  -2 -14   4    0.73    0.22 
  -1 -14   4    0.25    0.19 
   0 -14   4   -0.08    0.14 
   1 -14   4    0.19    0.16 
   2 -14   4   -0.06    0.14 
   3 -14   4    0.10    0.16 
   4 -14   4    0.45    0.22 
   4 -14   4    0.19    0.17 
   5 -14   4   -0.16    0.14 
   5 -14   4    0.14    0.18 
  -8 -13   4    0.15    0.16 
  -7 -13   4    0.41    0.19 
  -6 -13   4    0.10    0.15 
  -5 -13   4   -0.07    0.12 
  -4 -13   4   -0.04    0.12 
  -3 -13   4   -0.08    0.11 
  -2 -13   4   -0.09    0.11 
  -1 -13   4    0.05    0.14 
   0 -13   4   -0.02    0.12 
   1 -13   4    0.14    0.13 
   2 -13   4    1.04    0.23 
   3 -13   4    1.40    0.24 
   3 -13   4    1.79    0.26 
   4 -13   4    0.06    0.14 
   4 -13   4    0.34    0.17 
   5 -13   4    0.04    0.14 
   5 -13   4    0.18    0.14 
   6 -13   4    0.38    0.19 
   6 -13   4    0.28    0.18 
   7 -13   4   -0.08    0.16 
  10  12  -4    0.19    0.20 
 -10 -12   4    0.04    0.15 
   9  12  -4    0.18    0.18 
  -9 -12   4    0.36    0.19 
   8  12  -4    0.56    0.20 
  -8 -12   4    0.55    0.19 
  -7 -12   4   -0.08    0.10 
  -6 -12   4   -0.13    0.11 
  -5 -12   4    0.01    0.11 
  -4 -12   4    0.42    0.17 
  -3 -12   4    1.06    0.22 
  -2 -12   4    0.61    0.18 
  -1 -12   4    1.38    0.24 
   0 -12   4    0.48    0.17 
   1 -12   4    0.79    0.19 
   1 -12   4    0.62    0.17 
   2 -12   4    0.53    0.17 
   2 -12   4    0.60    0.18 
   3 -12   4    0.71    0.18 
   3 -12   4    0.73    0.18 
   4 -12   4   -0.06    0.12 
   4 -12   4    0.31    0.16 
   5 -12   4    0.50    0.18 
   5 -12   4    0.60    0.17 
   6 -12   4    0.26    0.14 
   6 -12   4    0.38    0.19 
   7 -12   4   -0.02    0.15 
   8 -12   4    0.17    0.17 
   9 -12   4    0.42    0.22 
  11  11  -4    1.20    0.27 
 -11 -11   4    0.40    0.19 
  10  11  -4    0.38    0.19 
 -10 -11   4   -0.09    0.12 
   9  11  -4   -0.02    0.14 
  -9 -11   4    0.00    0.12 
   8  11  -4    0.22    0.14 
  -8 -11   4    0.17    0.15 
   7  11  -4    1.80    0.23 
  -7 -11   4    1.79    0.27 
   6  11  -4    0.26    0.13 
  -6 -11   4    0.16    0.14 
  -5 -11   4    0.17    0.12 
  -4 -11   4    3.61    0.34 
  -3 -11   4    2.88    0.31 
  -2 -11   4   -0.07    0.09 
  -1 -11   4    0.10    0.11 
   0 -11   4    0.14    0.11 
   0 -11   4    0.08    0.12 
   1 -11   4    0.18    0.13 
   1 -11   4    0.17    0.12 
   2 -11   4   -0.15    0.08 
   2 -11   4   -0.04    0.11 
   3 -11   4   -0.01    0.12 
   3 -11   4   -0.18    0.08 
   4 -11   4    0.33    0.14 
   4 -11   4    0.08    0.13 
   5 -11   4    1.13    0.20 
   5 -11   4    1.24    0.23 
   6 -11   4    0.24    0.14 
   6 -11   4   -0.01    0.14 
   7 -11   4    0.00    0.15 
   7 -11   4    0.16    0.13 
   8 -11   4    0.07    0.15 
   9 -11   4    0.28    0.19 
  10 -11   4    0.06    0.18 
  12  10  -4    0.04    0.17 
 -12 -10   4    0.04    0.14 
  11  10  -4    0.04    0.17 
 -11 -10   4    0.18    0.14 
  10  10  -4    0.15    0.15 
 -10 -10   4    0.24    0.15 
   9  10  -4   -0.24    0.11 
  -9 -10   4    0.05    0.12 
   8  10  -4    0.07    0.12 
  -8 -10   4    0.19    0.12 
   7  10  -4    0.10    0.11 
  -7 -10   4    0.18    0.12 
   6  10  -4    1.68    0.21 
  -6 -10   4    1.52    0.24 
   5  10  -4    2.38    0.23 
  -5 -10   4    1.98    0.26 
   4  10  -4    3.02    0.22 
  -4 -10   4    2.95    0.30 
  -3 -10   4    0.01    0.10 
  -2 -10   4    1.50    0.23 
  -1 -10   4    0.20    0.12 
  -1 -10   4    0.25    0.10 
   0 -10   4    0.43    0.14 
   0 -10   4    0.43    0.12 
   1 -10   4    3.49    0.29 
   1 -10   4    4.00    0.30 
   2 -10   4    7.10    0.43 
   2 -10   4    7.70    0.44 
   3 -10   4    1.66    0.22 
   3 -10   4    1.54    0.22 
   4 -10   4    1.00    0.20 
   4 -10   4    1.06    0.19 
   5 -10   4    0.24    0.14 
   5 -10   4    0.09    0.11 
   6 -10   4   -0.01    0.12 
   6 -10   4   -0.05    0.10 
   7 -10   4    0.65    0.19 
   7 -10   4    0.68    0.17 
   8 -10   4    0.29    0.17 
   9 -10   4    0.09    0.14 
  10 -10   4    0.20    0.17 
  11 -10   4    0.19    0.20 
  13   9  -4    0.01    0.20 
  12   9  -4   -0.23    0.14 
 -12  -9   4    0.24    0.15 
  11   9  -4   -0.01    0.14 
 -11  -9   4    0.06    0.12 
  10   9  -4    0.15    0.15 
 -10  -9   4    0.33    0.14 
   9   9  -4   -0.04    0.12 
  -9  -9   4   -0.08    0.10 
   8   9  -4    0.16    0.12 
  -8  -9   4    0.10    0.11 
   7   9  -4    0.03    0.10 
  -7  -9   4    0.03    0.09 
   6   9  -4    0.02    0.10 
  -6  -9   4    0.14    0.11 
   5   9  -4    0.12    0.11 
  -5  -9   4    0.29    0.13 
   4   9  -4    9.45    0.45 
  -4  -9   4   10.00    0.52 
   3   9  -4    0.49    0.11 
  -3  -9   4    0.58    0.16 
   2   9  -4    2.20    0.17 
  -2  -9   4    1.93    0.24 
  -2  -9   4    2.26    0.18 
  -1  -9   4    0.69    0.15 
  -1  -9   4    0.39    0.11 
   0  -9   4    0.28    0.11 
   0  -9   4    0.35    0.13 
   1  -9   4    0.38    0.13 
   1  -9   4    0.52    0.13 
   2  -9   4    0.44    0.14 
   2  -9   4    0.42    0.13 
   3  -9   4    0.34    0.13 
   3  -9   4    0.30    0.12 
   4  -9   4    0.38    0.12 
   4  -9   4    0.27    0.13 
   5  -9   4    1.87    0.22 
   5  -9   4    1.43    0.22 
   6  -9   4    0.17    0.13 
   6  -9   4    0.22    0.11 
  -7   9  -4    0.31    0.12 
   7  -9   4    0.30    0.14 
  -8   9  -4    0.24    0.12 
   8  -9   4    0.05    0.14 
   9  -9   4   -0.05    0.13 
  10  -9   4    0.02    0.17 
  11  -9   4   -0.09    0.18 
  12  -9   4    0.21    0.23 
  14   8  -4   -0.12    0.18 
  13   8  -4    0.04    0.18 
  12   8  -4    1.14    0.25 
 -12  -8   4    1.05    0.21 
  11   8  -4    0.09    0.15 
 -11  -8   4    0.12    0.12 
  10   8  -4    0.55    0.17 
 -10  -8   4    0.40    0.15 
   9   8  -4    4.18    0.33 
  -9  -8   4    4.19    0.32 
   8   8  -4   -0.01    0.12 
  -8  -8   4    0.14    0.11 
   7   8  -4    1.93    0.21 
  -7  -8   4    2.29    0.25 
   6   8  -4   14.54    0.65 
  -6  -8   4   16.28    0.71 
   5   8  -4    6.94    0.37 
  -5  -8   4    7.83    0.43 
   4   8  -4    1.56    0.16 
  -4  -8   4    1.22    0.19 
   3   8  -4    4.30    0.25 
  -3  -8   4    4.52    0.23 
  -3  -8   4    4.23    0.30 
   2   8  -4    3.58    0.21 
  -2  -8   4    3.25    0.21 
  -2  -8   4    3.90    0.28 
  -1  -8   4   12.02    0.56 
   0  -8   4    0.20    0.09 
   0  -8   4    0.10    0.09 
   1  -8   4    2.79    0.25 
   1  -8   4    2.95    0.23 
   2  -8   4    2.75    0.23 
   2  -8   4    2.78    0.25 
   3  -8   4    0.08    0.10 
   3  -8   4    0.06    0.09 
   4  -8   4   13.32    0.61 
   4  -8   4   13.45    0.64 
   5  -8   4    1.49    0.20 
   5  -8   4    1.43    0.21 
   6  -8   4    0.54    0.13 
   6  -8   4    0.38    0.15 
  -7   8  -4    1.21    0.17 
   7  -8   4    1.14    0.20 
  -8   8  -4    0.68    0.15 
   8  -8   4    1.02    0.21 
   9  -8   4    0.44    0.18 
  10  -8   4   -0.08    0.14 
  11  -8   4    0.16    0.19 
  12  -8   4   -0.21    0.17 
  14   7  -4   -0.05    0.17 
  13   7  -4   -0.11    0.15 
  12   7  -4    0.61    0.21 
 -12  -7   4    0.95    0.19 
  11   7  -4    0.11    0.14 
 -11  -7   4    0.24    0.13 
  10   7  -4    0.07    0.11 
 -10  -7   4    0.10    0.11 
   9   7  -4    0.21    0.13 
  -9  -7   4    0.08    0.10 
   8   7  -4    0.18    0.12 
  -8  -7   4   -0.03    0.09 
   7   7  -4    3.46    0.27 
  -7  -7   4    3.35    0.27 
   6   7  -4    0.59    0.13 
  -6  -7   4    0.25    0.12 
   5   7  -4    3.76    0.24 
  -5  -7   4    3.45    0.26 
   4   7  -4    3.16    0.21 
  -4  -7   4    3.49    0.25 
   3   7  -4    0.51    0.10 
  -3  -7   4    0.45    0.11 
   2   7  -4    1.07    0.11 
  -2  -7   4    0.80    0.10 
  -2  -7   4    0.66    0.13 
   1   7  -4    2.75    0.16 
  -1  -7   4    2.74    0.21 
   0  -7   4    1.08    0.13 
   0  -7   4    0.95    0.15 
   1  -7   4    5.88    0.33 
   1  -7   4    6.21    0.33 
   2  -7   4   -0.02    0.07 
   2  -7   4    0.00    0.05 
   3  -7   4    6.38    0.37 
   3  -7   4    7.05    0.36 
   4  -7   4    8.82    0.46 
   4  -7   4    8.36    0.42 
   5  -7   4   -0.04    0.09 
   5  -7   4    0.08    0.06 
  -6   7  -4    0.94    0.14 
   6  -7   4    0.59    0.15 
  -7   7  -4    0.39    0.12 
   7  -7   4    0.09    0.11 
  -8   7  -4    0.25    0.11 
   8  -7   4    0.26    0.14 
  -9   7  -4    0.40    0.13 
   9  -7   4    0.20    0.15 
  10  -7   4    0.13    0.14 
  11  -7   4    0.25    0.18 
  12  -7   4    0.00    0.16 
  13  -7   4   -0.04    0.19 
  15   6  -4    0.04    0.17 
  14   6  -4   -0.07    0.16 
  13   6  -4    1.57    0.28 
  12   6  -4    0.56    0.19 
 -12  -6   4    0.61    0.17 
  11   6  -4    0.11    0.12 
 -11  -6   4    0.04    0.10 
  10   6  -4    0.47    0.14 
 -10  -6   4    0.40    0.13 
   9   6  -4    1.24    0.20 
  -9  -6   4    1.49    0.20 
   8   6  -4    2.28    0.23 
  -8  -6   4    2.43    0.23 
   7   6  -4    0.19    0.11 
  -7  -6   4    0.20    0.10 
   6   6  -4   16.45    0.68 
  -6  -6   4   17.72    0.72 
   5   6  -4    1.06    0.14 
  -5  -6   4    1.05    0.15 
   4   6  -4    0.13    0.07 
  -4  -6   4    0.05    0.06 
   3   6  -4    9.17    0.39 
  -3  -6   4    9.42    0.44 
   2   6  -4   10.24    0.41 
  -2  -6   4    9.96    0.47 
  -2  -6   4   10.99    0.43 
   1   6  -4    1.17    0.09 
  -1  -6   4    1.28    0.15 
   0   6  -4    0.19    0.04 
   0  -6   4    0.21    0.07 
   0  -6   4    0.20    0.08 
   1  -6   4    6.47    0.33 
   1  -6   4    6.28    0.33 
   2  -6   4    0.05    0.06 
   2  -6   4   -0.01    0.07 
   3  -6   4    0.85    0.13 
   3  -6   4    0.96    0.14 
   4  -6   4    0.26    0.09 
   4  -6   4    0.15    0.09 
   5  -6   4    1.10    0.17 
   5  -6   4    1.22    0.16 
  -6   6  -4    1.01    0.14 
   6  -6   4    0.98    0.17 
  -7   6  -4    0.47    0.11 
   7  -6   4    0.44    0.14 
  -8   6  -4    1.20    0.16 
   8  -6   4    0.84    0.18 
  -9   6  -4    0.04    0.09 
   9  -6   4   -0.06    0.09 
  10  -6   4    0.01    0.12 
  11  -6   4    0.04    0.15 
  12  -6   4    0.26    0.16 
  13  -6   4    0.16    0.18 
  14  -6   4   -0.08    0.22 
  15   5  -4   -0.15    0.14 
  14   5  -4    0.01    0.14 
  13   5  -4   -0.22    0.13 
  12   5  -4    0.86    0.21 
  11   5  -4    0.18    0.14 
 -11  -5   4    0.16    0.11 
  10   5  -4    1.56    0.22 
 -10  -5   4    1.61    0.20 
   9   5  -4    0.18    0.11 
  -9  -5   4    0.21    0.10 
   8   5  -4    0.83    0.16 
  -8  -5   4    0.93    0.15 
   7   5  -4    1.35    0.16 
  -7  -5   4    1.12    0.15 
   6   5  -4    0.39    0.10 
  -6  -5   4    0.46    0.10 
   5   5  -4   -0.02    0.05 
   5   5  -4    0.08    0.02 
  -5  -5   4    0.01    0.05 
   4   5  -4    2.11    0.15 
  -4  -5   4    2.06    0.17 
   3   5  -4    2.40    0.15 
  -3  -5   4    2.26    0.17 
   2   5  -4   19.35    0.68 
  -2  -5   4   19.24    0.70 
  -2  -5   4   18.79    0.73 
   1   5  -4   15.67    0.52 
  -1  -5   4   13.22    0.58 
   0   5  -4    6.89    0.26 
   0  -5   4    7.23    0.34 
   0  -5   4    7.11    0.33 
   1  -5   4    3.22    0.20 
   1  -5   4    3.02    0.20 
   2  -5   4    3.56    0.22 
   2  -5   4    3.49    0.23 
   3  -5   4   12.72    0.54 
   3  -5   4   11.76    0.51 
   4  -5   4    6.64    0.37 
   4  -5   4    7.36    0.36 
  -5   5  -4    5.73    0.28 
   5  -5   4    5.18    0.21 
   5  -5   4    4.96    0.31 
  -6   5  -4    1.21    0.14 
   6  -5   4    1.38    0.11 
   6  -5   4    1.00    0.17 
  -7   5  -4    0.08    0.07 
   7  -5   4    0.07    0.10 
  -8   5  -4    0.24    0.09 
   8  -5   4    0.21    0.11 
  -9   5  -4    2.59    0.21 
   9  -5   4    2.82    0.29 
 -10   5  -4    0.60    0.13 
  10  -5   4    0.64    0.19 
  11  -5   4   -0.08    0.12 
  12  -5   4   -0.01    0.13 
  13  -5   4    0.06    0.16 
  14  -5   4    0.04    0.19 
  15   4  -4   -0.06    0.15 
  14   4  -4    0.39    0.16 
  13   4  -4    1.24    0.23 
  12   4  -4    0.18    0.14 
  11   4  -4    0.00    0.10 
 -11  -4   4    0.01    0.08 
  10   4  -4    0.65    0.16 
 -10  -4   4    0.63    0.13 
   9   4  -4    0.68    0.15 
  -9  -4   4    0.61    0.12 
   8   4  -4    1.12    0.16 
  -8  -4   4    1.00    0.14 
   7   4  -4    0.85    0.07 
   7   4  -4    0.55    0.12 
  -7  -4   4    0.62    0.11 
   6   4  -4    1.87    0.16 
   6   4  -4    1.79    0.09 
  -6  -4   4    1.78    0.16 
   5   4  -4   50.65    1.71 
   5   4  -4   51.15    1.73 
  -5  -4   4   51.06    1.74 
   4   4  -4    0.12    0.06 
  -4  -4   4    0.24    0.07 
   3   4  -4    4.15    0.20 
  -3  -4   4    4.15    0.23 
   2   4  -4    6.36    0.26 
  -2  -4   4    6.21    0.30 
   1   4  -4   48.69    1.54 
  -1  -4   4   44.96    1.62 
  -1  -4   4   47.38    1.61 
   0   4  -4    6.66    0.24 
   0  -4   4    6.64    0.31 
   0  -4   4    6.81    0.30 
   1  -4   4    7.72    0.34 
   1  -4   4    7.06    0.33 
   2  -4   4   25.61    0.93 
   2  -4   4   25.84    0.96 
   3  -4   4   30.74    1.09 
   3  -4   4   30.01    1.13 
  -4   4  -4   83.17    2.75 
   4  -4   4   83.29    2.68 
   4  -4   4   83.27    2.89 
  -5   4  -4   65.70    2.22 
   5  -4   4   66.48    2.15 
   5  -4   4   66.47    2.35 
  -6   4  -4    3.23    0.21 
   6  -4   4    3.43    0.18 
   6  -4   4    3.48    0.25 
  -7   4  -4    0.63    0.11 
   7  -4   4    0.78    0.11 
   7  -4   4    0.65    0.14 
  -8   4  -4    0.41    0.10 
   8  -4   4    0.32    0.13 
   8  -4   4    0.30    0.10 
  -9   4  -4    1.20    0.15 
   9  -4   4    1.15    0.19 
 -10   4  -4    0.28    0.12 
  10  -4   4    0.19    0.12 
  11  -4   4    0.32    0.16 
  12  -4   4    0.62    0.20 
  13  -4   4    0.01    0.16 
  14  -4   4   -0.29    0.14 
  16   3  -4    0.44    0.22 
  15   3  -4    0.16    0.15 
  14   3  -4    0.65    0.20 
  13   3  -4    1.05    0.22 
  12   3  -4    0.27    0.15 
  11   3  -4    2.03    0.23 
  10   3  -4    9.27    0.44 
 -10  -3   4    6.61    0.36 
   9   3  -4    1.08    0.17 
   8   3  -4   18.13    0.64 
   8   3  -4   16.65    0.70 
  -8  -3   4   16.13    0.66 
   7   3  -4   11.02    0.48 
   7   3  -4   10.59    0.42 
  -7  -3   4   11.11    0.46 
   6   3  -4    0.58    0.06 
   6   3  -4    0.52    0.10 
  -6  -3   4    0.34    0.08 
   5   3  -4   49.25    1.66 
   5   3  -4   48.58    1.66 
  -5  -3   4   49.25    1.66 
   4   3  -4    9.38    0.35 
   4   3  -4    8.90    0.38 
  -4  -3   4    9.68    0.39 
   3   3  -4   12.17    0.46 
  -3  -3   4   12.87    0.49 
   2   3  -4    9.30    0.35 
  -2  -3   4    9.09    0.38 
   1   3  -4    2.53    0.12 
  -1  -3   4    2.28    0.15 
   0  -3   4    2.56    0.16 
   0  -3   4    2.97    0.16 
   1  -3   4    1.17    0.11 
   1  -3   4    1.53    0.12 
   2  -3   4    5.23    0.25 
   2  -3   4    4.94    0.26 
  -3   3  -4    1.66    0.12 
   3  -3   4    1.52    0.14 
  -4   3  -4   20.50    0.74 
   4  -3   4   20.24    0.70 
   4  -3   4   20.29    0.80 
  -5   3  -4   87.08    2.89 
   5  -3   4   88.42    3.03 
   5  -3   4   86.81    2.83 
  -6   3  -4   14.39    0.57 
   6  -3   4   13.71    0.62 
   6  -3   4   15.12    0.55 
  -7   3  -4    2.20    0.17 
   7  -3   4    2.12    0.21 
   7  -3   4    2.20    0.17 
  -8   3  -4   10.92    0.48 
   8  -3   4   11.01    0.47 
   8  -3   4   11.39    0.56 
  -9   3  -4    0.60    0.12 
   9  -3   4    0.43    0.14 
 -10   3  -4    0.08    0.10 
  10  -3   4    0.15    0.12 
  10  -3   4   -0.07    0.08 
 -11   3  -4    0.06    0.11 
  11  -3   4   -0.08    0.10 
  12  -3   4    0.31    0.16 
  13  -3   4    0.00    0.14 
  14  -3   4    0.18    0.17 
  16   2  -4   -0.08    0.16 
  15   2  -4    0.07    0.14 
  14   2  -4    0.03    0.14 
  13   2  -4   -0.01    0.12 
  12   2  -4    0.01    0.11 
  11   2  -4   -0.15    0.09 
  10   2  -4    0.79    0.12 
  10   2  -4    0.53    0.15 
 -10  -2   4    0.73    0.11 
   9   2  -4    0.33    0.13 
   9   2  -4    0.41    0.09 
  -9  -2   4    0.28    0.08 
   8   2  -4   11.36    0.46 
   8   2  -4   11.50    0.51 
  -8  -2   4   11.17    0.46 
   7   2  -4    2.19    0.14 
   7   2  -4    2.14    0.18 
  -7  -2   4    1.95    0.14 
   6   2  -4    5.41    0.24 
   6   2  -4    5.37    0.28 
   5   2  -4   52.49    1.78 
   5   2  -4   51.90    1.76 
   4   2  -4   12.57    0.48 
   4   2  -4   12.51    0.45 
  -4  -2   4   12.04    0.46 
   3   2  -4    0.10    0.04 
  -3  -2   4    0.06    0.04 
  -2  -2   4    4.71    0.21 
  -1  -2   4    0.86    0.08 
   0  -2   4   29.65    1.04 
   0  -2   4   29.38    1.01 
   1  -2   4  102.83    3.48 
   1  -2   4  103.56    3.37 
  -2   2  -4    0.01    0.04 
   2  -2   4    0.05    0.05 
  -3   2  -4   37.09    1.27 
   3  -2   4   37.55    1.34 
   3  -2   4   37.47    1.23 
  -4   2  -4   13.97    0.53 
   4  -2   4   13.88    0.57 
   4  -2   4   13.41    0.50 
  -5   2  -4    2.23    0.16 
   5  -2   4    2.25    0.15 
   5  -2   4    2.42    0.19 
  -6   2  -4    1.91    0.15 
   6  -2   4    1.71    0.18 
  -7   2  -4    0.47    0.10 
   7  -2   4    0.51    0.10 
   7  -2   4    0.64    0.13 
  -8   2  -4    1.78    0.17 
   8  -2   4    2.14    0.21 
   8  -2   4    2.25    0.19 
  -9   2  -4    0.14    0.08 
   9  -2   4   -0.10    0.09 
   9  -2   4    0.02    0.10 
 -10   2  -4    1.08    0.15 
  10  -2   4    1.28    0.18 
  10  -2   4    1.14    0.20 
 -11   2  -4    1.76    0.20 
  11  -2   4    2.00    0.25 
  11  -2   4    1.74    0.22 
  12  -2   4   -0.10    0.12 
  12  -2   4   -0.05    0.10 
  13  -2   4   -0.02    0.12 
  16   1  -4   -0.11    0.16 
  15   1  -4   -0.16    0.14 
  14   1  -4    0.45    0.18 
  13   1  -4    1.00    0.20 
  12   1  -4    0.70    0.16 
  11   1  -4    1.32    0.15 
  11   1  -4    0.94    0.18 
  10   1  -4    6.13    0.32 
  10   1  -4    5.96    0.36 
   9   1  -4    0.56    0.11 
   9   1  -4    0.38    0.13 
  -9  -1   4    0.50    0.09 
   8   1  -4   21.27    0.82 
   8   1  -4   20.89    0.79 
  -8  -1   4   20.73    0.75 
   7   1  -4    5.48    0.29 
   7   1  -4    5.62    0.27 
  -7  -1   4    5.82    0.25 
   6   1  -4    0.30    0.06 
   6   1  -4    0.32    0.09 
  -6  -1   4    0.30    0.06 
   5   1  -4   46.08    1.56 
   5   1  -4   44.76    1.54 
  -5  -1   4   45.51    1.50 
   4   1  -4   25.77    0.92 
  -4  -1   4   26.96    0.89 
   3   1  -4    0.34    0.05 
  -3  -1   4    0.36    0.05 
  -2  -1   4    1.18    0.08 
  -1  -1   4    0.60    0.06 
   0  -1   4   29.45    1.00 
  -1   1  -4    0.56    0.06 
   1  -1   4    0.67    0.07 
  -2   1  -4    1.22    0.10 
   2  -1   4    1.30    0.11 
  -3   1  -4   16.19    0.60 
   3  -1   4   16.93    0.64 
  -4   1  -4    1.40    0.12 
   4  -1   4    1.58    0.14 
   4  -1   4    1.38    0.11 
  -5   1  -4   29.74    1.02 
   5  -1   4   28.80    1.01 
   5  -1   4   28.33    1.07 
  -6   1  -4   -0.03    0.06 
   6  -1   4    0.03    0.06 
   6  -1   4   -0.04    0.06 
  -7   1  -4   12.27    0.52 
   7  -1   4   13.18    0.52 
   7  -1   4   11.93    0.55 
  -8   1  -4   10.13    0.45 
   8  -1   4   10.23    0.49 
   8  -1   4    9.97    0.46 
  -9   1  -4    0.34    0.10 
   9  -1   4    0.53    0.14 
   9  -1   4    0.40    0.12 
 -10   1  -4    0.47    0.13 
  10  -1   4    0.26    0.12 
  10  -1   4    0.61    0.15 
 -11   1  -4    0.18    0.11 
  11  -1   4    0.14    0.13 
  11  -1   4    0.16    0.12 
  12  -1   4    0.08    0.13 
  12  -1   4    0.12    0.13 
  13  -1   4   -0.06    0.13 
  16   0  -4    0.17    0.17 
  15   0  -4    0.27    0.16 
  14   0  -4   -0.08    0.12 
  13   0  -4    0.51    0.16 
  12   0  -4    0.63    0.15 
  12   0  -4    0.52    0.16 
  11   0  -4    3.65    0.28 
  11   0  -4    3.98    0.27 
  10   0  -4    0.62    0.13 
  10   0  -4    0.64    0.15 
   9   0  -4   -0.06    0.07 
   9   0  -4   -0.09    0.08 
  -9   0   4    0.06    0.05 
   8   0  -4    2.04    0.17 
   8   0  -4    1.98    0.18 
  -8   0   4    1.86    0.12 
   7   0  -4    9.53    0.41 
   7   0  -4    9.22    0.42 
  -7   0   4    9.73    0.36 
   6   0  -4    6.61    0.32 
   6   0  -4    6.61    0.31 
  -6   0   4    7.25    0.27 
   5   0  -4    8.33    0.35 
  -5   0   4    8.27    0.30 
   4   0  -4   41.52    1.46 
  -4   0   4   43.19    1.38 
   3   0  -4   46.76    1.63 
  -3   0   4   48.65    1.56 
   2   0  -4  144.62    4.89 
  -2   0   4  149.47    4.73 
   1   0  -4   81.36    2.63 
   0   0  -4    4.02    0.17 
  -1   0  -4  393.21   12.57 
  -2   0  -4 1000.00   31.85 
   2   0   4  998.65   32.99 
  -3   0  -4   30.59    1.03 
   3   0   4   29.92    1.07 
   3   0   4   29.56    1.02 
  -4   0  -4    2.56    0.16 
   4   0   4    2.67    0.16 
   4   0   4    2.77    0.17 
  -5   0  -4   75.70    2.47 
   5   0   4   72.71    2.56 
   5   0   4   74.95    2.46 
  -6   0  -4    0.06    0.06 
   6   0   4    0.00    0.06 
   6   0   4    0.12    0.08 
  -7   0  -4    1.39    0.15 
   7   0   4    1.45    0.15 
   7   0   4    1.34    0.15 
  -8   0  -4    4.15    0.26 
   8   0   4    4.56    0.27 
   8   0   4    4.17    0.27 
  -9   0  -4    0.73    0.13 
   9   0   4    1.05    0.15 
   9   0   4    1.16    0.18 
 -10   0  -4    0.90    0.15 
  10   0   4    0.74    0.17 
  10   0   4    1.05    0.17 
 -11   0  -4    1.11    0.17 
  11   0   4    1.33    0.20 
  11   0   4    1.02    0.18 
 -12   0  -4    0.23    0.13 
  12   0   4    0.36    0.15 
  12   0   4    0.35    0.15 
  13   0   4    0.10    0.14 
  14   0   4    0.14    0.18 
  15   0   4    0.03    0.19 
  16  -1  -4    0.06    0.16 
  15  -1  -4    0.00    0.13 
  14  -1  -4    0.66    0.18 
  13  -1  -4    1.31    0.21 
  13  -1  -4    1.13    0.20 
  12  -1  -4    0.98    0.18 
  12  -1  -4    0.80    0.17 
  11  -1  -4    0.94    0.17 
  11  -1  -4    0.81    0.16 
  10  -1  -4    5.69    0.33 
  10  -1  -4    5.72    0.34 
   9  -1  -4    0.64    0.12 
   9  -1  -4    0.49    0.12 
   8  -1  -4   21.16    0.81 
   8  -1  -4   20.54    0.82 
  -8   1   4   21.45    0.72 
   7  -1  -4    6.03    0.30 
   7  -1  -4    5.75    0.30 
  -7   1   4    6.25    0.23 
   6  -1  -4    0.29    0.08 
  -6   1   4    0.31    0.03 
   5  -1  -4   44.56    1.56 
   4  -1  -4   26.04    0.93 
   3  -1  -4    0.29    0.06 
   2  -1  -4    1.44    0.07 
   2  -1  -4    1.54    0.10 
   1  -1  -4    0.51    0.06 
   1  -1  -4    0.68    0.05 
   0  -1  -4   29.47    0.98 
  -1  -1  -4    0.72    0.07 
  -2  -1  -4    1.26    0.10 
  -3  -1  -4   15.71    0.59 
   3   1   4   16.74    0.60 
  -4  -1  -4    1.42    0.13 
   4   1   4    1.51    0.13 
   4   1   4    1.80    0.12 
  -5  -1  -4   29.72    1.06 
   5   1   4   30.34    1.06 
   5   1   4   29.12    1.08 
  -6  -1  -4    0.06    0.06 
   6   1   4    0.00    0.06 
   6   1   4   -0.07    0.07 
  -7  -1  -4   12.98    0.54 
   7   1   4   12.19    0.54 
   7   1   4   12.74    0.53 
  -8  -1  -4   10.15    0.47 
   8   1   4   10.26    0.47 
   8   1   4   11.40    0.50 
  -9  -1  -4    0.40    0.11 
   9   1   4    0.45    0.10 
   9   1   4    0.39    0.14 
 -10  -1  -4    0.50    0.13 
  10   1   4    0.66    0.12 
  10   1   4    0.70    0.16 
 -11  -1  -4    0.01    0.09 
  11   1   4    0.08    0.12 
 -12  -1  -4   -0.07    0.09 
  12   1   4   -0.09    0.13 
  13   1   4   -0.09    0.13 
  14   1   4   -0.05    0.14 
  15   1   4    0.06    0.18 
  16  -2  -4    0.15    0.16 
  15  -2  -4    0.47    0.17 
  14  -2  -4    0.03    0.13 
  14  -2  -4    0.14    0.14 
  13  -2  -4   -0.03    0.12 
  13  -2  -4   -0.07    0.11 
  12  -2  -4   -0.01    0.10 
  12  -2  -4   -0.06    0.10 
  11  -2  -4    0.12    0.11 
  11  -2  -4    0.04    0.10 
  10  -2  -4    0.83    0.15 
  10  -2  -4    0.80    0.17 
   9  -2  -4    0.34    0.10 
   9  -2  -4    0.22    0.11 
   8  -2  -4   11.14    0.52 
   8  -2  -4   11.06    0.50 
  -8   2   4   12.29    0.41 
   7  -2  -4    1.98    0.17 
   6  -2  -4    5.46    0.29 
   5  -2  -4   50.32    1.76 
   4  -2  -4   13.23    0.52 
   3  -2  -4    0.13    0.06 
   3  -2  -4    0.08    0.02 
   2  -2  -4    4.74    0.18 
   2  -2  -4    4.42    0.21 
   1  -2  -4    0.73    0.07 
   1  -2  -4    0.96    0.06 
   0  -2  -4   30.23    1.02 
   0  -2  -4   30.25    1.05 
  -1  -2  -4  105.17    3.41 
  -2  -2  -4    0.14    0.05 
  -3  -2  -4   35.18    1.24 
   3   2   4   37.11    1.25 
  -4  -2  -4   13.04    0.51 
   4   2   4   13.02    0.52 
  -5  -2  -4    2.15    0.16 
   5   2   4    2.32    0.18 
  -6  -2  -4    1.89    0.17 
   6   2   4    1.94    0.18 
   6   2   4    1.51    0.13 
  -7  -2  -4    0.58    0.12 
   7   2   4    0.46    0.12 
   7   2   4    0.45    0.09 
  -8  -2  -4    1.92    0.19 
   8   2   4    2.08    0.22 
   8   2   4    1.94    0.17 
  -9  -2  -4    0.03    0.09 
   9   2   4    0.14    0.07 
   9   2   4   -0.09    0.10 
 -10  -2  -4    1.04    0.17 
  10   2   4    0.96    0.19 
 -11  -2  -4    1.89    0.22 
  11   2   4    1.58    0.24 
 -12  -2  -4    0.05    0.10 
  12   2   4   -0.01    0.13 
  13   2   4    0.11    0.15 
  14   2   4   -0.15    0.15 
  15   2   4    0.06    0.17 
  15  -3  -4    0.12    0.14 
  15  -3  -4    0.09    0.17 
  14  -3  -4    0.72    0.20 
  14  -3  -4    0.70    0.18 
  13  -3  -4    0.87    0.18 
  13  -3  -4    0.90    0.21 
  12  -3  -4    0.17    0.13 
  12  -3  -4    0.11    0.12 
  11  -3  -4    2.42    0.23 
  11  -3  -4    2.05    0.24 
  10  -3  -4    9.83    0.51 
  10  -3  -4    9.21    0.46 
   9  -3  -4    1.03    0.17 
   9  -3  -4    1.02    0.14 
   8  -3  -4   18.44    0.77 
   8  -3  -4   18.34    0.71 
   7  -3  -4   10.60    0.48 
   6  -3  -4    0.50    0.10 
   5  -3  -4   51.49    1.82 
   4  -3  -4    9.49    0.33 
   4  -3  -4    9.04    0.40 
   3  -3  -4   13.40    0.46 
   3  -3  -4   13.11    0.53 
   2  -3  -4    9.29    0.35 
   2  -3  -4    9.75    0.39 
   1  -3  -4    2.59    0.15 
   1  -3  -4    2.40    0.13 
   0  -3  -4    2.88    0.15 
   0  -3  -4    2.79    0.15 
  -1  -3  -4    1.14    0.08 
  -1  -3  -4    1.45    0.11 
  -2  -3  -4    4.84    0.23 
  -3  -3  -4    1.74    0.13 
  -4  -3  -4   19.79    0.74 
   4   3   4   19.56    0.75 
  -5  -3  -4   82.67    2.82 
   5   3   4   86.53    2.83 
  -6  -3  -4   14.94    0.62 
   6   3   4   15.73    0.64 
  -7  -3  -4    2.52    0.21 
   7   3   4    1.79    0.20 
  -8  -3  -4   10.58    0.50 
   8   3   4   10.98    0.53 
  -9  -3  -4    0.44    0.13 
   9   3   4    0.47    0.15 
 -10  -3  -4   -0.08    0.08 
  10   3   4   -0.11    0.11 
 -11  -3  -4   -0.02    0.11 
  11   3   4    0.13    0.13 
 -12  -3  -4    0.23    0.12 
  12   3   4    0.31    0.16 
 -13  -3  -4    0.25    0.15 
  13   3   4   -0.04    0.14 
  14   3   4    0.11    0.16 
  15   3   4    0.34    0.20 
  15  -4  -4   -0.02    0.16 
  14  -4  -4    0.43    0.18 
  14  -4  -4    0.28    0.16 
  13  -4  -4    1.78    0.23 
  13  -4  -4    1.51    0.25 
  12  -4  -4    0.28    0.15 
  12  -4  -4    0.45    0.15 
  11  -4  -4   -0.03    0.11 
  11  -4  -4    0.00    0.10 
  10  -4  -4    0.59    0.14 
  10  -4  -4    0.84    0.19 
   9  -4  -4    0.71    0.17 
   9  -4  -4    0.75    0.13 
   8  -4  -4    1.07    0.17 
   7  -4  -4    0.54    0.12 
  -7   4   4    0.74    0.06 
   6  -4  -4    1.93    0.18 
  -6   4   4    1.73    0.09 
   5  -4  -4   50.26    1.76 
   5  -4  -4   48.78    1.62 
   4  -4  -4    0.19    0.04 
   4  -4  -4    0.27    0.08 
   3  -4  -4    4.16    0.23 
   3  -4  -4    4.36    0.19 
   2  -4  -4    6.99    0.28 
   2  -4  -4    6.58    0.31 
   1  -4  -4   51.11    1.76 
   1  -4  -4   50.90    1.70 
   0  -4  -4    7.24    0.30 
   0  -4  -4    6.74    0.30 
  -1  -4  -4    7.70    0.33 
  -2  -4  -4   26.62    0.94 
  -2  -4  -4   25.87    0.92 
  -3  -4  -4   28.88    1.04 
  -3  -4  -4   28.88    1.01 
  -4  -4  -4   82.34    2.81 
   4   4   4   86.37    2.82 
  -5  -4  -4   61.63    2.11 
   5   4   4   61.58    2.11 
  -6  -4  -4    2.87    0.21 
   6   4   4    3.29    0.25 
  -7  -4  -4    0.68    0.14 
   7   4   4    0.54    0.15 
  -8  -4  -4    0.24    0.11 
   8   4   4    0.13    0.12 
  -9  -4  -4    1.35    0.19 
   9   4   4    1.28    0.21 
 -10  -4  -4    0.23    0.12 
  10   4   4    0.14    0.13 
 -11  -4  -4    0.60    0.15 
  11   4   4    0.17    0.15 
 -12  -4  -4    0.76    0.18 
  12   4   4    0.56    0.19 
 -13  -4  -4    0.33    0.15 
  13   4   4    0.40    0.18 
  14   4   4    0.20    0.18 
  15  -5  -4    0.09    0.18 
  14  -5  -4    0.49    0.20 
  13  -5  -4    0.04    0.14 
  12  -5  -4    1.08    0.19 
  12  -5  -4    1.06    0.21 
  11  -5  -4    0.24    0.12 
  11  -5  -4    0.11    0.12 
  10  -5  -4    1.51    0.18 
  10  -5  -4    1.31    0.22 
   9  -5  -4    0.01    0.11 
   9  -5  -4    0.15    0.09 
   8  -5  -4    0.86    0.17 
   7  -5  -4    1.03    0.17 
  -7   5   4    1.28    0.09 
   6  -5  -4    0.15    0.09 
   6  -5  -4    0.39    0.06 
   5  -5  -4    0.03    0.03 
   5  -5  -4   -0.01    0.07 
   4  -5  -4    2.02    0.12 
   4  -5  -4    2.30    0.18 
   3  -5  -4    2.24    0.17 
   3  -5  -4    2.39    0.14 
   2  -5  -4   18.63    0.69 
   2  -5  -4   19.23    0.72 
   1  -5  -4   15.55    0.57 
   1  -5  -4   14.39    0.58 
   0  -5  -4    7.07    0.31 
   0  -5  -4    7.16    0.32 
  -1  -5  -4    3.46    0.21 
  -2  -5  -4    3.83    0.19 
  -2  -5  -4    3.79    0.23 
  -3  -5  -4   12.46    0.47 
  -3  -5  -4   12.42    0.52 
  -4  -5  -4    6.40    0.34 
  -4  -5  -4    6.61    0.27 
  -5  -5  -4    4.18    0.27 
  -5  -5  -4    4.98    0.21 
   5   5   4    4.89    0.30 
  -6  -5  -4    1.61    0.19 
   6   5   4    1.25    0.18 
  -7  -5  -4    0.06    0.09 
   7   5   4    0.04    0.11 
  -8  -5  -4    0.14    0.10 
   8   5   4    0.06    0.12 
  -9  -5  -4    2.68    0.26 
   9   5   4    2.47    0.27 
 -10  -5  -4    0.59    0.15 
  10   5   4    0.64    0.18 
 -11  -5  -4   -0.05    0.11 
  11   5   4    0.03    0.13 
 -12  -5  -4    0.37    0.15 
  12   5   4    0.13    0.15 
 -13  -5  -4    0.09    0.15 
  13   5   4   -0.13    0.14 
  14   5   4    0.12    0.18 
  15  -6  -4    0.28    0.22 
  14  -6  -4    0.08    0.17 
  13  -6  -4    1.15    0.25 
  12  -6  -4    0.50    0.18 
  11  -6  -4   -0.03    0.11 
  11  -6  -4    0.17    0.15 
  10  -6  -4    0.43    0.13 
  10  -6  -4    0.56    0.17 
   9  -6  -4    1.61    0.24 
   8  -6  -4    2.15    0.25 
   7  -6  -4    0.07    0.11 
   6  -6  -4   16.19    0.60 
   5  -6  -4    0.95    0.10 
   5  -6  -4    0.84    0.14 
   4  -6  -4    0.04    0.08 
   4  -6  -4    0.03    0.04 
   3  -6  -4    8.49    0.41 
   3  -6  -4    8.69    0.37 
   2  -6  -4    9.91    0.42 
   2  -6  -4   10.69    0.46 
   1  -6  -4    1.12    0.12 
   1  -6  -4    1.27    0.13 
   0  -6  -4    0.04    0.05 
   0  -6  -4    0.12    0.06 
  -1  -6  -4    6.23    0.30 
  -1  -6  -4    5.18    0.26 
  -2  -6  -4    0.08    0.05 
  -2  -6  -4    0.06    0.06 
  -3  -6  -4    0.89    0.13 
  -3  -6  -4    1.10    0.10 
  -4  -6  -4    0.17    0.08 
  -4  -6  -4    0.26    0.06 
  -5  -6  -4    1.00    0.16 
   5   6   4    1.11    0.18 
  -6  -6  -4    1.35    0.18 
   6   6   4    0.98    0.19 
  -7  -6  -4    0.61    0.15 
   7   6   4    0.46    0.16 
  -8  -6  -4    1.32    0.20 
   8   6   4    1.48    0.23 
  -9  -6  -4   -0.01    0.08 
   9   6   4    0.16    0.13 
 -10  -6  -4   -0.02    0.10 
  10   6   4    0.18    0.13 
 -11  -6  -4   -0.10    0.10 
  11   6   4    0.27    0.15 
 -12  -6  -4    0.06    0.11 
  12   6   4   -0.03    0.14 
 -13  -6  -4    0.07    0.13 
  13   6   4    0.02    0.16 
 -14  -6  -4    0.16    0.17 
  14   6   4   -0.11    0.16 
  14  -7  -4    0.02    0.18 
  13  -7  -4   -0.27    0.15 
  12  -7  -4    0.94    0.23 
  11  -7  -4    0.33    0.16 
  10  -7  -4    0.02    0.12 
   9  -7  -4    0.19    0.14 
   8  -7  -4   -0.02    0.12 
   7  -7  -4    3.52    0.29 
   6  -7  -4    0.25    0.13 
   6  -7  -4    0.35    0.08 
   5  -7  -4    4.08    0.23 
   5  -7  -4    4.03    0.28 
   4  -7  -4    3.26    0.24 
   4  -7  -4    3.46    0.20 
   3  -7  -4    0.36    0.08 
   3  -7  -4    0.40    0.11 
   2  -7  -4    1.10    0.13 
   2  -7  -4    1.01    0.14 
   1  -7  -4    3.21    0.21 
   1  -7  -4    3.11    0.21 
   0  -7  -4    0.77    0.12 
   0  -7  -4    0.86    0.11 
  -1  -7  -4    5.61    0.32 
  -1  -7  -4    6.77    0.30 
  -2  -7  -4    0.07    0.07 
  -2  -7  -4    0.04    0.05 
  -3  -7  -4    6.34    0.27 
  -3  -7  -4    5.85    0.34 
  -4  -7  -4    8.54    0.44 
  -5  -7  -4   -0.03    0.09 
  -6  -7  -4    0.74    0.16 
   6   7   4    0.89    0.18 
  -7  -7  -4    0.05    0.10 
   7   7   4    0.16    0.14 
  -8  -7  -4    0.19    0.11 
   8   7   4    0.24    0.15 
  -9  -7  -4    0.19    0.13 
   9   7   4    0.36    0.17 
 -10  -7  -4    0.08    0.11 
  10   7   4    0.31    0.17 
 -11  -7  -4    0.00    0.10 
  11   7   4   -0.16    0.12 
 -12  -7  -4   -0.04    0.12 
  12   7   4    0.04    0.16 
 -13  -7  -4    0.10    0.14 
  13   7   4   -0.08    0.17 
  14  -8  -4   -0.06    0.17 
  13  -8  -4    0.33    0.21 
  12  -8  -4    1.40    0.28 
  11  -8  -4    0.20    0.16 
  10  -8  -4    0.21    0.16 
   9  -8  -4    4.25    0.35 
   8  -8  -4    0.20    0.13 
   7  -8  -4    1.70    0.23 
   6  -8  -4   16.11    0.73 
   6  -8  -4   14.95    0.61 
   5  -8  -4    7.55    0.36 
   5  -8  -4    7.46    0.43 
   4  -8  -4    1.50    0.20 
   4  -8  -4    1.64    0.16 
   3  -8  -4    4.57    0.27 
   3  -8  -4    4.76    0.30 
   2  -8  -4    3.68    0.24 
   2  -8  -4    3.60    0.25 
   1  -8  -4   11.84    0.51 
   1  -8  -4   10.89    0.50 
   0  -8  -4    0.05    0.08 
   0  -8  -4    0.21    0.08 
  -1  -8  -4    2.97    0.23 
  -1  -8  -4    3.20    0.20 
  -2  -8  -4    2.63    0.24 
  -2  -8  -4    2.61    0.18 
  -3  -8  -4    0.10    0.10 
  -4  -8  -4   14.00    0.64 
  -5  -8  -4    1.34    0.20 
  -6  -8  -4    0.32    0.12 
  -7  -8  -4    1.05    0.19 
  -8  -8  -4    0.85    0.18 
   8   8   4    1.11    0.22 
  -9  -8  -4    0.39    0.14 
   9   8   4    0.56    0.19 
 -10  -8  -4   -0.07    0.10 
  10   8   4    0.10    0.17 
 -11  -8  -4    0.41    0.15 
  11   8   4    0.30    0.19 
 -12  -8  -4   -0.06    0.11 
  12   8   4   -0.13    0.16 
 -13  -8  -4    0.17    0.16 
  13  -9  -4    0.16    0.22 
  12  -9  -4   -0.07    0.16 
  11  -9  -4   -0.19    0.15 
  10  -9  -4    0.38    0.18 
   9  -9  -4    0.22    0.16 
   8  -9  -4    0.05    0.13 
   7  -9  -4   -0.05    0.11 
   6  -9  -4    0.16    0.13 
   5  -9  -4    0.49    0.16 
   5  -9  -4    0.28    0.08 
   4  -9  -4    8.96    0.43 
   4  -9  -4    9.60    0.49 
   3  -9  -4    0.58    0.12 
   3  -9  -4    0.57    0.14 
   2  -9  -4    2.66    0.23 
   2  -9  -4    2.25    0.21 
   1  -9  -4    0.63    0.14 
   1  -9  -4    0.77    0.14 
   0  -9  -4    0.34    0.10 
   0  -9  -4    0.33    0.12 
  -1  -9  -4    0.41    0.13 
  -1  -9  -4    0.44    0.11 
  -2  -9  -4    0.42    0.13 
  -3  -9  -4    0.26    0.12 
  -4  -9  -4    0.21    0.12 
  -5  -9  -4    1.73    0.23 
  -6  -9  -4   -0.10    0.09 
  -7  -9  -4    0.21    0.12 
  -8  -9  -4    0.09    0.13 
  -9  -9  -4    0.38    0.16 
 -10  -9  -4   -0.08    0.11 
 -11  -9  -4    0.08    0.13 
 -12  -9  -4    0.17    0.15 
  12 -10  -4   -0.02    0.19 
  11 -10  -4    0.12    0.17 
  10 -10  -4    0.08    0.14 
   9 -10  -4    0.10    0.14 
   8 -10  -4   -0.11    0.12 
   7 -10  -4    0.19    0.14 
   6 -10  -4    1.59    0.24 
   5 -10  -4    2.52    0.23 
   5 -10  -4    2.35    0.27 
   4 -10  -4    2.95    0.28 
   4 -10  -4    2.79    0.24 
   3 -10  -4    0.19    0.10 
   3 -10  -4    0.02    0.11 
   2 -10  -4    1.60    0.20 
   2 -10  -4    1.46    0.20 
   1 -10  -4    0.33    0.12 
   1 -10  -4    0.30    0.11 
   0 -10  -4    0.44    0.13 
   0 -10  -4    0.07    0.08 
  -1 -10  -4    3.66    0.31 
  -2 -10  -4    7.77    0.45 
  -3 -10  -4    1.59    0.23 
  -4 -10  -4    0.97    0.19 
  -5 -10  -4    0.18    0.13 
  -6 -10  -4    0.08    0.11 
  -7 -10  -4    0.33    0.14 
  -8 -10  -4    0.26    0.13 
  -9 -10  -4    0.32    0.15 
 -10 -10  -4    0.23    0.15 
 -11 -10  -4    0.05    0.13 
  11 -11  -4    0.59    0.23 
  10 -11  -4   -0.05    0.17 
   9 -11  -4    0.18    0.16 
   8 -11  -4    0.13    0.16 
   7 -11  -4    1.98    0.29 
   6 -11  -4    0.11    0.14 
   5 -11  -4    0.18    0.14 
   4 -11  -4    3.69    0.31 
   4 -11  -4    3.87    0.29 
   3 -11  -4    3.71    0.28 
   3 -11  -4    3.26    0.30 
   2 -11  -4   -0.12    0.10 
   2 -11  -4   -0.01    0.10 
   1 -11  -4    0.04    0.12 
   1 -11  -4    0.06    0.09 
   0 -11  -4    0.17    0.11 
  -1 -11  -4    0.07    0.10 
  -2 -11  -4    0.06    0.11 
  -3 -11  -4   -0.01    0.10 
  -4 -11  -4    0.18    0.13 
  -5 -11  -4    0.90    0.20 
  -6 -11  -4    0.52    0.16 
  -7 -11  -4    0.04    0.13 
  -8 -11  -4    0.16    0.14 
  -9 -11  -4    0.03    0.14 
 -10 -11  -4   -0.06    0.13 
  10 -12  -4    0.04    0.18 
   9 -12  -4    0.16    0.18 
   8 -12  -4    0.38    0.18 
   7 -12  -4   -0.08    0.13 
   6 -12  -4    0.08    0.14 
   5 -12  -4    0.23    0.15 
   4 -12  -4    0.51    0.15 
   4 -12  -4    0.54    0.17 
   3 -12  -4    1.17    0.20 
   3 -12  -4    0.70    0.18 
   2 -12  -4    1.11    0.20 
   2 -12  -4    0.52    0.17 
   1 -12  -4    1.28    0.21 
   0 -12  -4    0.44    0.15 
  -1 -12  -4    0.44    0.15 
  -2 -12  -4    0.48    0.16 
  -3 -12  -4    0.40    0.15 
  -4 -12  -4   -0.14    0.11 
  -5 -12  -4    0.40    0.17 
  -6 -12  -4    0.20    0.17 
  -7 -12  -4    0.19    0.15 
  -8 -12  -4   -0.02    0.14 
  -9 -12  -4    0.38    0.18 
   8 -13  -4    0.09    0.17 
   7 -13  -4    0.39    0.19 
   6 -13  -4    0.11    0.15 
   5 -13  -4    0.15    0.14 
   4 -13  -4    0.12    0.13 
   3 -13  -4    0.26    0.13 
   3 -13  -4    0.25    0.15 
   2 -13  -4    0.24    0.14 
   1 -13  -4    0.22    0.13 
   0 -13  -4   -0.07    0.11 
  -1 -13  -4    0.07    0.14 
  -2 -13  -4    0.64    0.19 
  -3 -13  -4    1.34    0.25 
  -4 -13  -4    0.18    0.15 
  -5 -13  -4    0.06    0.16 
  -6 -13  -4    0.62    0.21 
  -7 -13  -4    0.01    0.17 
   6 -14  -4    0.09    0.17 
   5 -14  -4    0.14    0.17 
   3 -14  -4    0.35    0.17 
   2 -14  -4    0.86    0.20 
   1 -14  -4    0.22    0.16 
   0 -14  -4   -0.05    0.14 
  -1 -14  -4   -0.15    0.11 
  -2 -14  -4   -0.01    0.14 
  -3 -14  -4    0.12    0.16 
  -4 -14  -4    0.43    0.20 
  -5 -14  -4   -0.11    0.16 
   2 -15  -4    0.09    0.17 
   1 -15  -4   -0.13    0.15 
   0 -15  -4   -0.14    0.16 
  -1 -15  -4   -0.22    0.16 
  -2 -15  -4   -0.03    0.18 
  -3 -15   5   -0.08    0.18 
  -2 -15   5    0.59    0.24 
  -1 -15   5    0.31    0.22 
   0 -15   5    0.16    0.20 
   1 -15   5   -0.04    0.17 
  -6 -14   5    0.01    0.18 
  -5 -14   5    0.12    0.16 
  -4 -14   5    0.16    0.17 
  -3 -14   5    0.02    0.16 
  -2 -14   5   -0.13    0.13 
  -1 -14   5   -0.05    0.16 
   0 -14   5   -0.12    0.14 
   1 -14   5    0.08    0.15 
   2 -14   5    0.18    0.16 
   3 -14   5    0.57    0.22 
   4 -14   5    0.49    0.22 
   4 -14   5    0.27    0.18 
   5 -14   5   -0.03    0.16 
   5 -14   5    0.01    0.17 
  -8 -13   5    0.11    0.15 
  -7 -13   5    0.14    0.16 
  -6 -13   5    0.07    0.14 
  -5 -13   5    0.46    0.18 
  -4 -13   5    0.24    0.15 
  -3 -13   5   -0.15    0.11 
  -2 -13   5   -0.06    0.13 
  -1 -13   5    0.12    0.14 
   0 -13   5   -0.15    0.12 
   1 -13   5    0.18    0.13 
   2 -13   5   -0.01    0.13 
   3 -13   5    0.03    0.12 
   3 -13   5   -0.06    0.11 
   4 -13   5    0.14    0.15 
   4 -13   5   -0.11    0.12 
   5 -13   5   -0.05    0.15 
   5 -13   5    0.02    0.12 
   6 -13   5    0.06    0.16 
   6 -13   5   -0.14    0.13 
   7 -13   5   -0.06    0.17 
  10  12  -5    0.24    0.20 
 -10 -12   5    0.19    0.17 
   9  12  -5    0.00    0.18 
  -9 -12   5    0.16    0.17 
  -8 -12   5    0.07    0.14 
  -7 -12   5   -0.05    0.13 
  -6 -12   5   -0.13    0.11 
  -5 -12   5    0.46    0.17 
  -4 -12   5    0.36    0.15 
  -3 -12   5   -0.11    0.10 
  -2 -12   5   -0.06    0.11 
  -1 -12   5    0.29    0.15 
   0 -12   5    0.59    0.17 
   1 -12   5    0.10    0.14 
   1 -12   5    0.02    0.10 
   2 -12   5    0.12    0.12 
   2 -12   5    0.06    0.12 
   3 -12   5    0.98    0.21 
   3 -12   5    1.17    0.22 
   4 -12   5    1.20    0.23 
   4 -12   5    0.66    0.20 
   5 -12   5    0.14    0.16 
   5 -12   5    0.02    0.12 
   6 -12   5    0.04    0.15 
   6 -12   5    0.17    0.13 
   7 -12   5    0.16    0.16 
   7 -12   5    0.28    0.17 
   8 -12   5    0.09    0.17 
  11  11  -5    0.04    0.19 
 -11 -11   5    0.14    0.16 
  10  11  -5    0.10    0.17 
 -10 -11   5    0.10    0.14 
   9  11  -5    0.60    0.20 
  -9 -11   5    0.70    0.20 
   8  11  -5    0.28    0.15 
  -8 -11   5    0.34    0.16 
   7  11  -5   -0.06    0.12 
  -7 -11   5   -0.10    0.11 
   6  11  -5    0.09    0.13 
  -6 -11   5    0.23    0.13 
  -5 -11   5    0.00    0.12 
  -4 -11   5    0.11    0.12 
  -3 -11   5   -0.13    0.09 
  -2 -11   5   -0.07    0.10 
  -1 -11   5    0.06    0.10 
   0 -11   5    0.56    0.15 
   0 -11   5    0.64    0.18 
   1 -11   5    0.50    0.15 
   1 -11   5    0.30    0.13 
   2 -11   5    0.08    0.12 
   2 -11   5    0.06    0.12 
   3 -11   5    0.24    0.13 
   3 -11   5    0.18    0.14 
   4 -11   5    0.19    0.13 
   4 -11   5    0.21    0.14 
   5 -11   5    0.24    0.16 
   5 -11   5    0.05    0.12 
   6 -11   5    0.09    0.14 
   6 -11   5    0.05    0.11 
   7 -11   5    0.05    0.14 
   7 -11   5    0.05    0.12 
   8 -11   5   -0.02    0.15 
   9 -11   5    0.26    0.18 
  10 -11   5    0.03    0.18 
  12  10  -5    0.39    0.21 
 -12 -10   5    0.80    0.22 
  11  10  -5    0.07    0.16 
 -11 -10   5    0.07    0.14 
  10  10  -5    0.24    0.16 
 -10 -10   5    0.02    0.12 
   9  10  -5   -0.19    0.11 
  -9 -10   5   -0.07    0.11 
   8  10  -5    0.19    0.13 
  -8 -10   5    0.12    0.13 
   7  10  -5    1.01    0.18 
  -7 -10   5    1.40    0.23 
   6  10  -5    0.28    0.12 
  -6 -10   5    0.29    0.13 
   5  10  -5    1.19    0.17 
  -5 -10   5    1.37    0.23 
   4  10  -5    0.91    0.13 
  -4 -10   5    0.63    0.17 
  -3 -10   5    0.97    0.20 
  -2 -10   5    1.21    0.21 
  -1 -10   5    3.52    0.32 
   0 -10   5    0.70    0.14 
   0 -10   5    0.33    0.13 
   1 -10   5    0.64    0.16 
   1 -10   5    0.54    0.15 
   2 -10   5    0.55    0.16 
   2 -10   5    0.88    0.18 
   3 -10   5    0.77    0.17 
   3 -10   5    1.07    0.20 
   4 -10   5    1.62    0.24 
   4 -10   5    1.56    0.22 
   5 -10   5    0.24    0.12 
   5 -10   5   -0.05    0.11 
   6 -10   5    1.25    0.21 
   6 -10   5    1.65    0.26 
  -7  10  -5    0.01    0.10 
   7 -10   5    0.25    0.15 
  -8  10  -5    0.48    0.16 
   8 -10   5    0.22    0.16 
   9 -10   5    0.12    0.16 
  10 -10   5    0.26    0.19 
  11 -10   5    0.02    0.20 
  13   9  -5   -0.19    0.18 
  12   9  -5   -0.08    0.16 
 -12  -9   5    0.16    0.15 
  11   9  -5   -0.03    0.13 
 -11  -9   5   -0.07    0.11 
  10   9  -5    0.72    0.19 
 -10  -9   5    0.82    0.20 
   9   9  -5    0.87    0.19 
  -9  -9   5    1.40    0.23 
   8   9  -5    0.73    0.16 
  -8  -9   5    0.71    0.17 
   7   9  -5    0.14    0.11 
  -7  -9   5    0.23    0.13 
   6   9  -5    0.14    0.11 
  -6  -9   5    0.01    0.11 
   5   9  -5    1.54    0.18 
  -5  -9   5    1.71    0.23 
   4   9  -5    0.19    0.10 
  -4  -9   5    0.21    0.13 
   3   9  -5    2.11    0.18 
  -3  -9   5    2.04    0.25 
  -2  -9   5   14.38    0.61 
  -2  -9   5   14.63    0.68 
  -1  -9   5    0.61    0.16 
   0  -9   5    2.68    0.22 
   0  -9   5    3.33    0.29 
   1  -9   5    2.26    0.22 
   1  -9   5    2.10    0.24 
   2  -9   5    0.07    0.10 
   2  -9   5   -0.01    0.11 
   3  -9   5   -0.01    0.10 
   3  -9   5    0.11    0.11 
   4  -9   5    0.03    0.09 
   4  -9   5   -0.07    0.10 
   5  -9   5    0.21    0.12 
   5  -9   5    0.12    0.12 
   6  -9   5    0.55    0.17 
   6  -9   5    0.63    0.15 
  -7   9  -5   -0.08    0.10 
   7  -9   5   -0.07    0.11 
  -8   9  -5    0.62    0.16 
   8  -9   5    0.58    0.18 
   9  -9   5    0.16    0.15 
  10  -9   5   -0.07    0.15 
  11  -9   5    0.43    0.22 
  14   8  -5   -0.06    0.17 
  13   8  -5   -0.02    0.17 
  12   8  -5    0.13    0.16 
 -12  -8   5    0.33    0.15 
  11   8  -5    0.14    0.13 
 -11  -8   5   -0.08    0.10 
  10   8  -5    0.07    0.12 
 -10  -8   5    0.13    0.11 
   9   8  -5    0.12    0.12 
  -9  -8   5    0.21    0.12 
   8   8  -5    0.25    0.13 
  -8  -8   5    0.11    0.10 
   7   8  -5   -0.03    0.10 
  -7  -8   5   -0.20    0.08 
   6   8  -5    0.24    0.11 
  -6  -8   5    0.06    0.10 
   5   8  -5    2.45    0.21 
  -5  -8   5    2.55    0.26 
   4   8  -5    1.06    0.14 
  -4  -8   5    1.08    0.18 
   3   8  -5    0.13    0.08 
  -3  -8   5   -0.02    0.09 
   2   8  -5    0.01    0.07 
  -2  -8   5    0.04    0.09 
  -2  -8   5    0.00    0.07 
   1   8  -5    0.83    0.09 
  -1  -8   5    0.94    0.16 
   0  -8   5    3.79    0.25 
   0  -8   5    3.91    0.28 
   1  -8   5    1.37    0.18 
   1  -8   5    1.70    0.20 
   2  -8   5    1.34    0.18 
   2  -8   5    1.32    0.19 
   3  -8   5    0.96    0.18 
   3  -8   5    1.25    0.19 
   4  -8   5    0.14    0.10 
   4  -8   5    0.10    0.12 
   5  -8   5    1.89    0.22 
   5  -8   5    1.99    0.24 
   6  -8   5    3.44    0.32 
   6  -8   5    3.08    0.28 
  -7   8  -5    0.93    0.16 
   7  -8   5    0.75    0.19 
  -8   8  -5    0.38    0.13 
   8  -8   5    0.27    0.14 
  -9   8  -5   -0.18    0.10 
   9  -8   5    0.01    0.13 
  10  -8   5    0.11    0.17 
  11  -8   5   -0.22    0.14 
  12  -8   5   -0.07    0.19 
  14   7  -5    0.39    0.22 
  13   7  -5    0.10    0.17 
  12   7  -5    0.27    0.17 
 -12  -7   5    0.39    0.16 
  11   7  -5    0.28    0.16 
 -11  -7   5    0.11    0.12 
  10   7  -5   -0.15    0.10 
 -10  -7   5    0.04    0.10 
   9   7  -5    0.65    0.16 
  -9  -7   5    0.77    0.17 
   8   7  -5    0.31    0.13 
  -8  -7   5    0.24    0.12 
   7   7  -5    0.75    0.15 
  -7  -7   5    0.78    0.16 
   6   7  -5    0.05    0.09 
  -6  -7   5    0.12    0.10 
   5   7  -5    1.80    0.18 
  -5  -7   5    1.78    0.21 
   4   7  -5    2.66    0.19 
  -4  -7   5    2.52    0.23 
   3   7  -5    0.15    0.07 
  -3  -7   5    0.10    0.08 
   2   7  -5    2.73    0.17 
  -2  -7   5    2.51    0.18 
  -2  -7   5    2.76    0.22 
   1   7  -5    0.61    0.08 
  -1  -7   5    0.60    0.13 
  -1  -7   5    0.51    0.10 
   0  -7   5    1.76    0.17 
   0  -7   5    1.96    0.19 
   1  -7   5    2.97    0.23 
   1  -7   5    3.36    0.24 
   2  -7   5    4.60    0.29 
   2  -7   5    4.38    0.29 
   3  -7   5    0.02    0.08 
   3  -7   5    0.17    0.08 
   4  -7   5    0.48    0.13 
   4  -7   5    0.30    0.10 
   5  -7   5    0.31    0.12 
   5  -7   5    0.11    0.09 
  -6   7  -5    1.96    0.20 
   6  -7   5    1.70    0.23 
  -7   7  -5    1.55    0.19 
   7  -7   5    1.11    0.20 
  -8   7  -5    1.84    0.20 
   8  -7   5    1.85    0.25 
  -9   7  -5    0.19    0.10 
   9  -7   5    0.19    0.14 
  10  -7   5   -0.15    0.12 
  11  -7   5    0.44    0.19 
  12  -7   5    0.20    0.20 
  13  -7   5   -0.03    0.19 
  15   6  -5    0.16    0.19 
  14   6  -5    0.02    0.17 
  13   6  -5    0.40    0.19 
  12   6  -5    0.07    0.14 
  11   6  -5    0.11    0.12 
 -11  -6   5   -0.07    0.09 
  10   6  -5    0.36    0.14 
 -10  -6   5    0.18    0.12 
   9   6  -5    0.17    0.13 
  -9  -6   5    0.20    0.10 
   8   6  -5    0.26    0.12 
  -8  -6   5    0.50    0.14 
   7   6  -5   13.08    0.57 
  -7  -6   5   12.50    0.58 
   6   6  -5    0.54    0.12 
  -6  -6   5    0.48    0.12 
   5   6  -5    0.72    0.12 
  -5  -6   5    0.54    0.12 
   4   6  -5    1.75    0.15 
  -4  -6   5    1.87    0.18 
   3   6  -5    1.66    0.14 
  -3  -6   5    2.06    0.19 
   2   6  -5    9.73    0.38 
  -2  -6   5    9.63    0.45 
  -2  -6   5    9.64    0.41 
   1   6  -5    0.83    0.08 
  -1  -6   5    0.99    0.12 
  -1  -6   5    0.95    0.14 
   0   6  -5    0.03    0.03 
   0  -6   5   -0.06    0.06 
   0  -6   5    0.04    0.05 
   1  -6   5   38.45    1.39 
   1  -6   5   39.10    1.42 
   2  -6   5    1.49    0.17 
   2  -6   5    1.43    0.16 
   3  -6   5    0.30    0.09 
   3  -6   5    0.40    0.11 
   4  -6   5    0.66    0.14 
   4  -6   5    0.69    0.12 
   5  -6   5    0.01    0.09 
   5  -6   5    0.11    0.07 
  -6   6  -5    2.61    0.20 
   6  -6   5    2.46    0.25 
  -7   6  -5    2.54    0.22 
   7  -6   5    2.47    0.27 
  -8   6  -5    0.83    0.15 
   8  -6   5    0.86    0.19 
  -9   6  -5    0.15    0.10 
   9  -6   5    0.15    0.13 
  10  -6   5   -0.12    0.11 
  11  -6   5    0.54    0.18 
  12  -6   5    0.08    0.18 
  13  -6   5    0.20    0.20 
  15   5  -5   -0.03    0.16 
  14   5  -5   -0.07    0.14 
  13   5  -5    0.03    0.15 
  12   5  -5    0.03    0.13 
  11   5  -5    0.75    0.17 
 -11  -5   5    0.83    0.17 
  10   5  -5    0.14    0.12 
 -10  -5   5   -0.07    0.09 
   9   5  -5    4.59    0.31 
  -9  -5   5    3.74    0.27 
   8   5  -5    1.08    0.17 
  -8  -5   5    1.31    0.16 
   7   5  -5    0.06    0.08 
  -7  -5   5    0.02    0.06 
   6   5  -5    1.80    0.09 
   6   5  -5    1.33    0.15 
  -6  -5   5    1.66    0.17 
   5   5  -5    1.75    0.16 
   5   5  -5    1.81    0.10 
  -5  -5   5    1.64    0.17 
   4   5  -5    0.63    0.09 
  -4  -5   5    0.49    0.10 
   3   5  -5    1.18    0.11 
  -3  -5   5    1.10    0.14 
   2   5  -5    1.68    0.11 
  -2  -5   5    1.31    0.14 
   1   5  -5   13.42    0.48 
  -1  -5   5   13.98    0.57 
  -1  -5   5   13.93    0.55 
   0   5  -5   46.05    1.48 
   0  -5   5   45.83    1.61 
   0  -5   5   44.40    1.58 
   1  -5   5    5.11    0.28 
   1  -5   5    4.83    0.27 
   2  -5   5    2.92    0.21 
   2  -5   5    2.93    0.20 
   3  -5   5    0.28    0.09 
   3  -5   5    0.26    0.09 
   4  -5   5   25.48    0.95 
   4  -5   5   24.19    0.98 
  -5   5  -5   10.96    0.48 
   5  -5   5   11.28    0.54 
  -6   5  -5    2.74    0.20 
   6  -5   5    2.64    0.25 
  -7   5  -5    5.33    0.30 
   7  -5   5    5.39    0.36 
  -8   5  -5    1.82    0.18 
   8  -5   5    1.69    0.24 
  -9   5  -5    0.14    0.10 
   9  -5   5    0.21    0.13 
 -10   5  -5    0.02    0.10 
  10  -5   5    0.07    0.11 
  11  -5   5    0.38    0.16 
  12  -5   5    0.15    0.16 
  13  -5   5    0.12    0.17 
  14  -5   5   -0.08    0.20 
  15   4  -5    0.06    0.15 
  14   4  -5    0.22    0.17 
  13   4  -5    0.96    0.22 
  12   4  -5    0.17    0.13 
  11   4  -5    0.33    0.13 
  10   4  -5    0.03    0.10 
 -10  -4   5    0.11    0.08 
   9   4  -5    0.94    0.17 
  -9  -4   5    1.08    0.15 
   8   4  -5    0.01    0.10 
  -8  -4   5    0.13    0.08 
   7   4  -5    0.80    0.13 
   7   4  -5    0.77    0.07 
  -7  -4   5    0.69    0.12 
   6   4  -5    1.74    0.10 
   6   4  -5    1.93    0.17 
  -6  -4   5    1.74    0.16 
   5   4  -5    0.59    0.10 
   5   4  -5    0.84    0.07 
  -5  -4   5    0.50    0.10 
   4   4  -5   33.85    1.17 
  -4  -4   5   33.73    1.19 
   3   4  -5   19.84    0.70 
  -3  -4   5   19.51    0.74 
   2   4  -5   37.45    1.25 
  -2  -4   5   37.79    1.31 
   1   4  -5    0.67    0.06 
  -1  -4   5    0.45    0.09 
  -1  -4   5    0.50    0.08 
   0   4  -5   14.22    0.47 
   0  -4   5   13.96    0.56 
   0  -4   5   13.48    0.56 
   1  -4   5    3.57    0.22 
   1  -4   5    4.12    0.23 
   2  -4   5    2.01    0.16 
   2  -4   5    2.24    0.16 
   3  -4   5    2.85    0.22 
   3  -4   5    3.39    0.21 
  -4   4  -5    5.57    0.28 
   4  -4   5    5.30    0.32 
  -5   4  -5    0.15    0.08 
   5  -4   5    0.07    0.08 
  -6   4  -5    0.73    0.12 
   6  -4   5    0.73    0.14 
   6  -4   5    0.83    0.09 
  -7   4  -5    4.28    0.26 
   7  -4   5    4.47    0.24 
   7  -4   5    4.70    0.32 
  -8   4  -5    0.08    0.08 
   8  -4   5    0.10    0.11 
  -9   4  -5    0.26    0.10 
   9  -4   5   -0.08    0.11 
 -10   4  -5    1.17    0.17 
  10  -4   5    1.13    0.21 
  11  -4   5   -0.09    0.12 
  12  -4   5    0.73    0.20 
  13  -4   5    0.57    0.20 
  14  -4   5   -0.17    0.16 
  16   3  -5   -0.09    0.15 
  15   3  -5   -0.03    0.16 
  14   3  -5   -0.18    0.11 
  13   3  -5    0.09    0.12 
  12   3  -5    0.18    0.13 
  11   3  -5    1.41    0.21 
  10   3  -5   -0.03    0.11 
 -10  -3   5    0.07    0.08 
   9   3  -5    0.40    0.08 
   9   3  -5    0.37    0.14 
  -9  -3   5    0.31    0.10 
   8   3  -5    0.16    0.11 
   8   3  -5    0.34    0.07 
  -8  -3   5    0.05    0.04 
   7   3  -5    3.19    0.16 
   7   3  -5    3.29    0.22 
  -7  -3   5    2.44    0.18 
   6   3  -5    9.49    0.37 
   6   3  -5    9.37    0.41 
  -6  -3   5    9.13    0.40 
   5   3  -5    0.02    0.03 
   5   3  -5   -0.02    0.05 
  -5  -3   5   -0.02    0.05 
   4   3  -5    1.17    0.11 
   4   3  -5    1.19    0.09 
  -4  -3   5    1.22    0.12 
   3   3  -5   15.71    0.57 
  -3  -3   5   15.71    0.59 
   2   3  -5   19.50    0.68 
  -2  -3   5   19.89    0.72 
  -1  -3   5   13.74    0.53 
   0  -3   5   53.04    1.84 
   0  -3   5   53.33    1.80 
   1  -3   5    0.15    0.06 
   1  -3   5    0.10    0.05 
   2  -3   5    0.59    0.10 
   2  -3   5    0.60    0.10 
  -3   3  -5    0.06    0.05 
   3  -3   5   -0.01    0.05 
  -4   3  -5    5.17    0.26 
   4  -3   5    4.96    0.29 
  -5   3  -5   22.67    0.84 
   5  -3   5   21.73    0.79 
   5  -3   5   23.86    0.91 
  -6   3  -5    2.01    0.16 
   6  -3   5    2.53    0.20 
   6  -3   5    2.08    0.16 
  -7   3  -5    2.29    0.18 
   7  -3   5    1.80    0.21 
   7  -3   5    2.46    0.18 
  -8   3  -5    0.68    0.12 
   8  -3   5    0.54    0.12 
   8  -3   5    0.76    0.16 
  -9   3  -5    0.54    0.13 
   9  -3   5    1.03    0.19 
   9  -3   5    0.60    0.12 
 -10   3  -5    0.98    0.16 
  10  -3   5    0.98    0.20 
 -11   3  -5    0.03    0.10 
  11  -3   5    0.07    0.12 
  12  -3   5    0.09    0.14 
  13  -3   5   -0.23    0.12 
  14  -3   5    0.04    0.17 
  16   2  -5    0.29    0.18 
  15   2  -5    0.33    0.17 
  14   2  -5    0.23    0.15 
  13   2  -5    0.12    0.13 
  12   2  -5    0.25    0.13 
  11   2  -5    0.09    0.11 
  10   2  -5    0.36    0.14 
  10   2  -5    0.19    0.09 
 -10  -2   5    0.17    0.08 
   9   2  -5    0.38    0.09 
   9   2  -5    0.17    0.11 
  -9  -2   5    0.39    0.09 
   8   2  -5    0.45    0.12 
   8   2  -5    0.62    0.09 
  -8  -2   5    0.63    0.10 
   7   2  -5    0.51    0.07 
   7   2  -5    0.56    0.11 
  -7  -2   5    0.43    0.08 
   6   2  -5    9.76    0.43 
   6   2  -5   10.33    0.40 
  -6  -2   5    9.81    0.40 
   5   2  -5    4.57    0.24 
   5   2  -5    4.40    0.20 
   4   2  -5   45.90    1.51 
   4   2  -5   46.18    1.54 
  -4  -2   5   42.48    1.50 
  -3  -2   5  357.59   11.46 
  -2  -2   5   14.20    0.53 
  -1  -2   5    0.46    0.07 
   0  -2   5  214.49    6.91 
   1  -2   5   41.41    1.42 
   1  -2   5   41.75    1.46 
  -2   2  -5   18.47    0.67 
   2  -2   5   18.41    0.71 
  -3   2  -5    4.21    0.21 
   3  -2   5    3.96    0.23 
  -4   2  -5    6.97    0.31 
   4  -2   5    7.19    0.35 
  -5   2  -5    1.84    0.15 
   5  -2   5    1.88    0.14 
   5  -2   5    2.04    0.18 
  -6   2  -5    0.44    0.09 
   6  -2   5    0.47    0.11 
  -7   2  -5    0.10    0.07 
   7  -2   5    0.24    0.08 
   7  -2   5    0.38    0.10 
  -8   2  -5    0.45    0.11 
   8  -2   5    0.40    0.14 
   8  -2   5    0.32    0.11 
  -9   2  -5    0.15    0.09 
   9  -2   5   -0.11    0.09 
   9  -2   5    0.03    0.10 
 -10   2  -5    0.21    0.11 
  10  -2   5    0.36    0.14 
  10  -2   5    0.30    0.13 
 -11   2  -5    0.42    0.13 
  11  -2   5    0.27    0.14 
  11  -2   5    0.43    0.15 
  12  -2   5    0.31    0.14 
  13  -2   5    0.18    0.15 
  16   1  -5    0.08    0.17 
  15   1  -5    0.38    0.18 
  14   1  -5    0.88    0.21 
  13   1  -5    0.04    0.11 
  12   1  -5    1.06    0.19 
  11   1  -5    4.04    0.26 
  11   1  -5    3.63    0.29 
  10   1  -5    0.78    0.13 
  10   1  -5    0.69    0.16 
   9   1  -5    0.95    0.13 
   9   1  -5    0.91    0.16 
  -9  -1   5    0.93    0.10 
   8   1  -5    5.66    0.32 
   8   1  -5    5.95    0.30 
  -8  -1   5    6.61    0.28 
   7   1  -5    6.77    0.34 
   7   1  -5    6.93    0.31 
  -7  -1   5    7.08    0.29 
   6   1  -5   40.05    1.42 
   6   1  -5   38.43    1.40 
  -6  -1   5   43.01    1.36 
   5   1  -5   47.70    1.64 
  -5  -1   5   47.85    1.58 
   4   1  -5    0.99    0.09 
  -4  -1   5    1.00    0.08 
  -3  -1   5    6.49    0.26 
  -2  -1   5   62.41    2.05 
  -1  -1   5    1.11    0.09 
   0   1  -5   86.03    2.80 
  -1   1  -5  123.70    4.00 
  -2   1  -5    9.06    0.37 
   2  -1   5    9.20    0.39 
  -3   1  -5    0.36    0.07 
   3  -1   5    0.46    0.09 
  -4   1  -5    1.01    0.11 
   4  -1   5    1.17    0.13 
   4  -1   5    1.10    0.11 
  -5   1  -5    3.82    0.21 
   5  -1   5    3.77    0.23 
   5  -1   5    3.59    0.21 
  -6   1  -5    0.85    0.12 
   6  -1   5    0.97    0.13 
   6  -1   5    0.84    0.12 
  -7   1  -5    0.05    0.07 
   7  -1   5   -0.04    0.08 
   7  -1   5    0.04    0.07 
  -8   1  -5    1.69    0.17 
   8  -1   5    1.60    0.18 
   8  -1   5    1.47    0.18 
  -9   1  -5   -0.02    0.08 
   9  -1   5   -0.01    0.09 
   9  -1   5    0.12    0.10 
 -10   1  -5    0.23    0.12 
  10  -1   5   -0.04    0.11 
  10  -1   5    0.23    0.12 
 -11   1  -5    0.60    0.15 
  11  -1   5    0.49    0.17 
  11  -1   5    0.45    0.15 
 -12   1  -5    0.24    0.13 
  12  -1   5    0.43    0.16 
  12  -1   5    0.24    0.14 
  13  -1   5    0.02    0.14 
  16   0  -5   -0.16    0.15 
  15   0  -5    0.16    0.15 
  14   0  -5    0.05    0.13 
  13   0  -5   -0.05    0.12 
  12   0  -5    0.06    0.10 
  12   0  -5    0.01    0.10 
  11   0  -5   -0.03    0.08 
  11   0  -5   -0.04    0.09 
  10   0  -5   -0.14    0.09 
  10   0  -5    0.13    0.08 
   9   0  -5    0.01    0.09 
   9   0  -5   -0.02    0.07 
   8   0  -5    0.03    0.06 
   8   0  -5   -0.09    0.06 
  -8   0   5    0.01    0.04 
   7   0  -5    0.13    0.07 
   7   0  -5    0.10    0.07 
  -7   0   5    0.00    0.03 
   6   0  -5    0.01    0.06 
  -6   0   5    0.01    0.03 
   5   0  -5    0.05    0.05 
  -5   0   5    0.12    0.03 
   4   0  -5   -0.01    0.03 
  -4   0   5    0.01    0.02 
   3   0  -5    0.01    0.03 
  -3   0   5    0.06    0.03 
   2   0  -5   -0.04    0.02 
   1   0  -5   -0.06    0.02 
   0   0  -5   -0.03    0.02 
  -1   0  -5    0.05    0.03 
  -2   0  -5    0.06    0.04 
  -3   0  -5   -0.05    0.03 
   3   0   5    0.03    0.04 
  -4   0  -5    0.03    0.05 
   4   0   5    0.01    0.05 
   4   0   5    0.04    0.06 
  -5   0  -5    0.03    0.06 
   5   0   5   -0.07    0.05 
   5   0   5   -0.07    0.07 
  -6   0  -5    0.04    0.05 
   6   0   5    0.01    0.07 
   6   0   5    0.03    0.06 
  -7   0  -5    0.02    0.06 
   7   0   5    0.22    0.10 
   7   0   5   -0.05    0.05 
  -8   0  -5   -0.04    0.07 
   8   0   5   -0.03    0.08 
   8   0   5    0.00    0.06 
  -9   0  -5   -0.08    0.08 
   9   0   5   -0.10    0.11 
   9   0   5    0.10    0.07 
 -10   0  -5    0.07    0.09 
  10   0   5    0.02    0.12 
  10   0   5    0.10    0.10 
 -11   0  -5   -0.08    0.09 
  11   0   5    0.06    0.10 
  11   0   5    0.03    0.12 
 -12   0  -5    0.04    0.11 
  12   0   5    0.15    0.14 
  13   0   5   -0.03    0.14 
  14   0   5    0.09    0.16 
  16  -1  -5   -0.10    0.15 
  15  -1  -5    0.48    0.17 
  14  -1  -5    0.84    0.19 
  13  -1  -5    0.02    0.12 
  13  -1  -5    0.13    0.12 
  12  -1  -5    1.29    0.19 
  12  -1  -5    1.18    0.20 
  11  -1  -5    4.47    0.30 
  11  -1  -5    3.51    0.28 
  10  -1  -5    0.58    0.13 
  10  -1  -5    0.60    0.14 
   9  -1  -5    1.10    0.15 
   9  -1  -5    0.95    0.16 
   8  -1  -5    6.32    0.32 
   8  -1  -5    5.94    0.32 
   7  -1  -5    6.97    0.34 
   6  -1  -5   38.45    1.37 
   5  -1  -5   47.23    1.65 
   4  -1  -5    0.94    0.10 
   3  -1  -5   12.87    0.42 
   3  -1  -5   12.23    0.48 
   2  -1  -5   62.05    1.99 
   2  -1  -5   60.88    2.09 
   1  -1  -5    1.47    0.09 
   0  -1  -5   94.72    3.07 
  -1  -1  -5  127.09    4.11 
  -2  -1  -5    9.51    0.38 
  -3  -1  -5    0.39    0.07 
  -4  -1  -5    1.10    0.12 
  -5  -1  -5    3.59    0.22 
   5   1   5    3.72    0.23 
   5   1   5    3.56    0.22 
  -6  -1  -5    0.69    0.12 
   6   1   5    0.78    0.13 
   6   1   5    0.90    0.12 
  -7  -1  -5   -0.01    0.07 
   7   1   5    0.06    0.06 
   7   1   5    0.05    0.09 
  -8  -1  -5    1.85    0.18 
   8   1   5    1.60    0.17 
   8   1   5    1.70    0.20 
  -9  -1  -5   -0.09    0.08 
   9   1   5   -0.06    0.06 
   9   1   5    0.19    0.13 
 -10  -1  -5    0.08    0.10 
  10   1   5    0.09    0.08 
  10   1   5    0.19    0.13 
 -11  -1  -5    0.58    0.15 
  11   1   5    0.62    0.17 
 -12  -1  -5    0.04    0.11 
  12   1   5    0.12    0.14 
  13   1   5   -0.04    0.14 
  14   1   5   -0.08    0.14 
  15   1   5    0.19    0.18 
  16  -2  -5    0.62    0.20 
  15  -2  -5    0.30    0.16 
  14  -2  -5    0.24    0.16 
  14  -2  -5    0.47    0.16 
  13  -2  -5    0.41    0.15 
  13  -2  -5    0.23    0.14 
  12  -2  -5    0.36    0.14 
  12  -2  -5    0.38    0.13 
  11  -2  -5   -0.04    0.10 
  11  -2  -5   -0.01    0.10 
  10  -2  -5    0.23    0.12 
  10  -2  -5    0.27    0.12 
   9  -2  -5    0.25    0.10 
   9  -2  -5    0.26    0.10 
   8  -2  -5    0.67    0.13 
   7  -2  -5    0.37    0.10 
   6  -2  -5   10.49    0.46 
   5  -2  -5    4.39    0.24 
   4  -2  -5   46.94    1.64 
   3  -2  -5  350.06   11.64 
   3  -2  -5  351.94   11.23 
   2  -2  -5   13.29    0.52 
   2  -2  -5   13.86    0.47 
   1  -2  -5    0.49    0.05 
   1  -2  -5    0.44    0.06 
   0  -2  -5  212.51    6.82 
  -1  -2  -5   41.59    1.40 
  -2  -2  -5   19.13    0.69 
  -3  -2  -5    4.35    0.22 
  -4  -2  -5    6.47    0.30 
   4   2   5    6.05    0.31 
  -5  -2  -5    1.98    0.17 
   5   2   5    2.27    0.18 
  -6  -2  -5    0.46    0.10 
   6   2   5    0.51    0.12 
  -7  -2  -5    0.16    0.08 
   7   2   5    0.05    0.10 
  -8  -2  -5    0.38    0.12 
   8   2   5    0.49    0.14 
  -9  -2  -5    0.07    0.09 
   9   2   5    0.10    0.07 
   9   2   5    0.18    0.13 
 -10  -2  -5    0.31    0.13 
  10   2   5    0.19    0.14 
 -11  -2  -5    0.21    0.12 
  11   2   5    0.57    0.17 
 -12  -2  -5   -0.05    0.09 
  12   2   5    0.23    0.16 
 -13  -2  -5    0.10    0.14 
  13   2   5    0.10    0.15 
  14   2   5    0.08    0.16 
  16  -3  -5   -0.09    0.16 
  15  -3  -5    0.33    0.18 
  15  -3  -5    0.30    0.15 
  14  -3  -5    0.07    0.15 
  14  -3  -5   -0.14    0.11 
  13  -3  -5    0.06    0.13 
  13  -3  -5    0.07    0.12 
  12  -3  -5    0.17    0.11 
  12  -3  -5    0.02    0.11 
  11  -3  -5    1.51    0.22 
  11  -3  -5    1.79    0.21 
  10  -3  -5    0.03    0.10 
  10  -3  -5   -0.08    0.11 
   9  -3  -5    0.20    0.09 
   9  -3  -5    0.48    0.14 
   8  -3  -5    0.32    0.11 
   7  -3  -5    3.34    0.23 
   6  -3  -5    8.47    0.40 
   5  -3  -5    0.07    0.07 
   4  -3  -5    1.07    0.06 
   4  -3  -5    1.33    0.13 
   3  -3  -5   16.07    0.55 
   3  -3  -5   16.06    0.63 
   2  -3  -5   19.54    0.67 
   2  -3  -5   18.92    0.72 
   1  -3  -5   14.00    0.50 
   1  -3  -5   13.84    0.53 
   0  -3  -5   52.01    1.75 
   0  -3  -5   53.45    1.81 
  -1  -3  -5    0.06    0.04 
  -1  -3  -5    0.06    0.04 
  -2  -3  -5    0.60    0.09 
  -3  -3  -5    0.05    0.05 
  -4  -3  -5    4.44    0.25 
  -5  -3  -5   21.85    0.84 
   5   3   5   22.30    0.85 
  -6  -3  -5    2.13    0.19 
   6   3   5    2.09    0.21 
  -7  -3  -5    2.37    0.21 
   7   3   5    2.20    0.23 
  -8  -3  -5    0.57    0.14 
   8   3   5    0.55    0.15 
  -9  -3  -5    0.96    0.17 
   9   3   5    0.72    0.18 
 -10  -3  -5    0.82    0.17 
  10   3   5    1.03    0.20 
 -11  -3  -5   -0.15    0.09 
  11   3   5    0.04    0.13 
 -12  -3  -5    0.06    0.12 
  12   3   5    0.16    0.16 
 -13  -3  -5   -0.08    0.11 
  13   3   5    0.12    0.16 
  14   3   5    0.05    0.17 
  15  -4  -5   -0.02    0.16 
  14  -4  -5    0.71    0.18 
  14  -4  -5    0.72    0.21 
  13  -4  -5    1.12    0.20 
  13  -4  -5    1.30    0.24 
  12  -4  -5    0.07    0.12 
  12  -4  -5    0.07    0.12 
  11  -4  -5    0.20    0.13 
  11  -4  -5    0.28    0.12 
  10  -4  -5    0.09    0.12 
  10  -4  -5    0.11    0.11 
   9  -4  -5    1.05    0.19 
   8  -4  -5   -0.05    0.09 
   7  -4  -5    0.58    0.12 
   6  -4  -5    1.82    0.17 
  -6   4   5    1.52    0.08 
   5  -4  -5    0.72    0.12 
   5  -4  -5    0.80    0.06 
   4  -4  -5   32.48    1.18 
   4  -4  -5   31.79    1.07 
   3  -4  -5   19.27    0.75 
   3  -4  -5   19.52    0.68 
   2  -4  -5   38.95    1.33 
   2  -4  -5   39.95    1.40 
   1  -4  -5    0.63    0.09 
   1  -4  -5    0.56    0.08 
   0  -4  -5   15.08    0.56 
   0  -4  -5   14.52    0.56 
  -1  -4  -5    4.05    0.21 
  -1  -4  -5    3.52    0.19 
  -2  -4  -5    2.28    0.16 
  -3  -4  -5    3.51    0.21 
  -4  -4  -5    5.10    0.28 
  -5  -4  -5    0.23    0.09 
   5   4   5    0.33    0.12 
  -6  -4  -5    0.54    0.12 
   6   4   5    0.61    0.15 
  -7  -4  -5    3.94    0.27 
   7   4   5    4.15    0.30 
  -8  -4  -5    0.14    0.10 
   8   4   5   -0.01    0.11 
  -9  -4  -5    0.08    0.10 
   9   4   5   -0.01    0.13 
 -10  -4  -5    0.86    0.17 
  10   4   5    0.69    0.18 
 -11  -4  -5   -0.02    0.10 
  11   4   5    0.00    0.12 
 -12  -4  -5    0.71    0.17 
  12   4   5    0.74    0.20 
 -13  -4  -5    0.38    0.17 
  13   4   5    0.54    0.19 
  14   4   5    0.05    0.17 
  15  -5  -5   -0.20    0.16 
  14  -5  -5    0.37    0.18 
  13  -5  -5    0.23    0.15 
  13  -5  -5    0.21    0.15 
  12  -5  -5    0.22    0.14 
  12  -5  -5    0.02    0.11 
  11  -5  -5    0.83    0.16 
  11  -5  -5    0.60    0.17 
  10  -5  -5    0.08    0.11 
  10  -5  -5    0.08    0.10 
   9  -5  -5    3.86    0.30 
   8  -5  -5    1.21    0.19 
   7  -5  -5   -0.09    0.09 
   6  -5  -5    1.76    0.10 
   6  -5  -5    1.74    0.18 
   5  -5  -5    1.90    0.11 
   5  -5  -5    1.60    0.17 
   4  -5  -5    0.66    0.07 
   4  -5  -5    0.65    0.12 
   3  -5  -5    1.25    0.10 
   3  -5  -5    0.96    0.12 
   2  -5  -5    1.70    0.15 
   2  -5  -5    1.83    0.13 
   1  -5  -5   14.33    0.56 
   1  -5  -5   14.92    0.58 
   0  -5  -5   46.05    1.58 
   0  -5  -5   46.48    1.61 
  -1  -5  -5    2.94    0.17 
  -2  -5  -5    2.86    0.16 
  -2  -5  -5    2.62    0.18 
  -3  -5  -5    0.21    0.06 
  -3  -5  -5    0.34    0.09 
  -4  -5  -5   22.96    0.81 
  -4  -5  -5   21.75    0.86 
  -5  -5  -5   10.62    0.49 
  -6  -5  -5    2.66    0.24 
   6   5   5    2.88    0.26 
  -7  -5  -5    5.89    0.35 
   7   5   5    4.90    0.34 
  -8  -5  -5    1.62    0.21 
   8   5   5    1.45    0.22 
  -9  -5  -5    0.34    0.13 
   9   5   5    0.08    0.12 
 -10  -5  -5    0.21    0.12 
  10   5   5    0.07    0.13 
 -11  -5  -5    0.28    0.13 
  11   5   5    0.06    0.15 
 -12  -5  -5   -0.10    0.11 
  12   5   5    0.10    0.15 
 -13  -5  -5   -0.07    0.11 
  13   5   5   -0.12    0.13 
 -14  -5  -5   -0.09    0.16 
  14   5   5    0.25    0.20 
  15  -6  -5    0.16    0.21 
  14  -6  -5   -0.04    0.14 
  13  -6  -5    0.45    0.17 
  12  -6  -5    0.12    0.15 
  11  -6  -5    0.05    0.10 
  11  -6  -5   -0.05    0.11 
  10  -6  -5    0.23    0.14 
  10  -6  -5    0.59    0.13 
   9  -6  -5    0.14    0.12 
   8  -6  -5    0.39    0.14 
   7  -6  -5   12.54    0.60 
   6  -6  -5    0.43    0.07 
   6  -6  -5    0.45    0.13 
   5  -6  -5    0.85    0.09 
   5  -6  -5    0.41    0.11 
   4  -6  -5    2.13    0.19 
   4  -6  -5    1.75    0.13 
   3  -6  -5    1.58    0.12 
   3  -6  -5    1.41    0.15 
   2  -6  -5    8.73    0.41 
   2  -6  -5    9.57    0.40 
   1  -6  -5    0.79    0.11 
   1  -6  -5    0.99    0.12 
   0  -6  -5    0.10    0.06 
   0  -6  -5   -0.05    0.05 
  -1  -6  -5   41.41    1.46 
  -2  -6  -5    1.52    0.16 
  -2  -6  -5    1.48    0.12 
  -3  -6  -5    0.44    0.11 
  -3  -6  -5    0.46    0.08 
  -4  -6  -5    0.69    0.08 
  -4  -6  -5    0.52    0.12 
  -5  -6  -5    0.10    0.08 
  -6  -6  -5    2.32    0.23 
  -7  -6  -5    2.37    0.24 
   7   6   5    2.73    0.28 
  -8  -6  -5    1.11    0.18 
   8   6   5    0.64    0.18 
  -9  -6  -5    0.02    0.10 
   9   6   5   -0.02    0.11 
 -10  -6  -5    0.05    0.10 
  10   6   5    0.01    0.13 
 -11  -6  -5    0.40    0.15 
  11   6   5    0.31    0.16 
 -12  -6  -5    0.16    0.13 
  12   6   5   -0.10    0.12 
 -13  -6  -5    0.12    0.15 
  13   6   5    0.13    0.16 
  14  -7  -5    0.51    0.25 
  13  -7  -5    0.33    0.19 
  12  -7  -5    0.24    0.19 
  11  -7  -5    0.05    0.15 
  10  -7  -5    0.02    0.11 
   9  -7  -5    0.70    0.18 
   8  -7  -5    0.33    0.14 
   7  -7  -5    0.77    0.18 
   6  -7  -5   -0.05    0.10 
   6  -7  -5    0.11    0.05 
   5  -7  -5    1.93    0.14 
   5  -7  -5    1.56    0.19 
   4  -7  -5    2.85    0.23 
   4  -7  -5    2.93    0.19 
   3  -7  -5    0.24    0.08 
   3  -7  -5    0.03    0.07 
   2  -7  -5    2.65    0.19 
   2  -7  -5    2.71    0.20 
   1  -7  -5    0.59    0.11 
   1  -7  -5    0.51    0.10 
   0  -7  -5    2.31    0.18 
   0  -7  -5    2.19    0.16 
  -1  -7  -5    3.11    0.22 
  -2  -7  -5    4.87    0.25 
  -2  -7  -5    4.82    0.29 
  -3  -7  -5    0.01    0.06 
  -3  -7  -5    0.05    0.08 
  -4  -7  -5    0.46    0.12 
  -5  -7  -5    0.21    0.11 
  -6  -7  -5    2.10    0.24 
  -7  -7  -5    1.21    0.20 
  -8  -7  -5    1.77    0.24 
   8   7   5    1.88    0.26 
  -9  -7  -5    0.17    0.13 
   9   7   5    0.15    0.15 
 -10  -7  -5    0.06    0.11 
  10   7   5    0.18    0.15 
 -11  -7  -5    0.14    0.13 
  11   7   5    0.30    0.18 
 -12  -7  -5    0.00    0.12 
  12   7   5    0.11    0.17 
 -13  -7  -5    0.01    0.14 
  13   7   5    0.10    0.18 
  14  -8  -5    0.09    0.20 
  13  -8  -5    0.29    0.20 
  12  -8  -5    0.12    0.18 
  11  -8  -5    0.05    0.16 
  10  -8  -5   -0.01    0.14 
   9  -8  -5    0.23    0.16 
   8  -8  -5    0.17    0.13 
   7  -8  -5    0.03    0.12 
   6  -8  -5    0.19    0.13 
   5  -8  -5    2.17    0.23 
   5  -8  -5    2.70    0.18 
   4  -8  -5    1.18    0.18 
   4  -8  -5    1.09    0.13 
   3  -8  -5    0.09    0.07 
   3  -8  -5    0.07    0.09 
   2  -8  -5    0.02    0.06 
   2  -8  -5   -0.02    0.08 
   1  -8  -5    1.23    0.16 
   1  -8  -5    0.89    0.14 
   0  -8  -5    3.76    0.26 
   0  -8  -5    4.66    0.26 
  -1  -8  -5    1.26    0.17 
  -1  -8  -5    1.37    0.14 
  -2  -8  -5    0.96    0.16 
  -2  -8  -5    1.16    0.12 
  -3  -8  -5    0.89    0.17 
  -4  -8  -5    0.20    0.11 
  -5  -8  -5    2.05    0.24 
  -6  -8  -5    3.38    0.31 
  -7  -8  -5    1.27    0.22 
  -8  -8  -5    0.33    0.14 
  -9  -8  -5   -0.03    0.09 
 -10  -8  -5    0.00    0.12 
 -11  -8  -5    0.00    0.12 
 -12  -8  -5   -0.08    0.13 
  13  -9  -5   -0.01    0.21 
  12  -9  -5   -0.09    0.16 
  11  -9  -5   -0.13    0.15 
  10  -9  -5    0.83    0.22 
   9  -9  -5    1.36    0.24 
   8  -9  -5    0.79    0.19 
   7  -9  -5    0.26    0.14 
   6  -9  -5    0.05    0.11 
   5  -9  -5    1.89    0.23 
   5  -9  -5    1.91    0.18 
   4  -9  -5    0.24    0.08 
   4  -9  -5    0.20    0.13 
   3  -9  -5    2.44    0.19 
   3  -9  -5    1.95    0.22 
   2  -9  -5   13.67    0.61 
   2  -9  -5   14.24    0.62 
   1  -9  -5    0.50    0.12 
   1  -9  -5    0.53    0.13 
   0  -9  -5    3.16    0.23 
   0  -9  -5    2.91    0.24 
  -1  -9  -5    1.79    0.21 
  -1  -9  -5    2.27    0.18 
  -2  -9  -5    0.06    0.09 
  -3  -9  -5    0.11    0.11 
  -4  -9  -5    0.02    0.09 
  -5  -9  -5    0.15    0.11 
  -6  -9  -5    0.52    0.16 
  -7  -9  -5   -0.21    0.08 
  -8  -9  -5    0.49    0.16 
  -9  -9  -5    0.01    0.12 
 -10  -9  -5    0.03    0.13 
 -11  -9  -5    0.23    0.15 
 -12  -9  -5    0.05    0.14 
  12 -10  -5    0.88    0.27 
  11 -10  -5    0.07    0.15 
  10 -10  -5    0.31    0.18 
   9 -10  -5    0.12    0.15 
   8 -10  -5    0.27    0.16 
   7 -10  -5    1.01    0.22 
   6 -10  -5    0.14    0.14 
   5 -10  -5    1.52    0.23 
   4 -10  -5    0.78    0.18 
   4 -10  -5    0.75    0.15 
   3 -10  -5    0.95    0.18 
   3 -10  -5    0.92    0.16 
   2 -10  -5    1.15    0.19 
   2 -10  -5    1.34    0.19 
   1 -10  -5    3.11    0.24 
   1 -10  -5    3.34    0.26 
   0 -10  -5    0.71    0.15 
   0 -10  -5    0.47    0.12 
  -1 -10  -5    0.69    0.16 
  -2 -10  -5    0.84    0.17 
  -3 -10  -5    1.09    0.20 
  -4 -10  -5    1.43    0.22 
  -5 -10  -5    0.11    0.11 
  -6 -10  -5    1.30    0.23 
  -7 -10  -5   -0.18    0.09 
  -8 -10  -5    0.19    0.14 
  -9 -10  -5    0.13    0.15 
 -10 -10  -5    0.25    0.15 
 -11 -10  -5    0.02    0.16 
  11 -11  -5    0.30    0.20 
  10 -11  -5    0.17    0.18 
   9 -11  -5    0.63    0.22 
   8 -11  -5    0.49    0.20 
   7 -11  -5    0.02    0.14 
   6 -11  -5    0.15    0.14 
   5 -11  -5   -0.18    0.12 
   4 -11  -5    0.06    0.10 
   4 -11  -5    0.03    0.12 
   3 -11  -5   -0.07    0.12 
   3 -11  -5   -0.01    0.09 
   2 -11  -5    0.21    0.13 
   2 -11  -5    0.04    0.09 
   1 -11  -5    0.10    0.12 
   1 -11  -5    0.07    0.09 
   0 -11  -5    0.55    0.15 
  -1 -11  -5    0.12    0.11 
  -2 -11  -5    0.00    0.09 
  -3 -11  -5    0.25    0.13 
  -4 -11  -5    0.11    0.13 
  -5 -11  -5    0.11    0.14 
  -6 -11  -5   -0.02    0.12 
  -7 -11  -5   -0.05    0.11 
  -8 -11  -5    0.02    0.13 
  -9 -11  -5   -0.01    0.13 
 -10 -11  -5   -0.01    0.15 
  10 -12  -5    0.26    0.21 
   9 -12  -5    0.02    0.16 
   8 -12  -5    0.06    0.15 
   7 -12  -5   -0.09    0.14 
   6 -12  -5    0.15    0.15 
   5 -12  -5    0.46    0.18 
   4 -12  -5    0.27    0.14 
   3 -12  -5    0.24    0.13 
   3 -12  -5    0.05    0.12 
   2 -12  -5    0.05    0.13 
   2 -12  -5    0.04    0.10 
   1 -12  -5    0.47    0.15 
   0 -12  -5    0.77    0.19 
  -1 -12  -5    0.15    0.11 
  -2 -12  -5    0.09    0.11 
  -3 -12  -5    0.83    0.20 
  -4 -12  -5    0.76    0.21 
  -5 -12  -5   -0.02    0.13 
  -6 -12  -5    0.30    0.16 
  -7 -12  -5    0.13    0.14 
  -8 -12  -5   -0.01    0.14 
  -9 -12  -5   -0.09    0.14 
   8 -13  -5    0.19    0.17 
   7 -13  -5    0.16    0.16 
   6 -13  -5    0.38    0.18 
   5 -13  -5    0.91    0.21 
   4 -13  -5    0.30    0.16 
   3 -13  -5   -0.03    0.13 
   3 -13  -5    0.12    0.12 
   2 -13  -5    0.00    0.12 
   1 -13  -5    0.29    0.14 
   0 -13  -5    0.04    0.12 
  -1 -13  -5   -0.13    0.11 
  -2 -13  -5    0.00    0.13 
  -3 -13  -5   -0.05    0.13 
  -4 -13  -5   -0.01    0.12 
  -5 -13  -5   -0.09    0.14 
  -6 -13  -5   -0.07    0.16 
  -7 -13  -5    0.21    0.20 
   6 -14  -5    0.13    0.17 
   5 -14  -5   -0.35    0.15 
   2 -14  -5    0.04    0.13 
   1 -14  -5   -0.19    0.12 
   0 -14  -5   -0.11    0.12 
  -1 -14  -5   -0.01    0.13 
  -2 -14  -5    0.25    0.18 
  -3 -14  -5    0.55    0.23 
  -4 -14  -5    0.51    0.22 
  -5 -14  -5    0.05    0.17 
   2 -15  -5    0.40    0.22 
   1 -15  -5    0.46    0.20 
   0 -15  -5   -0.13    0.17 
  -1 -15  -5   -0.14    0.17 
  -1 -15   6    0.15    0.20 
   0 -15   6    0.07    0.20 
  -6 -14   6    0.10    0.17 
  -5 -14   6    0.05    0.18 
  -4 -14   6    0.00    0.14 
  -3 -14   6    0.10    0.18 
  -2 -14   6   -0.09    0.14 
  -1 -14   6   -0.09    0.14 
   0 -14   6    0.15    0.17 
   1 -14   6    0.25    0.17 
   2 -14   6    0.07    0.15 
   3 -14   6    0.42    0.21 
   4 -14   6    0.25    0.20 
   4 -14   6    0.21    0.20 
  -8 -13   6    0.03    0.16 
  -7 -13   6    0.17    0.15 
  -6 -13   6   -0.06    0.15 
  -5 -13   6    0.07    0.14 
  -4 -13   6    0.19    0.15 
  -3 -13   6    0.30    0.17 
  -2 -13   6    0.27    0.16 
  -1 -13   6   -0.08    0.11 
   0 -13   6    1.19    0.24 
   1 -13   6    1.38    0.25 
   2 -13   6    1.07    0.23 
   3 -13   6    0.17    0.16 
   3 -13   6   -0.07    0.13 
   4 -13   6    0.41    0.17 
   4 -13   6    0.25    0.18 
   5 -13   6    0.19    0.16 
   5 -13   6    0.23    0.17 
   6 -13   6   -0.05    0.13 
   6 -13   6    0.28    0.18 
   7 -13   6    0.35    0.21 
  10  12  -6    0.24    0.21 
 -10 -12   6    0.23    0.17 
  -9 -12   6   -0.14    0.13 
  -8 -12   6   -0.20    0.11 
  -7 -12   6    0.50    0.19 
  -6 -12   6    0.00    0.12 
  -5 -12   6    0.65    0.19 
  -4 -12   6    0.35    0.15 
  -3 -12   6    0.04    0.12 
  -2 -12   6    1.55    0.27 
  -1 -12   6    1.64    0.26 
   0 -12   6    0.59    0.18 
   1 -12   6    0.46    0.16 
   1 -12   6    0.58    0.17 
   2 -12   6    0.39    0.15 
   2 -12   6    0.46    0.18 
   3 -12   6    0.04    0.12 
   3 -12   6    0.08    0.14 
   4 -12   6    0.07    0.13 
   4 -12   6   -0.27    0.10 
   5 -12   6    0.07    0.13 
   5 -12   6    0.33    0.15 
   6 -12   6   -0.06    0.12 
   6 -12   6    0.05    0.13 
   7 -12   6    0.54    0.21 
   8 -12   6    0.17    0.18 
  11  11  -6    0.19    0.19 
 -11 -11   6    0.02    0.15 
  10  11  -6    0.07    0.16 
 -10 -11   6   -0.01    0.13 
   9  11  -6    0.12    0.14 
  -9 -11   6    0.18    0.14 
   8  11  -6    0.26    0.15 
  -8 -11   6    0.55    0.17 
   7  11  -6    0.27    0.15 
  -7 -11   6    0.39    0.17 
  -6 -11   6    0.16    0.13 
  -5 -11   6    0.63    0.17 
  -4 -11   6   -0.05    0.09 
  -3 -11   6    0.45    0.15 
  -2 -11   6    0.92    0.20 
  -1 -11   6    1.67    0.25 
   0 -11   6    2.10    0.27 
   0 -11   6    2.09    0.23 
   1 -11   6    0.35    0.15 
   1 -11   6    0.50    0.16 
   2 -11   6    0.63    0.18 
   2 -11   6    0.59    0.17 
   3 -11   6    1.03    0.21 
   3 -11   6    0.91    0.20 
   4 -11   6    0.79    0.21 
   4 -11   6    0.97    0.21 
   5 -11   6    0.20    0.14 
   5 -11   6    0.50    0.18 
   6 -11   6    0.76    0.19 
   6 -11   6    0.15    0.16 
  -7  11  -6    0.43    0.16 
   7 -11   6    0.62    0.21 
   8 -11   6    0.52    0.20 
   9 -11   6    0.24    0.19 
  12  10  -6    0.05    0.18 
 -12 -10   6    0.05    0.16 
  11  10  -6    0.17    0.18 
 -11 -10   6    0.25    0.16 
  10  10  -6    0.25    0.16 
 -10 -10   6    0.15    0.14 
   9  10  -6    0.11    0.14 
  -9 -10   6    0.18    0.13 
   8  10  -6    1.07    0.20 
  -8 -10   6    1.09    0.22 
   7  10  -6    0.22    0.13 
  -7 -10   6    0.35    0.15 
   6  10  -6   -0.07    0.10 
  -6 -10   6    0.00    0.11 
   5  10  -6    0.04    0.10 
  -5 -10   6   -0.12    0.09 
  -4 -10   6    1.86    0.25 
  -3 -10   6    2.82    0.30 
  -2 -10   6    3.21    0.31 
  -1 -10   6    1.46    0.23 
   0 -10   6   -0.05    0.08 
   0 -10   6    0.04    0.10 
   1 -10   6    0.85    0.17 
   1 -10   6    0.86    0.18 
   2 -10   6    1.26    0.20 
   2 -10   6    0.87    0.18 
   3 -10   6    0.45    0.16 
   3 -10   6    0.26    0.12 
   4 -10   6    0.14    0.11 
   4 -10   6    0.09    0.11 
   5 -10   6    1.33    0.24 
   5 -10   6    1.39    0.22 
   6 -10   6    0.31    0.15 
   6 -10   6    0.20    0.13 
  -7  10  -6    0.10    0.12 
   7 -10   6   -0.10    0.12 
  -8  10  -6    0.31    0.15 
   8 -10   6    0.35    0.17 
   9 -10   6   -0.04    0.17 
  10 -10   6    0.12    0.17 
  13   9  -6    0.11    0.19 
  12   9  -6   -0.10    0.16 
 -12  -9   6    0.09    0.15 
  11   9  -6    0.52    0.19 
 -11  -9   6    0.57    0.17 
  10   9  -6    0.54    0.18 
 -10  -9   6    0.60    0.17 
   9   9  -6    0.02    0.12 
  -9  -9   6    0.02    0.12 
   8   9  -6    0.44    0.14 
  -8  -9   6    0.19    0.12 
   7   9  -6    0.10    0.11 
  -7  -9   6    0.00    0.09 
   6   9  -6    0.21    0.12 
  -6  -9   6    0.50    0.15 
   5   9  -6    0.04    0.08 
  -5  -9   6   -0.01    0.09 
   4   9  -6    0.09    0.07 
  -4  -9   6    0.07    0.10 
   3   9  -6    0.08    0.08 
  -3  -9   6    0.06    0.10 
  -2  -9   6    0.68    0.13 
  -2  -9   6    0.42    0.14 
  -1  -9   6    1.78    0.23 
  -1  -9   6    1.23    0.16 
   0  -9   6    0.55    0.14 
   0  -9   6    0.82    0.15 
   1  -9   6    0.04    0.10 
   1  -9   6    0.01    0.10 
   2  -9   6   -0.07    0.08 
   2  -9   6    0.17    0.11 
   3  -9   6    1.91    0.24 
   3  -9   6    1.82    0.23 
   4  -9   6    2.19    0.26 
   4  -9   6    2.06    0.25 
   5  -9   6    2.43    0.28 
   5  -9   6    2.03    0.24 
   6  -9   6   -0.04    0.10 
   6  -9   6    0.14    0.11 
  -7   9  -6    0.48    0.14 
   7  -9   6    0.51    0.17 
  -8   9  -6    0.20    0.12 
   8  -9   6   -0.09    0.12 
   9  -9   6    0.12    0.16 
  10  -9   6    0.30    0.20 
  11  -9   6   -0.18    0.17 
  14   8  -6   -0.04    0.18 
  13   8  -6    0.41    0.21 
  12   8  -6    0.10    0.16 
  11   8  -6    0.93    0.21 
 -11  -8   6    1.25    0.22 
  10   8  -6    1.92    0.26 
 -10  -8   6    1.93    0.25 
   9   8  -6   -0.22    0.08 
  -9  -8   6   -0.13    0.09 
   8   8  -6    0.93    0.17 
  -8  -8   6    0.85    0.18 
   7   8  -6    0.01    0.10 
  -7  -8   6    0.12    0.10 
   6   8  -6    0.21    0.11 
  -6  -8   6    0.11    0.11 
   5   8  -6    0.89    0.14 
  -5  -8   6    0.57    0.15 
   4   8  -6    0.31    0.10 
  -4  -8   6    0.32    0.12 
   3   8  -6    1.94    0.16 
  -3  -8   6    1.93    0.22 
   2   8  -6    0.61    0.09 
  -2  -8   6    0.80    0.12 
  -2  -8   6    0.63    0.15 
  -1  -8   6    7.59    0.42 
  -1  -8   6    7.49    0.38 
   0  -8   6   -0.02    0.07 
   0  -8   6    0.20    0.11 
   1  -8   6    0.03    0.08 
   1  -8   6    0.02    0.09 
   2  -8   6    2.87    0.26 
   2  -8   6    2.99    0.26 
   3  -8   6    0.85    0.16 
   3  -8   6    0.62    0.15 
   4  -8   6    0.57    0.14 
   4  -8   6    0.78    0.17 
   5  -8   6    9.70    0.54 
   5  -8   6    9.50    0.50 
  -6   8  -6    4.24    0.30 
   6  -8   6    4.12    0.34 
  -7   8  -6    0.76    0.16 
   7  -8   6    0.85    0.20 
  -8   8  -6    0.04    0.11 
   8  -8   6    0.28    0.15 
  -9   8  -6    0.22    0.13 
   9  -8   6    0.23    0.16 
  10  -8   6   -0.09    0.15 
  11  -8   6    0.05    0.17 
  12  -8   6    0.04    0.19 
  14   7  -6    0.70    0.25 
  13   7  -6    1.28    0.26 
  12   7  -6   -0.03    0.14 
  11   7  -6    0.15    0.14 
 -11  -7   6    0.06    0.11 
  10   7  -6    0.96    0.19 
 -10  -7   6    0.83    0.18 
   9   7  -6    0.06    0.11 
  -9  -7   6   -0.16    0.07 
   8   7  -6    1.68    0.21 
  -8  -7   6    2.04    0.23 
   7   7  -6    1.38    0.18 
  -7  -7   6    1.46    0.20 
   6   7  -6    6.67    0.37 
  -6  -7   6    7.68    0.41 
   5   7  -6    5.58    0.31 
  -5  -7   6    5.87    0.35 
   4   7  -6    0.39    0.10 
  -4  -7   6    0.47    0.13 
   3   7  -6    1.41    0.13 
  -3  -7   6    1.02    0.16 
   2   7  -6    4.96    0.24 
  -2  -7   6    4.73    0.30 
   1   7  -6    3.05    0.16 
  -1  -7   6    2.89    0.23 
  -1  -7   6    3.13    0.22 
   0   7  -6    0.92    0.07 
   0  -7   6    0.76    0.13 
   0  -7   6    0.84    0.15 
   1  -7   6    0.73    0.14 
   1  -7   6    0.99    0.15 
   2  -7   6    1.89    0.20 
   2  -7   6    1.37    0.18 
   3  -7   6    1.25    0.18 
   3  -7   6    1.27    0.19 
   4  -7   6    1.19    0.20 
   4  -7   6    1.17    0.17 
   5  -7   6    1.01    0.18 
   5  -7   6    1.14    0.20 
  -6   7  -6    2.34    0.22 
   6  -7   6    2.42    0.27 
  -7   7  -6    1.48    0.19 
   7  -7   6    1.29    0.22 
  -8   7  -6    0.47    0.14 
   8  -7   6    0.46    0.17 
  -9   7  -6    0.05    0.10 
   9  -7   6   -0.08    0.11 
  10  -7   6    0.31    0.16 
  11  -7   6    0.25    0.17 
  12  -7   6   -0.01    0.18 
  15   6  -6    0.04    0.17 
  14   6  -6    0.06    0.19 
  13   6  -6    0.46    0.19 
  12   6  -6   -0.03    0.13 
  11   6  -6   -0.06    0.13 
 -11  -6   6    0.27    0.12 
  10   6  -6    0.51    0.15 
 -10  -6   6    0.82    0.17 
   9   6  -6    0.04    0.11 
  -9  -6   6   -0.05    0.09 
   8   6  -6    0.89    0.17 
  -8  -6   6    0.79    0.15 
   7   6  -6    0.05    0.09 
  -7  -6   6    0.04    0.09 
   6   6  -6    4.78    0.28 
  -6  -6   6    4.77    0.30 
   5   6  -6    4.17    0.24 
  -5  -6   6    3.80    0.26 
   4   6  -6    7.10    0.32 
  -4  -6   6    6.80    0.37 
   3   6  -6    4.68    0.23 
  -3  -6   6    4.59    0.28 
   2   6  -6    0.37    0.07 
  -2  -6   6    0.20    0.09 
   1   6  -6    2.32    0.13 
  -1  -6   6    2.52    0.21 
  -1  -6   6    2.34    0.18 
   0   6  -6   12.70    0.44 
   0  -6   6   13.09    0.55 
   0  -6   6   12.73    0.56 
   1  -6   6    2.76    0.21 
   1  -6   6    2.83    0.22 
   2  -6   6   -0.05    0.05 
   2  -6   6   -0.03    0.06 
   3  -6   6    0.03    0.06 
   3  -6   6    0.01    0.07 
   4  -6   6    2.12    0.21 
   4  -6   6    2.03    0.22 
  -5   6  -6    2.85    0.22 
   5  -6   6    2.89    0.27 
  -6   6  -6    6.89    0.37 
  -7   6  -6    6.48    0.36 
   7  -6   6    6.16    0.41 
  -8   6  -6    0.05    0.10 
   8  -6   6    0.11    0.14 
  -9   6  -6    0.79    0.16 
   9  -6   6    0.67    0.19 
 -10   6  -6    0.13    0.12 
  10  -6   6    0.03    0.14 
  11  -6   6    0.14    0.16 
  12  -6   6    0.34    0.19 
  13  -6   6    0.05    0.19 
  15   5  -6   -0.01    0.17 
  14   5  -6    0.43    0.21 
  13   5  -6    0.34    0.17 
  12   5  -6    0.11    0.14 
  11   5  -6   -0.03    0.10 
 -11  -5   6   -0.05    0.10 
  10   5  -6    0.44    0.15 
 -10  -5   6    0.57    0.14 
   9   5  -6    0.74    0.15 
  -9  -5   6    0.79    0.15 
   8   5  -6    1.82    0.20 
  -8  -5   6    2.34    0.21 
   7   5  -6    2.05    0.19 
  -7  -5   6    1.84    0.19 
   6   5  -6   14.36    0.60 
   6   5  -6   14.68    0.54 
  -6  -5   6   15.85    0.63 
   5   5  -6    7.29    0.34 
  -5  -5   6    7.14    0.36 
   4   5  -6    4.62    0.25 
  -4  -5   6    4.96    0.28 
   3   5  -6    7.00    0.30 
  -3  -5   6    6.58    0.34 
   2   5  -6    7.28    0.30 
  -2  -5   6    7.02    0.36 
   1   5  -6   27.43    0.94 
  -1  -5   6   28.13    1.03 
  -1  -5   6   28.44    1.03 
   0   5  -6    4.04    0.16 
   0  -5   6    3.57    0.23 
   0  -5   6    3.94    0.24 
   1  -5   6    0.30    0.08 
   1  -5   6    0.25    0.08 
   2  -5   6    0.63    0.11 
   2  -5   6    0.80    0.13 
   3  -5   6    0.80    0.13 
   3  -5   6    0.62    0.13 
  -4   5  -6    3.71    0.23 
   4  -5   6    3.70    0.26 
  -5   5  -6    5.79    0.31 
   5  -5   6    5.97    0.37 
  -6   5  -6    7.66    0.38 
   6  -5   6    8.00    0.45 
  -7   5  -6    1.94    0.20 
   7  -5   6    2.13    0.24 
  -8   5  -6    0.12    0.09 
   8  -5   6    0.14    0.12 
  -9   5  -6    0.11    0.09 
   9  -5   6    0.03    0.12 
 -10   5  -6    0.71    0.15 
  10  -5   6    0.62    0.18 
  11  -5   6    0.61    0.20 
  12  -5   6    0.17    0.16 
  13  -5   6    0.00    0.17 
  15   4  -6   -0.04    0.15 
  14   4  -6   -0.07    0.12 
  13   4  -6    0.55    0.18 
  12   4  -6    0.71    0.19 
  11   4  -6    1.41    0.21 
  10   4  -6    1.38    0.20 
   9   4  -6    0.32    0.13 
  -9  -4   6    0.44    0.12 
   8   4  -6    0.73    0.15 
  -8  -4   6    0.66    0.12 
   7   4  -6    0.40    0.06 
   7   4  -6    0.45    0.11 
  -7  -4   6    0.19    0.08 
   6   4  -6   26.91    0.99 
   6   4  -6   26.94    0.95 
  -6  -4   6   26.87    0.99 
   5   4  -6    4.52    0.21 
   5   4  -6    5.21    0.26 
  -5  -4   6    4.89    0.26 
   4   4  -6    0.20    0.07 
  -4  -4   6    0.14    0.07 
   3   4  -6   23.58    0.82 
  -3  -4   6   22.79    0.86 
   2   4  -6    3.15    0.16 
  -2  -4   6    2.98    0.20 
   1   4  -6   10.95    0.40 
  -1  -4   6   10.64    0.46 
   0  -4   6    8.97    0.40 
   0  -4   6    8.51    0.39 
   1  -4   6    0.55    0.10 
   1  -4   6    0.64    0.11 
   2  -4   6    0.54    0.10 
   2  -4   6    0.50    0.10 
  -3   4  -6    0.71    0.10 
   3  -4   6    1.12    0.14 
   3  -4   6    0.85    0.13 
  -4   4  -6    0.09    0.07 
   4  -4   6    0.05    0.07 
  -5   4  -6    7.07    0.35 
   5  -4   6    7.71    0.41 
  -6   4  -6    1.54    0.16 
   6  -4   6    1.78    0.20 
  -7   4  -6    0.06    0.08 
   7  -4   6    0.09    0.11 
  -8   4  -6    1.12    0.16 
   8  -4   6    0.88    0.18 
  -9   4  -6    0.04    0.09 
   9  -4   6   -0.05    0.10 
 -10   4  -6    0.15    0.11 
  10  -4   6    0.05    0.12 
 -11   4  -6    0.02    0.11 
  11  -4   6   -0.24    0.09 
  12  -4   6    0.24    0.17 
  13  -4   6    0.06    0.16 
  14  -4   6   -0.06    0.18 
  16   3  -6   -0.16    0.16 
  15   3  -6   -0.02    0.15 
  14   3  -6    0.19    0.14 
  13   3  -6    0.06    0.12 
  12   3  -6    0.43    0.14 
  11   3  -6   -0.03    0.10 
  10   3  -6    0.19    0.12 
 -10  -3   6    0.23    0.09 
   9   3  -6   16.06    0.70 
   9   3  -6   16.06    0.63 
  -9  -3   6   16.88    0.66 
   8   3  -6    1.31    0.17 
   8   3  -6    1.69    0.13 
  -8  -3   6    1.59    0.15 
   7   3  -6   11.59    0.52 
   7   3  -6   12.35    0.47 
   6   3  -6   15.61    0.62 
   6   3  -6   16.03    0.59 
  -6  -3   6   15.54    0.61 
   5   3  -6    4.89    0.26 
   5   3  -6    4.97    0.22 
  -5  -3   6    4.78    0.25 
   4   3  -6    7.14    0.31 
  -4  -3   6    6.96    0.32 
  -3  -3   6   15.47    0.59 
  -2  -3   6    1.05    0.12 
  -1  -3   6   37.18    1.29 
   0  -3   6   32.25    1.14 
   1  -3   6   12.44    0.53 
   1  -3   6   13.12    0.52 
  -2   3  -6    7.99    0.35 
   2  -3   6    8.30    0.38 
  -3   3  -6    0.32    0.08 
   3  -3   6    0.32    0.09 
  -4   3  -6    2.58    0.17 
   4  -3   6    1.92    0.19 
  -5   3  -6    6.41    0.33 
   5  -3   6    7.29    0.38 
  -6   3  -6    0.92    0.13 
   6  -3   6    0.88    0.11 
   6  -3   6    0.88    0.15 
  -7   3  -6    2.33    0.20 
   7  -3   6    2.33    0.23 
   7  -3   6    2.51    0.19 
  -8   3  -6    1.69    0.18 
   8  -3   6    1.41    0.20 
   8  -3   6    1.70    0.17 
  -9   3  -6    0.75    0.15 
   9  -3   6    0.88    0.14 
   9  -3   6    0.65    0.16 
 -10   3  -6    0.05    0.10 
  10  -3   6   -0.01    0.10 
 -11   3  -6    0.01    0.10 
  11  -3   6    0.12    0.14 
  12  -3   6    0.08    0.14 
  13  -3   6    0.38    0.18 
  14  -3   6    0.38    0.20 
  16   2  -6    0.51    0.21 
  15   2  -6    0.18    0.16 
  14   2  -6    0.06    0.13 
  13   2  -6   -0.03    0.11 
  12   2  -6    0.97    0.19 
  11   2  -6    0.57    0.15 
  10   2  -6    0.42    0.14 
  10   2  -6    0.47    0.11 
   9   2  -6    5.92    0.29 
   9   2  -6    5.15    0.33 
  -9  -2   6    5.49    0.28 
   8   2  -6    0.55    0.12 
   8   2  -6    0.63    0.09 
  -8  -2   6    0.57    0.09 
   7   2  -6    0.00    0.06 
   7   2  -6    0.34    0.07 
  -7  -2   6    0.04    0.06 
   6   2  -6   10.19    0.41 
   6   2  -6   10.13    0.44 
  -6  -2   6    9.79    0.40 
   5   2  -6    2.31    0.16 
   5   2  -6    2.19    0.14 
   4   2  -6   26.85    0.91 
  -4  -2   6   24.16    0.90 
  -3  -2   6    4.53    0.23 
  -2  -2   6   -0.03    0.04 
  -1  -2   6   11.14    0.44 
   0  -2   6    4.94    0.25 
  -1   2  -6    0.90    0.09 
   1  -2   6    0.75    0.10 
  -2   2  -6   64.76    2.18 
   2  -2   6   66.09    2.27 
  -3   2  -6   11.44    0.47 
   3  -2   6   12.44    0.52 
  -4   2  -6   22.27    0.81 
   4  -2   6   22.18    0.87 
  -5   2  -6    1.75    0.16 
   5  -2   6    1.93    0.19 
  -6   2  -6    3.41    0.22 
   6  -2   6    3.75    0.25 
  -7   2  -6    6.37    0.33 
   7  -2   6    6.08    0.36 
  -8   2  -6    0.09    0.09 
   8  -2   6    0.14    0.11 
   8  -2   6   -0.03    0.09 
  -9   2  -6    5.75    0.34 
   9  -2   6    6.28    0.38 
   9  -2   6    5.66    0.33 
 -10   2  -6    1.65    0.20 
  10  -2   6    1.35    0.19 
  10  -2   6    1.48    0.22 
 -11   2  -6   -0.19    0.08 
  11  -2   6   -0.03    0.10 
  11  -2   6   -0.03    0.13 
  12  -2   6    0.36    0.16 
  13  -2   6    0.09    0.14 
  16   1  -6    0.01    0.15 
  15   1  -6    0.02    0.14 
  14   1  -6    0.17    0.14 
  13   1  -6    0.21    0.14 
  12   1  -6    0.74    0.17 
  11   1  -6    0.40    0.10 
  11   1  -6    0.36    0.14 
  10   1  -6    0.12    0.12 
  10   1  -6    0.26    0.09 
   9   1  -6    9.49    0.43 
   9   1  -6    9.73    0.47 
  -9  -1   6    9.14    0.38 
   8   1  -6    0.37    0.09 
   8   1  -6    0.33    0.10 
  -8  -1   6    0.36    0.07 
   7   1  -6    0.25    0.07 
   7   1  -6    0.17    0.08 
  -7  -1   6    0.12    0.05 
   6   1  -6    2.94    0.18 
  -6  -1   6    3.04    0.16 
   5   1  -6    0.82    0.09 
  -5  -1   6    0.81    0.08 
   4   1  -6    0.02    0.04 
  -4  -1   6    0.02    0.04 
  -2  -1   6    1.47    0.11 
  -1  -1   6    5.09    0.23 
   0   1  -6    1.00    0.09 
  -1   1  -6    2.26    0.14 
  -2   1  -6    0.92    0.10 
  -3   1  -6    8.02    0.34 
   3  -1   6    7.96    0.37 
  -4   1  -6    0.52    0.09 
   4  -1   6    0.72    0.12 
  -5   1  -6    2.73    0.18 
   5  -1   6    2.83    0.20 
  -6   1  -6    0.28    0.09 
   6  -1   6    0.34    0.10 
   6  -1   6    0.41    0.10 
  -7   1  -6    0.33    0.10 
   7  -1   6    0.21    0.10 
   7  -1   6    0.44    0.12 
  -8   1  -6    0.11    0.09 
   8  -1   6    0.11    0.09 
   8  -1   6    0.29    0.11 
  -9   1  -6    0.03    0.09 
   9  -1   6    0.02    0.09 
   9  -1   6   -0.01    0.10 
 -10   1  -6    0.12    0.10 
  10  -1   6   -0.04    0.09 
  10  -1   6    0.09    0.13 
 -11   1  -6    0.03    0.10 
  11  -1   6   -0.18    0.09 
  11  -1   6    0.05    0.12 
 -12   1  -6    0.10    0.11 
  12  -1   6    0.07    0.13 
  12  -1   6    0.07    0.13 
  16   0  -6    0.20    0.17 
  15   0  -6    0.18    0.15 
  14   0  -6    0.79    0.19 
  13   0  -6    1.23    0.22 
  12   0  -6    0.04    0.10 
  12   0  -6    0.02    0.11 
  11   0  -6    0.13    0.11 
  11   0  -6    0.15    0.09 
  10   0  -6    0.18    0.12 
  10   0  -6    0.44    0.11 
   9   0  -6    8.17    0.40 
   9   0  -6    8.43    0.42 
   8   0  -6    0.08    0.07 
   8   0  -6    0.00    0.07 
  -8   0   6    0.07    0.04 
   7   0  -6   16.30    0.66 
  -7   0   6   17.37    0.59 
   6   0  -6  200.66    6.87 
  -6   0   6  210.43    6.59 
   5   0  -6    9.32    0.39 
  -5   0   6    8.96    0.33 
   4   0  -6    0.70    0.09 
  -4   0   6    0.70    0.06 
   3   0  -6  128.96    4.06 
   3   0  -6  123.49    4.23 
   2   0  -6   58.38    1.91 
   1   0  -6    9.66    0.36 
   0   0  -6    6.01    0.25 
  -1   0  -6    0.48    0.07 
  -2   0  -6  142.42    4.62 
  -3   0  -6    0.61    0.09 
  -4   0  -6    1.56    0.14 
   4   0   6    1.73    0.15 
  -5   0  -6    1.04    0.13 
   5   0   6    1.15    0.13 
   5   0   6    1.29    0.14 
  -6   0  -6   28.53    1.04 
   6   0   6   27.54    1.07 
   6   0   6   28.40    1.03 
  -7   0  -6    4.66    0.29 
   7   0   6    5.20    0.31 
   7   0   6    5.60    0.31 
  -8   0  -6    0.02    0.09 
   8   0   6    0.24    0.09 
   8   0   6    0.26    0.12 
  -9   0  -6   11.45    0.53 
   9   0   6   11.42    0.56 
   9   0   6   11.14    0.54 
 -10   0  -6    4.67    0.32 
  10   0   6    4.65    0.32 
  10   0   6    4.29    0.32 
 -11   0  -6    0.16    0.12 
  11   0   6    0.28    0.13 
  11   0   6    0.16    0.14 
 -12   0  -6    0.73    0.17 
  12   0   6    0.62    0.18 
  13   0   6    0.14    0.16 
  14   0   6   -0.08    0.18 
  16  -1  -6   -0.12    0.15 
  15  -1  -6    0.10    0.14 
  14  -1  -6    0.06    0.13 
  13  -1  -6    0.29    0.14 
  13  -1  -6    0.30    0.15 
  12  -1  -6    0.96    0.18 
  12  -1  -6    0.95    0.18 
  11  -1  -6    0.35    0.12 
  11  -1  -6    0.39    0.13 
  10  -1  -6    0.06    0.08 
  10  -1  -6    0.04    0.10 
   9  -1  -6    9.38    0.46 
   9  -1  -6    9.20    0.44 
   8  -1  -6    0.38    0.10 
   7  -1  -6    0.12    0.07 
   6  -1  -6    2.78    0.19 
   5  -1  -6    1.00    0.11 
   4  -1  -6    0.01    0.02 
   4  -1  -6    0.09    0.05 
   3  -1  -6   14.67    0.58 
   3  -1  -6   15.98    0.52 
   2  -1  -6    1.51    0.09 
   2  -1  -6    1.33    0.10 
   1  -1  -6    5.00    0.21 
   0  -1  -6    0.80    0.08 
  -1  -1  -6    2.72    0.16 
  -2  -1  -6    0.95    0.10 
  -3  -1  -6    8.38    0.36 
  -4  -1  -6    0.73    0.10 
  -5  -1  -6    2.63    0.19 
   5   1   6    2.59    0.20 
  -6  -1  -6    0.44    0.11 
   6   1   6    0.42    0.12 
  -7  -1  -6    0.14    0.08 
   7   1   6    0.18    0.10 
   7   1   6    0.33    0.09 
  -8  -1  -6    0.02    0.08 
   8   1   6    0.07    0.07 
   8   1   6    0.16    0.12 
  -9  -1  -6    0.18    0.10 
   9   1   6    0.00    0.11 
   9   1   6    0.26    0.09 
 -10  -1  -6    0.06    0.10 
  10   1   6    0.03    0.10 
  10   1   6    0.05    0.12 
 -11  -1  -6    0.13    0.12 
  11   1   6   -0.01    0.12 
 -12  -1  -6   -0.02    0.11 
  12   1   6    0.07    0.13 
 -13  -1  -6   -0.05    0.12 
  13   1   6    0.17    0.15 
  14   1   6   -0.06    0.15 
  16  -2  -6    0.23    0.16 
  15  -2  -6    0.23    0.14 
  14  -2  -6    0.12    0.13 
  14  -2  -6    0.10    0.14 
  13  -2  -6   -0.10    0.10 
  13  -2  -6    0.06    0.13 
  12  -2  -6    1.28    0.20 
  12  -2  -6    0.90    0.18 
  11  -2  -6    0.74    0.16 
  11  -2  -6    0.66    0.16 
  10  -2  -6    0.21    0.12 
  10  -2  -6    0.36    0.13 
   9  -2  -6    5.63    0.33 
   9  -2  -6    5.42    0.32 
   8  -2  -6    0.51    0.12 
   7  -2  -6    0.06    0.07 
   6  -2  -6    9.59    0.43 
   5  -2  -6    2.49    0.18 
   4  -2  -6   28.31    0.90 
   4  -2  -6   26.61    1.00 
   3  -2  -6    4.20    0.22 
   3  -2  -6    4.44    0.17 
   2  -2  -6    0.08    0.05 
   2  -2  -6    0.09    0.03 
   1  -2  -6   11.47    0.42 
   1  -2  -6   11.21    0.45 
   0  -2  -6    4.56    0.21 
  -1  -2  -6    0.95    0.10 
  -2  -2  -6   64.53    2.15 
  -3  -2  -6   11.86    0.48 
  -4  -2  -6   20.95    0.79 
  -5  -2  -6    1.62    0.16 
  -6  -2  -6    3.51    0.23 
   6   2   6    3.32    0.24 
  -7  -2  -6    5.51    0.33 
   7   2   6    6.30    0.36 
  -8  -2  -6    0.02    0.09 
   8   2   6    0.09    0.11 
  -9  -2  -6    6.31    0.38 
   9   2   6    6.79    0.40 
 -10  -2  -6    1.40    0.20 
  10   2   6    1.32    0.21 
 -11  -2  -6   -0.10    0.09 
  11   2   6   -0.10    0.12 
 -12  -2  -6    0.75    0.17 
  12   2   6    0.25    0.14 
 -13  -2  -6   -0.13    0.12 
  13   2   6    0.00    0.14 
  14   2   6   -0.03    0.17 
  16  -3  -6    0.08    0.16 
  15  -3  -6    0.10    0.14 
  15  -3  -6   -0.25    0.13 
  14  -3  -6    0.13    0.15 
  14  -3  -6    0.06    0.12 
  13  -3  -6    0.00    0.13 
  13  -3  -6    0.13    0.12 
  12  -3  -6    0.41    0.15 
  12  -3  -6    0.30    0.13 
  11  -3  -6    0.02    0.10 
  11  -3  -6   -0.05    0.11 
  10  -3  -6   -0.07    0.08 
  10  -3  -6    0.11    0.12 
   9  -3  -6   15.40    0.68 
   8  -3  -6    1.61    0.18 
   7  -3  -6   12.09    0.54 
   6  -3  -6   14.51    0.60 
   5  -3  -6    5.74    0.30 
   4  -3  -6    6.70    0.25 
   4  -3  -6    7.14    0.33 
   3  -3  -6   16.07    0.63 
   3  -3  -6   16.35    0.56 
   2  -3  -6    0.97    0.08 
   2  -3  -6    0.97    0.10 
   1  -3  -6   38.46    1.29 
   1  -3  -6   38.49    1.35 
   0  -3  -6   32.12    1.12 
   0  -3  -6   33.07    1.15 
  -1  -3  -6   12.31    0.48 
  -2  -3  -6    9.01    0.39 
  -3  -3  -6    0.33    0.08 
  -4  -3  -6    2.17    0.18 
  -5  -3  -6    6.02    0.32 
  -6  -3  -6    0.94    0.15 
   6   3   6    1.02    0.16 
  -7  -3  -6    2.27    0.22 
   7   3   6    2.33    0.24 
  -8  -3  -6    1.63    0.20 
   8   3   6    1.31    0.21 
  -9  -3  -6    1.00    0.17 
   9   3   6    0.94    0.19 
 -10  -3  -6   -0.05    0.09 
  10   3   6    0.08    0.13 
 -11  -3  -6    0.01    0.11 
  11   3   6   -0.21    0.11 
 -12  -3  -6    0.16    0.13 
  12   3   6    0.01    0.15 
 -13  -3  -6    0.12    0.14 
  13   3   6    0.44    0.19 
  14   3   6    0.20    0.19 
  15  -4  -6    0.03    0.15 
  15  -4  -6    0.13    0.17 
  14  -4  -6   -0.03    0.12 
  14  -4  -6    0.03    0.14 
  13  -4  -6    0.31    0.14 
  13  -4  -6    0.52    0.17 
  12  -4  -6    0.83    0.19 
  12  -4  -6    0.90    0.17 
  11  -4  -6    1.13    0.21 
  11  -4  -6    1.23    0.18 
  10  -4  -6    1.13    0.20 
  10  -4  -6    1.60    0.19 
   9  -4  -6    0.46    0.14 
   8  -4  -6    0.73    0.15 
   7  -4  -6    0.40    0.11 
   6  -4  -6   26.21    1.01 
   5  -4  -6    4.40    0.18 
   5  -4  -6    4.58    0.26 
   4  -4  -6    0.03    0.06 
   4  -4  -6    0.16    0.04 
   3  -4  -6   23.51    0.81 
   3  -4  -6   23.25    0.88 
   2  -4  -6    3.15    0.19 
   2  -4  -6    2.98    0.16 
   1  -4  -6   11.27    0.47 
   1  -4  -6   11.57    0.45 
   0  -4  -6    7.89    0.34 
   0  -4  -6    8.04    0.34 
  -1  -4  -6    0.44    0.08 
  -1  -4  -6    0.48    0.08 
  -2  -4  -6    0.54    0.09 
  -2  -4  -6    0.41    0.07 
  -3  -4  -6    1.04    0.13 
  -4  -4  -6    0.07    0.06 
  -5  -4  -6    6.42    0.34 
  -6  -4  -6    1.66    0.19 
  -7  -4  -6   -0.06    0.09 
   7   4   6    0.25    0.13 
  -8  -4  -6    1.22    0.18 
   8   4   6    0.81    0.18 
  -9  -4  -6    0.08    0.10 
   9   4   6    0.15    0.13 
 -10  -4  -6    0.06    0.10 
  10   4   6   -0.10    0.11 
 -11  -4  -6   -0.03    0.11 
  11   4   6    0.04    0.14 
 -12  -4  -6    0.31    0.15 
  12   4   6   -0.09    0.13 
 -13  -4  -6    0.03    0.14 
  13   4   6    0.13    0.18 
  14   4   6    0.03    0.17 
  15  -5  -6   -0.23    0.16 
  14  -5  -6    0.64    0.19 
  13  -5  -6    0.53    0.18 
  13  -5  -6    0.26    0.14 
  12  -5  -6   -0.01    0.10 
  12  -5  -6    0.16    0.14 
  11  -5  -6    0.15    0.11 
  11  -5  -6   -0.14    0.10 
  10  -5  -6    0.61    0.16 
   9  -5  -6    0.74    0.18 
   8  -5  -6    2.11    0.22 
   7  -5  -6    1.78    0.20 
   6  -5  -6   14.67    0.51 
   6  -5  -6   14.47    0.64 
   5  -5  -6    7.27    0.37 
   5  -5  -6    7.09    0.28 
   4  -5  -6    4.43    0.27 
   4  -5  -6    4.92    0.21 
   3  -5  -6    6.67    0.34 
   3  -5  -6    6.75    0.29 
   2  -5  -6    7.25    0.32 
   2  -5  -6    7.27    0.35 
   1  -5  -6   28.99    1.04 
   1  -5  -6   29.84    1.07 
   0  -5  -6    3.80    0.21 
   0  -5  -6    3.47    0.20 
  -1  -5  -6    0.41    0.09 
  -1  -5  -6    0.30    0.07 
  -2  -5  -6    0.93    0.12 
  -3  -5  -6    0.81    0.09 
  -3  -5  -6    0.69    0.12 
  -4  -5  -6    4.09    0.26 
  -4  -5  -6    3.96    0.21 
  -5  -5  -6    6.37    0.36 
  -6  -5  -6    7.56    0.41 
  -7  -5  -6    2.45    0.24 
  -8  -5  -6    0.12    0.10 
   8   5   6    0.10    0.13 
  -9  -5  -6    0.11    0.12 
   9   5   6    0.19    0.13 
 -10  -5  -6    0.83    0.19 
  10   5   6    0.58    0.18 
 -11  -5  -6    0.73    0.19 
  11   5   6    0.59    0.20 
 -12  -5  -6    0.27    0.16 
  12   5   6    0.11    0.16 
 -13  -5  -6   -0.02    0.13 
  13   5   6   -0.14    0.14 
  15  -6  -6    0.08    0.20 
  14  -6  -6    0.47    0.20 
  13  -6  -6    0.43    0.19 
  12  -6  -6    0.11    0.15 
  12  -6  -6   -0.01    0.11 
  11  -6  -6    0.21    0.12 
  11  -6  -6    0.02    0.13 
  10  -6  -6    0.47    0.16 
   9  -6  -6   -0.04    0.10 
   8  -6  -6    0.53    0.16 
   7  -6  -6    0.04    0.11 
   6  -6  -6    4.82    0.32 
   5  -6  -6    3.99    0.20 
   5  -6  -6    4.11    0.28 
   4  -6  -6    7.07    0.31 
   4  -6  -6    6.94    0.37 
   3  -6  -6    4.51    0.27 
   3  -6  -6    4.64    0.24 
   2  -6  -6    0.53    0.09 
   2  -6  -6    0.39    0.10 
   1  -6  -6    2.17    0.17 
   1  -6  -6    2.41    0.17 
   0  -6  -6   12.64    0.54 
   0  -6  -6   13.22    0.53 
  -1  -6  -6    2.62    0.19 
  -1  -6  -6    2.67    0.17 
  -2  -6  -6    0.01    0.06 
  -2  -6  -6    0.09    0.06 
  -3  -6  -6    0.00    0.05 
  -3  -6  -6    0.00    0.06 
  -4  -6  -6    1.77    0.19 
  -4  -6  -6    2.11    0.14 
  -5  -6  -6    3.23    0.18 
  -5  -6  -6    3.65    0.27 
  -6  -6  -6    7.08    0.40 
  -7  -6  -6    6.81    0.41 
  -8  -6  -6    0.15    0.11 
  -9  -6  -6    0.45    0.15 
   9   6   6    0.49    0.17 
 -10  -6  -6    0.33    0.14 
  10   6   6    0.16    0.14 
 -11  -6  -6    0.01    0.12 
  11   6   6    0.08    0.15 
 -12  -6  -6    0.19    0.13 
  12   6   6    0.64    0.21 
 -13  -6  -6   -0.16    0.13 
  13   6   6    0.20    0.19 
  14  -7  -6    0.49    0.22 
  13  -7  -6    1.21    0.27 
  12  -7  -6    0.00    0.16 
  11  -7  -6    0.22    0.16 
  10  -7  -6    0.93    0.20 
   9  -7  -6    0.06    0.11 
   8  -7  -6    1.47    0.22 
   7  -7  -6    1.57    0.21 
   6  -7  -6    6.44    0.39 
   5  -7  -6    5.67    0.34 
   5  -7  -6    5.47    0.27 
   4  -7  -6    0.45    0.09 
   4  -7  -6    0.25    0.11 
   3  -7  -6    1.27    0.17 
   3  -7  -6    1.54    0.14 
   2  -7  -6    4.70    0.27 
   2  -7  -6    4.89    0.27 
   1  -7  -6    2.64    0.20 
   1  -7  -6    3.14    0.21 
   0  -7  -6    0.68    0.12 
   0  -7  -6    0.97    0.13 
  -1  -7  -6    0.62    0.11 
  -1  -7  -6    0.21    0.06 
  -2  -7  -6    1.76    0.15 
  -2  -7  -6    1.62    0.19 
  -3  -7  -6    1.00    0.16 
  -3  -7  -6    1.29    0.12 
  -4  -7  -6    1.41    0.19 
  -5  -7  -6    0.91    0.17 
  -6  -7  -6    2.07    0.24 
  -7  -7  -6    1.51    0.23 
  -8  -7  -6    0.36    0.14 
  -9  -7  -6   -0.03    0.10 
 -10  -7  -6    0.48    0.17 
 -11  -7  -6    0.05    0.13 
 -12  -7  -6    0.11    0.14 
 -13  -7  -6    0.02    0.14 
  13  -8  -6    0.41    0.22 
  12  -8  -6    0.08    0.17 
  11  -8  -6    1.23    0.25 
  10  -8  -6    1.99    0.30 
   9  -8  -6   -0.14    0.10 
   8  -8  -6    0.90    0.19 
   7  -8  -6    0.08    0.12 
   6  -8  -6    0.15    0.12 
   5  -8  -6    1.01    0.13 
   5  -8  -6    0.86    0.18 
   4  -8  -6    0.34    0.09 
   4  -8  -6    0.29    0.12 
   3  -8  -6    1.81    0.20 
   3  -8  -6    1.80    0.17 
   2  -8  -6    0.70    0.14 
   2  -8  -6    0.68    0.12 
   1  -8  -6    7.92    0.39 
   1  -8  -6    7.16    0.37 
   0  -8  -6    0.16    0.08 
   0  -8  -6    0.07    0.07 
  -1  -8  -6   -0.01    0.04 
  -1  -8  -6    0.08    0.09 
  -2  -8  -6    3.05    0.20 
  -2  -8  -6    3.21    0.25 
  -3  -8  -6    0.60    0.15 
  -4  -8  -6    0.77    0.16 
  -5  -8  -6   10.12    0.54 
  -6  -8  -6    4.31    0.33 
  -7  -8  -6    0.49    0.15 
  -8  -8  -6    0.01    0.12 
  -9  -8  -6   -0.08    0.11 
 -10  -8  -6   -0.08    0.11 
 -11  -8  -6    0.01    0.13 
 -12  -8  -6    0.12    0.14 
  13  -9  -6    0.56    0.25 
  12  -9  -6    0.05    0.17 
  11  -9  -6    0.64    0.21 
  10  -9  -6    0.25    0.17 
   9  -9  -6   -0.15    0.13 
   8  -9  -6    0.23    0.14 
   7  -9  -6    0.15    0.13 
   6  -9  -6    0.29    0.14 
   5  -9  -6    0.07    0.06 
   5  -9  -6   -0.09    0.10 
   4  -9  -6    0.10    0.07 
   4  -9  -6    0.03    0.11 
   3  -9  -6    0.03    0.10 
   3  -9  -6    0.02    0.07 
   2  -9  -6    0.74    0.13 
   2  -9  -6    0.64    0.15 
   1  -9  -6    1.29    0.18 
   1  -9  -6    1.27    0.16 
   0  -9  -6    0.60    0.14 
   0  -9  -6    0.64    0.12 
  -1  -9  -6    0.16    0.11 
  -1  -9  -6    0.05    0.08 
  -2  -9  -6    0.02    0.08 
  -3  -9  -6    1.67    0.22 
  -4  -9  -6    2.09    0.25 
  -5  -9  -6    2.44    0.27 
  -6  -9  -6    0.18    0.12 
  -7  -9  -6    0.55    0.17 
  -8  -9  -6   -0.07    0.10 
  -9  -9  -6   -0.20    0.09 
 -10  -9  -6    0.05    0.13 
 -11  -9  -6    0.14    0.15 
  12 -10  -6   -0.02    0.18 
  11 -10  -6   -0.03    0.15 
  10 -10  -6    0.13    0.15 
   9 -10  -6    0.23    0.16 
   8 -10  -6    0.83    0.20 
   7 -10  -6    0.22    0.14 
   6 -10  -6    0.02    0.12 
   5 -10  -6   -0.11    0.10 
   4 -10  -6    2.59    0.23 
   4 -10  -6    2.01    0.24 
   3 -10  -6    3.02    0.24 
   3 -10  -6    2.89    0.27 
   2 -10  -6    3.91    0.28 
   2 -10  -6    3.24    0.26 
   1 -10  -6    1.59    0.19 
   1 -10  -6    1.49    0.20 
   0 -10  -6   -0.01    0.09 
   0 -10  -6   -0.05    0.08 
  -1 -10  -6    0.78    0.17 
  -2 -10  -6    1.11    0.20 
  -3 -10  -6    0.36    0.14 
  -4 -10  -6    0.10    0.11 
  -5 -10  -6    1.59    0.25 
  -6 -10  -6    0.31    0.15 
  -7 -10  -6   -0.14    0.10 
  -8 -10  -6    0.21    0.14 
  -9 -10  -6    0.16    0.15 
 -10 -10  -6   -0.11    0.13 
  11 -11  -6    0.02    0.18 
  10 -11  -6   -0.02    0.17 
   9 -11  -6    0.05    0.15 
   8 -11  -6    0.23    0.17 
   7 -11  -6    0.45    0.19 
   6 -11  -6    0.03    0.13 
   5 -11  -6    0.46    0.18 
   4 -11  -6   -0.01    0.09 
   4 -11  -6   -0.01    0.12 
   3 -11  -6    0.57    0.17 
   3 -11  -6    0.49    0.14 
   2 -11  -6    1.07    0.19 
   2 -11  -6    0.79    0.17 
   1 -11  -6    1.66    0.21 
   1 -11  -6    1.68    0.22 
   0 -11  -6    2.35    0.26 
  -1 -11  -6    0.18    0.12 
  -2 -11  -6    0.46    0.15 
  -3 -11  -6    0.86    0.19 
  -4 -11  -6    0.85    0.20 
  -5 -11  -6    0.24    0.14 
  -6 -11  -6    0.08    0.13 
  -7 -11  -6    0.29    0.16 
  -8 -11  -6    0.37    0.16 
  -9 -11  -6    0.05    0.15 
  10 -12  -6    0.13    0.17 
   9 -12  -6   -0.14    0.16 
   8 -12  -6   -0.11    0.15 
   7 -12  -6    0.20    0.15 
   6 -12  -6    0.26    0.16 
   5 -12  -6    0.72    0.20 
   4 -12  -6    0.43    0.16 
   3 -12  -6   -0.04    0.12 
   3 -12  -6    0.06    0.11 
   2 -12  -6    1.23    0.22 
   2 -12  -6    1.44    0.22 
   1 -12  -6    1.42    0.23 
   0 -12  -6    0.57    0.17 
  -1 -12  -6    0.33    0.15 
  -2 -12  -6    0.15    0.14 
  -3 -12  -6    0.09    0.13 
  -4 -12  -6    0.04    0.13 
  -5 -12  -6    0.03    0.14 
  -6 -12  -6   -0.12    0.13 
  -7 -12  -6    0.04    0.17 
  -8 -12  -6   -0.29    0.12 
   8 -13  -6   -0.22    0.15 
   7 -13  -6    0.01    0.15 
   6 -13  -6    0.37    0.18 
   5 -13  -6    0.13    0.16 
   4 -13  -6    0.03    0.14 
   3 -13  -6    0.48    0.18 
   3 -13  -6    0.40    0.16 
   2 -13  -6    0.41    0.16 
   1 -13  -6    0.31    0.15 
   0 -13  -6    1.44    0.24 
  -1 -13  -6    0.98    0.21 
  -2 -13  -6    1.46    0.27 
  -3 -13  -6   -0.05    0.14 
  -4 -13  -6    0.35    0.19 
  -5 -13  -6    0.07    0.17 
  -6 -13  -6    0.02    0.18 
  -7 -13  -6   -0.16    0.15 
   6 -14  -6    0.04    0.16 
   5 -14  -6    0.44    0.21 
   2 -14  -6    0.03    0.16 
   1 -14  -6    0.15    0.16 
   0 -14  -6   -0.03    0.14 
  -1 -14  -6    0.05    0.14 
  -2 -14  -6    0.22    0.18 
  -3 -14  -6    0.40    0.19 
  -4 -14  -6   -0.10    0.16 
   1 -15  -6    0.09    0.18 
   0 -15  -6    0.08    0.19 
  -6 -14   7    0.23    0.19 
  -5 -14   7    0.20    0.19 
  -4 -14   7    0.50    0.21 
  -3 -14   7    0.12    0.17 
  -2 -14   7    0.14    0.17 
  -1 -14   7    0.08    0.17 
   0 -14   7    0.02    0.16 
   1 -14   7    0.19    0.18 
   2 -14   7   -0.07    0.16 
   3 -14   7   -0.01    0.17 
   4 -14   7   -0.06    0.16 
   4 -14   7    0.17    0.20 
  -8 -13   7    0.26    0.19 
  -7 -13   7    0.48    0.21 
  -6 -13   7    1.33    0.27 
  -5 -13   7    1.15    0.26 
  -4 -13   7   -0.01    0.15 
  -3 -13   7    0.32    0.18 
  -2 -13   7    0.32    0.17 
  -1 -13   7    0.12    0.15 
   0 -13   7    0.14    0.14 
   1 -13   7   -0.07    0.11 
   2 -13   7    0.33    0.18 
   3 -13   7    0.24    0.16 
   3 -13   7    0.22    0.16 
   4 -13   7    0.04    0.14 
   4 -13   7    0.27    0.17 
   5 -13   7    0.23    0.18 
   5 -13   7   -0.03    0.14 
   6 -13   7   -0.02    0.16 
   6 -13   7    0.30    0.18 
 -10 -12   7    0.27    0.20 
  -9 -12   7    0.41    0.19 
  -8 -12   7    0.10    0.14 
  -7 -12   7    0.15    0.15 
  -6 -12   7    0.50    0.17 
  -5 -12   7    2.52    0.33 
  -4 -12   7    1.38    0.26 
  -3 -12   7   -0.19    0.10 
  -2 -12   7    0.94    0.22 
  -1 -12   7    1.16    0.24 
   0 -12   7   -0.14    0.10 
   1 -12   7   -0.07    0.11 
   1 -12   7    0.55    0.18 
   2 -12   7    0.94    0.22 
   2 -12   7    0.84    0.20 
   3 -12   7    0.74    0.20 
   3 -12   7    0.31    0.16 
   4 -12   7    0.25    0.15 
   4 -12   7    0.19    0.15 
   5 -12   7    0.92    0.23 
   5 -12   7    0.47    0.17 
   6 -12   7    0.07    0.14 
   6 -12   7    0.13    0.16 
  -7  12  -7    0.02    0.15 
   7 -12   7    0.18    0.18 
   8 -12   7    0.12    0.18 
  11  11  -7    0.36    0.19 
 -11 -11   7    0.54    0.21 
  10  11  -7    0.68    0.20 
 -10 -11   7    0.76    0.22 
   9  11  -7    0.29    0.15 
  -9 -11   7    0.32    0.15 
   8  11  -7    0.82    0.20 
  -8 -11   7    0.64    0.18 
  -7 -11   7    0.45    0.17 
  -6 -11   7    2.52    0.31 
  -5 -11   7    1.44    0.25 
  -4 -11   7    0.13    0.13 
  -3 -11   7    0.07    0.12 
  -2 -11   7    1.13    0.22 
  -1 -11   7   -0.08    0.10 
   0 -11   7    0.41    0.16 
   0 -11   7    0.48    0.16 
   1 -11   7    0.75    0.17 
   1 -11   7    0.61    0.18 
   2 -11   7    0.26    0.14 
   2 -11   7    0.38    0.15 
   3 -11   7    0.25    0.13 
   3 -11   7    0.38    0.15 
   4 -11   7    1.02    0.20 
   4 -11   7    0.59    0.19 
   5 -11   7    0.93    0.21 
   5 -11   7    1.02    0.22 
   6 -11   7    0.06    0.13 
   6 -11   7   -0.07    0.11 
  -7  11  -7    0.02    0.13 
   7 -11   7    0.17    0.16 
  -8  11  -7    0.14    0.17 
   8 -11   7    0.32    0.18 
   9 -11   7    0.15    0.19 
  12  10  -7    0.10    0.19 
 -12 -10   7    0.10    0.18 
  11  10  -7    0.31    0.19 
 -11 -10   7    0.39    0.17 
  10  10  -7    0.15    0.15 
 -10 -10   7    0.37    0.16 
   9  10  -7    1.12    0.21 
  -9 -10   7    1.58    0.26 
   8  10  -7    1.48    0.22 
  -8 -10   7    1.47    0.25 
   7  10  -7    0.40    0.14 
  -7 -10   7    0.44    0.15 
   6  10  -7    1.32    0.19 
  -6 -10   7    1.17    0.21 
  -5 -10   7    1.49    0.23 
  -4 -10   7    0.48    0.17 
  -3 -10   7    0.48    0.16 
  -2 -10   7    1.88    0.25 
  -1 -10   7    1.82    0.20 
  -1 -10   7    1.25    0.21 
   0 -10   7   -0.08    0.08 
   0 -10   7    0.24    0.12 
   1 -10   7    0.63    0.16 
   1 -10   7    0.40    0.14 
   2 -10   7    1.09    0.20 
   2 -10   7    1.21    0.21 
   3 -10   7    0.25    0.12 
   3 -10   7   -0.01    0.11 
   4 -10   7    0.29    0.13 
   4 -10   7    0.47    0.17 
   5 -10   7    1.90    0.27 
   5 -10   7    1.41    0.23 
   6 -10   7    0.05    0.13 
   6 -10   7    0.39    0.15 
  -7  10  -7    0.53    0.17 
   7 -10   7    0.74    0.21 
  -8  10  -7    0.40    0.16 
   8 -10   7    0.50    0.19 
   9 -10   7    0.28    0.18 
  10 -10   7   -0.12    0.15 
  13   9  -7   -0.16    0.17 
  12   9  -7    0.12    0.15 
  11   9  -7    0.22    0.16 
 -11  -9   7    0.10    0.14 
  10   9  -7    0.01    0.13 
 -10  -9   7    0.03    0.12 
   9   9  -7    0.30    0.15 
  -9  -9   7    0.38    0.15 
   8   9  -7   -0.03    0.11 
  -8  -9   7    0.07    0.11 
   7   9  -7    0.49    0.14 
  -7  -9   7    0.93    0.20 
   6   9  -7    2.83    0.24 
  -6  -9   7    3.08    0.31 
   5   9  -7    1.26    0.16 
  -5  -9   7    1.09    0.19 
   4   9  -7    4.39    0.25 
  -4  -9   7    3.41    0.32 
  -3  -9   7   14.58    0.70 
  -2  -9   7    6.50    0.41 
  -1  -9   7    1.68    0.23 
  -1  -9   7    2.17    0.21 
   0  -9   7    8.93    0.46 
   0  -9   7    8.59    0.49 
   1  -9   7    2.15    0.25 
   1  -9   7    2.41    0.24 
   2  -9   7    0.70    0.16 
   2  -9   7    0.49    0.14 
   3  -9   7   -0.10    0.09 
   3  -9   7    0.20    0.13 
   4  -9   7    0.94    0.19 
   4  -9   7    1.14    0.21 
   5  -9   7    0.21    0.12 
   5  -9   7    0.03    0.12 
  -6   9  -7    0.01    0.10 
   6  -9   7    0.02    0.12 
  -7   9  -7    0.98    0.18 
   7  -9   7    1.08    0.22 
  -8   9  -7    0.68    0.16 
   8  -9   7    0.40    0.18 
  -9   9  -7   -0.05    0.14 
   9  -9   7    0.02    0.13 
  10  -9   7    0.23    0.18 
  11  -9   7    0.09    0.22 
  13   8  -7    0.04    0.18 
  12   8  -7    0.42    0.19 
  11   8  -7    0.67    0.20 
 -11  -8   7    0.54    0.17 
  10   8  -7    0.13    0.12 
 -10  -8   7    0.26    0.13 
   9   8  -7    0.19    0.12 
  -9  -8   7    0.23    0.14 
   8   8  -7    2.31    0.24 
  -8  -8   7    2.21    0.26 
   7   8  -7    1.64    0.20 
  -7  -8   7    2.25    0.25 
   6   8  -7    2.82    0.23 
  -6  -8   7    3.13    0.29 
   5   8  -7    2.56    0.20 
  -5  -8   7    2.43    0.26 
   4   8  -7    0.28    0.09 
  -4  -8   7    0.24    0.12 
   3   8  -7    6.08    0.30 
  -3  -8   7    6.48    0.39 
   2   8  -7    1.18    0.12 
  -2  -8   7    1.09    0.18 
  -1  -8   7    0.25    0.11 
  -1  -8   7    0.09    0.09 
   0  -8   7    0.60    0.13 
   0  -8   7    0.52    0.14 
   1  -8   7    0.91    0.17 
   1  -8   7    0.87    0.16 
   2  -8   7    0.00    0.10 
   2  -8   7    0.18    0.11 
   3  -8   7    0.17    0.10 
   3  -8   7    0.34    0.14 
   4  -8   7    1.47    0.21 
   4  -8   7    1.71    0.23 
   5  -8   7    0.34    0.13 
   5  -8   7    0.29    0.13 
  -6   8  -7    1.45    0.20 
   6  -8   7    1.47    0.23 
  -7   8  -7    0.02    0.10 
   7  -8   7   -0.04    0.10 
  -8   8  -7    0.43    0.14 
   8  -8   7    0.50    0.18 
  -9   8  -7    0.87    0.18 
   9  -8   7    0.61    0.21 
  10  -8   7    0.65    0.22 
  11  -8   7    0.38    0.21 
  12  -8   7    0.20    0.22 
  14   7  -7    0.23    0.21 
  13   7  -7    0.08    0.16 
  12   7  -7    0.01    0.13 
  11   7  -7    0.32    0.15 
 -11  -7   7    0.41    0.15 
  10   7  -7    0.18    0.13 
 -10  -7   7    0.00    0.10 
   9   7  -7    1.22    0.20 
  -9  -7   7    1.46    0.21 
   8   7  -7    0.37    0.13 
  -8  -7   7    0.16    0.11 
   7   7  -7    0.24    0.12 
  -7  -7   7    0.26    0.12 
   6   7  -7    8.23    0.42 
  -6  -7   7    9.44    0.48 
   5   7  -7    2.71    0.20 
  -5  -7   7    2.67    0.25 
   4   7  -7    6.51    0.32 
  -4  -7   7    6.47    0.38 
   3   7  -7   14.27    0.55 
  -3  -7   7   14.48    0.64 
   2   7  -7    8.62    0.35 
  -2  -7   7    7.77    0.43 
   1   7  -7    0.00    0.04 
  -1  -7   7    0.15    0.10 
  -1  -7   7    0.06    0.08 
   0  -7   7    0.06    0.08 
   0  -7   7    0.19    0.10 
   1  -7   7    3.13    0.24 
   1  -7   7    3.59    0.28 
   2  -7   7    0.92    0.17 
   2  -7   7    1.01    0.16 
   3  -7   7    1.17    0.19 
   3  -7   7    1.01    0.17 
   4  -7   7   12.43    0.61 
   4  -7   7   12.47    0.59 
  -5   7  -7    1.82    0.21 
   5  -7   7    2.03    0.24 
  -6   7  -7    0.20    0.11 
   6  -7   7    0.32    0.14 
  -7   7  -7    1.65    0.21 
   7  -7   7    1.75    0.26 
  -8   7  -7    1.73    0.22 
   8  -7   7    1.55    0.25 
  -9   7  -7    0.01    0.10 
   9  -7   7   -0.01    0.12 
 -10   7  -7    0.02    0.13 
  10  -7   7    0.23    0.17 
  11  -7   7   -0.03    0.15 
  12  -7   7   -0.07    0.17 
  15   6  -7    0.09    0.17 
  14   6  -7    0.97    0.24 
  13   6  -7    0.32    0.17 
  12   6  -7    0.13    0.14 
  11   6  -7    1.83    0.25 
 -11  -6   7    2.03    0.24 
  10   6  -7    0.25    0.13 
 -10  -6   7    0.33    0.13 
   9   6  -7    3.98    0.30 
  -9  -6   7    4.38    0.30 
   8   6  -7    9.23    0.47 
  -8  -6   7    9.43    0.48 
   7   6  -7    0.33    0.12 
  -7  -6   7    0.26    0.11 
   6   6  -7    3.06    0.22 
  -6  -6   7    2.84    0.25 
   5   6  -7   13.79    0.57 
  -5  -6   7   14.17    0.62 
   4   6  -7    2.82    0.19 
  -4  -6   7    2.79    0.24 
   3   6  -7    4.62    0.23 
  -3  -6   7    4.61    0.29 
   2   6  -7    0.91    0.09 
  -2  -6   7    0.84    0.14 
   1   6  -7    0.39    0.06 
  -1  -6   7    0.33    0.09 
  -1  -6   7    0.27    0.10 
   0   6  -7    7.25    0.27 
   0  -6   7    7.05    0.37 
   0  -6   7    6.89    0.37 
   1  -6   7    6.21    0.35 
   1  -6   7    7.03    0.37 
   2  -6   7    4.23    0.29 
   2  -6   7    4.58    0.29 
   3  -6   7    2.33    0.22 
   3  -6   7    1.94    0.21 
   4  -6   7    5.70    0.36 
   4  -6   7    5.98    0.35 
  -5   6  -7    0.28    0.11 
   5  -6   7    0.14    0.12 
  -6   6  -7    6.80    0.38 
   6  -6   7    6.67    0.43 
  -7   6  -7    9.58    0.47 
   7  -6   7    8.78    0.52 
  -8   6  -7    2.47    0.23 
   8  -6   7    3.05    0.31 
  -9   6  -7    0.37    0.13 
   9  -6   7    0.16    0.14 
 -10   6  -7    0.19    0.11 
  10  -6   7    0.05    0.13 
  11  -6   7    0.44    0.20 
  12  -6   7    0.07    0.16 
  13  -6   7   -0.04    0.21 
  15   5  -7    0.26    0.20 
  14   5  -7    0.76    0.23 
  13   5  -7    0.05    0.15 
  12   5  -7   -0.02    0.12 
  11   5  -7    0.01    0.12 
  10   5  -7    1.57    0.21 
 -10  -5   7    1.50    0.20 
   9   5  -7    0.19    0.12 
  -9  -5   7    0.10    0.10 
   8   5  -7    1.44    0.19 
  -8  -5   7    1.21    0.17 
   7   5  -7    3.60    0.25 
  -7  -5   7    3.76    0.25 
   6   5  -7    0.00    0.04 
   6   5  -7   -0.16    0.06 
  -6  -5   7    0.07    0.08 
   5   5  -7    0.23    0.08 
  -5  -5   7    0.35    0.09 
   4   5  -7    0.17    0.07 
  -4  -5   7    0.13    0.08 
   3   5  -7    3.18    0.18 
  -3  -5   7    2.99    0.21 
   2   5  -7    3.04    0.16 
  -2  -5   7    2.60    0.20 
   1   5  -7   12.08    0.43 
  -1  -5   7   11.13    0.51 
   0   5  -7    8.15    0.30 
   0  -5   7    8.25    0.40 
   0  -5   7    8.36    0.41 
  -1   5  -7   17.87    0.59 
   1  -5   7   17.95    0.72 
   1  -5   7   17.88    0.74 
   2  -5   7    2.44    0.21 
   2  -5   7    2.32    0.21 
   3  -5   7    3.89    0.26 
   3  -5   7    3.78    0.26 
  -4   5  -7    1.32    0.16 
   4  -5   7    1.12    0.18 
  -5   5  -7    0.95    0.14 
   5  -5   7    1.14    0.18 
  -6   5  -7    1.35    0.17 
   6  -5   7    1.41    0.21 
  -7   5  -7   -0.01    0.09 
   7  -5   7    0.01    0.11 
  -8   5  -7   -0.16    0.08 
   8  -5   7    0.14    0.13 
  -9   5  -7    0.23    0.11 
   9  -5   7    0.20    0.13 
 -10   5  -7    0.19    0.11 
  10  -5   7    0.04    0.13 
  11  -5   7    0.03    0.14 
  12  -5   7   -0.05    0.16 
  13  -5   7    0.13    0.19 
  15   4  -7    0.05    0.16 
  14   4  -7   -0.11    0.14 
  13   4  -7    0.41    0.16 
  12   4  -7    0.19    0.14 
  11   4  -7    0.06    0.11 
  10   4  -7    0.77    0.17 
 -10  -4   7    0.66    0.13 
   9   4  -7    0.69    0.16 
   8   4  -7    2.46    0.15 
   8   4  -7    2.12    0.22 
  -8  -4   7    2.24    0.20 
   7   4  -7   11.06    0.49 
   7   4  -7   10.49    0.42 
  -7  -4   7   10.49    0.47 
   6   4  -7    1.21    0.10 
   6   4  -7    1.58    0.15 
  -6  -4   7    1.17    0.14 
   5   4  -7    0.39    0.06 
   5   4  -7    0.48    0.10 
  -5  -4   7    0.39    0.09 
   4   4  -7   21.09    0.78 
  -4  -4   7   21.42    0.81 
   3   4  -7   61.34    2.07 
  -3  -4   7   63.55    2.12 
  -2  -4   7    2.94    0.20 
  -1  -4   7    2.50    0.19 
   0  -4   7   16.59    0.66 
   0  -4   7   16.31    0.66 
   1  -4   7   12.84    0.54 
   1  -4   7   12.06    0.54 
   2  -4   7    1.96    0.18 
   2  -4   7    1.87    0.18 
  -3   4  -7   -0.03    0.05 
   3  -4   7    0.04    0.07 
  -4   4  -7    1.21    0.14 
   4  -4   7    0.99    0.16 
  -5   4  -7    5.06    0.28 
   5  -4   7    4.41    0.30 
  -6   4  -7    4.16    0.26 
   6  -4   7    3.76    0.29 
  -7   4  -7    0.41    0.11 
   7  -4   7    0.37    0.14 
  -8   4  -7    2.91    0.23 
   8  -4   7    3.19    0.30 
  -9   4  -7    1.32    0.18 
   9  -4   7    1.81    0.25 
 -10   4  -7    0.09    0.11 
  10  -4   7    0.21    0.14 
 -11   4  -7    1.71    0.21 
  11  -4   7    1.49    0.26 
  12  -4   7    0.37    0.18 
  13  -4   7    0.03    0.17 
  16   3  -7    0.18    0.18 
  15   3  -7   -0.03    0.15 
  14   3  -7    0.21    0.15 
  13   3  -7   -0.10    0.10 
  12   3  -7    0.03    0.11 
  11   3  -7    3.06    0.29 
  10   3  -7    5.31    0.35 
   9   3  -7    0.74    0.17 
   9   3  -7    1.04    0.12 
  -9  -3   7    0.94    0.14 
   8   3  -7    6.56    0.37 
   8   3  -7    7.39    0.33 
  -8  -3   7    7.18    0.34 
   7   3  -7    0.48    0.08 
   7   3  -7    0.32    0.10 
   6   3  -7    0.46    0.07 
   6   3  -7    0.41    0.09 
  -6  -3   7    0.31    0.08 
   5   3  -7    1.32    0.13 
   5   3  -7    1.51    0.11 
  -5  -3   7    1.64    0.14 
  -4  -3   7    0.13    0.06 
  -3  -3   7    6.30    0.30 
  -2  -3   7    5.82    0.29 
  -1  -3   7   18.74    0.71 
   0  -3   7    7.53    0.35 
   1  -3   7   13.75    0.57 
   1  -3   7   13.23    0.55 
  -2   3  -7    3.98    0.22 
   2  -3   7    3.65    0.24 
  -3   3  -7    2.15    0.17 
   3  -3   7    2.49    0.20 
  -4   3  -7    2.76    0.19 
   4  -3   7    3.57    0.24 
  -5   3  -7    0.02    0.06 
   5  -3   7    0.01    0.07 
  -6   3  -7    7.07    0.35 
   6  -3   7    5.76    0.37 
  -7   3  -7    4.77    0.29 
   7  -3   7    5.51    0.36 
  -8   3  -7    4.52    0.29 
   8  -3   7    4.24    0.33 
  -9   3  -7    0.89    0.17 
   9  -3   7    1.00    0.19 
 -10   3  -7    1.19    0.18 
  10  -3   7    1.43    0.24 
 -11   3  -7    0.26    0.12 
  11  -3   7    0.19    0.14 
  12  -3   7    0.24    0.16 
  13  -3   7    0.26    0.18 
  14  -3   7    0.35    0.23 
  16   2  -7    0.08    0.17 
  15   2  -7    0.19    0.16 
  14   2  -7    0.21    0.15 
  13   2  -7    0.25    0.14 
  12   2  -7    0.03    0.12 
  11   2  -7    1.59    0.22 
  10   2  -7    5.18    0.28 
  10   2  -7    5.00    0.33 
   9   2  -7    0.15    0.08 
   9   2  -7    0.02    0.09 
  -9  -2   7    0.05    0.06 
   8   2  -7    0.91    0.15 
   8   2  -7    1.13    0.12 
  -8  -2   7    1.04    0.11 
   7   2  -7   11.59    0.49 
   7   2  -7   10.88    0.46 
  -7  -2   7   10.95    0.44 
   6   2  -7    0.14    0.05 
   6   2  -7    0.13    0.07 
  -6  -2   7    0.12    0.06 
  -5  -2   7   17.28    0.64 
   4   2  -7  234.25    7.82 
  -4  -2   7  236.12    7.58 
  -3  -2   7    0.03    0.04 
  -2  -2   7   11.17    0.45 
  -1  -2   7   86.76    2.87 
   0  -2   7    9.76    0.42 
  -1   2  -7   10.77    0.44 
  -2   2  -7   13.26    0.53 
   2  -2   7   14.14    0.58 
  -3   2  -7    4.47    0.24 
   3  -2   7    4.60    0.27 
  -4   2  -7    2.61    0.18 
   4  -2   7    2.58    0.21 
  -5   2  -7    1.96    0.17 
   5  -2   7    1.61    0.18 
  -6   2  -7    6.07    0.33 
   6  -2   7    6.86    0.37 
  -7   2  -7    2.43    0.21 
   7  -2   7    2.62    0.25 
  -8   2  -7    1.79    0.20 
   8  -2   7    1.60    0.21 
   8  -2   7    1.39    0.17 
  -9   2  -7    0.53    0.14 
   9  -2   7    0.34    0.14 
   9  -2   7    0.50    0.14 
 -10   2  -7    0.18    0.11 
  10  -2   7   -0.07    0.11 
  10  -2   7    0.09    0.13 
 -11   2  -7    1.08    0.18 
  11  -2   7    0.95    0.20 
 -12   2  -7    0.64    0.17 
  12  -2   7    0.50    0.19 
  13  -2   7   -0.01    0.16 
  16   1  -7    0.04    0.16 
  15   1  -7    0.18    0.16 
  14   1  -7   -0.03    0.13 
  13   1  -7   -0.03    0.11 
  12   1  -7   -0.12    0.10 
  11   1  -7    0.29    0.09 
  11   1  -7    0.20    0.12 
  10   1  -7    0.36    0.10 
  10   1  -7    0.12    0.11 
   9   1  -7    0.94    0.13 
   9   1  -7    0.54    0.14 
   8   1  -7    2.13    0.21 
   8   1  -7    2.67    0.18 
  -8  -1   7    2.54    0.15 
   7   1  -7    3.85    0.24 
   7   1  -7    3.85    0.22 
  -7  -1   7    4.10    0.20 
   6   1  -7   -0.07    0.04 
  -6  -1   7    0.00    0.04 
   5   1  -7   20.78    0.77 
  -5  -1   7   20.57    0.73 
   4   1  -7   21.48    0.78 
  -4  -1   7   20.96    0.75 
  -2  -1   7    4.91    0.23 
   1   1  -7   27.52    0.95 
   0   1  -7    4.39    0.21 
  -1   1  -7   13.75    0.52 
  -2   1  -7    0.02    0.04 
  -3   1  -7   61.95    2.08 
  -4   1  -7    2.35    0.17 
   4  -1   7    2.18    0.18 
  -5   1  -7    5.80    0.30 
   5  -1   7    5.74    0.32 
  -6   1  -7   15.60    0.64 
   6  -1   7   15.42    0.67 
  -7   1  -7    3.17    0.24 
   7  -1   7    3.52    0.24 
   7  -1   7    3.38    0.25 
  -8   1  -7    0.81    0.15 
   8  -1   7    1.00    0.16 
   8  -1   7    0.66    0.15 
  -9   1  -7   -0.02    0.09 
   9  -1   7    0.09    0.11 
   9  -1   7    0.07    0.11 
 -10   1  -7   -0.15    0.08 
  10  -1   7    0.05    0.11 
  10  -1   7    0.07    0.11 
 -11   1  -7    0.37    0.13 
  11  -1   7    0.58    0.17 
  11  -1   7    0.41    0.14 
 -12   1  -7    0.24    0.13 
  12  -1   7    0.34    0.17 
  12  -1   7    0.40    0.17 
  16   0  -7    0.07    0.16 
  15   0  -7   -0.14    0.13 
  14   0  -7    0.12    0.15 
  13   0  -7   -0.10    0.12 
  12   0  -7    0.03    0.10 
  12   0  -7    0.00    0.10 
  11   0  -7    0.07    0.11 
  11   0  -7   -0.12    0.08 
  10   0  -7   -0.03    0.10 
  10   0  -7    0.08    0.09 
   9   0  -7    0.00    0.07 
   9   0  -7    0.11    0.10 
   8   0  -7    0.07    0.07 
   8   0  -7    0.00    0.07 
   7   0  -7    0.09    0.06 
  -7   0   7    0.03    0.03 
   6   0  -7   -0.02    0.05 
  -6   0   7   -0.10    0.03 
   5   0  -7    0.00    0.04 
  -5   0   7    0.03    0.03 
   4   0  -7   -0.01    0.03 
   4   0  -7   -0.02    0.04 
   3   0  -7    0.06    0.04 
   3   0  -7    0.04    0.03 
   2   0  -7   -0.05    0.02 
   1   0  -7    0.00    0.03 
   0   0  -7    0.03    0.03 
  -1   0  -7    0.01    0.04 
  -2   0  -7    0.09    0.05 
  -3   0  -7   -0.02    0.05 
  -4   0  -7    0.00    0.05 
  -5   0  -7   -0.01    0.06 
   5   0   7   -0.09    0.05 
  -6   0  -7    0.02    0.07 
   6   0   7    0.18    0.09 
  -7   0  -7   -0.03    0.07 
   7   0   7    0.02    0.07 
   7   0   7   -0.01    0.09 
  -8   0  -7    0.01    0.08 
   8   0   7    0.01    0.07 
   8   0   7   -0.11    0.09 
  -9   0  -7    0.01    0.09 
   9   0   7   -0.01    0.09 
   9   0   7   -0.10    0.11 
 -10   0  -7    0.08    0.10 
  10   0   7   -0.16    0.11 
  10   0   7   -0.06    0.10 
 -11   0  -7   -0.02    0.09 
  11   0   7   -0.08    0.12 
  11   0   7    0.10    0.12 
 -12   0  -7    0.11    0.12 
  12   0   7   -0.06    0.12 
  13   0   7   -0.03    0.14 
  16  -1  -7   -0.01    0.14 
  15  -1  -7    0.66    0.19 
  14  -1  -7    0.16    0.14 
  13  -1  -7    0.10    0.12 
  13  -1  -7    0.12    0.13 
  12  -1  -7   -0.07    0.10 
  12  -1  -7    0.04    0.10 
  11  -1  -7    0.20    0.11 
  11  -1  -7    0.44    0.13 
  10  -1  -7    0.25    0.12 
  10  -1  -7    0.15    0.11 
   9  -1  -7    0.75    0.13 
   9  -1  -7    0.88    0.15 
   8  -1  -7    2.67    0.20 
   7  -1  -7    3.97    0.24 
   6  -1  -7    0.06    0.06 
   5  -1  -7   19.93    0.67 
   5  -1  -7   20.62    0.77 
   4  -1  -7   21.91    0.81 
   4  -1  -7   21.43    0.72 
   3  -1  -7   13.57    0.47 
   3  -1  -7   13.32    0.53 
   2  -1  -7    5.08    0.25 
   2  -1  -7    5.39    0.22 
   1  -1  -7   28.32    0.97 
   0  -1  -7    4.07    0.20 
  -1  -1  -7   15.09    0.57 
  -2  -1  -7   -0.03    0.04 
  -3  -1  -7   59.94    2.02 
  -4  -1  -7    2.24    0.17 
  -5  -1  -7    5.87    0.31 
  -6  -1  -7   15.03    0.63 
  -7  -1  -7    3.20    0.24 
   7   1   7    3.28    0.25 
  -8  -1  -7    0.67    0.14 
   8   1   7    0.57    0.16 
  -9  -1  -7    0.07    0.10 
   9   1   7    0.08    0.12 
 -10  -1  -7    0.04    0.10 
  10   1   7    0.18    0.13 
 -11  -1  -7    0.38    0.14 
  11   1   7    0.27    0.15 
 -12  -1  -7    0.28    0.14 
  12   1   7    0.47    0.17 
 -13  -1  -7   -0.01    0.14 
  13   1   7   -0.07    0.14 
  14   1   7    0.21    0.18 
  16  -2  -7    0.14    0.16 
  15  -2  -7    0.01    0.14 
  14  -2  -7   -0.04    0.12 
  14  -2  -7    0.06    0.12 
  13  -2  -7    0.18    0.14 
  13  -2  -7    0.16    0.14 
  12  -2  -7   -0.06    0.10 
  12  -2  -7    0.05    0.10 
  11  -2  -7    1.50    0.20 
  11  -2  -7    1.87    0.22 
  10  -2  -7    5.36    0.33 
  10  -2  -7    4.82    0.32 
   9  -2  -7    0.11    0.11 
   8  -2  -7    0.92    0.14 
   7  -2  -7   11.41    0.51 
   6  -2  -7    0.09    0.06 
   5  -2  -7   29.17    1.08 
   4  -2  -7  236.78    7.82 
   4  -2  -7  231.84    7.50 
   3  -2  -7    0.02    0.05 
   3  -2  -7    0.04    0.03 
   2  -2  -7   10.28    0.44 
   2  -2  -7   10.88    0.39 
   1  -2  -7   81.47    2.78 
   1  -2  -7   82.05    2.67 
   0  -2  -7   10.54    0.41 
  -1  -2  -7   10.31    0.42 
  -2  -2  -7   13.23    0.52 
  -3  -2  -7    4.45    0.24 
  -4  -2  -7    2.25    0.18 
  -5  -2  -7    1.46    0.16 
  -6  -2  -7    6.16    0.34 
  -7  -2  -7    2.63    0.23 
   7   2   7    2.26    0.24 
  -8  -2  -7    1.58    0.20 
   8   2   7    1.61    0.21 
  -9  -2  -7    0.57    0.14 
   9   2   7    0.38    0.15 
 -10  -2  -7    0.02    0.10 
  10   2   7    0.12    0.13 
 -11  -2  -7    1.33    0.21 
  11   2   7    1.14    0.23 
 -12  -2  -7    0.59    0.17 
  12   2   7    0.58    0.18 
 -13  -2  -7    0.13    0.14 
  13   2   7    0.24    0.17 
  14   2   7    0.03    0.18 
  16  -3  -7    0.20    0.17 
  15  -3  -7    0.14    0.15 
  15  -3  -7    0.17    0.17 
  14  -3  -7    0.12    0.13 
  14  -3  -7    0.22    0.15 
  13  -3  -7    0.12    0.13 
  13  -3  -7   -0.04    0.11 
  12  -3  -7    0.00    0.11 
  12  -3  -7   -0.15    0.09 
  11  -3  -7    2.87    0.27 
  11  -3  -7    2.98    0.26 
  10  -3  -7    4.39    0.31 
  10  -3  -7    4.59    0.30 
   9  -3  -7    0.89    0.17 
   8  -3  -7    6.74    0.37 
   7  -3  -7    0.47    0.11 
   6  -3  -7    0.46    0.10 
   5  -3  -7    1.70    0.16 
   4  -3  -7    0.18    0.03 
   4  -3  -7    0.23    0.08 
   3  -3  -7    6.90    0.33 
   3  -3  -7    6.80    0.27 
   2  -3  -7    5.72    0.24 
   2  -3  -7    5.67    0.28 
   1  -3  -7   17.56    0.64 
   1  -3  -7   17.83    0.68 
   0  -3  -7    7.35    0.33 
   0  -3  -7    7.61    0.32 
  -1  -3  -7   14.35    0.55 
  -2  -3  -7    4.13    0.23 
  -3  -3  -7    2.05    0.17 
  -4  -3  -7    3.05    0.21 
  -5  -3  -7   -0.04    0.06 
  -6  -3  -7    5.72    0.33 
  -7  -3  -7    5.16    0.33 
  -8  -3  -7    4.50    0.31 
   8   3   7    4.54    0.34 
  -9  -3  -7    0.63    0.16 
   9   3   7    1.00    0.19 
 -10  -3  -7    0.84    0.18 
  10   3   7    1.40    0.23 
 -11  -3  -7    0.25    0.13 
  11   3   7    0.35    0.17 
 -12  -3  -7    0.03    0.12 
  12   3   7    0.04    0.15 
 -13  -3  -7    0.15    0.15 
  13   3   7   -0.02    0.16 
  14   3   7    0.46    0.20 
  15  -4  -7    0.05    0.15 
  15  -4  -7    0.18    0.15 
  14  -4  -7    0.35    0.15 
  14  -4  -7    0.60    0.19 
  13  -4  -7    0.24    0.16 
  13  -4  -7    0.34    0.13 
  12  -4  -7    0.11    0.14 
  12  -4  -7    0.06    0.13 
  11  -4  -7   -0.01    0.10 
  11  -4  -7   -0.10    0.11 
  10  -4  -7    0.75    0.17 
   9  -4  -7    0.38    0.14 
   8  -4  -7    2.23    0.23 
   7  -4  -7   10.54    0.51 
   6  -4  -7    1.23    0.15 
   5  -4  -7    0.63    0.05 
   5  -4  -7    0.33    0.09 
   4  -4  -7   21.69    0.74 
   4  -4  -7   21.10    0.84 
   3  -4  -7   62.25    2.06 
   3  -4  -7   62.69    2.18 
   2  -4  -7    3.22    0.20 
   2  -4  -7    3.21    0.17 
   1  -4  -7    3.03    0.19 
   1  -4  -7    2.66    0.16 
   0  -4  -7   16.73    0.64 
   0  -4  -7   16.53    0.63 
  -1  -4  -7   12.82    0.52 
  -1  -4  -7   13.34    0.53 
  -2  -4  -7    2.07    0.17 
  -2  -4  -7    1.77    0.13 
  -3  -4  -7   -0.06    0.05 
  -4  -4  -7    1.43    0.16 
  -5  -4  -7    4.93    0.30 
  -6  -4  -7    4.72    0.30 
  -7  -4  -7    0.26    0.11 
  -8  -4  -7    2.60    0.25 
  -9  -4  -7    1.65    0.22 
   9   4   7    1.58    0.24 
 -10  -4  -7    0.02    0.10 
  10   4   7    0.26    0.14 
 -11  -4  -7    1.93    0.26 
  11   4   7    2.07    0.29 
 -12  -4  -7    0.69    0.18 
  12   4   7    0.69    0.21 
 -13  -4  -7   -0.07    0.13 
  13   4   7   -0.03    0.16 
  15  -5  -7    0.04    0.18 
  14  -5  -7    0.40    0.16 
  14  -5  -7    0.27    0.18 
  13  -5  -7    0.04    0.14 
  13  -5  -7   -0.05    0.12 
  12  -5  -7    0.09    0.13 
  12  -5  -7   -0.05    0.10 
  11  -5  -7    0.03    0.12 
  11  -5  -7    0.05    0.10 
  10  -5  -7    1.23    0.20 
   9  -5  -7    0.02    0.11 
   8  -5  -7    1.36    0.20 
   7  -5  -7    3.67    0.27 
   6  -5  -7    0.07    0.10 
   5  -5  -7    0.24    0.04 
   5  -5  -7    0.29    0.10 
   4  -5  -7    0.13    0.08 
   4  -5  -7    0.24    0.05 
   3  -5  -7    3.04    0.17 
   3  -5  -7    2.47    0.19 
   2  -5  -7    3.24    0.18 
   2  -5  -7    2.85    0.20 
   1  -5  -7   11.94    0.50 
   1  -5  -7   12.05    0.49 
   0  -5  -7    8.43    0.38 
   0  -5  -7    9.04    0.39 
  -1  -5  -7   18.21    0.71 
  -1  -5  -7   18.62    0.70 
  -2  -5  -7    2.50    0.18 
  -2  -5  -7    1.88    0.14 
  -3  -5  -7    3.76    0.23 
  -3  -5  -7    2.96    0.18 
  -4  -5  -7    1.17    0.16 
  -5  -5  -7    0.86    0.15 
  -6  -5  -7    1.59    0.20 
  -7  -5  -7    0.08    0.10 
  -8  -5  -7    0.31    0.14 
  -9  -5  -7    0.11    0.12 
 -10  -5  -7    0.01    0.12 
 -11  -5  -7    0.03    0.13 
 -12  -5  -7    0.18    0.15 
 -13  -5  -7    0.18    0.16 
  15  -6  -7    0.27    0.22 
  14  -6  -7    0.87    0.23 
  13  -6  -7    0.19    0.17 
  12  -6  -7    0.29    0.15 
  12  -6  -7    0.05    0.11 
  11  -6  -7    1.83    0.26 
  10  -6  -7    0.23    0.15 
   9  -6  -7    4.00    0.32 
   8  -6  -7    9.58    0.51 
   7  -6  -7    0.25    0.12 
   6  -6  -7    2.73    0.25 
   5  -6  -7   13.30    0.60 
   5  -6  -7   13.34    0.50 
   4  -6  -7    2.64    0.21 
   4  -6  -7    2.82    0.17 
   3  -6  -7    4.77    0.24 
   3  -6  -7    4.74    0.28 
   2  -6  -7    0.79    0.11 
   2  -6  -7    0.91    0.13 
   1  -6  -7    0.25    0.09 
   1  -6  -7    0.35    0.08 
   0  -6  -7    7.11    0.34 
   0  -6  -7    6.72    0.34 
  -1  -6  -7    7.18    0.36 
  -1  -6  -7    7.54    0.35 
  -2  -6  -7    4.18    0.26 
  -3  -6  -7    2.15    0.16 
  -3  -6  -7    1.72    0.19 
  -4  -6  -7    5.40    0.27 
  -4  -6  -7    5.61    0.33 
  -5  -6  -7    0.13    0.07 
  -5  -6  -7    0.20    0.11 
  -6  -6  -7    6.43    0.39 
  -7  -6  -7   10.00    0.53 
  -8  -6  -7    2.84    0.29 
  -9  -6  -7    0.16    0.12 
 -10  -6  -7    0.08    0.13 
 -11  -6  -7    0.25    0.15 
 -12  -6  -7   -0.11    0.12 
 -13  -6  -7   -0.05    0.14 
  14  -7  -7    0.02    0.20 
  13  -7  -7    0.20    0.19 
  12  -7  -7   -0.14    0.16 
  11  -7  -7    0.15    0.15 
  10  -7  -7    0.16    0.14 
   9  -7  -7    1.23    0.22 
   8  -7  -7    0.20    0.12 
   7  -7  -7    0.15    0.12 
   6  -7  -7    8.99    0.48 
   5  -7  -7    2.49    0.17 
   5  -7  -7    2.86    0.26 
   4  -7  -7    6.24    0.36 
   4  -7  -7    6.50    0.31 
   3  -7  -7   13.36    0.59 
   3  -7  -7   14.06    0.56 
   2  -7  -7    8.51    0.39 
   2  -7  -7    8.58    0.42 
   1  -7  -7    0.02    0.07 
   1  -7  -7    0.08    0.06 
   0  -7  -7    0.11    0.08 
   0  -7  -7    0.16    0.08 
  -1  -7  -7    3.27    0.23 
  -1  -7  -7    3.18    0.21 
  -2  -7  -7    1.06    0.12 
  -2  -7  -7    1.04    0.16 
  -3  -7  -7    0.83    0.15 
  -3  -7  -7    1.22    0.13 
  -4  -7  -7   13.86    0.64 
  -5  -7  -7    2.03    0.23 
  -6  -7  -7    0.23    0.13 
  -7  -7  -7    2.01    0.25 
  -8  -7  -7    1.80    0.25 
  -9  -7  -7   -0.08    0.10 
 -10  -7  -7   -0.05    0.12 
 -11  -7  -7   -0.03    0.12 
 -12  -7  -7   -0.04    0.14 
  13  -8  -7    0.13    0.19 
  12  -8  -7    0.56    0.21 
  11  -8  -7    0.47    0.21 
  10  -8  -7   -0.05    0.14 
   9  -8  -7    0.32    0.16 
   8  -8  -7    1.82    0.25 
   7  -8  -7    1.81    0.23 
   6  -8  -7    3.08    0.28 
   5  -8  -7    2.17    0.24 
   5  -8  -7    2.09    0.16 
   4  -8  -7    0.33    0.13 
   4  -8  -7    0.34    0.08 
   3  -8  -7    5.67    0.31 
   3  -8  -7    6.64    0.37 
   2  -8  -7    1.25    0.16 
   2  -8  -7    1.06    0.16 
   1  -8  -7   -0.05    0.07 
   1  -8  -7    0.06    0.07 
   0  -8  -7    0.48    0.12 
   0  -8  -7    0.64    0.13 
  -1  -8  -7    0.57    0.11 
  -1  -8  -7    1.28    0.17 
  -2  -8  -7    0.08    0.08 
  -2  -8  -7    0.21    0.11 
  -3  -8  -7    0.22    0.11 
  -4  -8  -7    1.54    0.21 
  -5  -8  -7    0.42    0.14 
  -6  -8  -7    1.55    0.23 
  -7  -8  -7    0.15    0.11 
  -8  -8  -7    0.15    0.13 
  -9  -8  -7    1.02    0.22 
 -10  -8  -7    0.30    0.15 
 -11  -8  -7    0.18    0.15 
 -12  -8  -7    0.00    0.13 
  13  -9  -7    0.12    0.21 
  12  -9  -7    0.02    0.17 
  11  -9  -7    0.32    0.19 
  10  -9  -7    0.01    0.14 
   9  -9  -7    0.20    0.15 
   8  -9  -7   -0.21    0.09 
   7  -9  -7    1.09    0.21 
   6  -9  -7    3.21    0.30 
   5  -9  -7    1.29    0.20 
   4  -9  -7    4.23    0.26 
   4  -9  -7    3.85    0.30 
   3  -9  -7   12.91    0.59 
   3  -9  -7   14.86    0.65 
   2  -9  -7    6.73    0.37 
   2  -9  -7    5.33    0.33 
   1  -9  -7    2.31    0.22 
   1  -9  -7    1.96    0.20 
   0  -9  -7    8.80    0.43 
   0  -9  -7    8.32    0.44 
  -1  -9  -7    2.28    0.24 
  -2  -9  -7    0.68    0.16 
  -3  -9  -7    0.06    0.09 
  -4  -9  -7    1.08    0.19 
  -5  -9  -7    0.24    0.13 
  -6  -9  -7    0.00    0.10 
  -7  -9  -7    0.72    0.18 
  -8  -9  -7    0.57    0.18 
  -9  -9  -7    0.02    0.12 
 -10  -9  -7   -0.01    0.14 
 -11  -9  -7    0.18    0.17 
  12 -10  -7    0.12    0.21 
  11 -10  -7    0.18    0.18 
  10 -10  -7    0.40    0.20 
   9 -10  -7    1.22    0.25 
   8 -10  -7    1.11    0.24 
   7 -10  -7    0.52    0.18 
   6 -10  -7    0.96    0.21 
   5 -10  -7    1.68    0.23 
   4 -10  -7    0.65    0.17 
   4 -10  -7    0.75    0.15 
   3 -10  -7    0.76    0.15 
   3 -10  -7    0.36    0.13 
   2 -10  -7    1.81    0.22 
   2 -10  -7    1.61    0.20 
   1 -10  -7    1.63    0.20 
   1 -10  -7    1.80    0.22 
   0 -10  -7    0.07    0.10 
   0 -10  -7    0.14    0.10 
  -1 -10  -7    0.67    0.16 
  -2 -10  -7    1.38    0.21 
  -3 -10  -7    0.10    0.11 
  -4 -10  -7    0.39    0.15 
  -5 -10  -7    1.52    0.24 
  -6 -10  -7    0.17    0.13 
  -7 -10  -7    0.25    0.14 
  -8 -10  -7    0.35    0.16 
  -9 -10  -7   -0.18    0.13 
 -10 -10  -7   -0.03    0.16 
  11 -11  -7    0.74    0.25 
  10 -11  -7    0.99    0.25 
   9 -11  -7    0.14    0.17 
   8 -11  -7    0.66    0.20 
   7 -11  -7    0.46    0.18 
   6 -11  -7    2.67    0.31 
   5 -11  -7    1.07    0.22 
   4 -11  -7    0.15    0.14 
   3 -11  -7    0.23    0.14 
   3 -11  -7    0.29    0.12 
   2 -11  -7    1.07    0.19 
   2 -11  -7    1.07    0.19 
   1 -11  -7    0.01    0.12 
   1 -11  -7   -0.07    0.09 
   0 -11  -7    0.36    0.14 
  -1 -11  -7    0.24    0.13 
  -2 -11  -7    0.31    0.14 
  -3 -11  -7    0.16    0.13 
  -4 -11  -7    0.74    0.19 
  -5 -11  -7    0.70    0.18 
  -6 -11  -7   -0.12    0.11 
  -7 -11  -7    0.05    0.15 
  -8 -11  -7   -0.07    0.14 
  -9 -11  -7   -0.05    0.15 
  10 -12  -7   -0.14    0.17 
   9 -12  -7    0.29    0.17 
   8 -12  -7    0.18    0.17 
   7 -12  -7    0.00    0.15 
   6 -12  -7    0.87    0.21 
   5 -12  -7    1.83    0.27 
   4 -12  -7    1.12    0.22 
   3 -12  -7   -0.02    0.13 
   3 -12  -7    0.01    0.11 
   2 -12  -7    0.58    0.17 
   2 -12  -7    0.98    0.20 
   1 -12  -7    1.21    0.22 
   0 -12  -7   -0.10    0.09 
  -1 -12  -7    0.13    0.13 
  -2 -12  -7    0.89    0.20 
  -3 -12  -7    0.38    0.16 
  -4 -12  -7   -0.03    0.12 
  -5 -12  -7    0.41    0.18 
  -6 -12  -7    0.18    0.17 
  -7 -12  -7    0.03    0.16 
  -8 -12  -7   -0.04    0.14 
   8 -13  -7    0.03    0.17 
   7 -13  -7    0.54    0.21 
   6 -13  -7    1.60    0.27 
   5 -13  -7    0.78    0.22 
   4 -13  -7   -0.10    0.15 
   3 -13  -7    0.66    0.21 
   2 -13  -7    0.45    0.16 
   1 -13  -7    0.03    0.13 
   0 -13  -7    0.30    0.16 
  -1 -13  -7    0.22    0.15 
  -2 -13  -7   -0.11    0.13 
  -3 -13  -7    0.16    0.17 
  -4 -13  -7    0.07    0.14 
  -5 -13  -7   -0.04    0.15 
  -6 -13  -7   -0.08    0.17 
   6 -14  -7    0.34    0.19 
   5 -14  -7    0.15    0.19 
   1 -14  -7    0.41    0.18 
   0 -14  -7    0.11    0.16 
  -1 -14  -7   -0.06    0.14 
  -2 -14  -7    0.04    0.16 
  -3 -14  -7    0.27    0.19 
  -4 -14  -7   -0.24    0.15 
  -5 -14   8    0.80    0.25 
  -4 -14   8    0.43    0.21 
  -3 -14   8   -0.11    0.14 
  -2 -14   8    0.48    0.22 
  -1 -14   8    0.19    0.19 
   0 -14   8    0.15    0.18 
   1 -14   8    0.89    0.28 
   2 -14   8    0.50    0.23 
   3 -14   8    0.28    0.21 
  -8 -13   8    0.22    0.19 
  -7 -13   8   -0.11    0.12 
  -6 -13   8    0.68    0.23 
  -5 -13   8    0.37    0.20 
  -4 -13   8   -0.03    0.12 
  -3 -13   8    0.26    0.18 
  -2 -13   8    0.02    0.15 
  -1 -13   8    1.07    0.25 
   0 -13   8    1.30    0.26 
   1 -13   8    0.12    0.15 
   2 -13   8   -0.03    0.14 
   3 -13   8    0.26    0.18 
   3 -13   8    0.84    0.21 
   4 -13   8    0.36    0.18 
   4 -13   8    0.32    0.20 
   5 -13   8   -0.14    0.15 
   5 -13   8    0.11    0.17 
   6 -13   8    0.16    0.19 
  -9 -12   8    0.04    0.16 
  -8 -12   8    0.16    0.15 
  -7 -12   8    0.01    0.14 
  -6 -12   8    0.01    0.15 
  -5 -12   8    0.41    0.17 
  -4 -12   8    0.08    0.13 
  -3 -12   8   -0.01    0.11 
  -2 -12   8    0.72    0.20 
  -1 -12   8    0.71    0.19 
   0 -12   8    0.16    0.13 
   1 -12   8    0.27    0.16 
   1 -12   8    0.32    0.15 
   2 -12   8    0.12    0.13 
   2 -12   8    0.28    0.15 
   3 -12   8    0.16    0.14 
   3 -12   8    0.03    0.14 
   4 -12   8    0.32    0.18 
   4 -12   8    0.06    0.14 
   5 -12   8    0.27    0.17 
   5 -12   8   -0.05    0.14 
   6 -12   8   -0.10    0.13 
   6 -12   8    0.06    0.16 
  -7  12  -8    0.10    0.16 
   7 -12   8    0.16    0.18 
  11  11  -8    0.09    0.18 
 -11 -11   8   -0.13    0.14 
  10  11  -8    0.15    0.17 
 -10 -11   8    0.29    0.16 
   9  11  -8    0.07    0.16 
  -9 -11   8   -0.01    0.13 
  -8 -11   8   -0.12    0.11 
  -7 -11   8    0.23    0.15 
  -6 -11   8    0.84    0.21 
  -5 -11   8    0.18    0.14 
  -4 -11   8    0.83    0.20 
  -3 -11   8    0.99    0.21 
  -2 -11   8    0.24    0.14 
  -1 -11   8    4.78    0.38 
   0 -11   8    1.03    0.20 
   0 -11   8    1.14    0.20 
   1 -11   8   -0.03    0.11 
   1 -11   8   -0.02    0.11 
   2 -11   8    0.22    0.12 
   2 -11   8    0.12    0.12 
   3 -11   8    1.04    0.20 
   3 -11   8    1.13    0.22 
   4 -11   8    0.70    0.20 
   4 -11   8    0.72    0.19 
   5 -11   8    0.06    0.14 
   5 -11   8    0.01    0.12 
  -6  11  -8    0.60    0.17 
   6 -11   8    0.48    0.19 
  -7  11  -8    0.53    0.18 
   7 -11   8    0.01    0.14 
  -8  11  -8   -0.19    0.14 
   8 -11   8    0.31    0.19 
  12  10  -8    0.12    0.20 
  11  10  -8    0.62    0.20 
 -11 -10   8    0.28    0.17 
  10  10  -8   -0.17    0.12 
 -10 -10   8    0.19    0.15 
   9  10  -8    0.37    0.16 
  -9 -10   8    0.75    0.19 
   8  10  -8    0.43    0.15 
  -8 -10   8    0.38    0.17 
   7  10  -8    0.07    0.12 
  -7 -10   8   -0.07    0.11 
  -6 -10   8    1.11    0.22 
  -5 -10   8    0.04    0.10 
  -4 -10   8    1.19    0.22 
  -3 -10   8    1.60    0.24 
  -2 -10   8    5.98    0.40 
  -1 -10   8    1.54    0.21 
  -1 -10   8    1.79    0.25 
   0 -10   8    0.34    0.13 
   0 -10   8    0.28    0.13 
   1 -10   8    0.55    0.15 
   1 -10   8    0.40    0.15 
   2 -10   8    0.06    0.11 
   2 -10   8    0.13    0.11 
   3 -10   8    0.15    0.12 
   3 -10   8    0.16    0.12 
   4 -10   8    1.62    0.26 
   4 -10   8    1.48    0.24 
   5 -10   8    0.85    0.19 
   5 -10   8    1.22    0.24 
  -6  10  -8   -0.10    0.11 
   6 -10   8    0.01    0.13 
  -7  10  -8    0.20    0.14 
   7 -10   8    0.15    0.16 
  -8  10  -8    0.08    0.13 
   8 -10   8    0.12    0.16 
   9 -10   8    0.25    0.18 
  10 -10   8    0.06    0.19 
  13   9  -8   -0.35    0.16 
  12   9  -8   -0.08    0.16 
  11   9  -8    0.84    0.21 
 -11  -9   8    0.82    0.21 
  10   9  -8    1.03    0.21 
 -10  -9   8    1.22    0.24 
   9   9  -8    1.06    0.21 
  -9  -9   8    1.71    0.26 
   8   9  -8    0.01    0.12 
  -8  -9   8    0.31    0.14 
   7   9  -8    0.34    0.14 
  -7  -9   8    0.49    0.15 
   6   9  -8    0.05    0.10 
  -6  -9   8    0.03    0.10 
   5   9  -8    0.28    0.10 
  -5  -9   8    0.31    0.14 
  -4  -9   8    3.23    0.31 
  -3  -9   8    1.79    0.24 
  -2  -9   8    0.33    0.14 
  -1  -9   8    1.86    0.25 
  -1  -9   8    2.02    0.21 
   0  -9   8    0.20    0.13 
   0  -9   8    0.20    0.12 
   1  -9   8    1.76    0.25 
   1  -9   8    1.75    0.22 
   2  -9   8    0.69    0.16 
   2  -9   8    0.83    0.17 
   3  -9   8    0.08    0.12 
   3  -9   8    0.04    0.08 
   4  -9   8    0.03    0.11 
   4  -9   8    0.09    0.11 
   5  -9   8   -0.03    0.11 
   5  -9   8    0.13    0.12 
  -6   9  -8    1.20    0.20 
   6  -9   8    1.03    0.23 
  -7   9  -8    0.23    0.13 
   7  -9   8    0.42    0.17 
  -8   9  -8    0.06    0.13 
   8  -9   8    0.23    0.13 
  -9   9  -8    0.39    0.16 
   9  -9   8    0.16    0.16 
  10  -9   8    0.42    0.22 
  13   8  -8   -0.10    0.17 
  12   8  -8    1.32    0.26 
  11   8  -8    0.15    0.14 
 -11  -8   8    0.35    0.15 
  10   8  -8    0.79    0.19 
 -10  -8   8    0.85    0.18 
   9   8  -8    4.55    0.33 
  -9  -8   8    4.27    0.34 
   8   8  -8    1.87    0.23 
  -8  -8   8    1.64    0.24 
   7   8  -8    1.95    0.22 
  -7  -8   8    2.47    0.26 
   6   8  -8    0.79    0.15 
  -6  -8   8    0.86    0.17 
   5   8  -8    1.64    0.17 
  -5  -8   8    1.61    0.22 
   4   8  -8    2.19    0.17 
  -4  -8   8    2.34    0.26 
   3   8  -8    4.67    0.25 
  -3  -8   8    4.84    0.33 
  -2  -8   8    7.48    0.43 
  -1  -8   8    4.26    0.31 
  -1  -8   8    3.83    0.27 
   0  -8   8    0.09    0.09 
   0  -8   8    0.06    0.08 
   1  -8   8    5.89    0.38 
   1  -8   8    6.20    0.38 
   2  -8   8    0.69    0.16 
   2  -8   8    0.71    0.16 
   3  -8   8    0.43    0.14 
   3  -8   8    0.47    0.15 
   4  -8   8    4.14    0.32 
   4  -8   8    3.91    0.31 
  -5   8  -8    3.64    0.28 
   5  -8   8    3.90    0.35 
  -6   8  -8    0.22    0.12 
   6  -8   8    0.02    0.13 
  -7   8  -8   -0.02    0.10 
   7  -8   8    0.14    0.13 
  -8   8  -8   -0.06    0.11 
   8  -8   8   -0.07    0.12 
  -9   8  -8    0.69    0.17 
   9  -8   8    0.54    0.21 
  10  -8   8    0.87    0.25 
  11  -8   8    0.25    0.23 
  14   7  -8   -0.19    0.18 
  13   7  -8    0.03    0.17 
  12   7  -8    0.01    0.14 
  11   7  -8    0.06    0.13 
 -11  -7   8    0.03    0.12 
  10   7  -8    0.00    0.12 
 -10  -7   8   -0.03    0.10 
   9   7  -8    1.72    0.22 
  -9  -7   8    1.67    0.23 
   8   7  -8    4.52    0.31 
  -8  -7   8    4.05    0.31 
   7   7  -8    0.21    0.11 
  -7  -7   8    0.31    0.13 
   6   7  -8    2.66    0.21 
  -6  -7   8    3.31    0.28 
   5   7  -8    0.07    0.08 
  -5  -7   8    0.03    0.09 
   4   7  -8    0.24    0.09 
  -4  -7   8    0.00    0.08 
   3   7  -8    0.71    0.10 
  -3  -7   8    0.85    0.16 
   2   7  -8    1.58    0.12 
  -2  -7   8    1.99    0.22 
   1   7  -8    1.21    0.10 
  -1  -7   8    1.15    0.18 
   0  -7   8    6.89    0.38 
   0  -7   8    7.14    0.40 
   1  -7   8    0.30    0.11 
   1  -7   8    0.32    0.11 
   2  -7   8    0.01    0.10 
   2  -7   8    0.04    0.08 
   3  -7   8    1.17    0.18 
   3  -7   8    0.96    0.19 
   4  -7   8    0.98    0.18 
   4  -7   8    0.97    0.19 
  -5   7  -8   -0.05    0.09 
   5  -7   8   -0.03    0.10 
  -6   7  -8    0.05    0.11 
   6  -7   8   -0.03    0.11 
  -7   7  -8    0.63    0.15 
   7  -7   8    0.50    0.18 
  -8   7  -8    0.22    0.13 
   8  -7   8    0.23    0.15 
  -9   7  -8    0.57    0.15 
   9  -7   8    0.48    0.20 
 -10   7  -8    1.29    0.21 
  10  -7   8    1.44    0.28 
  11  -7   8    0.24    0.19 
  12  -7   8   -0.02    0.20 
  14   6  -8   -0.22    0.15 
  13   6  -8    0.09    0.15 
  12   6  -8    0.37    0.17 
  11   6  -8    0.26    0.14 
  10   6  -8    1.07    0.19 
 -10  -6   8    1.49    0.21 
   9   6  -8    1.82    0.22 
  -9  -6   8    2.31    0.24 
   8   6  -8    0.26    0.13 
  -8  -6   8    0.26    0.12 
   7   6  -8    0.28    0.11 
  -7  -6   8    0.08    0.11 
   6   6  -8    0.24    0.10 
  -6  -6   8    0.17    0.10 
   5   6  -8   14.66    0.60 
  -5  -6   8   15.25    0.66 
   4   6  -8    1.96    0.15 
  -4  -6   8    1.39    0.18 
   3   6  -8    0.08    0.06 
  -3  -6   8    0.05    0.08 
   2   6  -8    7.60    0.32 
  -2  -6   8    8.20    0.42 
   1   6  -8    3.86    0.18 
  -1  -6   8    3.74    0.27 
   0   6  -8    0.17    0.04 
   0  -6   8    0.07    0.08 
   0  -6   8   -0.01    0.07 
   1  -6   8    0.02    0.07 
   1  -6   8    0.00    0.06 
   2  -6   8    6.54    0.37 
   2  -6   8    5.78    0.35 
   3  -6   8    0.49    0.13 
   3  -6   8    0.53    0.14 
  -4   6  -8    0.07    0.09 
   4  -6   8   -0.03    0.09 
  -5   6  -8    2.05    0.21 
   5  -6   8    2.08    0.25 
  -6   6  -8    1.28    0.18 
   6  -6   8    1.15    0.22 
  -7   6  -8    0.04    0.10 
   7  -6   8   -0.07    0.12 
  -8   6  -8    0.09    0.11 
   8  -6   8   -0.02    0.12 
  -9   6  -8    0.03    0.10 
   9  -6   8   -0.18    0.12 
 -10   6  -8    0.44    0.14 
  10  -6   8    0.79    0.22 
  11  -6   8    0.51    0.20 
  12  -6   8    0.08    0.18 
  15   5  -8    0.00    0.19 
  14   5  -8    0.33    0.20 
  13   5  -8    0.04    0.15 
  12   5  -8    0.02    0.12 
  11   5  -8    0.35    0.14 
  10   5  -8    0.39    0.14 
 -10  -5   8    0.37    0.12 
   9   5  -8    6.59    0.39 
  -9  -5   8    6.05    0.35 
   8   5  -8   -0.03    0.10 
  -8  -5   8    0.15    0.09 
   7   5  -8    0.93    0.10 
   7   5  -8    0.86    0.15 
  -7  -5   8    0.89    0.15 
   6   5  -8   23.29    0.90 
   6   5  -8   22.86    0.86 
  -6  -5   8   25.64    0.93 
   5   5  -8    1.49    0.15 
  -5  -5   8    1.24    0.16 
   4   5  -8    4.22    0.23 
  -4  -5   8    4.60    0.28 
   3   5  -8   13.09    0.52 
  -3  -5   8   14.85    0.60 
   2   5  -8    3.23    0.17 
  -2  -5   8    3.21    0.23 
   1   5  -8   14.78    0.53 
  -1  -5   8   14.54    0.62 
   0  -5   8    7.10    0.37 
   1  -5   8    8.92    0.44 
   1  -5   8    8.70    0.44 
   2  -5   8   -0.09    0.05 
   2  -5   8    0.01    0.07 
  -3   5  -8    4.67    0.27 
   3  -5   8    3.86    0.28 
  -4   5  -8    1.36    0.17 
   4  -5   8    1.26    0.19 
  -5   5  -8    0.12    0.09 
   5  -5   8    0.10    0.11 
  -6   5  -8    3.73    0.27 
   6  -5   8    3.87    0.32 
  -7   5  -8    4.34    0.29 
   7  -5   8    3.85    0.35 
  -8   5  -8    0.18    0.12 
   8  -5   8    0.22    0.14 
  -9   5  -8    0.42    0.14 
   9  -5   8    0.54    0.17 
 -10   5  -8    1.04    0.17 
  10  -5   8    1.15    0.24 
 -11   5  -8    0.07    0.14 
  11  -5   8    0.04    0.15 
  12  -5   8    0.32    0.19 
  13  -5   8    0.25    0.21 
  15   4  -8   -0.01    0.14 
  14   4  -8    0.47    0.20 
  13   4  -8   -0.15    0.11 
  12   4  -8    0.75    0.19 
  11   4  -8    1.68    0.23 
  10   4  -8    0.32    0.13 
   9   4  -8   -0.19    0.07 
  -9  -4   8   -0.01    0.05 
   8   4  -8    0.18    0.07 
   8   4  -8    0.07    0.11 
  -8  -4   8    0.23    0.09 
   7   4  -8    3.39    0.24 
   7   4  -8    4.06    0.21 
  -7  -4   8    3.83    0.25 
   6   4  -8    1.50    0.16 
   6   4  -8    1.30    0.11 
  -6  -4   8    1.03    0.14 
   5   4  -8    1.36    0.14 
  -5  -4   8    1.07    0.14 
   4   4  -8    5.25    0.26 
  -4  -4   8    4.74    0.27 
  -3  -4   8   25.21    0.95 
  -2  -4   8    5.78    0.31 
  -1  -4   8    9.36    0.43 
   0  -4   8    1.39    0.16 
   1  -4   8    2.39    0.19 
   1  -4   8    2.43    0.20 
  -2   4  -8    3.88    0.23 
   2  -4   8    3.60    0.26 
  -3   4  -8   -0.01    0.06 
   3  -4   8   -0.10    0.05 
  -4   4  -8    3.72    0.24 
   4  -4   8    3.96    0.27 
  -5   4  -8    0.04    0.08 
   5  -4   8    0.02    0.09 
  -6   4  -8    4.51    0.28 
   6  -4   8    4.33    0.32 
  -7   4  -8    0.49    0.12 
   7  -4   8    0.65    0.17 
  -8   4  -8    0.29    0.12 
   8  -4   8    0.22    0.13 
  -9   4  -8   -0.03    0.09 
   9  -4   8    0.41    0.15 
 -10   4  -8   -0.01    0.11 
  10  -4   8    0.06    0.12 
 -11   4  -8    0.16    0.12 
  11  -4   8    0.02    0.13 
  12  -4   8    0.01    0.15 
  13  -4   8    0.20    0.21 
  15   3  -8   -0.09    0.13 
  14   3  -8    0.15    0.13 
  13   3  -8    3.44    0.34 
  12   3  -8    0.20    0.13 
  11   3  -8    0.22    0.13 
  10   3  -8    1.32    0.20 
   9   3  -8    0.56    0.10 
   9   3  -8    0.68    0.16 
  -9  -3   8    0.56    0.12 
   8   3  -8   13.27    0.53 
   8   3  -8   12.99    0.58 
  -8  -3   8   13.10    0.54 
   7   3  -8    6.37    0.27 
   7   3  -8    5.68    0.31 
  -7  -3   8    4.15    0.26 
   6   3  -8    2.73    0.16 
   6   3  -8    2.82    0.20 
  -6  -3   8    2.30    0.17 
   5   3  -8    0.82    0.09 
  -5  -3   8    0.61    0.10 
  -4  -3   8    0.33    0.08 
  -3  -3   8    1.02    0.12 
  -2  -3   8    0.79    0.11 
  -1  -3   8    2.38    0.18 
   0  -3   8    2.35    0.18 
  -1   3  -8    0.08    0.06 
  -2   3  -8   23.19    0.84 
   2  -3   8   21.32    0.88 
  -3   3  -8   15.08    0.60 
   3  -3   8   14.66    0.65 
  -4   3  -8    2.11    0.19 
   4  -3   8    2.26    0.21 
  -5   3  -8    0.97    0.13 
   5  -3   8    0.98    0.16 
  -6   3  -8    1.20    0.16 
   6  -3   8    1.54    0.20 
  -7   3  -8    1.38    0.17 
   7  -3   8    1.56    0.21 
  -8   3  -8    2.20    0.22 
   8  -3   8    2.42    0.26 
  -9   3  -8    0.38    0.13 
   9  -3   8    0.65    0.16 
 -10   3  -8   -0.04    0.11 
  10  -3   8    0.06    0.12 
 -11   3  -8    0.19    0.12 
  11  -3   8   -0.07    0.13 
 -12   3  -8    0.09    0.15 
  12  -3   8    0.10    0.15 
  13  -3   8    0.08    0.17 
  16   2  -8   -0.09    0.16 
  15   2  -8    0.46    0.19 
  14   2  -8    0.03    0.13 
  13   2  -8    0.04    0.12 
  12   2  -8    0.92    0.19 
  11   2  -8    0.95    0.19 
  10   2  -8    0.04    0.11 
  10   2  -8    0.03    0.07 
   9   2  -8    0.04    0.10 
   9   2  -8    0.13    0.08 
   8   2  -8    1.88    0.16 
   8   2  -8    2.17    0.21 
  -8  -2   8    2.08    0.15 
   7   2  -8    0.15    0.07 
   7   2  -8    0.09    0.07 
  -7  -2   8    0.20    0.07 
   6   2  -8    0.51    0.09 
  -6  -2   8    0.76    0.10 
  -5  -2   8    0.95    0.10 
  -4  -2   8    3.26    0.19 
  -3  -2   8    9.72    0.41 
  -2  -2   8    0.46    0.09 
  -1  -2   8    0.02    0.05 
   0   2  -8    0.09    0.05 
  -1   2  -8    0.00    0.05 
  -2   2  -8    9.21    0.40 
  -3   2  -8   18.87    0.73 
   3  -2   8   19.49    0.78 
  -4   2  -8    3.59    0.22 
   4  -2   8    3.43    0.24 
  -5   2  -8    2.13    0.19 
   5  -2   8    2.26    0.22 
  -6   2  -8    0.05    0.08 
   6  -2   8   -0.03    0.09 
  -7   2  -8    0.07    0.08 
   7  -2   8   -0.01    0.08 
  -8   2  -8    0.40    0.13 
   8  -2   8    0.15    0.12 
  -9   2  -8    0.43    0.13 
   9  -2   8    0.39    0.15 
 -10   2  -8    0.03    0.10 
  10  -2   8    0.07    0.10 
 -11   2  -8   -0.02    0.10 
  11  -2   8    0.03    0.14 
 -12   2  -8   -0.01    0.13 
  12  -2   8    0.14    0.14 
  13  -2   8    0.32    0.20 
  16   1  -8   -0.02    0.16 
  15   1  -8    0.18    0.16 
  14   1  -8   -0.01    0.12 
  13   1  -8    1.64    0.25 
  12   1  -8    0.05    0.11 
  11   1  -8    0.34    0.14 
  11   1  -8    0.45    0.11 
  10   1  -8    0.71    0.16 
  10   1  -8    1.01    0.14 
   9   1  -8    0.98    0.17 
   9   1  -8    1.12    0.14 
   8   1  -8   12.66    0.56 
   8   1  -8   12.28    0.53 
  -8  -1   8   12.86    0.48 
   7   1  -8    4.78    0.26 
  -7  -1   8    5.38    0.24 
   6   1  -8   18.57    0.73 
  -6  -1   8   19.48    0.68 
   5   1  -8   12.88    0.52 
  -5  -1   8   12.83    0.49 
   4   1  -8    1.04    0.11 
  -4  -1   8    0.93    0.10 
  -3  -1   8   54.95    1.84 
   2   1  -8   26.45    0.92 
   1   1  -8    0.57    0.08 
   0   1  -8    7.64    0.33 
  -1   1  -8   11.17    0.45 
  -2   1  -8   26.95    0.96 
  -3   1  -8    2.14    0.17 
  -4   1  -8    0.12    0.07 
  -5   1  -8    5.99    0.32 
   5  -1   8    6.60    0.36 
  -6   1  -8    0.37    0.10 
   6  -1   8    0.45    0.11 
  -7   1  -8    0.80    0.15 
   7  -1   8    0.98    0.17 
  -8   1  -8    0.31    0.11 
   8  -1   8    0.39    0.13 
  -9   1  -8    0.37    0.13 
   9  -1   8    0.59    0.16 
 -10   1  -8    0.24    0.12 
  10  -1   8    0.43    0.16 
 -11   1  -8   -0.07    0.10 
  11  -1   8   -0.19    0.10 
 -12   1  -8    0.11    0.12 
  12  -1   8    0.19    0.14 
  16   0  -8    0.02    0.15 
  15   0  -8    1.07    0.23 
  14   0  -8   -0.06    0.13 
  13   0  -8    0.74    0.19 
  12   0  -8    2.16    0.22 
  12   0  -8    1.91    0.23 
  11   0  -8    2.12    0.23 
  11   0  -8    2.07    0.21 
  10   0  -8    5.48    0.32 
  10   0  -8    6.12    0.36 
   9   0  -8    4.76    0.28 
   9   0  -8    5.17    0.32 
   8   0  -8    3.74    0.24 
   7   0  -8    2.08    0.17 
  -7   0   8    2.30    0.12 
   6   0  -8    6.77    0.32 
  -6   0   8    6.76    0.27 
   5   0  -8   31.90    1.07 
   5   0  -8   32.56    1.17 
   4   0  -8    0.60    0.06 
   4   0  -8    0.59    0.09 
   3   0  -8   86.62    2.79 
   3   0  -8   84.78    2.92 
   2   0  -8   10.80    0.41 
   1   0  -8   58.31    1.93 
   0   0  -8   52.01    1.74 
  -1   0  -8   15.60    0.59 
  -2   0  -8    0.65    0.10 
  -3   0  -8   14.16    0.57 
  -4   0  -8    4.38    0.26 
  -5   0  -8    0.21    0.09 
  -6   0  -8    0.00    0.07 
  -7   0  -8    1.02    0.15 
  -8   0  -8    2.35    0.22 
   8   0   8    1.93    0.22 
  -9   0  -8    2.47    0.24 
   9   0   8    2.10    0.24 
 -10   0  -8   -0.07    0.09 
  10   0   8    0.00    0.11 
 -11   0  -8    0.33    0.13 
  11   0   8    0.31    0.14 
  11   0   8    0.41    0.16 
 -12   0  -8    0.11    0.12 
 -13   0  -8    0.30    0.17 
  16  -1  -8   -0.03    0.14 
  15  -1  -8   -0.01    0.13 
  14  -1  -8   -0.16    0.12 
  13  -1  -8    1.44    0.22 
  13  -1  -8    1.63    0.23 
  12  -1  -8    0.10    0.12 
  12  -1  -8   -0.02    0.11 
  11  -1  -8    0.42    0.14 
  11  -1  -8    0.32    0.12 
  10  -1  -8    0.78    0.15 
  10  -1  -8    0.76    0.15 
   9  -1  -8    1.01    0.15 
   8  -1  -8   12.23    0.54 
   7  -1  -8    5.45    0.30 
   6  -1  -8   18.66    0.73 
   5  -1  -8   12.46    0.52 
   5  -1  -8   12.24    0.42 
   4  -1  -8    1.03    0.12 
   4  -1  -8    0.99    0.07 
   3  -1  -8   56.02    1.96 
   3  -1  -8   57.09    1.85 
   2  -1  -8   27.07    0.98 
   2  -1  -8   26.63    0.92 
   1  -1  -8    0.52    0.07 
   0  -1  -8    7.60    0.32 
  -1  -1  -8   11.90    0.48 
  -2  -1  -8   27.58    0.99 
  -3  -1  -8    2.34    0.17 
  -4  -1  -8    0.04    0.06 
  -5  -1  -8    6.31    0.34 
  -6  -1  -8    0.28    0.11 
  -7  -1  -8    0.85    0.15 
  -8  -1  -8    0.45    0.13 
  -9  -1  -8    0.55    0.14 
 -10  -1  -8    0.55    0.15 
 -11  -1  -8    0.04    0.12 
  11   1   8    0.03    0.13 
 -12  -1  -8    0.14    0.13 
 -13  -1  -8   -0.03    0.12 
  16  -2  -8    0.11    0.15 
  15  -2  -8    0.59    0.19 
  14  -2  -8    0.25    0.14 
  14  -2  -8    0.28    0.16 
  13  -2  -8    0.11    0.12 
  13  -2  -8    0.07    0.12 
  12  -2  -8    0.89    0.18 
  12  -2  -8    0.94    0.19 
  11  -2  -8    1.13    0.19 
  11  -2  -8    1.00    0.18 
  10  -2  -8   -0.06    0.09 
  10  -2  -8    0.02    0.09 
   9  -2  -8    0.09    0.10 
   8  -2  -8    1.73    0.18 
   7  -2  -8    0.10    0.08 
   6  -2  -8    0.59    0.11 
   5  -2  -8    2.32    0.18 
   5  -2  -8    2.71    0.11 
   4  -2  -8    3.13    0.20 
   4  -2  -8    3.09    0.14 
   3  -2  -8    9.66    0.41 
   3  -2  -8    9.23    0.35 
   2  -2  -8    0.44    0.08 
   2  -2  -8    0.36    0.06 
   1  -2  -8    0.05    0.04 
   1  -2  -8    0.06    0.05 
   0  -2  -8    0.00    0.04 
  -1  -2  -8    0.01    0.04 
  -2  -2  -8    9.13    0.40 
  -3  -2  -8   19.46    0.75 
  -4  -2  -8    3.98    0.25 
  -5  -2  -8    2.03    0.19 
  -6  -2  -8    0.05    0.09 
  -7  -2  -8    0.26    0.11 
  -8  -2  -8    0.31    0.12 
  -9  -2  -8    0.28    0.12 
 -10  -2  -8    0.02    0.11 
 -11  -2  -8    0.18    0.13 
 -12  -2  -8   -0.02    0.11 
 -13  -2  -8   -0.02    0.12 
  15  -3  -8   -0.11    0.13 
  15  -3  -8    0.03    0.16 
  14  -3  -8    0.35    0.18 
  14  -3  -8    0.13    0.14 
  13  -3  -8    2.88    0.30 
  13  -3  -8    2.66    0.28 
  12  -3  -8    0.48    0.16 
  12  -3  -8    0.38    0.14 
  11  -3  -8    0.26    0.12 
  11  -3  -8    0.30    0.13 
  10  -3  -8    1.20    0.19 
   9  -3  -8    0.59    0.15 
   8  -3  -8   13.02    0.59 
   7  -3  -8    6.29    0.34 
   6  -3  -8    3.22    0.23 
   5  -3  -8    0.77    0.05 
   5  -3  -8    0.72    0.12 
   4  -3  -8    0.34    0.05 
   4  -3  -8    0.10    0.07 
   3  -3  -8    0.89    0.12 
   3  -3  -8    1.03    0.08 
   2  -3  -8    0.95    0.09 
   2  -3  -8    0.72    0.10 
   1  -3  -8    2.21    0.14 
   1  -3  -8    2.19    0.16 
   0  -3  -8    2.67    0.17 
   0  -3  -8    2.82    0.18 
  -1  -3  -8    0.06    0.05 
  -2  -3  -8   22.35    0.83 
  -3  -3  -8   14.53    0.59 
  -4  -3  -8    2.32    0.18 
  -5  -3  -8    0.89    0.14 
  -6  -3  -8    1.35    0.18 
  -7  -3  -8    1.35    0.19 
  -8  -3  -8    2.28    0.24 
  -9  -3  -8    0.46    0.14 
 -10  -3  -8   -0.07    0.10 
 -11  -3  -8   -0.07    0.11 
 -12  -3  -8   -0.21    0.10 
 -13  -3  -8    0.02    0.14 
  15  -4  -8    0.07    0.15 
  15  -4  -8    0.15    0.18 
  14  -4  -8    0.57    0.19 
  14  -4  -8    0.40    0.15 
  13  -4  -8   -0.05    0.13 
  13  -4  -8    0.02    0.12 
  12  -4  -8    0.94    0.18 
  12  -4  -8    1.10    0.22 
  11  -4  -8    1.98    0.24 
  11  -4  -8    1.58    0.20 
  10  -4  -8    0.24    0.13 
   9  -4  -8    0.14    0.12 
   8  -4  -8    0.25    0.12 
   7  -4  -8    3.28    0.25 
   6  -4  -8    1.14    0.16 
   5  -4  -8    1.43    0.16 
   5  -4  -8    1.42    0.08 
   4  -4  -8    5.57    0.23 
   4  -4  -8    4.73    0.28 
   3  -4  -8   24.90    0.86 
   3  -4  -8   23.99    0.93 
   2  -4  -8    5.35    0.25 
   2  -4  -8    5.54    0.29 
   1  -4  -8    8.70    0.40 
   1  -4  -8    9.30    0.38 
   0  -4  -8    1.82    0.14 
   0  -4  -8    1.69    0.14 
  -1  -4  -8    2.81    0.19 
  -1  -4  -8    2.48    0.17 
  -2  -4  -8    3.88    0.24 
  -3  -4  -8   -0.01    0.06 
  -4  -4  -8    3.99    0.26 
  -5  -4  -8   -0.03    0.07 
  -6  -4  -8    4.29    0.29 
  -7  -4  -8    0.59    0.14 
  -8  -4  -8    0.31    0.12 
  -9  -4  -8    0.19    0.11 
 -10  -4  -8    0.13    0.12 
 -11  -4  -8   -0.07    0.11 
 -12  -4  -8    0.32    0.16 
 -13  -4  -8    0.08    0.15 
  15  -5  -8   -0.16    0.17 
  14  -5  -8    0.13    0.13 
  14  -5  -8   -0.07    0.14 
  13  -5  -8    0.05    0.12 
  13  -5  -8    0.03    0.15 
  12  -5  -8    0.11    0.11 
  12  -5  -8    0.08    0.13 
  11  -5  -8   -0.05    0.13 
  10  -5  -8    0.58    0.16 
   9  -5  -8    6.62    0.41 
   8  -5  -8   -0.09    0.10 
   7  -5  -8    0.72    0.15 
   6  -5  -8   22.07    0.89 
   5  -5  -8    1.09    0.08 
   5  -5  -8    1.03    0.15 
   4  -5  -8    4.89    0.22 
   4  -5  -8    4.36    0.27 
   3  -5  -8   14.17    0.61 
   3  -5  -8   14.81    0.56 
   2  -5  -8    3.47    0.19 
   2  -5  -8    3.29    0.22 
   1  -5  -8   14.95    0.58 
   1  -5  -8   14.32    0.60 
   0  -5  -8    7.04    0.34 
   0  -5  -8    6.86    0.33 
  -1  -5  -8    8.83    0.41 
  -1  -5  -8    9.62    0.41 
  -2  -5  -8   -0.02    0.05 
  -2  -5  -8    0.09    0.06 
  -3  -5  -8    2.11    0.15 
  -4  -5  -8    1.03    0.16 
  -5  -5  -8    0.06    0.09 
  -6  -5  -8    3.66    0.27 
  -7  -5  -8    3.18    0.28 
  -8  -5  -8    0.28    0.13 
  -9  -5  -8    0.55    0.16 
 -10  -5  -8    1.31    0.23 
 -11  -5  -8    0.10    0.13 
 -12  -5  -8    0.28    0.17 
 -13  -5  -8    0.08    0.16 
  14  -6  -8    0.12    0.18 
  13  -6  -8    0.12    0.13 
  13  -6  -8    0.01    0.16 
  12  -6  -8    0.22    0.13 
  12  -6  -8    0.26    0.17 
  11  -6  -8    0.19    0.15 
  10  -6  -8    1.09    0.21 
   9  -6  -8    1.57    0.22 
   8  -6  -8    0.30    0.13 
   7  -6  -8    0.42    0.15 
   6  -6  -8    0.24    0.12 
   5  -6  -8   14.43    0.63 
   5  -6  -8   13.62    0.52 
   4  -6  -8    2.04    0.20 
   4  -6  -8    1.72    0.13 
   3  -6  -8    0.04    0.05 
   3  -6  -8    0.10    0.08 
   2  -6  -8    8.18    0.37 
   2  -6  -8    7.67    0.39 
   1  -6  -8    4.09    0.25 
   1  -6  -8    3.89    0.23 
   0  -6  -8    0.09    0.07 
   0  -6  -8    0.09    0.06 
  -1  -6  -8    0.29    0.09 
  -1  -6  -8    0.08    0.07 
  -2  -6  -8    6.53    0.32 
  -2  -6  -8    6.71    0.36 
  -3  -6  -8    0.50    0.12 
  -3  -6  -8    0.55    0.10 
  -4  -6  -8    0.14    0.07 
  -4  -6  -8    0.04    0.09 
  -5  -6  -8    1.88    0.15 
  -5  -6  -8    1.69    0.21 
  -6  -6  -8    0.90    0.18 
  -7  -6  -8   -0.01    0.10 
  -8  -6  -8    0.10    0.11 
  -9  -6  -8    0.11    0.12 
 -10  -6  -8    0.28    0.16 
 -11  -6  -8    0.30    0.16 
 -12  -6  -8    0.18    0.16 
  14  -7  -8    0.04    0.20 
  13  -7  -8   -0.05    0.17 
  12  -7  -8    0.02    0.15 
  11  -7  -8    0.01    0.14 
  10  -7  -8   -0.09    0.13 
   9  -7  -8    1.20    0.21 
   8  -7  -8    3.30    0.30 
   7  -7  -8    0.45    0.15 
   6  -7  -8    2.77    0.26 
   5  -7  -8    0.08    0.05 
   5  -7  -8    0.00    0.11 
   4  -7  -8    0.17    0.07 
   4  -7  -8    0.10    0.11 
   3  -7  -8    0.65    0.15 
   3  -7  -8    0.86    0.12 
   2  -7  -8    1.52    0.16 
   2  -7  -8    2.04    0.19 
   1  -7  -8    1.55    0.16 
   1  -7  -8    1.01    0.15 
   0  -7  -8    7.19    0.37 
   0  -7  -8    7.17    0.36 
  -1  -7  -8    0.27    0.10 
  -1  -7  -8    0.20    0.09 
  -2  -7  -8    0.02    0.08 
  -2  -7  -8    0.02    0.04 
  -3  -7  -8    1.42    0.15 
  -3  -7  -8    1.53    0.20 
  -4  -7  -8    0.85    0.16 
  -5  -7  -8    0.04    0.10 
  -6  -7  -8    0.04    0.10 
  -7  -7  -8    0.90    0.19 
  -8  -7  -8    0.26    0.14 
  -9  -7  -8    0.76    0.20 
 -10  -7  -8    1.08    0.23 
 -11  -7  -8    0.05    0.14 
 -12  -7  -8   -0.09    0.13 
  13  -8  -8    0.15    0.19 
  12  -8  -8    1.35    0.28 
  11  -8  -8    0.21    0.18 
  10  -8  -8    1.10    0.24 
   9  -8  -8    4.36    0.36 
   8  -8  -8    1.49    0.23 
   7  -8  -8    2.32    0.26 
   6  -8  -8    0.66    0.17 
   5  -8  -8    1.65    0.22 
   4  -8  -8    1.95    0.22 
   4  -8  -8    2.37    0.18 
   3  -8  -8    5.18    0.29 
   3  -8  -8    4.87    0.32 
   2  -8  -8    7.67    0.38 
   2  -8  -8    7.55    0.40 
   1  -8  -8    3.99    0.26 
   1  -8  -8    3.78    0.26 
   0  -8  -8   -0.08    0.07 
   0  -8  -8    0.10    0.08 
  -1  -8  -8    5.39    0.31 
  -1  -8  -8    5.57    0.34 
  -2  -8  -8    0.86    0.13 
  -2  -8  -8    0.81    0.16 
  -3  -8  -8    0.65    0.16 
  -4  -8  -8    4.06    0.31 
  -5  -8  -8    2.99    0.29 
  -6  -8  -8    0.12    0.12 
  -7  -8  -8   -0.04    0.10 
  -8  -8  -8    0.07    0.12 
  -9  -8  -8    0.99    0.22 
 -10  -8  -8    0.33    0.18 
 -11  -8  -8    0.29    0.18 
  13  -9  -8    0.00    0.19 
  12  -9  -8    0.13    0.20 
  11  -9  -8    0.72    0.23 
  10  -9  -8    0.81    0.21 
   9  -9  -8    1.22    0.24 
   8  -9  -8    0.14    0.14 
   7  -9  -8    0.63    0.17 
   6  -9  -8    0.05    0.11 
   5  -9  -8    0.04    0.11 
   4  -9  -8    3.44    0.28 
   4  -9  -8    3.79    0.24 
   3  -9  -8    2.23    0.20 
   3  -9  -8    2.35    0.24 
   2  -9  -8    0.23    0.12 
   2  -9  -8    0.43    0.12 
   1  -9  -8    2.05    0.20 
   1  -9  -8    1.70    0.20 
   0  -9  -8    0.33    0.12 
   0  -9  -8    0.07    0.09 
  -1  -9  -8    1.44    0.20 
  -1  -9  -8    0.97    0.14 
  -2  -9  -8    0.61    0.15 
  -3  -9  -8    0.12    0.11 
  -4  -9  -8    0.09    0.11 
  -5  -9  -8   -0.16    0.09 
  -6  -9  -8    1.02    0.21 
  -7  -9  -8    0.23    0.13 
  -8  -9  -8    0.05    0.13 
  -9  -9  -8    0.06    0.14 
 -10  -9  -8    0.45    0.19 
  12 -10  -8    0.19    0.20 
  11 -10  -8    0.72    0.22 
  10 -10  -8   -0.08    0.15 
   9 -10  -8    0.60    0.19 
   8 -10  -8    0.46    0.18 
   7 -10  -8   -0.03    0.12 
   6 -10  -8    0.92    0.20 
   5 -10  -8   -0.04    0.10 
   4 -10  -8    0.75    0.17 
   3 -10  -8    1.88    0.23 
   3 -10  -8    2.13    0.21 
   2 -10  -8    6.43    0.39 
   2 -10  -8    6.36    0.38 
   1 -10  -8    1.65    0.21 
   1 -10  -8    1.61    0.20 
   0 -10  -8    0.20    0.12 
   0 -10  -8    0.33    0.13 
  -1 -10  -8    0.42    0.14 
  -2 -10  -8    0.21    0.11 
  -3 -10  -8    0.22    0.12 
  -4 -10  -8    1.44    0.23 
  -5 -10  -8    0.72    0.18 
  -6 -10  -8   -0.07    0.09 
  -7 -10  -8    0.11    0.12 
  -8 -10  -8    0.01    0.12 
  -9 -10  -8    0.07    0.14 
 -10 -10  -8    0.15    0.16 
  11 -11  -8    0.24    0.20 
  10 -11  -8    0.00    0.17 
   9 -11  -8   -0.09    0.15 
   8 -11  -8    0.21    0.16 
   7 -11  -8    0.04    0.14 
   6 -11  -8    0.35    0.16 
   5 -11  -8    0.46    0.17 
   4 -11  -8    1.22    0.21 
   3 -11  -8    1.20    0.21 
   3 -11  -8    1.24    0.20 
   2 -11  -8    0.01    0.12 
   2 -11  -8    0.16    0.12 
   1 -11  -8    5.15    0.36 
   1 -11  -8    4.30    0.33 
   0 -11  -8    1.34    0.22 
  -1 -11  -8   -0.10    0.09 
  -2 -11  -8    0.12    0.12 
  -3 -11  -8    0.74    0.18 
  -4 -11  -8    0.46    0.17 
  -5 -11  -8   -0.07    0.12 
  -6 -11  -8    0.71    0.21 
  -7 -11  -8    0.32    0.19 
  -8 -11  -8   -0.07    0.14 
  -9 -11  -8    0.35    0.18 
   9 -12  -8    0.20    0.18 
   8 -12  -8    0.12    0.18 
   7 -12  -8    0.06    0.15 
   6 -12  -8    0.06    0.14 
   5 -12  -8    0.35    0.17 
   4 -12  -8   -0.04    0.13 
   3 -12  -8    0.11    0.14 
   2 -12  -8    0.68    0.18 
   2 -12  -8    0.93    0.19 
   1 -12  -8    0.56    0.17 
   0 -12  -8    0.31    0.15 
  -1 -12  -8    0.22    0.12 
  -2 -12  -8   -0.04    0.11 
  -3 -12  -8    0.20    0.14 
  -4 -12  -8    0.14    0.14 
  -5 -12  -8    0.08    0.14 
  -6 -12  -8    0.12    0.17 
  -7 -12  -8   -0.09    0.15 
   8 -13  -8    0.18    0.19 
   7 -13  -8    0.06    0.17 
   6 -13  -8    0.40    0.19 
   5 -13  -8    0.17    0.16 
   4 -13  -8    0.10    0.15 
   2 -13  -8    0.22    0.15 
   1 -13  -8    0.44    0.16 
   0 -13  -8    1.23    0.23 
  -1 -13  -8    0.42    0.17 
  -2 -13  -8    0.15    0.15 
  -3 -13  -8    0.49    0.20 
  -4 -13  -8    0.69    0.22 
  -5 -13  -8   -0.14    0.17 
  -6 -13  -8    0.33    0.20 
   5 -14  -8    0.42    0.22 
   1 -14  -8    0.29    0.18 
   0 -14  -8    0.09    0.16 
  -1 -14  -8    1.11    0.26 
  -2 -14  -8    0.68    0.23 
  -3 -14  -8    0.06    0.18 
  -4 -14   9    0.07    0.18 
  -3 -14   9    0.42    0.21 
  -2 -14   9    0.36    0.21 
  -1 -14   9    0.01    0.17 
   0 -14   9   -0.01    0.19 
   1 -14   9    0.07    0.19 
   2 -14   9    0.25    0.20 
  -7 -13   9    0.39    0.20 
  -6 -13   9    0.23    0.15 
  -5 -13   9   -0.08    0.12 
  -4 -13   9    0.12    0.16 
  -3 -13   9    0.02    0.13 
  -2 -13   9    0.13    0.17 
  -1 -13   9   -0.18    0.13 
   0 -13   9    0.21    0.15 
   1 -13   9    0.01    0.15 
   2 -13   9    0.03    0.16 
   3 -13   9    0.27    0.18 
   3 -13   9   -0.19    0.14 
   4 -13   9    0.22    0.18 
   4 -13   9    0.14    0.17 
   5 -13   9    0.00    0.18 
   5 -13   9    0.01    0.17 
  -9 -12   9    0.38    0.19 
  -8 -12   9    0.37    0.18 
  -7 -12   9    0.43    0.18 
  -6 -12   9    0.07    0.14 
  -5 -12   9    0.41    0.17 
  -4 -12   9   -0.16    0.11 
  -3 -12   9   -0.12    0.09 
  -2 -12   9    0.59    0.19 
  -1 -12   9   -0.04    0.11 
   0 -12   9    0.37    0.17 
   1 -12   9    0.25    0.16 
   1 -12   9    0.44    0.17 
   2 -12   9    0.37    0.18 
   2 -12   9    0.14    0.13 
   3 -12   9    0.15    0.15 
   3 -12   9    0.02    0.13 
   4 -12   9    0.71    0.20 
   4 -12   9    0.73    0.21 
   5 -12   9    0.02    0.15 
   5 -12   9   -0.07    0.14 
  -6  12  -9    0.08    0.14 
   6 -12   9    0.35    0.19 
  -7  12  -9    0.23    0.18 
   7 -12   9    0.28    0.21 
 -10 -11   9    0.19    0.16 
  -9 -11   9    0.72    0.21 
  -8 -11   9    0.78    0.20 
  -7 -11   9    0.05    0.13 
  -6 -11   9   -0.13    0.11 
  -5 -11   9   -0.09    0.10 
  -4 -11   9    0.08    0.11 
  -3 -11   9    0.99    0.21 
  -2 -11   9    0.46    0.16 
  -1 -11   9    0.12    0.14 
   0 -11   9    0.05    0.11 
   0 -11   9   -0.03    0.12 
   1 -11   9    0.00    0.12 
   1 -11   9    0.00    0.11 
   2 -11   9   -0.03    0.11 
   2 -11   9    0.11    0.13 
   3 -11   9   -0.05    0.11 
   3 -11   9    0.22    0.14 
   4 -11   9    0.07    0.11 
   4 -11   9    0.14    0.14 
   5 -11   9    0.43    0.17 
   5 -11   9    0.54    0.18 
  -6  11  -9    0.18    0.14 
   6 -11   9    0.12    0.17 
  -7  11  -9   -0.01    0.14 
   7 -11   9    0.24    0.18 
  -8  11  -9    0.26    0.17 
   8 -11   9    0.29    0.22 
  12  10  -9    0.35    0.21 
  11  10  -9   -0.01    0.16 
 -11 -10   9   -0.10    0.13 
  10  10  -9    0.24    0.16 
 -10 -10   9   -0.03    0.13 
   9  10  -9    0.10    0.13 
  -9 -10   9    0.25    0.16 
   8  10  -9    0.31    0.14 
  -8 -10   9    0.12    0.13 
  -7 -10   9    0.44    0.17 
  -6 -10   9    2.76    0.32 
  -5 -10   9    1.71    0.26 
  -4 -10   9    4.01    0.37 
  -3 -10   9    0.84    0.18 
  -2 -10   9    0.11    0.11 
  -1 -10   9    0.08    0.12 
   0 -10   9    0.11    0.12 
   0 -10   9    0.04    0.10 
   1 -10   9    0.54    0.16 
   1 -10   9    0.47    0.15 
   2 -10   9    0.77    0.18 
   2 -10   9    0.22    0.14 
   3 -10   9    0.32    0.15 
   3 -10   9    0.71    0.19 
   4 -10   9    0.20    0.12 
   4 -10   9   -0.01    0.12 
   5 -10   9   -0.11    0.12 
   5 -10   9    0.07    0.12 
  -6  10  -9    0.82    0.18 
   6 -10   9    0.94    0.22 
  -7  10  -9    0.33    0.15 
   7 -10   9    0.27    0.19 
  -8  10  -9   -0.27    0.10 
   8 -10   9   -0.08    0.15 
  -9  10  -9    0.13    0.18 
   9 -10   9    0.24    0.18 
  12   9  -9    0.12    0.17 
  11   9  -9    1.03    0.23 
 -11  -9   9    0.97    0.23 
  10   9  -9    1.47    0.24 
 -10  -9   9    1.55    0.26 
   9   9  -9    0.55    0.16 
  -9  -9   9    0.48    0.17 
   8   9  -9    0.09    0.11 
  -8  -9   9    0.17    0.13 
   7   9  -9    1.53    0.20 
  -7  -9   9    1.44    0.23 
   6   9  -9   -0.04    0.09 
  -6  -9   9    0.14    0.11 
   5   9  -9    0.58    0.12 
  -5  -9   9    0.76    0.18 
  -4  -9   9    4.01    0.35 
  -3  -9   9    1.12    0.20 
  -2  -9   9    0.54    0.16 
  -1  -9   9    0.04    0.09 
   0  -9   9    1.06    0.21 
   0  -9   9    1.52    0.21 
   1  -9   9    1.02    0.19 
   1  -9   9    1.19    0.21 
   2  -9   9    0.35    0.14 
   2  -9   9    0.09    0.12 
   3  -9   9    0.01    0.11 
   3  -9   9   -0.02    0.10 
   4  -9   9    0.60    0.16 
   4  -9   9    0.41    0.15 
  -5   9  -9   -0.01    0.11 
   5  -9   9    0.18    0.15 
  -6   9  -9    0.16    0.12 
   6  -9   9    0.14    0.13 
  -7   9  -9    0.12    0.13 
   7  -9   9    0.19    0.14 
  -8   9  -9    0.36    0.15 
   8  -9   9    0.28    0.17 
  -9   9  -9    0.93    0.20 
   9  -9   9    0.60    0.21 
  10  -9   9    0.02    0.18 
  13   8  -9    0.03    0.17 
  12   8  -9    0.15    0.17 
  11   8  -9    0.37    0.17 
 -11  -8   9    0.11    0.15 
  10   8  -9    1.58    0.24 
 -10  -8   9    1.61    0.24 
   9   8  -9    0.04    0.12 
  -9  -8   9    0.05    0.12 
   8   8  -9    0.07    0.11 
  -8  -8   9    0.21    0.13 
   7   8  -9    0.13    0.10 
  -7  -8   9   -0.04    0.11 
   6   8  -9   -0.07    0.08 
  -6  -8   9   -0.07    0.09 
   5   8  -9    0.26    0.09 
  -5  -8   9    0.22    0.13 
   4   8  -9    1.81    0.16 
  -4  -8   9    1.83    0.23 
  -3  -8   9    0.04    0.10 
  -2  -8   9    2.36    0.26 
  -1  -8   9    1.17    0.20 
   0  -8   9    0.02    0.10 
   0  -8   9   -0.12    0.09 
   1  -8   9    3.15    0.30 
   1  -8   9    3.63    0.29 
   2  -8   9    1.57    0.23 
   2  -8   9    1.52    0.22 
   3  -8   9    1.48    0.22 
   3  -8   9    1.29    0.22 
   4  -8   9    0.19    0.11 
   4  -8   9    0.12    0.12 
  -5   8  -9    1.40    0.20 
   5  -8   9    1.26    0.23 
  -6   8  -9   -0.02    0.10 
   6  -8   9    0.11    0.12 
  -7   8  -9    0.01    0.11 
   7  -8   9    0.06    0.14 
  -8   8  -9    0.31    0.15 
   8  -8   9    0.47    0.19 
  -9   8  -9    0.99    0.20 
   9  -8   9    1.30    0.27 
 -10   8  -9    0.06    0.17 
  10  -8   9    0.05    0.19 
  11  -8   9   -0.10    0.19 
  14   7  -9    0.08    0.20 
  13   7  -9   -0.07    0.17 
  12   7  -9    0.09    0.16 
  11   7  -9    0.86    0.21 
  10   7  -9    0.12    0.13 
 -10  -7   9    0.17    0.13 
   9   7  -9    0.13    0.12 
  -9  -7   9    0.13    0.12 
   8   7  -9    5.13    0.33 
  -8  -7   9    5.62    0.37 
   7   7  -9    3.05    0.24 
  -7  -7   9    3.78    0.29 
   6   7  -9    2.18    0.21 
  -6  -7   9    2.57    0.26 
   5   7  -9   -0.01    0.07 
  -5  -7   9    0.14    0.11 
   4   7  -9    4.79    0.26 
  -4  -7   9    5.10    0.34 
   3   7  -9    1.52    0.14 
  -3  -7   9    1.53    0.21 
   2   7  -9    0.47    0.08 
  -2  -7   9    0.35    0.13 
  -1  -7   9    0.00    0.08 
   0  -7   9    0.07    0.10 
   0  -7   9    0.29    0.12 
   1  -7   9    2.21    0.24 
   1  -7   9    3.17    0.26 
   2  -7   9    2.42    0.25 
   2  -7   9    2.53    0.26 
   3  -7   9    0.03    0.11 
   3  -7   9    0.27    0.11 
  -4   7  -9    0.02    0.10 
   4  -7   9    0.07    0.10 
  -5   7  -9    0.91    0.17 
   5  -7   9    1.25    0.22 
  -6   7  -9    0.57    0.15 
   6  -7   9    0.79    0.20 
  -7   7  -9   -0.06    0.09 
   7  -7   9    0.08    0.13 
  -8   7  -9    0.50    0.15 
   8  -7   9    0.34    0.18 
  -9   7  -9    0.91    0.19 
   9  -7   9    1.12    0.25 
 -10   7  -9    0.17    0.13 
  10  -7   9    0.24    0.19 
  11  -7   9    0.08    0.18 
  14   6  -9    0.15    0.19 
  13   6  -9   -0.06    0.14 
  12   6  -9    0.71    0.19 
  11   6  -9    1.24    0.21 
  10   6  -9    0.51    0.15 
 -10  -6   9    0.55    0.16 
   9   6  -9    0.02    0.10 
  -9  -6   9    0.14    0.11 
   8   6  -9    3.34    0.27 
  -8  -6   9    3.91    0.28 
   7   6  -9    0.67    0.14 
  -7  -6   9    0.25    0.11 
   6   6  -9    4.00    0.26 
   6   6  -9    3.80    0.21 
  -6  -6   9    3.77    0.29 
   5   6  -9    2.80    0.21 
  -5  -6   9    2.42    0.24 
   4   6  -9    1.19    0.13 
  -4  -6   9    1.49    0.18 
   3   6  -9    4.66    0.24 
  -3  -6   9    3.87    0.28 
   2   6  -9    1.12    0.11 
  -2  -6   9    1.03    0.16 
   1   6  -9    4.57    0.20 
  -1  -6   9    3.48    0.27 
   0   6  -9    2.43    0.12 
   0  -6   9    2.31    0.23 
   1  -6   9    9.92    0.51 
   1  -6   9   10.59    0.52 
   2  -6   9    6.22    0.38 
   2  -6   9    5.83    0.36 
   3  -6   9    1.02    0.19 
   3  -6   9    1.28    0.20 
  -4   6  -9    1.66    0.19 
   4  -6   9    1.18    0.20 
  -5   6  -9    0.18    0.11 
   5  -6   9    0.22    0.13 
  -6   6  -9   -0.03    0.09 
   6  -6   9   -0.15    0.10 
  -7   6  -9    0.05    0.10 
   7  -6   9    0.02    0.12 
  -8   6  -9    0.04    0.10 
   8  -6   9    0.06    0.13 
  -9   6  -9    0.11    0.12 
   9  -6   9    0.06    0.12 
 -10   6  -9    0.09    0.12 
  10  -6   9   -0.04    0.15 
  11  -6   9    0.15    0.17 
  12  -6   9   -0.01    0.21 
  15   5  -9    0.22    0.20 
  14   5  -9    0.02    0.16 
  13   5  -9    0.12    0.16 
  12   5  -9    0.33    0.15 
  11   5  -9    2.52    0.28 
  10   5  -9    0.68    0.16 
 -10  -5   9    0.80    0.16 
   9   5  -9    0.85    0.17 
  -9  -5   9    0.55    0.13 
   8   5  -9    1.61    0.20 
  -8  -5   9    1.87    0.20 
   7   5  -9    6.05    0.28 
   7   5  -9    6.29    0.35 
  -7  -5   9    5.61    0.34 
   6   5  -9   -0.13    0.07 
   6   5  -9   -0.01    0.05 
  -6  -5   9    0.11    0.09 
   5   5  -9    1.56    0.16 
  -5  -5   9    1.50    0.18 
   4   5  -9    0.59    0.10 
  -4  -5   9    0.43    0.11 
   3   5  -9    2.40    0.16 
  -3  -5   9    2.50    0.22 
   2   5  -9    2.23    0.14 
  -2  -5   9    2.40    0.21 
  -1  -5   9    0.01    0.07 
   0  -5   9    0.35    0.10 
   1  -5   9    0.47    0.12 
   1  -5   9    0.32    0.10 
   2  -5   9    4.03    0.28 
   2  -5   9    4.52    0.30 
  -3   5  -9    1.06    0.15 
   3  -5   9    0.87    0.17 
  -4   5  -9    0.58    0.13 
   4  -5   9    0.54    0.15 
  -5   5  -9    0.57    0.13 
   5  -5   9    0.70    0.17 
  -6   5  -9    0.07    0.10 
   6  -5   9   -0.01    0.11 
  -7   5  -9    0.33    0.12 
   7  -5   9    0.08    0.11 
  -8   5  -9    0.25    0.12 
   8  -5   9    0.35    0.15 
  -9   5  -9    0.45    0.15 
   9  -5   9    0.78    0.20 
 -10   5  -9    0.35    0.14 
  10  -5   9    0.38    0.17 
 -11   5  -9    0.15    0.14 
  11  -5   9    0.29    0.18 
  12  -5   9    0.27    0.19 
  15   4  -9    0.25    0.18 
  14   4  -9    0.29    0.18 
  13   4  -9    0.11    0.15 
  12   4  -9    0.35    0.17 
  11   4  -9    4.31    0.34 
  10   4  -9    0.41    0.14 
   9   4  -9    2.35    0.24 
  -9  -4   9    1.70    0.18 
   8   4  -9    0.33    0.13 
   8   4  -9    0.43    0.09 
  -8  -4   9    0.27    0.09 
   7   4  -9    1.68    0.19 
   7   4  -9    1.72    0.14 
  -7  -4   9    1.79    0.18 
   6   4  -9    7.51    0.34 
   6   4  -9    7.76    0.37 
  -6  -4   9    7.74    0.38 
   5   4  -9    3.97    0.24 
  -5  -4   9    3.67    0.24 
  -4  -4   9    3.28    0.22 
  -3  -4   9    2.43    0.19 
  -2  -4   9    0.70    0.12 
  -1  -4   9    0.00    0.05 
   0  -4   9    8.85    0.43 
   1  -4   9    4.46    0.28 
  -2   4  -9    1.36    0.15 
   2  -4   9    1.55    0.18 
  -3   4  -9    1.07    0.15 
   3  -4   9    0.87    0.16 
  -4   4  -9    5.61    0.32 
   4  -4   9    6.47    0.38 
  -5   4  -9    2.63    0.23 
   5  -4   9    2.37    0.25 
  -6   4  -9   -0.02    0.08 
   6  -4   9   -0.07    0.09 
  -7   4  -9    1.61    0.20 
   7  -4   9    1.73    0.23 
  -8   4  -9    1.45    0.19 
   8  -4   9    1.40    0.23 
  -9   4  -9    0.34    0.13 
   9  -4   9    0.35    0.16 
 -10   4  -9    0.05    0.11 
  10  -4   9    0.13    0.15 
 -11   4  -9   -0.05    0.11 
  11  -4   9   -0.08    0.14 
  12  -4   9    0.00    0.17 
  13  -4   9    0.00    0.20 
  15   3  -9   -0.03    0.14 
  14   3  -9    0.23    0.15 
  13   3  -9   -0.11    0.12 
  12   3  -9    0.03    0.12 
  11   3  -9    0.19    0.12 
  10   3  -9    0.10    0.12 
   9   3  -9    3.73    0.28 
   9   3  -9    3.83    0.23 
  -9  -3   9    3.63    0.23 
   8   3  -9   -0.07    0.09 
   8   3  -9    0.05    0.07 
  -8  -3   9    0.08    0.08 
   7   3  -9    0.05    0.06 
   7   3  -9    0.05    0.09 
  -7  -3   9    0.05    0.06 
   6   3  -9    7.97    0.37 
   6   3  -9    7.89    0.35 
  -6  -3   9    6.74    0.35 
   5   3  -9    0.81    0.10 
  -5  -3   9    0.76    0.12 
  -4  -3   9    4.28    0.25 
  -3  -3   9    1.30    0.14 
  -2  -3   9    4.22    0.25 
  -1  -3   9   16.95    0.68 
   0  -3   9   11.12    0.49 
  -1   3  -9   17.39    0.68 
  -2   3  -9    5.13    0.28 
  -3   3  -9   11.58    0.51 
   3  -3   9   12.66    0.57 
  -4   3  -9    0.08    0.07 
   4  -3   9    0.14    0.09 
  -5   3  -9    0.44    0.11 
   5  -3   9    0.26    0.11 
  -6   3  -9    1.86    0.20 
   6  -3   9    2.10    0.24 
  -7   3  -9    0.79    0.15 
   7  -3   9    1.04    0.19 
  -8   3  -9    0.09    0.09 
   8  -3   9    0.03    0.11 
  -9   3  -9    2.53    0.26 
   9  -3   9    3.05    0.31 
 -10   3  -9    1.12    0.19 
  10  -3   9    0.55    0.18 
 -11   3  -9    0.01    0.11 
  11  -3   9   -0.16    0.12 
 -12   3  -9    0.31    0.15 
  12  -3   9    0.39    0.20 
  13  -3   9    0.24    0.20 
  16   2  -9    0.62    0.21 
  15   2  -9    0.04    0.16 
  14   2  -9    0.27    0.16 
  13   2  -9    0.41    0.16 
  12   2  -9    2.02    0.25 
  11   2  -9    4.89    0.35 
  10   2  -9    2.38    0.25 
  10   2  -9    2.42    0.18 
   9   2  -9    3.95    0.29 
   9   2  -9    4.35    0.25 
   8   2  -9    6.10    0.32 
   8   2  -9    6.42    0.36 
  -8  -2   9    6.33    0.30 
   7   2  -9    4.31    0.25 
  -7  -2   9    4.76    0.25 
   6   2  -9    9.55    0.42 
  -6  -2   9    9.99    0.42 
  -4  -2   9   26.13    0.94 
  -3  -2   9   20.13    0.76 
  -2  -2   9   10.61    0.45 
   1   2  -9   73.44    2.44 
   0   2  -9    9.35    0.40 
  -1   2  -9    2.14    0.16 
  -2   2  -9   28.31    1.03 
  -3   2  -9    1.82    0.16 
  -4   2  -9    0.19    0.09 
   4  -2   9    0.23    0.09 
  -5   2  -9    0.72    0.13 
   5  -2   9    0.78    0.15 
  -6   2  -9    1.92    0.19 
   6  -2   9    1.74    0.22 
  -7   2  -9    0.01    0.08 
   7  -2   9    0.03    0.10 
  -8   2  -9    0.73    0.15 
   8  -2   9    0.56    0.17 
  -9   2  -9    0.18    0.11 
   9  -2   9    0.22    0.13 
 -10   2  -9    0.07    0.10 
  10  -2   9    0.19    0.14 
 -11   2  -9    0.10    0.10 
  11  -2   9   -0.08    0.13 
 -12   2  -9   -0.24    0.10 
  12  -2   9    0.01    0.14 
  13  -2   9    0.07    0.20 
  16   1  -9    0.00    0.15 
  15   1  -9   -0.11    0.11 
  14   1  -9    1.60    0.26 
  13   1  -9    0.98    0.20 
  12   1  -9    0.44    0.14 
  11   1  -9    4.49    0.30 
  11   1  -9    4.76    0.33 
  10   1  -9    0.26    0.13 
  10   1  -9    0.30    0.09 
   9   1  -9    7.17    0.39 
   9   1  -9    7.10    0.37 
   8   1  -9   10.08    0.46 
   7   1  -9    2.90    0.20 
  -7  -1   9    3.10    0.17 
   6   1  -9    0.35    0.09 
  -6  -1   9    0.51    0.08 
   5   1  -9    0.14    0.06 
  -5  -1   9    0.04    0.04 
   4   1  -9    0.35    0.08 
  -4  -1   9    0.29    0.06 
   3   1  -9    3.00    0.17 
   2   1  -9    4.50    0.22 
   1   1  -9    1.48    0.13 
   0   1  -9    5.30    0.26 
  -1   1  -9    3.17    0.19 
  -2   1  -9   95.14    3.15 
  -3   1  -9    0.25    0.08 
  -4   1  -9   19.04    0.74 
  -5   1  -9   17.42    0.70 
  -6   1  -9    2.84    0.23 
  -7   1  -9    0.18    0.10 
   7  -1   9    0.31    0.12 
  -8   1  -9    0.01    0.08 
   8  -1   9    0.02    0.10 
  -9   1  -9    0.10    0.10 
   9  -1   9    0.21    0.12 
 -10   1  -9   -0.18    0.09 
  10  -1   9    0.03    0.12 
 -11   1  -9    0.09    0.12 
  11  -1   9    0.21    0.14 
 -12   1  -9    0.69    0.18 
  12  -1   9    0.69    0.21 
 -13   1  -9   -0.08    0.15 
  16   0  -9   -0.05    0.14 
  15   0  -9    0.01    0.14 
  14   0  -9    0.08    0.13 
  13   0  -9    0.16    0.13 
  12   0  -9    0.01    0.10 
  12   0  -9    0.06    0.11 
  11   0  -9   -0.01    0.09 
  11   0  -9    0.16    0.11 
  10   0  -9   -0.02    0.10 
  10   0  -9    0.01    0.09 
   9   0  -9    0.01    0.07 
   8   0  -9    0.02    0.08 
   7   0  -9    0.05    0.03 
   7   0  -9    0.03    0.06 
   6   0  -9    0.01    0.05 
   6   0  -9    0.05    0.03 
   5   0  -9   -0.04    0.05 
   5   0  -9   -0.02    0.03 
   4   0  -9   -0.03    0.03 
   4   0  -9    0.06    0.05 
   3   0  -9   -0.03    0.03 
   2   0  -9    0.06    0.04 
   1   0  -9    0.00    0.04 
   0   0  -9    0.02    0.04 
  -1   0  -9    0.02    0.05 
  -2   0  -9   -0.03    0.06 
  -3   0  -9    0.06    0.06 
  -4   0  -9   -0.03    0.06 
  -5   0  -9   -0.05    0.07 
  -6   0  -9   -0.03    0.07 
  -7   0  -9   -0.14    0.07 
  -8   0  -9   -0.01    0.09 
  -9   0  -9    0.07    0.10 
 -10   0  -9   -0.12    0.09 
 -11   0  -9   -0.02    0.12 
 -12   0  -9   -0.02    0.13 
 -13   0  -9   -0.14    0.14 
  16  -1  -9   -0.12    0.14 
  15  -1  -9   -0.03    0.14 
  14  -1  -9    1.33    0.23 
  13  -1  -9    1.39    0.22 
  13  -1  -9    1.17    0.20 
  12  -1  -9    0.19    0.12 
  12  -1  -9    0.30    0.13 
  11  -1  -9    3.91    0.30 
  11  -1  -9    4.42    0.30 
  10  -1  -9    0.33    0.13 
  10  -1  -9    0.56    0.14 
   9  -1  -9    7.07    0.38 
   8  -1  -9    9.02    0.44 
   7  -1  -9    3.11    0.22 
   6  -1  -9    0.52    0.04 
   6  -1  -9    0.36    0.09 
   5  -1  -9    0.15    0.04 
   5  -1  -9    0.11    0.06 
   4  -1  -9    0.31    0.08 
   4  -1  -9    0.34    0.05 
   3  -1  -9    2.91    0.15 
   3  -1  -9    2.61    0.18 
   2  -1  -9    4.39    0.21 
   1  -1  -9    1.30    0.11 
   0  -1  -9    5.99    0.28 
  -1  -1  -9    3.19    0.20 
  -2  -1  -9   95.93    3.18 
  -3  -1  -9    0.35    0.09 
  -4  -1  -9   19.08    0.75 
  -5  -1  -9   15.92    0.66 
  -6  -1  -9    2.44    0.22 
  -7  -1  -9    0.33    0.12 
  -8  -1  -9   -0.04    0.08 
  -9  -1  -9    0.12    0.11 
 -10  -1  -9   -0.06    0.10 
 -11  -1  -9    0.17    0.13 
 -12  -1  -9    0.56    0.17 
 -13  -1  -9    0.13    0.15 
  16  -2  -9    0.77    0.22 
  15  -2  -9   -0.12    0.13 
  14  -2  -9    0.13    0.15 
  14  -2  -9    0.32    0.15 
  13  -2  -9    0.49    0.16 
  13  -2  -9    0.78    0.18 
  12  -2  -9    2.01    0.24 
  12  -2  -9    2.23    0.25 
  11  -2  -9    4.92    0.34 
  11  -2  -9    4.69    0.32 
  10  -2  -9    2.69    0.26 
   9  -2  -9    3.85    0.27 
   8  -2  -9    6.39    0.37 
   7  -2  -9    4.36    0.28 
   6  -2  -9    8.99    0.43 
   5  -2  -9    4.88    0.19 
   5  -2  -9    4.83    0.27 
   4  -2  -9   26.33    0.98 
   4  -2  -9   25.60    0.88 
   3  -2  -9   20.06    0.75 
   3  -2  -9   18.03    0.66 
   2  -2  -9   10.13    0.39 
   2  -2  -9    9.40    0.43 
   1  -2  -9   70.27    2.33 
   0  -2  -9    9.01    0.38 
  -1  -2  -9    1.71    0.15 
  -2  -2  -9   27.49    1.00 
  -3  -2  -9    1.97    0.17 
  -4  -2  -9    0.01    0.06 
  -5  -2  -9    0.93    0.15 
  -6  -2  -9    1.84    0.20 
  -7  -2  -9    0.12    0.10 
  -8  -2  -9    0.59    0.15 
  -9  -2  -9    0.19    0.12 
 -10  -2  -9   -0.04    0.10 
 -11  -2  -9   -0.02    0.11 
 -12  -2  -9   -0.10    0.12 
 -13  -2  -9    0.05    0.14 
  15  -3  -9    0.09    0.18 
  15  -3  -9    0.22    0.16 
  14  -3  -9    0.32    0.14 
  14  -3  -9    0.52    0.19 
  13  -3  -9    0.01    0.12 
  13  -3  -9    0.05    0.13 
  12  -3  -9    0.05    0.12 
  12  -3  -9    0.22    0.12 
  11  -3  -9    0.29    0.13 
  10  -3  -9    0.34    0.14 
   9  -3  -9    3.90    0.29 
   8  -3  -9    0.13    0.11 
   7  -3  -9    0.03    0.09 
   6  -3  -9    8.91    0.43 
   5  -3  -9    0.87    0.13 
   5  -3  -9    0.93    0.07 
   4  -3  -9    4.18    0.18 
   4  -3  -9    3.58    0.23 
   3  -3  -9    1.36    0.10 
   3  -3  -9    1.50    0.15 
   2  -3  -9    4.54    0.22 
   2  -3  -9    4.08    0.25 
   1  -3  -9   16.96    0.64 
   1  -3  -9   17.21    0.68 
   0  -3  -9   10.89    0.46 
   0  -3  -9   10.33    0.44 
  -1  -3  -9   16.29    0.64 
  -2  -3  -9    5.21    0.28 
  -3  -3  -9   12.05    0.52 
  -4  -3  -9    0.04    0.07 
  -5  -3  -9    0.36    0.12 
  -6  -3  -9    1.82    0.21 
  -7  -3  -9    0.82    0.16 
  -8  -3  -9    0.14    0.11 
  -9  -3  -9    3.28    0.31 
 -10  -3  -9    1.02    0.20 
 -11  -3  -9    0.02    0.12 
 -12  -3  -9    0.11    0.14 
 -13  -3  -9    0.03    0.15 
  15  -4  -9   -0.02    0.17 
  15  -4  -9    0.30    0.16 
  14  -4  -9    0.06    0.13 
  14  -4  -9    0.04    0.15 
  13  -4  -9    0.17    0.13 
  13  -4  -9    0.16    0.14 
  12  -4  -9    0.44    0.16 
  12  -4  -9    0.65    0.16 
  11  -4  -9    3.35    0.30 
  10  -4  -9    0.47    0.15 
   9  -4  -9    2.18    0.24 
   8  -4  -9    0.25    0.12 
   7  -4  -9    1.96    0.22 
   6  -4  -9    8.36    0.43 
   5  -4  -9    3.80    0.26 
   5  -4  -9    4.05    0.18 
   4  -4  -9    3.99    0.19 
   4  -4  -9    3.51    0.24 
   3  -4  -9    2.46    0.15 
   3  -4  -9    2.49    0.19 
   2  -4  -9    0.48    0.11 
   2  -4  -9    1.02    0.10 
   1  -4  -9    0.01    0.05 
   1  -4  -9    0.03    0.06 
   0  -4  -9    9.35    0.41 
   0  -4  -9    9.06    0.41 
  -1  -4  -9    5.00    0.27 
  -1  -4  -9    5.15    0.28 
  -2  -4  -9    1.39    0.16 
  -3  -4  -9    1.38    0.16 
  -4  -4  -9    6.21    0.35 
  -5  -4  -9    2.16    0.22 
  -6  -4  -9    0.05    0.09 
  -7  -4  -9    1.79    0.23 
  -8  -4  -9    1.47    0.22 
  -9  -4  -9    0.24    0.12 
 -10  -4  -9    0.07    0.13 
 -11  -4  -9   -0.05    0.12 
 -12  -4  -9   -0.18    0.12 
 -13  -4  -9   -0.04    0.15 
  15  -5  -9    0.38    0.19 
  15  -5  -9    0.15    0.21 
  14  -5  -9   -0.08    0.15 
  14  -5  -9    0.02    0.12 
  13  -5  -9   -0.02    0.14 
  13  -5  -9    0.40    0.15 
  12  -5  -9    0.20    0.15 
  12  -5  -9    0.43    0.14 
  11  -5  -9    2.04    0.26 
  10  -5  -9    1.28    0.21 
   9  -5  -9    0.77    0.17 
   8  -5  -9    1.35    0.20 
   7  -5  -9    5.64    0.35 
   6  -5  -9   -0.05    0.10 
   5  -5  -9    1.19    0.17 
   5  -5  -9    1.61    0.11 
   4  -5  -9    0.47    0.12 
   4  -5  -9    0.52    0.08 
   3  -5  -9    2.36    0.20 
   3  -5  -9    2.25    0.15 
   2  -5  -9    2.00    0.15 
   2  -5  -9    1.99    0.18 
   1  -5  -9    0.00    0.06 
   1  -5  -9    0.11    0.06 
   0  -5  -9    0.48    0.10 
   0  -5  -9    0.49    0.10 
  -1  -5  -9    0.52    0.10 
  -1  -5  -9    0.40    0.09 
  -2  -5  -9    4.48    0.25 
  -2  -5  -9    4.89    0.28 
  -3  -5  -9    0.84    0.15 
  -3  -5  -9    1.00    0.12 
  -4  -5  -9    0.39    0.11 
  -5  -5  -9    0.54    0.13 
  -6  -5  -9    0.04    0.10 
  -7  -5  -9    0.18    0.11 
  -8  -5  -9    0.36    0.14 
  -9  -5  -9    0.40    0.16 
 -10  -5  -9    0.33    0.15 
 -11  -5  -9    0.17    0.15 
 -12  -5  -9   -0.05    0.14 
  14  -6  -9   -0.17    0.17 
  13  -6  -9    0.02    0.14 
  13  -6  -9   -0.05    0.16 
  12  -6  -9    0.60    0.20 
  11  -6  -9    0.70    0.19 
  10  -6  -9    0.36    0.15 
   9  -6  -9    0.15    0.13 
   8  -6  -9    3.37    0.28 
   7  -6  -9    0.55    0.14 
   6  -6  -9    3.62    0.27 
   5  -6  -9    3.07    0.17 
   5  -6  -9    2.89    0.25 
   4  -6  -9    1.30    0.12 
   4  -6  -9    1.27    0.17 
   3  -6  -9    3.72    0.27 
   3  -6  -9    4.16    0.23 
   2  -6  -9    0.92    0.15 
   2  -6  -9    1.33    0.14 
   1  -6  -9    4.51    0.27 
   1  -6  -9    4.60    0.26 
   0  -6  -9    2.67    0.20 
   0  -6  -9    2.55    0.20 
  -1  -6  -9   10.60    0.49 
  -1  -6  -9   10.64    0.47 
  -2  -6  -9    5.31    0.32 
  -2  -6  -9    6.11    0.31 
  -3  -6  -9    1.06    0.16 
  -4  -6  -9    1.32    0.19 
  -4  -6  -9    1.22    0.13 
  -5  -6  -9    0.27    0.09 
  -5  -6  -9    0.20    0.12 
  -6  -6  -9    0.03    0.10 
  -7  -6  -9    0.14    0.11 
  -8  -6  -9   -0.05    0.10 
  -9  -6  -9   -0.04    0.11 
 -10  -6  -9    0.06    0.15 
 -11  -6  -9    0.01    0.13 
 -12  -6  -9    0.17    0.17 
  14  -7  -9    0.00    0.20 
  13  -7  -9    0.04    0.18 
  12  -7  -9    0.03    0.15 
  11  -7  -9    0.53    0.18 
  10  -7  -9    0.15    0.14 
   9  -7  -9    0.10    0.13 
   8  -7  -9    6.00    0.40 
   7  -7  -9    3.58    0.29 
   6  -7  -9    2.10    0.23 
   5  -7  -9    0.10    0.11 
   4  -7  -9    4.75    0.31 
   4  -7  -9    4.78    0.26 
   3  -7  -9    1.44    0.15 
   3  -7  -9    1.16    0.18 
   2  -7  -9    0.30    0.11 
   2  -7  -9    0.43    0.10 
   1  -7  -9    0.03    0.09 
   1  -7  -9   -0.07    0.05 
   0  -7  -9    0.29    0.10 
   0  -7  -9    0.34    0.10 
  -1  -7  -9    2.72    0.24 
  -1  -7  -9    2.82    0.21 
  -2  -7  -9    2.18    0.22 
  -2  -7  -9    2.41    0.19 
  -3  -7  -9    0.08    0.10 
  -3  -7  -9    0.18    0.09 
  -4  -7  -9    0.07    0.11 
  -5  -7  -9    1.15    0.20 
  -6  -7  -9    0.66    0.16 
  -7  -7  -9   -0.07    0.10 
  -8  -7  -9    0.57    0.17 
  -9  -7  -9    0.93    0.21 
 -10  -7  -9    0.32    0.17 
 -11  -7  -9    0.02    0.14 
  13  -8  -9    0.01    0.21 
  12  -8  -9   -0.03    0.17 
  11  -8  -9    0.17    0.18 
  10  -8  -9    1.64    0.28 
   9  -8  -9   -0.02    0.13 
   8  -8  -9    0.33    0.15 
   7  -8  -9   -0.08    0.11 
   6  -8  -9   -0.02    0.11 
   5  -8  -9    0.09    0.11 
   4  -8  -9    1.45    0.20 
   4  -8  -9    1.78    0.17 
   3  -8  -9    0.13    0.11 
   3  -8  -9   -0.04    0.06 
   2  -8  -9    2.06    0.22 
   2  -8  -9    2.32    0.19 
   1  -8  -9    1.15    0.16 
   1  -8  -9    1.22    0.17 
   0  -8  -9    0.10    0.09 
   0  -8  -9    0.13    0.10 
  -1  -8  -9    3.17    0.23 
  -1  -8  -9    3.52    0.27 
  -2  -8  -9    1.57    0.20 
  -3  -8  -9    1.54    0.21 
  -4  -8  -9   -0.10    0.09 
  -5  -8  -9    1.26    0.21 
  -6  -8  -9   -0.02    0.10 
  -7  -8  -9    0.04    0.11 
  -8  -8  -9    0.57    0.17 
  -9  -8  -9    0.83    0.21 
 -10  -8  -9    0.02    0.14 
 -11  -8  -9    0.06    0.15 
  12  -9  -9    0.19    0.19 
  11  -9  -9    0.71    0.25 
  10  -9  -9    1.50    0.26 
   9  -9  -9    0.91    0.22 
   8  -9  -9    0.18    0.14 
   7  -9  -9    1.61    0.24 
   6  -9  -9    0.00    0.09 
   5  -9  -9    0.91    0.18 
   4  -9  -9    3.77    0.30 
   4  -9  -9    4.45    0.26 
   3  -9  -9    1.16    0.16 
   3  -9  -9    1.12    0.18 
   2  -9  -9    0.78    0.16 
   2  -9  -9    0.75    0.15 
   1  -9  -9    0.08    0.11 
   1  -9  -9    0.13    0.10 
   0  -9  -9    1.15    0.18 
   0  -9  -9    1.18    0.17 
  -1  -9  -9    1.01    0.16 
  -1  -9  -9    0.94    0.17 
  -2  -9  -9    0.04    0.10 
  -3  -9  -9   -0.13    0.08 
  -4  -9  -9    0.61    0.16 
  -5  -9  -9    0.18    0.13 
  -6  -9  -9    0.01    0.13 
  -7  -9  -9    0.16    0.14 
  -8  -9  -9    0.22    0.15 
  -9  -9  -9    0.66    0.19 
 -10  -9  -9   -0.04    0.15 
  11 -10  -9    0.21    0.17 
  10 -10  -9    0.13    0.17 
   9 -10  -9    0.21    0.16 
   8 -10  -9    0.00    0.14 
   7 -10  -9    0.42    0.16 
   6 -10  -9    2.12    0.27 
   5 -10  -9    1.59    0.24 
   4 -10  -9    4.17    0.32 
   3 -10  -9    1.07    0.20 
   3 -10  -9    1.13    0.17 
   2 -10  -9    0.18    0.11 
   2 -10  -9    0.21    0.12 
   1 -10  -9    0.25    0.12 
   1 -10  -9    0.06    0.10 
   0 -10  -9    0.00    0.11 
   0 -10  -9    0.08    0.11 
  -1 -10  -9    0.18    0.12 
  -2 -10  -9    0.55    0.16 
  -3 -10  -9    0.27    0.13 
  -4 -10  -9   -0.05    0.11 
  -5 -10  -9    0.28    0.15 
  -6 -10  -9    0.62    0.19 
  -7 -10  -9    0.33    0.17 
  -8 -10  -9    0.07    0.13 
  -9 -10  -9    0.03    0.16 
  10 -11  -9    0.11    0.16 
   9 -11  -9    0.53    0.20 
   8 -11  -9    1.03    0.23 
   7 -11  -9   -0.06    0.14 
   6 -11  -9    0.09    0.13 
   5 -11  -9    0.09    0.13 
   4 -11  -9   -0.13    0.11 
   3 -11  -9    0.81    0.18 
   3 -11  -9    0.61    0.17 
   2 -11  -9    0.42    0.15 
   2 -11  -9    0.69    0.17 
   1 -11  -9    0.24    0.13 
   1 -11  -9    0.31    0.14 
   0 -11  -9    0.20    0.12 
  -1 -11  -9   -0.03    0.10 
  -2 -11  -9    0.01    0.10 
  -3 -11  -9   -0.01    0.10 
  -4 -11  -9    0.12    0.13 
  -5 -11  -9    0.38    0.17 
  -6 -11  -9    0.41    0.18 
  -7 -11  -9   -0.08    0.16 
  -8 -11  -9    0.39    0.19 
   9 -12  -9    0.45    0.22 
   8 -12  -9    0.29    0.19 
   7 -12  -9    0.08    0.18 
   6 -12  -9    0.16    0.16 
   5 -12  -9    0.51    0.19 
   4 -12  -9   -0.04    0.14 
   3 -12  -9    0.01    0.13 
   2 -12  -9    0.88    0.19 
   2 -12  -9    0.95    0.20 
   1 -12  -9   -0.03    0.11 
   0 -12  -9    0.24    0.13 
  -1 -12  -9    0.19    0.14 
  -2 -12  -9    0.03    0.13 
  -3 -12  -9   -0.01    0.12 
  -4 -12  -9    0.46    0.18 
  -5 -12  -9    0.14    0.15 
  -6 -12  -9   -0.01    0.16 
  -7 -12  -9    0.07    0.18 
   7 -13  -9    0.53    0.22 
   6 -13  -9    0.18    0.18 
   5 -13  -9    0.14    0.15 
   4 -13  -9    0.16    0.15 
   1 -13  -9    0.19    0.14 
   0 -13  -9    0.09    0.14 
  -1 -13  -9    0.21    0.14 
  -2 -13  -9    0.03    0.14 
  -3 -13  -9   -0.10    0.15 
  -4 -13  -9   -0.02    0.17 
  -5 -13  -9   -0.06    0.19 
   1 -14  -9   -0.02    0.16 
   0 -14  -9    0.28    0.18 
  -1 -14  -9    0.34    0.20 
  -2 -14  -9    0.19    0.18 
  -3 -14  10    0.09    0.17 
  -2 -14  10    0.30    0.22 
  -1 -14  10    0.05    0.19 
   0 -14  10   -0.01    0.19 
   1 -14  10    0.19    0.20 
  -7 -13  10    0.02    0.17 
  -6 -13  10    0.04    0.16 
  -5 -13  10    0.27    0.17 
  -4 -13  10    1.02    0.25 
  -3 -13  10   -0.04    0.14 
  -2 -13  10    0.26    0.18 
  -1 -13  10    0.58    0.22 
   0 -13  10    0.22    0.16 
   1 -13  10    0.03    0.15 
   2 -13  10   -0.06    0.16 
   3 -13  10    0.00    0.16 
   3 -13  10   -0.20    0.14 
   4 -13  10   -0.02    0.17 
   4 -13  10    0.12    0.18 
  -9 -12  10   -0.07    0.16 
  -8 -12  10   -0.09    0.15 
  -7 -12  10    0.25    0.17 
  -6 -12  10    0.17    0.15 
  -5 -12  10    0.18    0.14 
  -4 -12  10    0.07    0.13 
  -3 -12  10    0.15    0.15 
  -2 -12  10    0.20    0.14 
  -1 -12  10    0.17    0.14 
   0 -12  10    0.12    0.14 
   1 -12  10   -0.19    0.10 
   1 -12  10    0.15    0.16 
   2 -12  10   -0.10    0.11 
   2 -12  10    0.16    0.15 
   3 -12  10    0.16    0.15 
   3 -12  10    0.07    0.15 
   4 -12  10    0.47    0.20 
   4 -12  10    0.25    0.17 
   5 -12  10    0.14    0.17 
   5 -12  10    0.18    0.18 
  -6  12 -10    0.09    0.16 
   6 -12  10   -0.02    0.17 
 -10 -11  10    0.12    0.15 
  -9 -11  10    0.09    0.16 
  -8 -11  10    0.05    0.13 
  -7 -11  10    0.11    0.13 
  -6 -11  10    0.17    0.14 
  -5 -11  10    0.44    0.17 
  -4 -11  10    0.28    0.15 
  -3 -11  10    1.07    0.23 
  -2 -11  10    1.25    0.24 
  -1 -11  10   -0.10    0.11 
   0 -11  10    0.43    0.17 
   1 -11  10    0.07    0.11 
   1 -11  10    0.07    0.12 
   2 -11  10   -0.12    0.10 
   2 -11  10    0.23    0.13 
   3 -11  10    0.15    0.14 
   3 -11  10   -0.01    0.12 
   4 -11  10   -0.09    0.13 
   4 -11  10   -0.08    0.11 
  -5  11 -10    0.37    0.16 
   5 -11  10    0.30    0.17 
  -6  11 -10    0.17    0.15 
   6 -11  10    0.26    0.18 
  -7  11 -10   -0.02    0.14 
   7 -11  10   -0.01    0.15 
  -8  11 -10    0.12    0.17 
  11  10 -10    0.01    0.15 
 -11 -10  10    0.15    0.17 
  10  10 -10   -0.07    0.14 
 -10 -10  10    0.29    0.16 
   9  10 -10   -0.04    0.13 
  -9 -10  10    0.38    0.16 
  -8 -10  10    0.63    0.19 
  -7 -10  10    0.25    0.15 
  -6 -10  10    0.37    0.14 
  -5 -10  10    0.11    0.11 
  -4 -10  10    0.07    0.12 
  -3 -10  10    0.16    0.11 
  -2 -10  10    0.49    0.16 
  -1 -10  10   -0.01    0.10 
   0 -10  10    0.90    0.20 
   1 -10  10    0.41    0.15 
   1 -10  10    0.57    0.17 
   2 -10  10   -0.02    0.13 
   2 -10  10   -0.01    0.11 
   3 -10  10    0.78    0.21 
   3 -10  10    0.63    0.20 
   4 -10  10    0.67    0.19 
   4 -10  10    0.78    0.21 
  -5  10 -10   -0.01    0.11 
   5 -10  10    0.38    0.17 
  -6  10 -10    0.10    0.14 
   6 -10  10    0.28    0.18 
  -7  10 -10    0.08    0.14 
   7 -10  10    0.14    0.17 
  -8  10 -10    0.14    0.15 
   8 -10  10    0.25    0.18 
  -9  10 -10    0.23    0.18 
   9 -10  10    0.28    0.19 
  12   9 -10    0.18    0.18 
  11   9 -10   -0.04    0.14 
  10   9 -10   -0.10    0.12 
 -10  -9  10    0.03    0.14 
   9   9 -10    0.64    0.17 
  -9  -9  10    0.69    0.19 
   8   9 -10    1.10    0.19 
  -8  -9  10    0.87    0.20 
   7   9 -10    0.85    0.17 
  -7  -9  10    0.90    0.21 
   6   9 -10    0.14    0.11 
  -6  -9  10    0.11    0.12 
  -5  -9  10    0.22    0.12 
  -4  -9  10    0.04    0.09 
  -3  -9  10    0.52    0.16 
  -2  -9  10    0.09    0.10 
  -1  -9  10   -0.08    0.08 
   0  -9  10    0.63    0.16 
   1  -9  10    0.03    0.10 
   1  -9  10    0.30    0.14 
   2  -9  10    0.58    0.15 
   2  -9  10    0.80    0.18 
   3  -9  10   -0.02    0.11 
   3  -9  10   -0.08    0.08 
   4  -9  10    0.26    0.14 
   4  -9  10    0.29    0.14 
  -5   9 -10    0.23    0.14 
   5  -9  10    0.36    0.15 
  -6   9 -10    0.20    0.13 
   6  -9  10    0.42    0.17 
  -7   9 -10    0.26    0.14 
   7  -9  10    0.24    0.16 
  -8   9 -10    0.13    0.14 
   8  -9  10    0.14    0.16 
  -9   9 -10    0.17    0.15 
   9  -9  10   -0.02    0.16 
  10  -9  10    0.31    0.22 
  13   8 -10    0.07    0.18 
  12   8 -10    0.35    0.19 
  11   8 -10    0.12    0.14 
  10   8 -10    0.30    0.16 
 -10  -8  10    0.31    0.13 
   9   8 -10   -0.11    0.10 
  -9  -8  10    0.03    0.10 
   8   8 -10    0.17    0.11 
  -8  -8  10    0.27    0.14 
   7   8 -10    0.63    0.14 
  -7  -8  10    0.54    0.16 
   6   8 -10    1.10    0.16 
  -6  -8  10    1.48    0.22 
   5   8 -10    0.10    0.07 
  -5  -8  10    0.27    0.12 
   4   8 -10    0.73    0.11 
  -4  -8  10    0.62    0.16 
  -3  -8  10    2.28    0.26 
  -2  -8  10    3.89    0.31 
  -1  -8  10    0.44    0.16 
   0  -8  10    2.16    0.26 
   1  -8  10    0.65    0.17 
   1  -8  10    0.81    0.17 
   2  -8  10    0.16    0.12 
   2  -8  10    0.12    0.11 
   3  -8  10    2.53    0.28 
   3  -8  10    1.99    0.25 
  -4   8 -10    0.73    0.16 
   4  -8  10    0.75    0.19 
  -5   8 -10    0.27    0.13 
   5  -8  10    0.43    0.16 
  -6   8 -10    0.21    0.12 
   6  -8  10    0.11    0.13 
  -7   8 -10    0.38    0.14 
   7  -8  10    0.22    0.14 
  -8   8 -10    0.08    0.13 
   8  -8  10    0.01    0.14 
  -9   8 -10    0.19    0.14 
   9  -8  10    0.00    0.18 
 -10   8 -10    0.21    0.16 
  10  -8  10    0.22    0.21 
  14   7 -10    0.14    0.21 
  13   7 -10    0.35    0.19 
  12   7 -10    0.67    0.20 
  11   7 -10    0.16    0.14 
  10   7 -10    0.27    0.14 
 -10  -7  10    0.29    0.14 
   9   7 -10    0.14    0.12 
  -9  -7  10    0.38    0.14 
   8   7 -10   -0.07    0.10 
  -8  -7  10   -0.03    0.11 
   7   7 -10    0.39    0.12 
  -7  -7  10    0.39    0.13 
   6   7 -10    2.53    0.22 
  -6  -7  10    2.86    0.27 
   5   7 -10   13.61    0.57 
  -5  -7  10   13.95    0.65 
   4   7 -10    2.71    0.19 
  -4  -7  10    2.39    0.26 
   3   7 -10   10.15    0.43 
  -3  -7  10   10.06    0.53 
  -2  -7  10   10.35    0.53 
  -1  -7  10    0.05    0.10 
   0  -7  10   -0.09    0.07 
   1  -7  10    4.07    0.31 
   1  -7  10    4.87    0.33 
   2  -7  10    1.43    0.21 
   2  -7  10    1.65    0.23 
   3  -7  10    0.04    0.11 
   3  -7  10    0.02    0.10 
  -4   7 -10    0.45    0.13 
   4  -7  10    0.50    0.16 
  -5   7 -10    0.27    0.12 
   5  -7  10    0.25    0.15 
  -6   7 -10    0.11    0.11 
   6  -7  10    0.21    0.14 
  -7   7 -10    0.12    0.12 
   7  -7  10    0.55    0.18 
  -8   7 -10   -0.17    0.09 
   8  -7  10   -0.04    0.13 
  -9   7 -10    0.02    0.12 
   9  -7  10    0.30    0.19 
 -10   7 -10    0.02    0.13 
  10  -7  10   -0.29    0.15 
  11  -7  10    0.05    0.20 
  14   6 -10   -0.12    0.16 
  13   6 -10    0.04    0.16 
  12   6 -10    0.10    0.13 
  11   6 -10    0.15    0.13 
  10   6 -10    0.39    0.15 
 -10  -6  10    0.48    0.15 
   9   6 -10    3.20    0.28 
  -9  -6  10    2.74    0.26 
   8   6 -10    2.41    0.24 
  -8  -6  10    2.07    0.23 
   7   6 -10    0.11    0.10 
  -7  -6  10    0.35    0.13 
   6   6 -10    1.93    0.20 
  -6  -6  10    2.35    0.24 
   5   6 -10    8.33    0.40 
  -5  -6  10    8.52    0.45 
   4   6 -10    4.96    0.26 
  -4  -6  10    4.63    0.32 
   3   6 -10   12.01    0.48 
  -3  -6  10   11.78    0.56 
   2   6 -10    1.82    0.13 
  -2  -6  10    1.65    0.21 
   1   6 -10    1.47    0.11 
  -1  -6  10    1.40    0.19 
   0  -6  10   -0.03    0.08 
   1  -6  10    0.01    0.09 
   2  -6  10    1.49    0.21 
   2  -6  10    1.30    0.19 
  -3   6 -10    2.80    0.25 
   3  -6  10    3.48    0.28 
  -4   6 -10    3.70    0.28 
   4  -6  10    3.51    0.32 
  -5   6 -10    0.27    0.12 
   5  -6  10    0.49    0.16 
  -6   6 -10    1.40    0.19 
   6  -6  10    1.03    0.21 
  -7   6 -10    0.81    0.16 
   7  -6  10    0.89    0.21 
  -8   6 -10    0.01    0.11 
   8  -6  10   -0.01    0.14 
  -9   6 -10    0.60    0.17 
   9  -6  10    0.80    0.22 
 -10   6 -10    0.20    0.13 
  10  -6  10    0.07    0.17 
 -11   6 -10   -0.07    0.14 
  11  -6  10    0.00    0.17 
  15   5 -10    0.22    0.19 
  14   5 -10    0.02    0.15 
  13   5 -10    0.12    0.15 
  12   5 -10    0.35    0.16 
  11   5 -10    0.00    0.12 
  10   5 -10   -0.10    0.10 
   9   5 -10    2.37    0.25 
  -9  -5  10    2.39    0.23 
   8   5 -10    7.36    0.41 
  -8  -5  10    7.18    0.40 
   7   5 -10    5.14    0.28 
   7   5 -10    5.95    0.33 
  -7  -5  10    5.61    0.33 
   6   5 -10    5.93    0.29 
   6   5 -10    6.05    0.33 
  -6  -5  10    5.66    0.34 
   5   5 -10   14.94    0.61 
  -5  -5  10   15.16    0.65 
   4   5 -10    4.64    0.26 
  -4  -5  10    4.79    0.30 
   3   5 -10    0.27    0.07 
  -3  -5  10    0.11    0.08 
  -2  -5  10    6.64    0.37 
  -1  -5  10    9.58    0.47 
   0  -5  10    2.20    0.22 
   1  -5  10    0.09    0.09 
  -2   5 -10    3.60    0.26 
   2  -5  10    3.47    0.27 
  -3   5 -10    0.37    0.11 
   3  -5  10    0.42    0.14 
  -4   5 -10    0.48    0.13 
   4  -5  10    0.32    0.14 
  -5   5 -10    0.71    0.14 
   5  -5  10    0.48    0.16 
  -6   5 -10    0.01    0.09 
   6  -5  10   -0.14    0.10 
  -7   5 -10    0.53    0.14 
   7  -5  10    0.34    0.15 
  -8   5 -10    0.44    0.15 
   8  -5  10    0.51    0.18 
  -9   5 -10    0.18    0.11 
   9  -5  10   -0.05    0.12 
 -10   5 -10    0.23    0.13 
  10  -5  10   -0.14    0.14 
 -11   5 -10    0.60    0.18 
  11  -5  10    0.67    0.22 
  12  -5  10   -0.15    0.17 
  15   4 -10   -0.01    0.17 
  14   4 -10   -0.23    0.12 
  13   4 -10    0.03    0.13 
  12   4 -10    0.30    0.16 
  11   4 -10   -0.01    0.12 
  10   4 -10    0.25    0.13 
   9   4 -10    0.62    0.15 
  -9  -4  10    0.77    0.14 
   8   4 -10    1.34    0.19 
   8   4 -10    1.29    0.13 
   7   4 -10    6.10    0.34 
   7   4 -10    6.02    0.30 
  -7  -4  10    6.05    0.33 
   6   4 -10    7.18    0.34 
   6   4 -10    7.43    0.37 
  -6  -4  10    6.80    0.37 
   5   4 -10    1.43    0.15 
  -5  -4  10    1.05    0.15 
  -4  -4  10    8.01    0.40 
  -3  -4  10    2.31    0.20 
  -2  -4  10    7.22    0.37 
  -1  -4  10    7.07    0.37 
   0  -4  10    0.21    0.09 
  -1   4 -10    0.80    0.13 
  -2   4 -10    0.19    0.09 
  -3   4 -10    0.24    0.10 
   3  -4  10    0.38    0.13 
  -4   4 -10    1.48    0.18 
   4  -4  10    1.34    0.20 
  -5   4 -10    0.87    0.15 
   5  -4  10    0.85    0.18 
  -6   4 -10    0.17    0.10 
   6  -4  10    0.11    0.13 
  -7   4 -10    0.39    0.12 
   7  -4  10    0.15    0.13 
  -8   4 -10    0.50    0.13 
   8  -4  10    0.87    0.20 
  -9   4 -10    0.22    0.12 
   9  -4  10    0.11    0.14 
 -10   4 -10   -0.09    0.11 
  10  -4  10   -0.02    0.14 
 -11   4 -10    0.09    0.13 
  11  -4  10   -0.25    0.14 
 -12   4 -10   -0.01    0.16 
  12  -4  10    0.06    0.19 
  15   3 -10   -0.06    0.14 
  14   3 -10   -0.08    0.13 
  13   3 -10   -0.06    0.14 
  12   3 -10    0.75    0.19 
  11   3 -10    1.47    0.22 
  10   3 -10    0.08    0.10 
   9   3 -10    0.30    0.12 
   9   3 -10    0.45    0.10 
   8   3 -10   13.81    0.62 
   8   3 -10   13.82    0.58 
  -8  -3  10   14.65    0.59 
   7   3 -10    1.82    0.19 
   7   3 -10    1.98    0.16 
  -7  -3  10    1.93    0.18 
   6   3 -10    0.10    0.07 
  -6  -3  10    0.18    0.07 
  -5  -3  10    2.36    0.19 
  -4  -3  10   12.98    0.55 
  -3  -3  10    1.55    0.16 
  -2  -3  10    4.85    0.28 
  -1  -3  10   46.39    1.64 
   0   3 -10   21.41    0.81 
  -1   3 -10   17.99    0.71 
  -2   3 -10   19.48    0.77 
  -3   3 -10    0.25    0.09 
  -4   3 -10    2.93    0.22 
   4  -3  10    2.71    0.26 
  -5   3 -10    1.52    0.18 
   5  -3  10    1.52    0.21 
  -6   3 -10    0.19    0.11 
   6  -3  10    0.16    0.12 
  -7   3 -10    0.19    0.11 
   7  -3  10    0.01    0.11 
  -8   3 -10   -0.03    0.09 
   8  -3  10   -0.06    0.10 
  -9   3 -10   -0.09    0.09 
   9  -3  10    0.11    0.13 
 -10   3 -10    0.24    0.13 
  10  -3  10    0.26    0.17 
 -11   3 -10    0.46    0.16 
  11  -3  10    0.65    0.21 
 -12   3 -10    0.03    0.12 
  12  -3  10    0.04    0.17 
  13  -3  10    0.20    0.22 
  15   2 -10    0.18    0.15 
  14   2 -10    0.03    0.14 
  13   2 -10   -0.13    0.11 
  12   2 -10   -0.18    0.09 
  11   2 -10   -0.06    0.10 
  10   2 -10    2.81    0.20 
  10   2 -10    2.37    0.25 
   9   2 -10    0.88    0.13 
   9   2 -10    1.11    0.18 
   8   2 -10    0.09    0.08 
   8   2 -10    0.09    0.11 
  -8  -2  10    0.11    0.07 
   7   2 -10    4.00    0.24 
  -7  -2  10    3.85    0.23 
   6   2 -10    2.50    0.18 
  -6  -2  10    2.62    0.18 
  -4  -2  10    2.52    0.18 
  -3  -2  10    0.06    0.06 
   2   2 -10    6.03    0.29 
   1   2 -10    1.74    0.15 
   0   2 -10    2.04    0.16 
  -1   2 -10    0.75    0.12 
  -2   2 -10    0.09    0.07 
  -3   2 -10    1.74    0.17 
  -4   2 -10    0.32    0.11 
  -5   2 -10    0.31    0.10 
  -6   2 -10    3.26    0.24 
   6  -2  10    2.75    0.28 
  -7   2 -10    1.75    0.20 
   7  -2  10    1.68    0.23 
  -8   2 -10    0.27    0.12 
   8  -2  10    0.30    0.13 
  -9   2 -10    0.89    0.17 
   9  -2  10    0.83    0.19 
 -10   2 -10    1.06    0.20 
  10  -2  10    1.39    0.25 
 -11   2 -10    0.31    0.13 
  11  -2  10    0.10    0.14 
 -12   2 -10    0.08    0.13 
  12  -2  10    0.27    0.18 
  16   1 -10    0.19    0.16 
  15   1 -10   -0.02    0.14 
  14   1 -10    0.29    0.16 
  13   1 -10   -0.05    0.11 
  12   1 -10   -0.01    0.11 
  11   1 -10    0.58    0.15 
  11   1 -10    0.30    0.11 
  10   1 -10    0.27    0.12 
  10   1 -10    0.19    0.09 
   9   1 -10   -0.05    0.09 
   9   1 -10   -0.03    0.07 
   8   1 -10    1.11    0.15 
   7   1 -10    6.22    0.33 
  -7  -1  10    6.46    0.29 
   6   1 -10    0.53    0.10 
  -6  -1  10    0.55    0.09 
   5   1 -10    8.46    0.40 
  -5  -1  10    8.99    0.38 
   4   1 -10    0.16    0.06 
   4   1 -10    0.22    0.07 
   3   1 -10   12.48    0.49 
   2   1 -10    3.25    0.19 
   1   1 -10    4.09    0.22 
   0   1 -10    0.60    0.10 
  -1   1 -10    4.20    0.23 
  -2   1 -10    8.04    0.38 
  -3   1 -10    0.01    0.06 
  -4   1 -10    0.10    0.07 
  -5   1 -10    0.07    0.08 
  -6   1 -10   -0.06    0.08 
  -7   1 -10    0.35    0.13 
  -8   1 -10    0.01    0.09 
  -9   1 -10    0.32    0.13 
 -10   1 -10    0.10    0.12 
 -11   1 -10    0.15    0.13 
 -12   1 -10    0.11    0.14 
 -13   1 -10    0.21    0.17 
  16   0 -10    0.05    0.16 
  15   0 -10    0.22    0.15 
  14   0 -10    0.55    0.17 
  13   0 -10    0.04    0.12 
  12   0 -10   -0.02    0.10 
  12   0 -10   -0.15    0.09 
  11   0 -10    0.24    0.12 
  11   0 -10    0.02    0.10 
  10   0 -10    0.93    0.15 
  10   0 -10    0.74    0.16 
   9   0 -10    0.79    0.15 
   8   0 -10    0.20    0.09 
   7   0 -10    8.10    0.39 
   7   0 -10    7.61    0.30 
   6   0 -10   21.83    0.83 
   6   0 -10   20.62    0.73 
   5   0 -10    0.10    0.06 
   5   0 -10    0.06    0.04 
   4   0 -10   43.35    1.56 
   4   0 -10   43.95    1.46 
   3   0 -10    1.09    0.10 
   2   0 -10   53.13    1.78 
   1   0 -10   97.45    3.20 
   0   0 -10    7.27    0.33 
  -1   0 -10    1.56    0.14 
  -2   0 -10    0.49    0.10 
  -3   0 -10   25.23    0.94 
  -4   0 -10    1.10    0.15 
  -5   0 -10    5.10    0.31 
  -6   0 -10    0.51    0.13 
  -7   0 -10    0.72    0.15 
  -8   0 -10    0.07    0.09 
  -9   0 -10    1.65    0.22 
 -10   0 -10    1.57    0.23 
 -11   0 -10   -0.17    0.10 
 -12   0 -10    0.25    0.16 
 -13   0 -10    0.23    0.16 
  16  -1 -10    0.04    0.16 
  15  -1 -10    0.06    0.15 
  14  -1 -10   -0.16    0.11 
  13  -1 -10   -0.15    0.08 
  13  -1 -10    0.08    0.12 
  12  -1 -10    0.01    0.11 
  12  -1 -10   -0.16    0.11 
  11  -1 -10    0.25    0.13 
  11  -1 -10    0.22    0.11 
  10  -1 -10    0.33    0.12 
   9  -1 -10   -0.02    0.10 
   8  -1 -10    0.88    0.15 
   7  -1 -10    5.99    0.33 
   6  -1 -10    0.74    0.13 
   6  -1 -10    0.74    0.06 
   5  -1 -10    8.33    0.32 
   5  -1 -10    8.64    0.40 
   4  -1 -10    0.04    0.06 
   4  -1 -10    0.14    0.04 
   3  -1 -10   13.24    0.54 
   3  -1 -10   12.65    0.48 
   2  -1 -10    3.04    0.17 
   1  -1 -10    3.72    0.20 
   0  -1 -10    0.63    0.09 
  -1  -1 -10    4.90    0.26 
  -2  -1 -10    8.68    0.40 
  -3  -1 -10    0.04    0.07 
  -4  -1 -10    0.06    0.07 
  -5  -1 -10    0.12    0.09 
  -6  -1 -10    0.03    0.08 
  -7  -1 -10    0.29    0.12 
  -8  -1 -10    0.02    0.10 
  -9  -1 -10    0.33    0.13 
 -10  -1 -10    0.08    0.12 
 -11  -1 -10   -0.02    0.11 
 -12  -1 -10    0.05    0.14 
 -13  -1 -10    0.11    0.15 
  15  -2 -10   -0.04    0.14 
  14  -2 -10    0.05    0.13 
  14  -2 -10    0.32    0.17 
  13  -2 -10    0.21    0.14 
  13  -2 -10   -0.11    0.10 
  12  -2 -10    0.10    0.11 
  12  -2 -10   -0.07    0.09 
  11  -2 -10    0.01    0.11 
  10  -2 -10    2.50    0.24 
   9  -2 -10    0.51    0.15 
   8  -2 -10   -0.01    0.10 
   7  -2 -10    3.47    0.25 
   6  -2 -10    2.40    0.20 
   6  -2 -10    2.95    0.12 
   5  -2 -10   20.61    0.80 
   5  -2 -10   19.63    0.69 
   4  -2 -10    2.92    0.20 
   4  -2 -10    3.03    0.15 
   3  -2 -10    0.05    0.06 
   3  -2 -10    0.13    0.05 
   2  -2 -10    5.84    0.30 
   2  -2 -10    5.52    0.26 
   1  -2 -10    1.78    0.13 
   0  -2 -10    1.93    0.15 
  -1  -2 -10    0.70    0.11 
  -2  -2 -10    0.23    0.08 
  -3  -2 -10    2.00    0.18 
  -4  -2 -10    0.23    0.10 
  -5  -2 -10    0.28    0.10 
  -6  -2 -10    2.72    0.25 
  -7  -2 -10    1.40    0.19 
  -8  -2 -10    0.14    0.10 
  -9  -2 -10    0.62    0.16 
 -10  -2 -10    1.18    0.22 
 -11  -2 -10    0.24    0.15 
 -12  -2 -10    0.49    0.18 
 -13  -2 -10    0.31    0.18 
  15  -3 -10   -0.15    0.13 
  15  -3 -10   -0.36    0.15 
  14  -3 -10   -0.13    0.11 
  14  -3 -10    0.03    0.14 
  13  -3 -10    0.01    0.12 
  13  -3 -10    0.09    0.12 
  12  -3 -10    0.77    0.18 
  12  -3 -10    0.86    0.18 
  11  -3 -10    1.17    0.20 
  10  -3 -10    0.03    0.11 
   9  -3 -10    0.29    0.12 
   8  -3 -10   14.31    0.66 
   7  -3 -10    1.99    0.21 
   6  -3 -10    0.29    0.10 
   5  -3 -10    1.96    0.19 
   5  -3 -10    2.27    0.12 
   4  -3 -10   12.95    0.48 
   4  -3 -10   12.64    0.56 
   3  -3 -10    1.78    0.12 
   3  -3 -10    1.93    0.17 
   2  -3 -10    4.85    0.23 
   2  -3 -10    4.55    0.27 
   1  -3 -10   43.13    1.49 
   1  -3 -10   43.92    1.56 
   0  -3 -10   19.61    0.74 
  -1  -3 -10   17.45    0.68 
  -2  -3 -10   18.70    0.74 
  -3  -3 -10    0.18    0.08 
  -4  -3 -10    3.31    0.24 
  -5  -3 -10    1.51    0.19 
  -6  -3 -10    0.23    0.11 
  -7  -3 -10    0.22    0.10 
  -8  -3 -10    0.03    0.10 
  -9  -3 -10    0.11    0.12 
 -10  -3 -10    0.17    0.15 
 -11  -3 -10    0.62    0.19 
 -12  -3 -10    0.22    0.15 
 -13  -3 -10    0.00    0.16 
  15  -4 -10    0.09    0.19 
  15  -4 -10   -0.04    0.13 
  14  -4 -10    0.04    0.15 
  14  -4 -10    0.12    0.12 
  13  -4 -10   -0.09    0.13 
  13  -4 -10   -0.09    0.11 
  12  -4 -10    0.29    0.14 
  12  -4 -10    0.20    0.13 
  11  -4 -10    0.08    0.11 
  10  -4 -10   -0.17    0.08 
   9  -4 -10    0.85    0.17 
   8  -4 -10    0.83    0.17 
   7  -4 -10    6.59    0.39 
   6  -4 -10    6.99    0.39 
   5  -4 -10    1.58    0.10 
   5  -4 -10    1.33    0.18 
   4  -4 -10    8.23    0.42 
   4  -4 -10    8.53    0.34 
   3  -4 -10    2.34    0.15 
   3  -4 -10    2.33    0.19 
   2  -4 -10    6.56    0.34 
   2  -4 -10    7.00    0.31 
   1  -4 -10    8.16    0.36 
   1  -4 -10    7.37    0.37 
   0  -4 -10    0.05    0.05 
   0  -4 -10   -0.01    0.06 
  -1  -4 -10    0.69    0.11 
  -1  -4 -10    0.99    0.13 
  -2  -4 -10    0.23    0.09 
  -3  -4 -10    0.25    0.10 
  -4  -4 -10    1.31    0.18 
  -5  -4 -10    0.65    0.14 
  -6  -4 -10    0.04    0.09 
  -7  -4 -10    0.19    0.11 
  -8  -4 -10    0.70    0.16 
  -9  -4 -10    0.17    0.14 
 -10  -4 -10    0.04    0.11 
 -11  -4 -10   -0.03    0.13 
 -12  -4 -10    0.01    0.15 
  15  -5 -10    0.08    0.15 
  15  -5 -10    0.19    0.21 
  14  -5 -10   -0.06    0.12 
  14  -5 -10    0.10    0.16 
  13  -5 -10   -0.02    0.12 
  13  -5 -10   -0.18    0.13 
  12  -5 -10    0.36    0.17 
  11  -5 -10   -0.13    0.11 
  10  -5 -10   -0.06    0.10 
   9  -5 -10    2.23    0.25 
   8  -5 -10    7.05    0.41 
   7  -5 -10    5.55    0.36 
   6  -5 -10    6.10    0.37 
   5  -5 -10   14.62    0.67 
   5  -5 -10   15.97    0.57 
   4  -5 -10    5.16    0.25 
   4  -5 -10    4.99    0.32 
   3  -5 -10    0.36    0.11 
   3  -5 -10    0.27    0.08 
   2  -5 -10    6.80    0.32 
   2  -5 -10    6.83    0.36 
   1  -5 -10   10.16    0.44 
   1  -5 -10    9.87    0.46 
   0  -5 -10    2.71    0.19 
   0  -5 -10    2.48    0.19 
  -1  -5 -10   -0.01    0.07 
  -1  -5 -10    0.05    0.05 
  -2  -5 -10    3.34    0.24 
  -2  -5 -10    3.67    0.23 
  -3  -5 -10    0.29    0.09 
  -3  -5 -10    0.37    0.12 
  -4  -5 -10    0.54    0.14 
  -5  -5 -10    0.46    0.13 
  -6  -5 -10   -0.07    0.09 
  -7  -5 -10    0.34    0.13 
  -8  -5 -10    0.26    0.13 
  -9  -5 -10    0.05    0.12 
 -10  -5 -10    0.38    0.16 
 -11  -5 -10    0.62    0.19 
 -12  -5 -10   -0.04    0.15 
  14  -6 -10    0.24    0.21 
  14  -6 -10   -0.03    0.13 
  13  -6 -10   -0.15    0.15 
  13  -6 -10    0.18    0.13 
  12  -6 -10    0.22    0.17 
  11  -6 -10    0.11    0.13 
  10  -6 -10    0.50    0.17 
   9  -6 -10    2.83    0.29 
   8  -6 -10    1.58    0.22 
   7  -6 -10    0.04    0.11 
   6  -6 -10    2.32    0.25 
   5  -6 -10    8.02    0.44 
   4  -6 -10    4.72    0.24 
   4  -6 -10    4.60    0.31 
   3  -6 -10   12.80    0.57 
   3  -6 -10   11.60    0.50 
   2  -6 -10    1.83    0.17 
   2  -6 -10    1.69    0.18 
   1  -6 -10    1.22    0.16 
   1  -6 -10    1.37    0.15 
   0  -6 -10    0.09    0.07 
   0  -6 -10    0.09    0.09 
  -1  -6 -10   -0.06    0.07 
  -1  -6 -10    0.02    0.08 
  -2  -6 -10    1.63    0.16 
  -2  -6 -10    1.53    0.19 
  -3  -6 -10    2.91    0.21 
  -3  -6 -10    3.08    0.26 
  -5  -6 -10    0.51    0.11 
  -5  -6 -10    0.44    0.13 
  -6  -6 -10    1.19    0.20 
  -7  -6 -10    0.79    0.17 
  -8  -6 -10    0.00    0.10 
  -9  -6 -10    0.41    0.16 
 -10  -6 -10    0.07    0.15 
 -11  -6 -10   -0.08    0.13 
 -12  -6 -10    0.12    0.18 
  14  -7 -10    0.38    0.22 
  13  -7 -10    0.39    0.22 
  12  -7 -10    0.15    0.18 
  11  -7 -10    0.27    0.16 
  10  -7 -10    0.09    0.13 
   9  -7 -10    0.47    0.17 
   8  -7 -10   -0.11    0.11 
   7  -7 -10    0.62    0.16 
   6  -7 -10    3.08    0.28 
   5  -7 -10   13.46    0.64 
   4  -7 -10    2.85    0.26 
   4  -7 -10    2.84    0.19 
   3  -7 -10    9.49    0.44 
   3  -7 -10   10.08    0.49 
   2  -7 -10   10.99    0.52 
   2  -7 -10   10.60    0.48 
   1  -7 -10    0.26    0.09 
   1  -7 -10    0.13    0.10 
   0  -7 -10    0.05    0.09 
   0  -7 -10    0.04    0.09 
  -1  -7 -10    3.85    0.28 
  -1  -7 -10    4.61    0.28 
  -2  -7 -10    1.35    0.19 
  -2  -7 -10    1.38    0.16 
  -3  -7 -10   -0.16    0.07 
  -3  -7 -10    0.00    0.05 
  -4  -7 -10    0.52    0.15 
  -5  -7 -10    0.18    0.11 
  -6  -7 -10   -0.05    0.09 
  -7  -7 -10    0.24    0.13 
  -8  -7 -10    0.01    0.11 
  -9  -7 -10    0.22    0.13 
 -10  -7 -10   -0.09    0.13 
 -11  -7 -10    0.40    0.17 
  13  -8 -10    0.14    0.22 
  12  -8 -10    0.41    0.19 
  11  -8 -10   -0.12    0.15 
  10  -8 -10    0.45    0.18 
   9  -8 -10   -0.08    0.12 
   8  -8 -10   -0.03    0.12 
   7  -8 -10    0.62    0.17 
   6  -8 -10    1.27    0.21 
   5  -8 -10    0.23    0.13 
   4  -8 -10    0.63    0.15 
   4  -8 -10    0.61    0.11 
   3  -8 -10    2.15    0.19 
   3  -8 -10    2.18    0.23 
   2  -8 -10    4.19    0.26 
   2  -8 -10    3.65    0.27 
   1  -8 -10    0.49    0.13 
   1  -8 -10    0.38    0.14 
   0  -8 -10    2.50    0.24 
   0  -8 -10    2.48    0.23 
  -1  -8 -10    0.42    0.11 
  -1  -8 -10    0.52    0.14 
  -2  -8 -10    0.25    0.11 
  -2  -8 -10    0.15    0.09 
  -3  -8 -10    2.06    0.24 
  -4  -8 -10    0.72    0.17 
  -5  -8 -10    0.19    0.13 
  -6  -8 -10    0.34    0.14 
  -7  -8 -10    0.21    0.14 
  -8  -8 -10    0.01    0.13 
  -9  -8 -10    0.11    0.16 
 -10  -8 -10    0.27    0.17 
  12  -9 -10    0.37    0.21 
  11  -9 -10    0.04    0.19 
  10  -9 -10    0.17    0.17 
   9  -9 -10    0.74    0.21 
   8  -9 -10    1.39    0.24 
   7  -9 -10    1.16    0.22 
   6  -9 -10   -0.06    0.10 
   5  -9 -10    0.41    0.15 
   4  -9 -10    0.12    0.12 
   3  -9 -10    0.43    0.14 
   3  -9 -10    0.89    0.15 
   2  -9 -10    0.26    0.13 
   2  -9 -10    0.21    0.10 
   1  -9 -10    0.01    0.11 
   1  -9 -10   -0.16    0.09 
   0  -9 -10    1.34    0.18 
   0  -9 -10    0.83    0.16 
  -1  -9 -10    0.30    0.13 
  -1  -9 -10    0.31    0.12 
  -2  -9 -10    0.58    0.15 
  -3  -9 -10    0.03    0.10 
  -4  -9 -10    0.36    0.13 
  -5  -9 -10    0.28    0.14 
  -6  -9 -10    0.21    0.14 
  -7  -9 -10    0.34    0.16 
  -8  -9 -10    0.16    0.14 
  -9  -9 -10    0.06    0.14 
 -10  -9 -10    0.00    0.16 
  11 -10 -10    0.32    0.20 
  10 -10 -10   -0.07    0.15 
   9 -10 -10    0.12    0.14 
   8 -10 -10    0.43    0.17 
   7 -10 -10    0.22    0.15 
   6 -10 -10    0.61    0.18 
   5 -10 -10    0.37    0.16 
   4 -10 -10    0.08    0.12 
   3 -10 -10    0.19    0.11 
   3 -10 -10    0.10    0.12 
   2 -10 -10    0.55    0.16 
   2 -10 -10    0.29    0.12 
   1 -10 -10    0.00    0.12 
   1 -10 -10   -0.10    0.09 
   0 -10 -10    1.05    0.17 
   0 -10 -10    0.77    0.18 
  -1 -10 -10    0.41    0.14 
  -2 -10 -10   -0.04    0.10 
  -3 -10 -10    0.31    0.13 
  -4 -10 -10    0.50    0.16 
  -5 -10 -10    0.20    0.14 
  -6 -10 -10    0.15    0.16 
  -7 -10 -10    0.12    0.17 
  -8 -10 -10    0.00    0.15 
  -9 -10 -10    0.16    0.18 
  10 -11 -10    0.18    0.17 
   9 -11 -10    0.11    0.17 
   8 -11 -10    0.21    0.17 
   7 -11 -10    0.16    0.15 
   6 -11 -10   -0.06    0.12 
   5 -11 -10    0.64    0.18 
   4 -11 -10   -0.11    0.12 
   3 -11 -10    1.01    0.20 
   2 -11 -10    1.30    0.21 
   2 -11 -10    1.33    0.21 
   1 -11 -10    0.28    0.14 
   1 -11 -10    0.28    0.13 
   0 -11 -10    0.16    0.13 
  -1 -11 -10    0.10    0.12 
  -2 -11 -10    0.11    0.12 
  -3 -11 -10    0.00    0.11 
  -4 -11 -10    0.03    0.12 
  -5 -11 -10    0.65    0.19 
  -6 -11 -10    0.14    0.16 
  -7 -11 -10    0.09    0.17 
  -8 -11 -10    0.16    0.18 
   9 -12 -10    0.28    0.21 
   8 -12 -10    0.08    0.18 
   7 -12 -10    0.10    0.17 
   6 -12 -10   -0.05    0.13 
   5 -12 -10    0.03    0.13 
   4 -12 -10   -0.03    0.13 
   3 -12 -10    0.22    0.13 
   2 -12 -10   -0.03    0.15 
   2 -12 -10    0.00    0.13 
   1 -12 -10    0.00    0.11 
   0 -12 -10    0.02    0.13 
  -1 -12 -10    0.22    0.14 
  -2 -12 -10    0.00    0.12 
  -3 -12 -10    0.12    0.14 
  -4 -12 -10    0.11    0.15 
  -5 -12 -10    0.09    0.17 
  -6 -12 -10    0.27    0.21 
   7 -13 -10    0.13    0.19 
   6 -13 -10   -0.04    0.16 
   5 -13 -10    0.56    0.20 
   4 -13 -10    0.80    0.22 
   1 -13 -10    0.54    0.19 
   0 -13 -10    0.23    0.15 
  -1 -13 -10    0.02    0.14 
  -2 -13 -10    0.15    0.16 
  -3 -13 -10   -0.08    0.16 
  -4 -13 -10    0.11    0.19 
   0 -14 -10    0.40    0.20 
  -1 -14 -10    0.53    0.22 
  -6 -13  11    0.00    0.18 
  -5 -13  11    0.02    0.16 
  -4 -13  11    0.02    0.13 
  -3 -13  11   -0.09    0.11 
  -2 -13  11    0.23    0.18 
  -1 -13  11    0.02    0.17 
   0 -13  11    0.22    0.19 
   1 -13  11   -0.01    0.16 
   2 -13  11    0.08    0.18 
   3 -13  11    0.07    0.19 
   3 -13  11   -0.03    0.17 
  -8 -12  11    0.37    0.18 
  -7 -12  11    0.05    0.13 
  -6 -12  11    0.07    0.15 
  -5 -12  11    0.12    0.15 
  -4 -12  11   -0.04    0.12 
  -3 -12  11    0.00    0.13 
  -2 -12  11    0.09    0.14 
  -1 -12  11    0.07    0.14 
   0 -12  11    0.17    0.14 
   1 -12  11   -0.09    0.13 
   2 -12  11    0.45    0.20 
   2 -12  11    0.65    0.22 
   3 -12  11    0.68    0.21 
   3 -12  11    0.42    0.19 
   4 -12  11    0.05    0.17 
   4 -12  11    0.21    0.18 
  -5  12 -11    0.28    0.18 
   5 -12  11    0.88    0.27 
 -10 -11  11   -0.14    0.16 
  -9 -11  11    0.28    0.16 
  -8 -11  11    0.11    0.14 
  -7 -11  11    0.34    0.16 
  -6 -11  11    0.47    0.17 
  -5 -11  11    0.06    0.14 
  -4 -11  11   -0.02    0.13 
  -3 -11  11    0.83    0.22 
  -2 -11  11    0.95    0.22 
  -1 -11  11    0.19    0.14 
   0 -11  11    0.46    0.17 
   1 -11  11    0.47    0.18 
   2 -11  11   -0.07    0.12 
   2 -11  11   -0.09    0.12 
   3 -11  11    0.07    0.14 
   3 -11  11    0.17    0.16 
   4 -11  11   -0.02    0.15 
   4 -11  11    0.20    0.16 
  -5  11 -11   -0.05    0.13 
   5 -11  11    0.00    0.15 
  -6  11 -11   -0.03    0.15 
   6 -11  11    0.18    0.18 
  -7  11 -11    0.28    0.17 
   7 -11  11   -0.04    0.18 
  11  10 -11    0.15    0.19 
  10  10 -11    0.33    0.18 
 -10 -10  11    0.63    0.20 
  -9 -10  11    0.00    0.14 
  -8 -10  11    0.18    0.14 
  -7 -10  11    0.00    0.12 
  -6 -10  11    0.09    0.12 
  -5 -10  11    1.16    0.23 
  -4 -10  11    0.11    0.13 
  -3 -10  11    0.42    0.16 
  -2 -10  11   -0.16    0.10 
  -1 -10  11    1.84    0.28 
   0 -10  11    0.08    0.11 
   1 -10  11    1.39    0.25 
   2 -10  11    1.74    0.27 
   2 -10  11    1.74    0.27 
   3 -10  11    0.75    0.20 
   3 -10  11    0.42    0.16 
   4 -10  11    0.18    0.15 
   4 -10  11   -0.17    0.10 
  -5  10 -11    0.05    0.13 
   5 -10  11    0.16    0.17 
  -6  10 -11    0.11    0.13 
   6 -10  11    0.15    0.17 
  -7  10 -11   -0.03    0.14 
   7 -10  11   -0.09    0.15 
  -8  10 -11    0.25    0.17 
   8 -10  11    0.32    0.22 
  12   9 -11   -0.02    0.17 
  11   9 -11    0.09    0.16 
  10   9 -11    0.30    0.16 
 -10  -9  11    0.72    0.20 
   9   9 -11    0.17    0.14 
  -9  -9  11    0.66    0.19 
   8   9 -11    0.76    0.17 
  -8  -9  11    1.12    0.22 
   7   9 -11    1.32    0.19 
  -7  -9  11    1.58    0.25 
  -6  -9  11    1.54    0.25 
  -5  -9  11    0.99    0.20 
  -4  -9  11    2.32    0.28 
  -3  -9  11    2.51    0.28 
  -2  -9  11    0.09    0.11 
  -1  -9  11    3.92    0.35 
   0  -9  11    6.93    0.45 
   1  -9  11    0.85    0.18 
   2  -9  11   -0.02    0.09 
   2  -9  11    0.20    0.13 
   3  -9  11   -0.01    0.09 
   3  -9  11    0.25    0.14 
  -4   9 -11   -0.03    0.11 
   4  -9  11    0.14    0.15 
  -5   9 -11    0.27    0.15 
   5  -9  11    0.28    0.16 
  -6   9 -11    0.11    0.13 
   6  -9  11    0.03    0.14 
  -7   9 -11    0.46    0.17 
   7  -9  11    0.18    0.17 
  -8   9 -11    0.41    0.18 
   8  -9  11    0.22    0.18 
  -9   9 -11    0.14    0.15 
   9  -9  11   -0.06    0.18 
  13   8 -11    0.21    0.19 
  12   8 -11    0.00    0.15 
  11   8 -11    0.20    0.15 
  10   8 -11    0.02    0.12 
 -10  -8  11    0.04    0.13 
   9   8 -11    0.15    0.12 
  -9  -8  11    0.17    0.13 
   8   8 -11   -0.05    0.10 
  -8  -8  11    0.18    0.13 
   7   8 -11    1.45    0.19 
  -7  -8  11    1.12    0.20 
   6   8 -11    0.99    0.15 
  -6  -8  11    1.28    0.21 
   5   8 -11    1.69    0.17 
  -5  -8  11    1.45    0.22 
  -4  -8  11    0.10    0.12 
  -3  -8  11   -0.05    0.09 
  -2  -8  11    3.53    0.32 
  -1  -8  11    7.39    0.45 
   0  -8  11    0.58    0.16 
   1  -8  11    1.19    0.21 
   2  -8  11    1.32    0.22 
   2  -8  11    1.20    0.21 
   3  -8  11    0.05    0.10 
   3  -8  11    0.11    0.12 
  -4   8 -11   -0.06    0.10 
   4  -8  11    0.00    0.12 
  -5   8 -11    0.10    0.11 
   5  -8  11    0.17    0.14 
  -6   8 -11    0.49    0.16 
   6  -8  11    0.74    0.20 
  -7   8 -11    0.19    0.13 
   7  -8  11    0.24    0.16 
  -8   8 -11    0.28    0.15 
   8  -8  11   -0.02    0.14 
  -9   8 -11   -0.17    0.13 
   9  -8  11    0.04    0.19 
 -10   8 -11   -0.01    0.15 
  10  -8  11    0.01    0.20 
  13   7 -11    0.14    0.17 
  12   7 -11    0.45    0.18 
  11   7 -11    0.40    0.16 
  10   7 -11    0.00    0.11 
 -10  -7  11    0.05    0.12 
   9   7 -11    0.45    0.15 
  -9  -7  11    0.58    0.16 
   8   7 -11    0.00    0.10 
  -8  -7  11    0.03    0.11 
   7   7 -11    6.09    0.36 
  -7  -7  11    5.43    0.37 
   6   7 -11    7.74    0.39 
  -6  -7  11    7.57    0.44 
   5   7 -11    7.47    0.37 
  -5  -7  11    7.55    0.44 
   4   7 -11    0.03    0.07 
  -4  -7  11   -0.02    0.09 
   3   7 -11    3.59    0.21 
  -3  -7  11    2.66    0.28 
  -2  -7  11   -0.02    0.09 
  -1  -7  11    2.21    0.25 
   0  -7  11   10.72    0.56 
   1  -7  11    8.65    0.49 
   2  -7  11    3.63    0.32 
   2  -7  11    3.90    0.32 
  -3   7 -11    0.11    0.10 
   3  -7  11   -0.11    0.10 
  -4   7 -11    2.21    0.25 
   4  -7  11    1.90    0.26 
  -5   7 -11    2.66    0.27 
   5  -7  11    2.30    0.30 
  -6   7 -11    0.10    0.11 
   6  -7  11    0.09    0.14 
  -7   7 -11    1.19    0.21 
   7  -7  11    1.01    0.22 
  -8   7 -11    0.10    0.13 
   8  -7  11    0.20    0.17 
  -9   7 -11   -0.02    0.13 
   9  -7  11    0.34    0.21 
 -10   7 -11    0.29    0.15 
  10  -7  11    0.30    0.21 
  14   6 -11    0.19    0.20 
  13   6 -11    0.25    0.18 
  12   6 -11    0.46    0.17 
  11   6 -11    0.86    0.20 
  10   6 -11    1.16    0.20 
   9   6 -11    0.00    0.09 
  -9  -6  11    0.13    0.11 
   8   6 -11    0.23    0.12 
  -8  -6  11    0.20    0.12 
   7   6 -11    0.09    0.09 
  -7  -6  11    0.14    0.10 
   6   6 -11    1.11    0.16 
  -6  -6  11    1.01    0.18 
   5   6 -11    0.95    0.14 
  -5  -6  11    1.13    0.18 
   4   6 -11    1.04    0.13 
  -4  -6  11    0.76    0.16 
   3   6 -11    0.01    0.06 
  -3  -6  11    0.02    0.09 
   2   6 -11    8.18    0.35 
  -2  -6  11    8.03    0.44 
   1   6 -11    2.62    0.15 
  -1  -6  11    2.26    0.24 
   0  -6  11    2.67    0.27 
   1  -6  11    0.63    0.15 
  -2   6 -11    1.96    0.21 
  -3   6 -11    1.46    0.20 
   3  -6  11    1.27    0.21 
  -4   6 -11    0.14    0.10 
   4  -6  11   -0.03    0.11 
  -5   6 -11    1.24    0.19 
   5  -6  11    1.19    0.22 
  -6   6 -11   -0.16    0.09 
   6  -6  11   -0.07    0.11 
  -7   6 -11    0.38    0.14 
   7  -6  11    0.25    0.16 
  -8   6 -11    0.01    0.11 
   8  -6  11    0.17    0.14 
  -9   6 -11   -0.07    0.11 
   9  -6  11    0.05    0.14 
 -10   6 -11    0.09    0.12 
  10  -6  11    0.02    0.19 
 -11   6 -11   -0.09    0.14 
  11  -6  11   -0.12    0.18 
  14   5 -11    0.03    0.16 
  13   5 -11    0.02    0.15 
  12   5 -11    0.72    0.19 
  11   5 -11   -0.10    0.12 
  10   5 -11    0.42    0.15 
   9   5 -11    0.45    0.14 
  -9  -5  11    0.25    0.12 
   8   5 -11    0.21    0.11 
  -8  -5  11    0.20    0.10 
   7   5 -11    0.73    0.11 
   7   5 -11    0.76    0.15 
  -7  -5  11    0.63    0.14 
   6   5 -11    2.38    0.21 
   6   5 -11    2.42    0.18 
  -6  -5  11    2.31    0.23 
   5   5 -11    1.62    0.17 
  -5  -5  11    1.53    0.19 
   4   5 -11    5.57    0.29 
  -4  -5  11    5.73    0.34 
  -3  -5  11    0.06    0.08 
  -2  -5  11    8.93    0.46 
  -1  -5  11    1.75    0.21 
   0  -5  11    1.18    0.18 
  -1   5 -11   19.03    0.76 
   1  -5  11   18.04    0.79 
  -2   5 -11   13.20    0.59 
  -3   5 -11    1.21    0.18 
  -4   5 -11    4.43    0.30 
   4  -5  11    4.65    0.34 
  -5   5 -11    2.98    0.27 
   5  -5  11    3.35    0.32 
  -6   5 -11    0.26    0.11 
   6  -5  11    0.03    0.12 
  -7   5 -11    0.00    0.09 
   7  -5  11    0.22    0.13 
  -8   5 -11   -0.02    0.10 
   8  -5  11    0.03    0.12 
  -9   5 -11    0.02    0.11 
   9  -5  11   -0.10    0.12 
 -10   5 -11    0.17    0.12 
  10  -5  11   -0.04    0.16 
 -11   5 -11    0.01    0.13 
  11  -5  11    0.02    0.18 
  15   4 -11    0.13    0.17 
  14   4 -11    0.28    0.18 
  13   4 -11   -0.06    0.14 
  12   4 -11   -0.09    0.11 
  11   4 -11    0.30    0.15 
  10   4 -11    0.98    0.19 
   9   4 -11    4.06    0.30 
   8   4 -11    0.18    0.08 
   8   4 -11   -0.04    0.09 
  -8  -4  11   -0.01    0.05 
   7   4 -11    7.83    0.38 
   7   4 -11    8.43    0.42 
  -7  -4  11    8.12    0.41 
   6   4 -11    5.94    0.30 
   6   4 -11    5.18    0.31 
  -6  -4  11    6.11    0.33 
  -5  -4  11    1.15    0.16 
  -4  -4  11    8.89    0.44 
  -3  -4  11   19.82    0.80 
  -2  -4  11    0.26    0.09 
  -1  -4  11   11.01    0.52 
   0   4 -11    5.37    0.30 
  -1   4 -11    1.17    0.16 
  -2   4 -11   13.43    0.59 
  -3   4 -11    4.76    0.31 
  -4   4 -11    2.15    0.22 
  -5   4 -11    0.65    0.14 
   5  -4  11    0.70    0.17 
  -6   4 -11    1.97    0.22 
   6  -4  11    1.85    0.26 
  -7   4 -11    0.27    0.12 
   7  -4  11    0.26    0.14 
  -8   4 -11    0.95    0.18 
   8  -4  11    0.71    0.20 
  -9   4 -11    1.73    0.23 
   9  -4  11    1.25    0.24 
 -10   4 -11    0.05    0.13 
  10  -4  11    0.32    0.18 
 -11   4 -11    0.45    0.15 
  11  -4  11    0.45    0.20 
 -12   4 -11    0.42    0.18 
  12  -4  11    0.38    0.23 
  15   3 -11   -0.10    0.15 
  14   3 -11   -0.12    0.16 
  13   3 -11   -0.11    0.13 
  12   3 -11   -0.10    0.11 
  11   3 -11    0.14    0.13 
  10   3 -11   -0.05    0.09 
   9   3 -11    1.23    0.14 
   9   3 -11    0.93    0.18 
   8   3 -11    4.84    0.27 
   8   3 -11    4.81    0.32 
  -8  -3  11    4.77    0.28 
   7   3 -11    0.49    0.10 
  -7  -3  11    0.38    0.11 
   6   3 -11   14.75    0.61 
  -6  -3  11   14.99    0.61 
  -5  -3  11    0.14    0.08 
  -4  -3  11    0.12    0.07 
  -3  -3  11    8.89    0.43 
  -2  -3  11    5.02    0.30 
   1   3 -11    0.83    0.12 
   0   3 -11    0.07    0.06 
  -1   3 -11    0.23    0.09 
  -2   3 -11    1.26    0.16 
  -3   3 -11   -0.11    0.07 
  -4   3 -11    0.08    0.08 
  -5   3 -11    0.73    0.16 
  -6   3 -11    0.34    0.12 
  -7   3 -11   -0.14    0.06 
   7  -3  11    0.09    0.11 
  -8   3 -11   -0.05    0.09 
   8  -3  11    0.30    0.14 
  -9   3 -11    0.22    0.14 
   9  -3  11   -0.07    0.13 
 -10   3 -11    0.28    0.14 
  10  -3  11    0.57    0.19 
 -11   3 -11    0.02    0.13 
  11  -3  11   -0.04    0.15 
 -12   3 -11    0.08    0.14 
  12  -3  11    0.01    0.20 
  15   2 -11   -0.06    0.14 
  14   2 -11    0.06    0.15 
  13   2 -11    0.14    0.14 
  12   2 -11    0.40    0.15 
  11   2 -11    0.94    0.19 
  10   2 -11    2.55    0.20 
  10   2 -11    2.90    0.27 
   9   2 -11   17.74    0.75 
   9   2 -11   19.46    0.79 
   8   2 -11    6.07    0.32 
   7   2 -11    8.20    0.39 
  -7  -2  11    8.24    0.37 
   6   2 -11    9.37    0.43 
  -6  -2  11    9.35    0.42 
  -5  -2  11    3.14    0.20 
  -4  -2  11    2.07    0.18 
   3   2 -11   -0.02    0.04 
   2   2 -11   15.85    0.62 
   1   2 -11    0.15    0.07 
   0   2 -11    1.93    0.17 
  -1   2 -11    4.69    0.27 
  -2   2 -11    2.61    0.20 
  -3   2 -11    2.73    0.21 
  -4   2 -11    0.79    0.15 
  -5   2 -11   -0.07    0.07 
  -6   2 -11    4.92    0.32 
  -7   2 -11    0.88    0.17 
  -8   2 -11    0.26    0.12 
  -9   2 -11    0.44    0.14 
 -10   2 -11    0.19    0.13 
 -11   2 -11    0.83    0.20 
 -12   2 -11    0.61    0.18 
  15   1 -11    1.17    0.23 
  14   1 -11    1.05    0.22 
  13   1 -11    0.17    0.13 
  12   1 -11    0.99    0.20 
  11   1 -11    0.06    0.10 
  11   1 -11    0.09    0.11 
  10   1 -11    2.26    0.21 
  10   1 -11    1.84    0.23 
   9   1 -11    6.13    0.35 
   8   1 -11   13.47    0.59 
   7   1 -11    9.91    0.47 
  -7  -1  11   10.41    0.42 
   6   1 -11    3.86    0.20 
   6   1 -11    4.77    0.26 
   5   1 -11    3.13    0.21 
   5   1 -11    2.92    0.17 
   4   1 -11    0.83    0.10 
   3   1 -11    0.34    0.07 
   2   1 -11    1.98    0.15 
   1   1 -11    2.73    0.18 
   0   1 -11    0.32    0.08 
  -1   1 -11    3.62    0.22 
  -2   1 -11    9.71    0.44 
  -3   1 -11    1.37    0.16 
  -4   1 -11    2.65    0.21 
  -5   1 -11    0.13    0.09 
  -6   1 -11    0.05    0.10 
  -7   1 -11    0.03    0.09 
  -8   1 -11    0.23    0.11 
  -9   1 -11    0.09    0.11 
 -10   1 -11    0.13    0.12 
 -11   1 -11   -0.10    0.12 
 -12   1 -11   -0.20    0.12 
  15   0 -11    0.10    0.15 
  14   0 -11   -0.08    0.12 
  13   0 -11    0.09    0.12 
  12   0 -11    0.05    0.10 
  12   0 -11    0.18    0.12 
  11   0 -11    0.06    0.10 
  11   0 -11   -0.05    0.10 
  10   0 -11    0.05    0.10 
   9   0 -11   -0.10    0.09 
   8   0 -11   -0.04    0.08 
   7   0 -11    0.05    0.08 
   6   0 -11    0.00    0.04 
   6   0 -11    0.00    0.06 
   5   0 -11    0.00    0.05 
   5   0 -11    0.01    0.04 
   4   0 -11   -0.06    0.03 
   4   0 -11    0.00    0.06 
   3   0 -11   -0.01    0.04 
   2   0 -11    0.02    0.04 
   1   0 -11    0.04    0.05 
   0   0 -11    0.08    0.06 
  -1   0 -11    0.13    0.07 
  -2   0 -11    0.06    0.07 
  -3   0 -11   -0.04    0.06 
  -4   0 -11    0.03    0.08 
  -5   0 -11    0.04    0.08 
  -6   0 -11   -0.03    0.08 
  -7   0 -11   -0.03    0.09 
  -8   0 -11   -0.05    0.08 
  -9   0 -11   -0.07    0.09 
 -10   0 -11   -0.02    0.10 
 -11   0 -11    0.09    0.12 
 -12   0 -11    0.17    0.16 
  15  -1 -11    0.95    0.22 
  14  -1 -11    0.72    0.19 
  13  -1 -11    0.18    0.13 
  13  -1 -11    0.02    0.13 
  12  -1 -11    0.88    0.18 
  12  -1 -11    0.97    0.19 
  11  -1 -11    0.08    0.11 
  11  -1 -11   -0.02    0.10 
  10  -1 -11    2.07    0.22 
   9  -1 -11    7.78    0.42 
   8  -1 -11   14.67    0.65 
   7  -1 -11    8.78    0.44 
   6  -1 -11    4.19    0.19 
   6  -1 -11    4.49    0.27 
   5  -1 -11    3.02    0.15 
   5  -1 -11    2.77    0.20 
   4  -1 -11    0.73    0.08 
   4  -1 -11    0.59    0.11 
   3  -1 -11    0.28    0.08 
   3  -1 -11    0.37    0.07 
   2  -1 -11    2.04    0.14 
   1  -1 -11    2.56    0.17 
   0  -1 -11    0.29    0.08 
  -1  -1 -11    4.32    0.25 
  -2  -1 -11    9.21    0.43 
  -3  -1 -11    1.62    0.17 
  -4  -1 -11    2.40    0.21 
  -5  -1 -11    0.13    0.09 
  -6  -1 -11    0.02    0.09 
  -7  -1 -11    0.11    0.10 
  -8  -1 -11    0.12    0.10 
  -9  -1 -11    0.13    0.11 
 -10  -1 -11    0.08    0.12 
 -11  -1 -11    0.17    0.14 
 -12  -1 -11   -0.13    0.12 
  15  -2 -11    0.06    0.15 
  14  -2 -11    0.06    0.13 
  14  -2 -11    0.04    0.14 
  13  -2 -11   -0.31    0.10 
  13  -2 -11   -0.01    0.11 
  12  -2 -11    0.27    0.14 
  12  -2 -11    0.16    0.12 
  11  -2 -11    1.05    0.19 
  10  -2 -11    2.53    0.24 
   9  -2 -11   18.37    0.80 
   8  -2 -11    5.83    0.36 
   7  -2 -11    8.77    0.45 
   6  -2 -11    7.92    0.40 
   5  -2 -11    6.69    0.36 
   5  -2 -11    7.05    0.28 
   4  -2 -11    1.68    0.17 
   4  -2 -11    1.92    0.12 
   3  -2 -11   -0.02    0.04 
   3  -2 -11    0.07    0.06 
   2  -2 -11   14.46    0.56 
   2  -2 -11   14.55    0.61 
   1  -2 -11    0.08    0.06 
   0  -2 -11    1.85    0.15 
  -1  -2 -11    4.31    0.25 
  -2  -2 -11    2.35    0.19 
  -3  -2 -11    2.74    0.21 
  -4  -2 -11    0.61    0.13 
  -5  -2 -11    0.08    0.09 
  -6  -2 -11    4.91    0.33 
  -7  -2 -11    0.84    0.17 
  -8  -2 -11    0.38    0.14 
  -9  -2 -11    0.60    0.17 
 -10  -2 -11    0.26    0.14 
 -11  -2 -11    0.51    0.17 
 -12  -2 -11    0.54    0.20 
  15  -3 -11    0.03    0.14 
  15  -3 -11    0.07    0.17 
  14  -3 -11   -0.24    0.13 
  14  -3 -11   -0.04    0.13 
  13  -3 -11   -0.02    0.12 
  13  -3 -11   -0.07    0.12 
  12  -3 -11    0.14    0.14 
  12  -3 -11   -0.03    0.09 
  11  -3 -11    0.17    0.14 
  10  -3 -11    0.11    0.11 
   9  -3 -11    0.93    0.18 
   8  -3 -11    4.86    0.33 
   7  -3 -11    0.58    0.14 
   6  -3 -11   16.15    0.70 
   5  -3 -11    0.35    0.05 
   5  -3 -11    0.16    0.10 
   4  -3 -11    0.08    0.04 
   4  -3 -11    0.03    0.07 
   3  -3 -11    8.28    0.40 
   3  -3 -11    8.38    0.35 
   2  -3 -11    5.23    0.29 
   2  -3 -11    5.16    0.26 
   1  -3 -11    0.83    0.12 
   1  -3 -11    0.72    0.11 
   0  -3 -11    0.07    0.06 
  -1  -3 -11    0.16    0.08 
  -2  -3 -11    1.21    0.15 
  -3  -3 -11    0.14    0.09 
  -4  -3 -11    0.10    0.09 
  -5  -3 -11    0.56    0.14 
  -6  -3 -11    0.21    0.12 
  -7  -3 -11    0.02    0.10 
  -8  -3 -11    0.18    0.12 
  -9  -3 -11    0.24    0.14 
 -10  -3 -11    0.43    0.17 
 -11  -3 -11   -0.06    0.12 
 -12  -3 -11    0.20    0.17 
  15  -4 -11    0.04    0.15 
  15  -4 -11    0.25    0.20 
  14  -4 -11    0.09    0.13 
  14  -4 -11    0.09    0.16 
  13  -4 -11   -0.04    0.11 
  13  -4 -11   -0.08    0.14 
  12  -4 -11    0.20    0.14 
  11  -4 -11    0.41    0.15 
  10  -4 -11    1.04    0.19 
   9  -4 -11    3.74    0.29 
   8  -4 -11    0.03    0.10 
   7  -4 -11    8.43    0.45 
   6  -4 -11    6.39    0.38 
   5  -4 -11    0.93    0.17 
   5  -4 -11    1.28    0.10 
   4  -4 -11    9.49    0.38 
   4  -4 -11    8.90    0.45 
   3  -4 -11   20.36    0.84 
   3  -4 -11   21.51    0.77 
   2  -4 -11    0.28    0.08 
   2  -4 -11    0.19    0.08 
   1  -4 -11   11.05    0.51 
   1  -4 -11   11.72    0.48 
   0  -4 -11    4.89    0.28 
   0  -4 -11    5.06    0.28 
  -1  -4 -11    0.85    0.13 
  -1  -4 -11    1.01    0.14 
  -2  -4 -11   12.53    0.55 
  -3  -4 -11    4.37    0.28 
  -4  -4 -11    1.82    0.21 
  -5  -4 -11    0.73    0.15 
  -6  -4 -11    1.96    0.23 
  -7  -4 -11    0.27    0.12 
  -8  -4 -11    0.87    0.19 
  -9  -4 -11    1.45    0.24 
 -10  -4 -11    0.23    0.15 
 -11  -4 -11    0.42    0.18 
 -12  -4 -11    0.45    0.19 
  14  -5 -11    0.20    0.19 
  14  -5 -11    0.07    0.13 
  13  -5 -11    0.07    0.15 
  13  -5 -11    0.07    0.13 
  12  -5 -11    0.54    0.18 
  11  -5 -11    0.08    0.14 
  10  -5 -11    0.08    0.12 
   9  -5 -11    0.20    0.13 
   8  -5 -11    0.10    0.10 
   7  -5 -11    0.71    0.17 
   6  -5 -11    2.59    0.25 
   5  -5 -11    1.76    0.21 
   4  -5 -11    5.92    0.36 
   4  -5 -11    5.81    0.28 
   3  -5 -11    0.03    0.09 
   3  -5 -11    0.05    0.05 
   2  -5 -11    9.54    0.42 
   2  -5 -11   10.07    0.48 
   1  -5 -11    1.65    0.16 
   1  -5 -11    1.76    0.18 
   0  -5 -11    1.63    0.17 
   0  -5 -11    1.59    0.17 
  -1  -5 -11   16.84    0.72 
  -1  -5 -11   18.73    0.74 
  -2  -5 -11   13.58    0.59 
  -2  -5 -11   12.78    0.57 
  -3  -5 -11    1.41    0.16 
  -3  -5 -11    1.42    0.19 
  -4  -5 -11    4.50    0.31 
  -5  -5 -11    3.11    0.28 
  -6  -5 -11    0.04    0.10 
  -7  -5 -11    0.01    0.09 
  -8  -5 -11   -0.07    0.09 
  -9  -5 -11   -0.05    0.11 
 -10  -5 -11    0.07    0.13 
 -11  -5 -11    0.14    0.15 
 -12  -5 -11    0.10    0.17 
  14  -6 -11    0.19    0.15 
  14  -6 -11    0.15    0.21 
  13  -6 -11    0.28    0.14 
  13  -6 -11    0.08    0.17 
  12  -6 -11    0.25    0.16 
  11  -6 -11    0.68    0.20 
  10  -6 -11    1.55    0.25 
   9  -6 -11    0.05    0.12 
   8  -6 -11    0.11    0.12 
   7  -6 -11    0.19    0.13 
   6  -6 -11    1.01    0.19 
   5  -6 -11    1.19    0.19 
   4  -6 -11    0.91    0.12 
   4  -6 -11    0.95    0.17 
   3  -6 -11    0.08    0.07 
   3  -6 -11    0.02    0.10 
   2  -6 -11    7.88    0.41 
   2  -6 -11    7.61    0.37 
   1  -6 -11    2.55    0.19 
   1  -6 -11    2.40    0.22 
   0  -6 -11    3.01    0.23 
   0  -6 -11    3.13    0.23 
  -1  -6 -11    0.93    0.15 
  -1  -6 -11    0.62    0.13 
  -2  -6 -11    1.94    0.21 
  -2  -6 -11    2.06    0.19 
  -3  -6 -11    0.86    0.16 
  -3  -6 -11    1.25    0.15 
  -4  -6 -11    0.03    0.09 
  -4  -6 -11   -0.01    0.07 
  -5  -6 -11    1.44    0.21 
  -6  -6 -11    0.09    0.11 
  -7  -6 -11   -0.01    0.09 
  -8  -6 -11    0.22    0.13 
  -9  -6 -11    0.08    0.13 
 -10  -6 -11    0.08    0.14 
 -11  -6 -11    0.11    0.15 
  13  -7 -11    0.10    0.18 
  12  -7 -11    0.57    0.20 
  11  -7 -11    0.33    0.18 
  10  -7 -11   -0.06    0.13 
   9  -7 -11    0.26    0.15 
   8  -7 -11    0.03    0.12 
   7  -7 -11    5.77    0.38 
   6  -7 -11    7.82    0.45 
   5  -7 -11    7.20    0.43 
   4  -7 -11   -0.05    0.11 
   4  -7 -11    0.18    0.07 
   3  -7 -11    3.49    0.23 
   3  -7 -11    3.81    0.28 
   2  -7 -11    0.19    0.10 
   2  -7 -11   -0.08    0.05 
   1  -7 -11    2.08    0.21 
   1  -7 -11    2.24    0.22 
   0  -7 -11   12.45    0.57 
   0  -7 -11   12.74    0.58 
  -1  -7 -11    7.86    0.43 
  -1  -7 -11    8.09    0.42 
  -2  -7 -11    3.89    0.26 
  -2  -7 -11    3.99    0.29 
  -3  -7 -11    0.13    0.10 
  -3  -7 -11    0.12    0.09 
  -4  -7 -11    1.69    0.23 
  -5  -7 -11    2.58    0.28 
  -6  -7 -11   -0.03    0.10 
  -7  -7 -11    1.11    0.22 
  -8  -7 -11    0.22    0.14 
  -9  -7 -11    0.05    0.13 
 -10  -7 -11    0.22    0.16 
 -11  -7 -11   -0.11    0.15 
  13  -8 -11    0.16    0.21 
  12  -8 -11    0.21    0.18 
  11  -8 -11    0.05    0.17 
  10  -8 -11    0.02    0.15 
   9  -8 -11    0.02    0.13 
   8  -8 -11    0.16    0.13 
   7  -8 -11    1.61    0.24 
   6  -8 -11    1.16    0.20 
   5  -8 -11    1.58    0.22 
   4  -8 -11    0.03    0.11 
   3  -8 -11    0.16    0.08 
   3  -8 -11   -0.01    0.09 
   2  -8 -11    3.27    0.26 
   2  -8 -11    3.36    0.24 
   1  -8 -11    7.43    0.41 
   1  -8 -11    7.82    0.43 
   0  -8 -11    0.69    0.15 
   0  -8 -11    0.90    0.16 
  -1  -8 -11    1.13    0.17 
  -1  -8 -11    1.53    0.21 
  -2  -8 -11    1.37    0.20 
  -2  -8 -11    1.15    0.17 
  -3  -8 -11    0.07    0.10 
  -4  -8 -11   -0.12    0.09 
  -5  -8 -11    0.10    0.12 
  -6  -8 -11    0.22    0.15 
  -7  -8 -11    0.20    0.16 
  -8  -8 -11    0.21    0.16 
  -9  -8 -11    0.05    0.14 
 -10  -8 -11    0.08    0.17 
  12  -9 -11    0.22    0.20 
  11  -9 -11    0.09    0.18 
  10  -9 -11    0.58    0.20 
   9  -9 -11    0.51    0.17 
   8  -9 -11    0.69    0.19 
   7  -9 -11    1.14    0.21 
   6  -9 -11    1.75    0.25 
   5  -9 -11    0.73    0.17 
   4  -9 -11    2.39    0.25 
   3  -9 -11    3.44    0.25 
   3  -9 -11    3.20    0.29 
   2  -9 -11   -0.07    0.07 
   2  -9 -11    0.08    0.12 
   1  -9 -11    4.59    0.31 
   1  -9 -11    3.98    0.31 
   0  -9 -11    7.85    0.44 
   0  -9 -11    8.19    0.44 
  -1  -9 -11    1.03    0.18 
  -1  -9 -11    0.91    0.18 
  -2  -9 -11   -0.03    0.10 
  -3  -9 -11    0.08    0.12 
  -4  -9 -11    0.05    0.12 
  -5  -9 -11    0.55    0.17 
  -6  -9 -11    0.03    0.12 
  -7  -9 -11    0.54    0.19 
  -8  -9 -11    0.18    0.15 
  -9  -9 -11    0.11    0.17 
  11 -10 -11    0.32    0.20 
  10 -10 -11    0.68    0.21 
   9 -10 -11    0.04    0.14 
   8 -10 -11    0.48    0.17 
   7 -10 -11    0.06    0.13 
   6 -10 -11    0.02    0.13 
   5 -10 -11    0.75    0.19 
   4 -10 -11    0.10    0.13 
   3 -10 -11    0.14    0.13 
   2 -10 -11   -0.03    0.11 
   2 -10 -11    0.02    0.10 
   1 -10 -11    1.82    0.23 
   1 -10 -11    2.00    0.23 
   0 -10 -11    0.20    0.14 
   0 -10 -11   -0.01    0.10 
  -1 -10 -11    1.24    0.21 
  -2 -10 -11    1.63    0.24 
  -3 -10 -11    0.41    0.15 
  -4 -10 -11   -0.15    0.11 
  -5 -10 -11    0.04    0.14 
  -6 -10 -11    0.19    0.16 
  -7 -10 -11   -0.01    0.16 
  -8 -10 -11    0.29    0.20 
  10 -11 -11    0.10    0.19 
   9 -11 -11    0.19    0.17 
   8 -11 -11    0.35    0.18 
   7 -11 -11    0.17    0.16 
   6 -11 -11    0.15    0.15 
   5 -11 -11    0.13    0.15 
   4 -11 -11    0.09    0.14 
   3 -11 -11    0.41    0.16 
   2 -11 -11    1.16    0.21 
   2 -11 -11    1.29    0.21 
   1 -11 -11    0.16    0.14 
   1 -11 -11    0.24    0.14 
   0 -11 -11    0.92    0.19 
  -1 -11 -11    0.53    0.17 
  -2 -11 -11    0.17    0.13 
  -3 -11 -11    0.04    0.13 
  -4 -11 -11    0.15    0.16 
  -5 -11 -11    0.02    0.15 
  -6 -11 -11    0.02    0.15 
  -7 -11 -11    0.15    0.20 
   8 -12 -11    0.17    0.18 
   7 -12 -11    0.09    0.17 
   6 -12 -11    0.01    0.14 
   5 -12 -11    0.03    0.15 
   4 -12 -11   -0.07    0.13 
   3 -12 -11   -0.04    0.14 
   1 -12 -11    0.58    0.17 
   0 -12 -11    0.28    0.14 
  -1 -12 -11   -0.03    0.13 
  -2 -12 -11    0.28    0.16 
  -3 -12 -11    0.12    0.15 
  -4 -12 -11    0.14    0.18 
  -5 -12 -11    0.63    0.23 
   6 -13 -11    0.20    0.18 
   5 -13 -11    0.22    0.17 
   4 -13 -11   -0.03    0.17 
   1 -13 -11    0.02    0.17 
   0 -13 -11    0.12    0.15 
  -1 -13 -11    0.07    0.15 
  -2 -13 -11    0.14    0.17 
  -3 -13 -11    0.06    0.18 
  -5 -13  12    0.24    0.17 
  -4 -13  12    0.31    0.20 
  -3 -13  12    0.74    0.24 
  -2 -13  12    0.58    0.22 
  -1 -13  12   -0.23    0.15 
   0 -13  12    0.40    0.21 
   1 -13  12    0.10    0.18 
   2 -13  12    0.12    0.19 
  -8 -12  12    0.10    0.16 
  -7 -12  12    0.07    0.16 
  -6 -12  12    0.24    0.17 
  -5 -12  12    0.08    0.13 
  -4 -12  12    0.03    0.14 
  -3 -12  12   -0.02    0.14 
  -2 -12  12    0.07    0.16 
  -1 -12  12   -0.17    0.13 
   0 -12  12   -0.08    0.14 
   1 -12  12    0.14    0.15 
   2 -12  12    0.33    0.18 
   3 -12  12   -0.23    0.14 
   3 -12  12    0.07    0.16 
   4 -12  12   -0.14    0.16 
   4 -12  12    0.21    0.19 
  -5  12 -12    0.05    0.16 
  -9 -11  12    0.77    0.22 
  -8 -11  12    0.28    0.17 
  -7 -11  12    0.61    0.19 
  -6 -11  12    1.07    0.24 
  -5 -11  12    0.08    0.14 
  -4 -11  12    1.13    0.24 
  -3 -11  12    1.22    0.25 
  -2 -11  12    0.38    0.16 
  -1 -11  12    0.37    0.16 
   0 -11  12    1.26    0.25 
   1 -11  12    0.13    0.14 
   2 -11  12   -0.05    0.11 
   3 -11  12    0.21    0.18 
   3 -11  12    0.21    0.15 
  -4  11 -12    0.30    0.17 
   4 -11  12    0.16    0.17 
  -5  11 -12    0.12    0.16 
   5 -11  12    0.02    0.17 
  -6  11 -12    0.45    0.20 
   6 -11  12    0.20    0.20 
  11  10 -12    0.42    0.21 
 -10 -10  12    0.07    0.15 
  -9 -10  12    0.24    0.15 
  -8 -10  12   -0.12    0.11 
  -7 -10  12   -0.05    0.11 
  -6 -10  12    0.76    0.20 
  -5 -10  12    1.63    0.27 
  -4 -10  12    0.77    0.21 
  -3 -10  12    0.13    0.13 
  -2 -10  12    0.03    0.11 
  -1 -10  12    1.43    0.26 
   0 -10  12    0.16    0.13 
   1 -10  12    0.01    0.13 
   2 -10  12    0.34    0.15 
   3 -10  12   -0.02    0.12 
   3 -10  12    0.21    0.15 
  -4  10 -12    0.16    0.14 
   4 -10  12    0.28    0.16 
  -5  10 -12    0.01    0.14 
   5 -10  12    0.06    0.15 
  -6  10 -12   -0.06    0.12 
   6 -10  12    0.07    0.17 
  -7  10 -12    0.11    0.15 
   7 -10  12    0.48    0.22 
  12   9 -12   -0.04    0.16 
  11   9 -12    0.20    0.16 
  10   9 -12    0.37    0.18 
 -10  -9  12    0.63    0.19 
   9   9 -12    0.50    0.16 
  -9  -9  12    0.64    0.19 
   8   9 -12    0.20    0.13 
  -8  -9  12    0.30    0.15 
  -7  -9  12    0.30    0.14 
  -6  -9  12    0.15    0.14 
  -5  -9  12    0.38    0.16 
  -4  -9  12    0.44    0.16 
  -3  -9  12    0.87    0.19 
  -2  -9  12    0.26    0.13 
  -1  -9  12   -0.02    0.09 
   0  -9  12   -0.02    0.10 
   1  -9  12    0.22    0.14 
   2  -9  12    0.28    0.14 
   3  -9  12    0.04    0.14 
   3  -9  12    0.08    0.11 
  -4   9 -12    0.12    0.12 
   4  -9  12    0.25    0.16 
  -5   9 -12    0.24    0.14 
   5  -9  12   -0.03    0.14 
  -6   9 -12    0.10    0.12 
   6  -9  12    0.25    0.17 
  -7   9 -12    0.06    0.14 
   7  -9  12    0.27    0.19 
  -8   9 -12   -0.02    0.14 
   8  -9  12    0.11    0.17 
  13   8 -12   -0.08    0.17 
  12   8 -12    0.17    0.17 
  11   8 -12    0.64    0.20 
  10   8 -12    0.55    0.17 
 -10  -8  12    0.38    0.17 
   9   8 -12    0.91    0.18 
  -9  -8  12    0.83    0.19 
   8   8 -12    2.33    0.25 
  -8  -8  12    2.90    0.31 
   7   8 -12    0.33    0.13 
  -7  -8  12    0.45    0.16 
   6   8 -12   -0.03    0.09 
  -6  -8  12   -0.10    0.08 
  -5  -8  12    0.09    0.11 
  -4  -8  12    1.75    0.24 
  -3  -8  12    0.23    0.13 
  -2  -8  12    0.96    0.19 
  -1  -8  12    2.34    0.27 
   0  -8  12    1.00    0.20 
   1  -8  12    0.93    0.20 
   2  -8  12    1.36    0.23 
  -3   8 -12    0.09    0.12 
   3  -8  12    0.04    0.12 
  -4   8 -12    0.17    0.13 
   4  -8  12    0.28    0.15 
  -5   8 -12    0.36    0.15 
   5  -8  12    0.33    0.17 
  -6   8 -12   -0.04    0.11 
   6  -8  12   -0.02    0.13 
  -7   8 -12    0.32    0.15 
   7  -8  12    0.50    0.20 
  -8   8 -12    0.25    0.14 
   8  -8  12    0.19    0.18 
  -9   8 -12    0.10    0.15 
   9  -8  12    0.16    0.20 
  13   7 -12    0.15    0.18 
  12   7 -12    0.03    0.15 
  11   7 -12    0.02    0.13 
  10   7 -12    0.08    0.12 
   9   7 -12    0.02    0.11 
  -9  -7  12    0.22    0.13 
   8   7 -12    0.93    0.17 
  -8  -7  12    0.87    0.18 
   7   7 -12    3.89    0.28 
  -7  -7  12    4.20    0.33 
   6   7 -12    2.42    0.22 
  -6  -7  12    3.13    0.29 
   5   7 -12    0.03    0.07 
  -5  -7  12    0.05    0.11 
   4   7 -12   10.17    0.44 
  -4  -7  12    9.40    0.52 
  -3  -7  12    1.95    0.24 
  -2  -7  12    0.52    0.15 
  -1  -7  12    0.45    0.14 
   0  -7  12    0.02    0.10 
   1  -7  12   -0.04    0.10 
  -2   7 -12    0.10    0.11 
  -3   7 -12   -0.06    0.09 
  -4   7 -12    0.63    0.15 
   4  -7  12    0.33    0.15 
  -5   7 -12    0.10    0.12 
   5  -7  12   -0.03    0.11 
  -6   7 -12    0.04    0.12 
   6  -7  12    0.21    0.14 
  -7   7 -12    0.06    0.12 
   7  -7  12    0.09    0.16 
  -8   7 -12    0.35    0.15 
   8  -7  12    0.23    0.19 
  -9   7 -12   -0.15    0.10 
   9  -7  12    0.00    0.19 
 -10   7 -12   -0.19    0.12 
  10  -7  12    0.03    0.22 
  14   6 -12   -0.11    0.18 
  13   6 -12   -0.03    0.15 
  12   6 -12    0.10    0.14 
  11   6 -12    0.04    0.12 
  10   6 -12    0.06    0.12 
   9   6 -12    0.20    0.13 
  -9  -6  12    0.33    0.13 
   8   6 -12    1.28    0.19 
  -8  -6  12    1.73    0.22 
   7   6 -12    2.07    0.21 
  -7  -6  12    2.10    0.23 
   6   6 -12    0.64    0.13 
  -6  -6  12    0.45    0.14 
   5   6 -12    0.45    0.12 
  -5  -6  12    0.25    0.12 
   4   6 -12    2.10    0.18 
  -4  -6  12    2.30    0.24 
   3   6 -12    0.35    0.09 
  -3  -6  12    0.20    0.11 
   2   6 -12    3.38    0.20 
  -2  -6  12    3.27    0.29 
  -1  -6  12    0.34    0.13 
   0  -6  12    0.02    0.09 
   1  -6  12    2.07    0.25 
  -2   6 -12    1.92    0.23 
  -3   6 -12    1.04    0.18 
  -4   6 -12   -0.14    0.08 
   4  -6  12    0.03    0.11 
  -5   6 -12    0.16    0.11 
   5  -6  12    0.03    0.11 
  -6   6 -12    0.23    0.12 
   6  -6  12    0.14    0.14 
  -7   6 -12    0.20    0.13 
   7  -6  12    0.33    0.17 
  -8   6 -12    0.49    0.16 
   8  -6  12    0.46    0.19 
  -9   6 -12   -0.09    0.12 
   9  -6  12    0.22    0.16 
 -10   6 -12   -0.11    0.11 
  10  -6  12    0.24    0.22 
 -11   6 -12    0.05    0.15 
  11  -6  12    0.05    0.22 
  14   5 -12    0.06    0.17 
  13   5 -12    0.09    0.15 
  12   5 -12    0.19    0.15 
  11   5 -12    0.06    0.12 
  10   5 -12    1.21    0.20 
   9   5 -12    0.63    0.16 
  -9  -5  12    0.62    0.16 
   8   5 -12    0.14    0.10 
  -8  -5  12    0.04    0.10 
   7   5 -12    4.03    0.28 
   7   5 -12    3.99    0.24 
  -7  -5  12    3.72    0.28 
   6   5 -12    0.79    0.14 
  -6  -5  12    0.70    0.15 
   5   5 -12    0.46    0.11 
  -5  -5  12    0.32    0.12 
  -4  -5  12   17.11    0.74 
  -3  -5  12    1.79    0.21 
  -2  -5  12    0.76    0.16 
  -1  -5  12    2.50    0.25 
   0  -5  12    0.05    0.10 
  -1   5 -12    0.18    0.11 
  -2   5 -12    1.70    0.21 
  -3   5 -12    3.50    0.28 
  -4   5 -12    3.42    0.28 
  -5   5 -12    0.21    0.12 
   5  -5  12    0.13    0.13 
  -6   5 -12    0.37    0.13 
   6  -5  12    0.42    0.15 
  -7   5 -12    0.38    0.14 
   7  -5  12    0.92    0.22 
  -8   5 -12    0.23    0.13 
   8  -5  12    0.24    0.17 
  -9   5 -12    0.19    0.13 
   9  -5  12    0.24    0.17 
 -10   5 -12    0.19    0.14 
  10  -5  12    0.26    0.20 
 -11   5 -12    0.08    0.13 
  11  -5  12    0.26    0.22 
  15   4 -12    0.20    0.18 
  14   4 -12    1.02    0.25 
  13   4 -12    0.13    0.16 
  12   4 -12    0.40    0.17 
  11   4 -12    0.78    0.19 
  10   4 -12    0.28    0.13 
   9   4 -12    0.48    0.14 
   8   4 -12    0.33    0.12 
   8   4 -12    0.33    0.09 
  -8  -4  12    0.04    0.06 
   7   4 -12    1.45    0.15 
   7   4 -12    1.22    0.17 
  -7  -4  12    1.31    0.18 
   6   4 -12    6.88    0.35 
  -6  -4  12    6.95    0.38 
  -5  -4  12    6.20    0.35 
  -4  -4  12    0.95    0.16 
  -3  -4  12    2.79    0.22 
  -2  -4  12    0.40    0.12 
  -1  -4  12    2.28    0.23 
   0   4 -12   10.75    0.50 
  -1   4 -12    0.90    0.15 
  -2   4 -12    0.68    0.15 
  -3   4 -12    2.54    0.24 
  -4   4 -12    4.66    0.32 
  -5   4 -12    1.47    0.20 
  -6   4 -12   -0.04    0.08 
  -7   4 -12    0.13    0.10 
   7  -4  12   -0.06    0.11 
  -8   4 -12    0.26    0.13 
   8  -4  12    0.00    0.14 
  -9   4 -12   -0.10    0.10 
   9  -4  12   -0.17    0.14 
 -10   4 -12    0.13    0.15 
  10  -4  12    0.30    0.19 
 -11   4 -12    0.16    0.14 
  11  -4  12   -0.35    0.15 
  15   3 -12    0.47    0.21 
  14   3 -12    0.04    0.17 
  13   3 -12    0.68    0.20 
  12   3 -12    0.51    0.18 
  11   3 -12    1.96    0.25 
  10   3 -12    1.41    0.21 
   9   3 -12    0.35    0.09 
   9   3 -12    0.22    0.11 
   8   3 -12    3.87    0.28 
   8   3 -12    3.49    0.23 
  -8  -3  12    2.86    0.22 
   7   3 -12    1.66    0.16 
  -7  -3  12    1.52    0.17 
   6   3 -12    0.08    0.07 
  -6  -3  12    0.20    0.09 
  -5  -3  12    1.48    0.17 
  -4  -3  12    7.10    0.37 
  -3  -3  12    1.25    0.16 
   2   3 -12    1.00    0.13 
   1   3 -12    0.50    0.10 
   0   3 -12   10.98    0.50 
  -1   3 -12    7.33    0.38 
  -2   3 -12    0.50    0.13 
  -3   3 -12    3.75    0.26 
  -4   3 -12    0.48    0.13 
  -5   3 -12    0.29    0.12 
  -6   3 -12   -0.01    0.10 
  -7   3 -12    0.13    0.10 
  -8   3 -12    0.08    0.11 
  -9   3 -12    0.18    0.14 
 -10   3 -12    0.15    0.12 
 -11   3 -12    0.37    0.17 
 -12   3 -12    0.20    0.16 
  15   2 -12    0.15    0.17 
  14   2 -12    0.33    0.17 
  13   2 -12    0.02    0.14 
  12   2 -12    0.39    0.15 
  11   2 -12    2.07    0.26 
  10   2 -12    1.80    0.22 
  10   2 -12    1.88    0.20 
   9   2 -12    0.06    0.10 
   9   2 -12    0.11    0.08 
   8   2 -12    2.82    0.21 
   7   2 -12   10.24    0.47 
  -7  -2  12   10.51    0.46 
   6   2 -12    1.70    0.17 
  -6  -2  12    1.57    0.16 
   5   2 -12    1.26    0.15 
  -5  -2  12    1.49    0.16 
   4   2 -12    1.46    0.14 
   3   2 -12    0.19    0.07 
   2   2 -12    0.56    0.11 
   1   2 -12    2.81    0.20 
   0   2 -12    2.73    0.20 
  -1   2 -12    0.07    0.06 
  -2   2 -12    1.58    0.17 
  -3   2 -12    0.32    0.11 
  -4   2 -12    6.93    0.39 
  -5   2 -12    1.87    0.21 
  -6   2 -12    0.28    0.12 
  -7   2 -12    1.56    0.21 
  -8   2 -12    0.80    0.17 
  -9   2 -12    0.60    0.17 
 -10   2 -12    0.09    0.12 
 -11   2 -12    0.44    0.17 
 -12   2 -12    0.48    0.19 
  15   1 -12    0.21    0.17 
  14   1 -12   -0.01    0.13 
  13   1 -12    0.10    0.13 
  12   1 -12    0.22    0.14 
  11   1 -12    2.33    0.23 
  11   1 -12    1.96    0.25 
  10   1 -12   -0.10    0.08 
  10   1 -12    0.04    0.09 
   9   1 -12    1.23    0.17 
   8   1 -12    4.33    0.28 
   7   1 -12    1.06    0.11 
   7   1 -12    1.08    0.15 
   6   1 -12    1.09    0.15 
   6   1 -12    1.05    0.11 
   5   1 -12   -0.01    0.05 
   5   1 -12    0.03    0.05 
   4   1 -12    8.63    0.37 
   3   1 -12    4.05    0.23 
   2   1 -12    0.02    0.05 
   1   1 -12    6.00    0.31 
   0   1 -12    4.47    0.25 
  -1   1 -12    1.42    0.16 
  -2   1 -12    0.10    0.08 
  -3   1 -12   -0.02    0.07 
  -4   1 -12    0.11    0.09 
  -5   1 -12    0.05    0.09 
  -6   1 -12    0.88    0.17 
  -7   1 -12    0.73    0.16 
  -8   1 -12    0.01    0.10 
  -9   1 -12   -0.06    0.10 
 -10   1 -12    0.01    0.11 
 -11   1 -12    0.38    0.16 
 -12   1 -12    0.20    0.16 
  15   0 -12    0.11    0.15 
  14   0 -12   -0.05    0.11 
  13   0 -12    0.28    0.16 
  12   0 -12    0.15    0.13 
  12   0 -12    0.11    0.12 
  11   0 -12    1.26    0.20 
  11   0 -12    1.13    0.18 
  10   0 -12    3.95    0.29 
   9   0 -12    0.08    0.10 
   8   0 -12   22.32    0.91 
   7   0 -12   24.91    0.98 
   6   0 -12    2.92    0.16 
   6   0 -12    2.87    0.21 
   5   0 -12    3.51    0.24 
   5   0 -12    3.27    0.18 
   4   0 -12   10.08    0.41 
   4   0 -12    9.85    0.46 
   3   0 -12   35.48    1.23 
   2   0 -12    1.07    0.12 
   1   0 -12    2.49    0.18 
   0   0 -12    0.60    0.11 
  -1   0 -12    5.06    0.28 
  -2   0 -12    0.43    0.10 
  -3   0 -12    1.57    0.18 
  -4   0 -12    2.38    0.23 
  -5   0 -12    3.25    0.25 
  -6   0 -12    0.62    0.15 
  -7   0 -12    0.38    0.12 
  -8   0 -12    1.57    0.22 
  -9   0 -12    0.65    0.16 
 -10   0 -12    0.01    0.12 
 -11   0 -12    0.40    0.17 
 -12   0 -12    0.51    0.18 
  15  -1 -12    0.21    0.15 
  14  -1 -12    0.16    0.14 
  13  -1 -12    0.54    0.17 
  13  -1 -12    0.37    0.16 
  12  -1 -12    0.28    0.14 
  12  -1 -12    0.01    0.11 
  11  -1 -12    2.49    0.25 
  10  -1 -12    0.01    0.10 
   9  -1 -12    1.31    0.19 
   8  -1 -12    5.19    0.33 
   7  -1 -12    1.06    0.17 
   6  -1 -12    0.95    0.15 
   6  -1 -12    1.14    0.09 
   5  -1 -12    0.06    0.04 
   5  -1 -12   -0.10    0.06 
   4  -1 -12    8.19    0.34 
   4  -1 -12    8.31    0.41 
   3  -1 -12    4.28    0.26 
   3  -1 -12    4.27    0.22 
   2  -1 -12   -0.04    0.04 
   1  -1 -12    5.76    0.29 
   0  -1 -12    4.50    0.26 
  -1  -1 -12    1.72    0.18 
  -2  -1 -12    0.20    0.09 
  -3  -1 -12    0.05    0.07 
  -4  -1 -12    0.14    0.10 
  -5  -1 -12    0.02    0.08 
  -6  -1 -12    1.20    0.19 
  -7  -1 -12    0.67    0.15 
  -8  -1 -12    0.06    0.11 
  -9  -1 -12   -0.08    0.11 
 -10  -1 -12    0.08    0.13 
 -11  -1 -12    0.43    0.18 
 -12  -1 -12    0.28    0.17 
  15  -2 -12    0.08    0.15 
  14  -2 -12    0.58    0.18 
  14  -2 -12    0.34    0.18 
  13  -2 -12    0.24    0.15 
  13  -2 -12    0.01    0.13 
  12  -2 -12    0.65    0.18 
  12  -2 -12    0.67    0.17 
  11  -2 -12    1.98    0.24 
  10  -2 -12    1.60    0.21 
   9  -2 -12    0.02    0.10 
   8  -2 -12    2.47    0.24 
   7  -2 -12   11.08    0.54 
   6  -2 -12    1.66    0.19 
   5  -2 -12    1.39    0.18 
   5  -2 -12    1.36    0.10 
   4  -2 -12    1.21    0.11 
   4  -2 -12    0.99    0.14 
   3  -2 -12    0.07    0.08 
   3  -2 -12    0.12    0.05 
   2  -2 -12    0.38    0.08 
   2  -2 -12    0.36    0.10 
   1  -2 -12    2.37    0.17 
   0  -2 -12    2.47    0.18 
  -1  -2 -12    0.04    0.06 
  -2  -2 -12    1.61    0.18 
  -3  -2 -12    0.40    0.11 
  -4  -2 -12    7.77    0.41 
  -5  -2 -12    1.48    0.20 
  -6  -2 -12    0.22    0.11 
  -7  -2 -12    1.77    0.23 
  -8  -2 -12    0.95    0.19 
  -9  -2 -12    0.77    0.19 
 -10  -2 -12   -0.08    0.10 
 -11  -2 -12    0.53    0.18 
 -12  -2 -12    0.35    0.18 
  15  -3 -12    0.50    0.22 
  15  -3 -12    0.30    0.17 
  14  -3 -12    0.02    0.12 
  14  -3 -12    0.29    0.16 
  13  -3 -12    0.80    0.18 
  13  -3 -12    0.91    0.21 
  12  -3 -12    0.68    0.18 
  11  -3 -12    2.64    0.28 
  10  -3 -12    1.25    0.20 
   9  -3 -12    0.04    0.11 
   8  -3 -12    3.51    0.28 
   7  -3 -12    1.44    0.19 
   6  -3 -12    0.11    0.10 
   5  -3 -12    1.46    0.11 
   5  -3 -12    1.18    0.17 
   4  -3 -12    7.31    0.31 
   4  -3 -12    6.51    0.38 
   3  -3 -12    1.32    0.12 
   3  -3 -12    1.16    0.16 
   2  -3 -12    0.82    0.11 
   2  -3 -12    0.70    0.13 
   1  -3 -12    0.60    0.10 
   1  -3 -12    0.46    0.10 
   0  -3 -12   10.25    0.46 
  -1  -3 -12    6.67    0.34 
  -2  -3 -12    0.18    0.09 
  -3  -3 -12    4.22    0.28 
  -4  -3 -12    0.65    0.15 
  -5  -3 -12    0.20    0.11 
  -6  -3 -12   -0.03    0.08 
  -7  -3 -12    0.23    0.11 
  -8  -3 -12    0.08    0.11 
  -9  -3 -12    0.01    0.11 
 -10  -3 -12    0.22    0.14 
 -11  -3 -12    0.41    0.18 
 -12  -3 -12    0.15    0.16 
  15  -4 -12    0.00    0.15 
  15  -4 -12    0.60    0.23 
  14  -4 -12    0.99    0.22 
  14  -4 -12    0.82    0.23 
  13  -4 -12    0.32    0.15 
  13  -4 -12    0.26    0.17 
  12  -4 -12    0.60    0.18 
  11  -4 -12    0.42    0.15 
  10  -4 -12    0.46    0.14 
   9  -4 -12    0.41    0.14 
   8  -4 -12    0.23    0.12 
   7  -4 -12    1.48    0.21 
   6  -4 -12    7.83    0.44 
   5  -4 -12    7.30    0.41 
   4  -4 -12    1.19    0.12 
   4  -4 -12    0.75    0.16 
   3  -4 -12    3.50    0.21 
   3  -4 -12    3.38    0.25 
   2  -4 -12    0.25    0.10 
   2  -4 -12    0.37    0.09 
   1  -4 -12    2.43    0.21 
   1  -4 -12    2.41    0.18 
   0  -4 -12    9.69    0.45 
   0  -4 -12    9.99    0.47 
  -1  -4 -12    0.70    0.13 
  -1  -4 -12    0.67    0.13 
  -2  -4 -12    0.98    0.16 
  -3  -4 -12    2.76    0.24 
  -4  -4 -12    4.65    0.32 
  -5  -4 -12    1.25    0.20 
  -6  -4 -12    0.02    0.10 
  -7  -4 -12    0.11    0.11 
  -8  -4 -12    0.03    0.11 
  -9  -4 -12   -0.20    0.09 
 -10  -4 -12    0.25    0.17 
 -11  -4 -12    0.15    0.15 
  14  -5 -12   -0.05    0.17 
  14  -5 -12   -0.13    0.13 
  13  -5 -12    0.20    0.17 
  12  -5 -12    0.13    0.14 
  11  -5 -12    0.10    0.13 
  10  -5 -12    1.31    0.22 
   9  -5 -12    0.89    0.18 
   8  -5 -12    0.14    0.13 
   7  -5 -12    4.15    0.31 
   6  -5 -12    0.75    0.16 
   5  -5 -12    0.49    0.14 
   4  -5 -12   16.64    0.65 
   4  -5 -12   17.40    0.75 
   3  -5 -12    1.98    0.16 
   3  -5 -12    1.54    0.20 
   2  -5 -12    1.02    0.13 
   2  -5 -12    0.87    0.16 
   1  -5 -12    2.53    0.19 
   1  -5 -12    2.75    0.22 
   0  -5 -12   -0.02    0.07 
   0  -5 -12    0.14    0.10 
  -1  -5 -12    0.25    0.10 
  -1  -5 -12    0.18    0.10 
  -2  -5 -12    1.70    0.18 
  -2  -5 -12    1.55    0.20 
  -3  -5 -12    3.33    0.27 
  -4  -5 -12    4.73    0.33 
  -5  -5 -12    0.15    0.12 
  -6  -5 -12    0.55    0.16 
  -7  -5 -12    0.72    0.17 
  -8  -5 -12   -0.13    0.10 
  -9  -5 -12    0.22    0.15 
 -10  -5 -12    0.38    0.18 
 -11  -5 -12    0.27    0.17 
  14  -6 -12   -0.05    0.20 
  14  -6 -12   -0.05    0.13 
  13  -6 -12   -0.20    0.13 
  12  -6 -12    0.07    0.15 
  11  -6 -12    0.05    0.14 
  10  -6 -12    0.07    0.14 
   9  -6 -12    0.30    0.14 
   8  -6 -12    1.57    0.23 
   7  -6 -12    2.04    0.24 
   6  -6 -12    0.67    0.16 
   5  -6 -12    0.37    0.14 
   4  -6 -12    2.44    0.18 
   4  -6 -12    2.21    0.23 
   3  -6 -12    0.14    0.11 
   3  -6 -12    0.22    0.08 
   2  -6 -12    3.28    0.26 
   2  -6 -12    3.01    0.21 
   1  -6 -12    0.57    0.14 
   1  -6 -12    0.45    0.11 
   0  -6 -12    0.21    0.11 
   0  -6 -12    0.04    0.09 
  -1  -6 -12    1.96    0.21 
  -1  -6 -12    1.99    0.20 
  -2  -6 -12    2.44    0.24 
  -2  -6 -12    2.14    0.21 
  -3  -6 -12    1.27    0.16 
  -3  -6 -12    1.22    0.19 
  -4  -6 -12   -0.02    0.09 
  -4  -6 -12    0.03    0.09 
  -5  -6 -12    0.04    0.11 
  -6  -6 -12    0.17    0.12 
  -7  -6 -12    0.30    0.13 
  -8  -6 -12    0.38    0.16 
  -9  -6 -12   -0.07    0.11 
 -10  -6 -12   -0.05    0.14 
 -11  -6 -12   -0.08    0.16 
  13  -7 -12   -0.17    0.18 
  12  -7 -12    0.00    0.17 
  11  -7 -12   -0.02    0.15 
  10  -7 -12   -0.07    0.13 
   9  -7 -12    0.09    0.15 
   8  -7 -12    0.70    0.18 
   7  -7 -12    3.82    0.32 
   6  -7 -12    2.69    0.28 
   5  -7 -12    0.14    0.11 
   4  -7 -12    9.79    0.52 
   3  -7 -12    2.41    0.24 
   3  -7 -12    2.21    0.19 
   2  -7 -12    0.37    0.11 
   2  -7 -12    0.42    0.13 
   1  -7 -12    0.23    0.11 
   1  -7 -12    0.27    0.12 
   0  -7 -12   -0.05    0.09 
   0  -7 -12   -0.01    0.11 
  -1  -7 -12   -0.13    0.08 
  -1  -7 -12    0.04    0.10 
  -2  -7 -12    0.07    0.10 
  -2  -7 -12   -0.11    0.08 
  -3  -7 -12    0.06    0.10 
  -3  -7 -12    0.12    0.11 
  -4  -7 -12    0.36    0.14 
  -5  -7 -12    0.04    0.10 
  -6  -7 -12    0.04    0.12 
  -7  -7 -12   -0.09    0.11 
  -8  -7 -12    0.17    0.14 
  -9  -7 -12    0.18    0.16 
 -10  -7 -12    0.16    0.16 
  12  -8 -12    0.11    0.20 
  11  -8 -12    0.81    0.23 
  10  -8 -12    0.60    0.21 
   9  -8 -12    1.06    0.22 
   8  -8 -12    2.36    0.29 
   7  -8 -12    0.32    0.16 
   6  -8 -12    0.04    0.12 
   5  -8 -12   -0.10    0.09 
   4  -8 -12    1.72    0.23 
   3  -8 -12    0.12    0.07 
   3  -8 -12    0.11    0.11 
   2  -8 -12    1.36    0.20 
   2  -8 -12    1.20    0.17 
   1  -8 -12    2.71    0.25 
   1  -8 -12    2.88    0.26 
   0  -8 -12    0.96    0.17 
   0  -8 -12    0.98    0.17 
  -1  -8 -12    0.56    0.15 
  -1  -8 -12    1.02    0.17 
  -2  -8 -12    1.08    0.18 
  -2  -8 -12    1.39    0.19 
  -3  -8 -12    0.10    0.11 
  -4  -8 -12    0.09    0.13 
  -5  -8 -12    0.09    0.12 
  -6  -8 -12    0.10    0.13 
  -7  -8 -12    0.50    0.19 
  -8  -8 -12    0.15    0.15 
  -9  -8 -12   -0.10    0.14 
  12  -9 -12    0.00    0.20 
  11  -9 -12    0.11    0.18 
  10  -9 -12    0.46    0.18 
   9  -9 -12    0.64    0.20 
   8  -9 -12   -0.02    0.14 
   7  -9 -12    0.31    0.14 
   6  -9 -12    0.03    0.12 
   5  -9 -12    0.38    0.14 
   4  -9 -12    0.33    0.15 
   3  -9 -12    1.00    0.19 
   2  -9 -12    0.11    0.12 
   2  -9 -12    0.15    0.11 
   1  -9 -12   -0.05    0.11 
   1  -9 -12    0.03    0.09 
   0  -9 -12    0.08    0.13 
   0  -9 -12   -0.11    0.09 
  -1  -9 -12    0.37    0.14 
  -1  -9 -12    0.28    0.14 
  -2  -9 -12    0.31    0.14 
  -3  -9 -12    0.05    0.11 
  -4  -9 -12   -0.02    0.11 
  -5  -9 -12    0.04    0.14 
  -6  -9 -12    0.12    0.13 
  -7  -9 -12    0.11    0.16 
  -8  -9 -12    0.13    0.17 
  11 -10 -12    0.28    0.21 
  10 -10 -12    0.25    0.18 
   9 -10 -12    0.19    0.17 
   8 -10 -12    0.22    0.16 
   7 -10 -12    0.07    0.15 
   6 -10 -12    0.90    0.22 
   5 -10 -12    1.03    0.21 
   4 -10 -12    0.98    0.20 
   3 -10 -12    0.46    0.15 
   2 -10 -12    0.28    0.12 
   2 -10 -12    0.01    0.11 
   1 -10 -12    1.15    0.20 
   1 -10 -12    1.29    0.21 
   0 -10 -12   -0.01    0.12 
   0 -10 -12   -0.03    0.10 
  -1 -10 -12    0.13    0.12 
  -2 -10 -12   -0.02    0.11 
  -3 -10 -12    0.17    0.13 
  -4 -10 -12   -0.01    0.14 
  -5 -10 -12    0.14    0.15 
  -6 -10 -12   -0.17    0.13 
  -7 -10 -12    0.10    0.18 
   9 -11 -12    0.69    0.23 
   8 -11 -12   -0.09    0.13 
   7 -11 -12    0.82    0.21 
   6 -11 -12    1.05    0.23 
   5 -11 -12    0.06    0.14 
   4 -11 -12    0.98    0.22 
   3 -11 -12    1.67    0.25 
   2 -11 -12    0.26    0.14 
   1 -11 -12    0.10    0.15 
   1 -11 -12    0.49    0.16 
   0 -11 -12    1.34    0.23 
  -1 -11 -12   -0.05    0.11 
  -2 -11 -12    0.14    0.14 
  -3 -11 -12    0.28    0.16 
  -4 -11 -12    0.36    0.17 
  -5 -11 -12    0.01    0.15 
  -6 -11 -12    0.11    0.18 
   8 -12 -12    0.34    0.22 
   7 -12 -12    0.12    0.16 
   6 -12 -12    0.03    0.16 
   5 -12 -12    0.25    0.17 
   4 -12 -12    0.17    0.15 
   3 -12 -12    0.09    0.15 
   1 -12 -12   -0.01    0.14 
   0 -12 -12    0.22    0.15 
  -1 -12 -12   -0.02    0.13 
  -2 -12 -12    0.02    0.15 
  -3 -12 -12    0.09    0.16 
  -4 -12 -12    0.10    0.18 
  -5 -12 -12   -0.16    0.17 
   5 -13 -12    0.35    0.19 
   4 -13 -12    0.07    0.18 
   0 -13 -12    0.22    0.17 
  -1 -13 -12    0.21    0.19 
  -2 -13 -12    0.13    0.18 
  -4 -13  13    0.26    0.17 
  -3 -13  13    0.13    0.18 
  -2 -13  13    0.14    0.17 
  -1 -13  13   -0.12    0.15 
   0 -13  13   -0.15    0.15 
  -7 -12  13    0.01    0.16 
  -6 -12  13    0.43    0.19 
  -5 -12  13    0.55    0.21 
  -4 -12  13    0.25    0.18 
  -3 -12  13    0.39    0.18 
  -2 -12  13    0.93    0.23 
  -1 -12  13    1.45    0.27 
   0 -12  13    0.00    0.15 
   1 -12  13    0.20    0.19 
   2 -12  13   -0.08    0.16 
   3 -12  13    0.06    0.18 
  -4  12 -13   -0.09    0.16 
  -9 -11  13   -0.08    0.15 
  -8 -11  13    0.23    0.16 
  -7 -11  13    0.33    0.17 
  -6 -11  13    0.49    0.19 
  -5 -11  13   -0.03    0.12 
  -4 -11  13    0.20    0.16 
  -3 -11  13    0.16    0.14 
  -2 -11  13    0.43    0.18 
  -1 -11  13    0.13    0.13 
   0 -11  13    0.13    0.16 
   1 -11  13    0.06    0.14 
   2 -11  13    0.22    0.16 
   3 -11  13    0.11    0.17 
  -4  11 -13    0.05    0.14 
   4 -11  13   -0.17    0.16 
  -5  11 -13    0.02    0.15 
   5 -11  13    0.35    0.21 
 -10 -10  13    0.32    0.21 
  -9 -10  13    0.19    0.15 
  -8 -10  13   -0.07    0.12 
  -7 -10  13   -0.06    0.11 
  -6 -10  13    0.22    0.13 
  -5 -10  13    0.39    0.16 
  -4 -10  13    0.13    0.12 
  -3 -10  13    0.02    0.10 
  -2 -10  13    0.96    0.22 
  -1 -10  13    0.81    0.22 
   0 -10  13   -0.08    0.11 
   1 -10  13    0.38    0.17 
   2 -10  13   -0.08    0.11 
  -3  10 -13    0.27    0.14 
  -4  10 -13   -0.11    0.12 
   4 -10  13   -0.12    0.12 
  -5  10 -13   -0.15    0.12 
   5 -10  13   -0.07    0.15 
  -6  10 -13    0.21    0.17 
   6 -10  13   -0.05    0.16 
  -7  10 -13   -0.20    0.13 
   7 -10  13   -0.15    0.16 
  11   9 -13    0.28    0.17 
  10   9 -13    0.29    0.17 
   9   9 -13    0.29    0.16 
  -9  -9  13    0.27    0.16 
  -8  -9  13    0.10    0.14 
  -7  -9  13    0.66    0.19 
  -6  -9  13    0.96    0.21 
  -5  -9  13    0.29    0.14 
  -4  -9  13    0.06    0.10 
  -3  -9  13   -0.10    0.10 
  -2  -9  13    0.21    0.13 
  -1  -9  13   -0.02    0.11 
   0  -9  13    0.48    0.17 
   1  -9  13    0.17    0.13 
   2  -9  13   -0.07    0.11 
  -3   9 -13    0.11    0.13 
  -4   9 -13    0.13    0.13 
   4  -9  13    0.24    0.18 
  -5   9 -13    0.07    0.13 
   5  -9  13    0.27    0.17 
  -6   9 -13    1.38    0.25 
   6  -9  13    1.35    0.28 
  -7   9 -13    0.49    0.19 
   7  -9  13    0.72    0.24 
  -8   9 -13   -0.02    0.14 
   8  -9  13    0.09    0.19 
  12   8 -13    0.02    0.17 
  11   8 -13    0.06    0.15 
  10   8 -13    0.03    0.14 
   9   8 -13    0.14    0.12 
  -9  -8  13    0.17    0.12 
   8   8 -13    1.02    0.19 
  -8  -8  13    1.37    0.22 
   7   8 -13    0.43    0.14 
  -7  -8  13    0.47    0.16 
  -6  -8  13    0.23    0.12 
  -5  -8  13    0.04    0.10 
  -4  -8  13    0.28    0.13 
  -3  -8  13    0.63    0.16 
  -2  -8  13    0.78    0.18 
  -1  -8  13    0.00    0.09 
   0  -8  13   -0.02    0.11 
   1  -8  13    0.71    0.19 
  -2   8 -13    0.06    0.10 
  -3   8 -13    0.20    0.14 
  -4   8 -13    0.40    0.14 
  -5   8 -13    0.16    0.13 
   5  -8  13    0.14    0.14 
  -6   8 -13   -0.04    0.12 
   6  -8  13    0.23    0.16 
  -7   8 -13    0.12    0.14 
   7  -8  13    0.07    0.16 
  -8   8 -13    0.11    0.15 
   8  -8  13   -0.01    0.17 
  -9   8 -13   -0.08    0.15 
   9  -8  13    0.17    0.22 
  13   7 -13    0.17    0.18 
  12   7 -13    0.33    0.18 
  11   7 -13    0.83    0.21 
  10   7 -13    1.69    0.24 
   9   7 -13    1.16    0.21 
  -9  -7  13    1.11    0.20 
   8   7 -13   -0.05    0.10 
  -8  -7  13    0.05    0.10 
   7   7 -13    1.18    0.18 
  -7  -7  13    0.78    0.18 
   6   7 -13    0.13    0.10 
  -6  -7  13    0.18    0.12 
   5   7 -13    0.32    0.11 
  -5  -7  13    0.24    0.13 
  -4  -7  13    1.21    0.21 
  -3  -7  13    0.25    0.13 
  -2  -7  13    0.06    0.11 
  -1  -7  13    4.43    0.34 
   0  -7  13    2.75    0.30 
   1  -7  13    1.53    0.23 
  -2   7 -13    0.18    0.12 
  -3   7 -13    0.21    0.13 
  -4   7 -13   -0.07    0.10 
  -5   7 -13    0.09    0.13 
   5  -7  13    0.03    0.12 
  -6   7 -13    0.45    0.16 
   6  -7  13    0.33    0.17 
  -7   7 -13   -0.05    0.12 
   7  -7  13    0.13    0.17 
  -8   7 -13    0.01    0.13 
   8  -7  13   -0.05    0.17 
  -9   7 -13    0.04    0.14 
   9  -7  13    0.07    0.20 
  13   6 -13    0.18    0.18 
  12   6 -13    0.49    0.19 
  11   6 -13    0.04    0.13 
  10   6 -13    1.14    0.22 
   9   6 -13    0.20    0.13 
  -9  -6  13    0.18    0.14 
   8   6 -13    0.14    0.11 
  -8  -6  13   -0.01    0.10 
   7   6 -13    2.75    0.24 
  -7  -6  13    2.63    0.26 
   6   6 -13    1.16    0.17 
  -6  -6  13    1.19    0.20 
   5   6 -13   12.80    0.56 
  -5  -6  13   13.63    0.63 
   4   6 -13    2.36    0.19 
  -4  -6  13    2.50    0.26 
   3   6 -13    0.83    0.12 
  -3  -6  13    0.75    0.17 
  -2  -6  13    3.62    0.32 
  -1  -6  13    0.36    0.14 
   0  -6  13    4.63    0.35 
  -1   6 -13   12.43    0.59 
  -2   6 -13    5.55    0.36 
  -3   6 -13    0.00    0.09 
  -4   6 -13    0.67    0.16 
  -5   6 -13    0.08    0.11 
  -6   6 -13    0.09    0.12 
  -7   6 -13   -0.01    0.12 
   7  -6  13   -0.02    0.14 
  -8   6 -13    0.06    0.13 
   8  -6  13   -0.19    0.12 
  -9   6 -13   -0.05    0.12 
   9  -6  13    0.04    0.17 
 -10   6 -13    0.08    0.15 
  10  -6  13    0.09    0.22 
  14   5 -13    0.18    0.20 
  13   5 -13    0.69    0.21 
  12   5 -13    0.09    0.14 
  11   5 -13    0.44    0.15 
  10   5 -13    0.36    0.15 
   9   5 -13    0.64    0.16 
   8   5 -13    2.07    0.23 
  -8  -5  13    2.02    0.22 
   7   5 -13    0.69    0.11 
   7   5 -13    0.59    0.14 
  -7  -5  13    0.86    0.17 
   6   5 -13   -0.01    0.08 
  -6  -5  13   -0.07    0.08 
  -5  -5  13    8.07    0.44 
  -4  -5  13    0.18    0.10 
  -3  -5  13    0.18    0.12 
  -2  -5  13    0.55    0.15 
  -1  -5  13    4.52    0.33 
   0   5 -13    5.33    0.33 
  -1   5 -13    0.28    0.13 
  -2   5 -13   -0.07    0.09 
  -3   5 -13    0.01    0.10 
  -4   5 -13   -0.05    0.10 
  -5   5 -13    0.08    0.10 
  -6   5 -13    0.13    0.12 
  -7   5 -13   -0.04    0.11 
  -8   5 -13   -0.02    0.11 
  -9   5 -13    0.02    0.12 
 -10   5 -13    0.15    0.15 
  14   4 -13    0.08    0.17 
  13   4 -13    0.29    0.16 
  12   4 -13    0.05    0.15 
  11   4 -13   -0.10    0.12 
  10   4 -13    0.13    0.13 
   9   4 -13    0.22    0.12 
   8   4 -13    1.92    0.22 
   8   4 -13    2.33    0.18 
   7   4 -13    0.54    0.10 
   7   4 -13    0.74    0.15 
  -7  -4  13    0.51    0.13 
   6   4 -13    2.33    0.19 
  -6  -4  13    2.60    0.23 
  -5  -4  13   10.98    0.53 
  -4  -4  13    0.20    0.11 
  -3  -4  13    7.16    0.40 
  -2  -4  13    6.13    0.37 
   1   4 -13    6.56    0.36 
   0   4 -13    2.66    0.23 
  -1   4 -13    4.64    0.31 
  -2   4 -13   14.27    0.64 
  -3   4 -13    1.19    0.19 
  -4   4 -13    0.09    0.09 
  -5   4 -13    0.58    0.15 
  -6   4 -13   -0.12    0.10 
  -7   4 -13    0.27    0.13 
  -8   4 -13    0.04    0.11 
  -9   4 -13    0.05    0.13 
 -10   4 -13    0.24    0.16 
 -11   4 -13    0.11    0.15 
  15   3 -13   -0.06    0.15 
  14   3 -13    0.15    0.17 
  13   3 -13    0.17    0.17 
  12   3 -13    0.02    0.13 
  11   3 -13    0.03    0.12 
  10   3 -13    0.35    0.13 
   9   3 -13    1.47    0.18 
   9   3 -13    1.64    0.21 
   8   3 -13    0.60    0.13 
   7   3 -13    0.14    0.08 
  -7  -3  13    0.02    0.06 
   6   3 -13    0.28    0.09 
  -6  -3  13    0.17    0.10 
  -5  -3  13    0.08    0.08 
  -4  -3  13    3.48    0.25 
   3   3 -13    1.58    0.16 
   2   3 -13    0.50    0.11 
   1   3 -13   -0.10    0.06 
   0   3 -13    0.83    0.14 
  -1   3 -13    0.12    0.09 
  -2   3 -13    0.84    0.16 
  -3   3 -13    1.25    0.18 
  -4   3 -13   -0.03    0.09 
  -5   3 -13    1.42    0.20 
  -6   3 -13    1.52    0.21 
  -7   3 -13    0.24    0.12 
  -8   3 -13    0.09    0.13 
  -9   3 -13    0.35    0.15 
 -10   3 -13    0.41    0.16 
 -11   3 -13    0.11    0.14 
  15   2 -13    0.07    0.17 
  14   2 -13    0.07    0.15 
  13   2 -13   -0.19    0.12 
  12   2 -13   -0.03    0.13 
  11   2 -13    0.49    0.16 
  10   2 -13    0.19    0.11 
  10   2 -13   -0.07    0.10 
   9   2 -13    0.02    0.09 
   8   2 -13    3.47    0.25 
   7   2 -13    1.49    0.17 
  -7  -2  13    1.10    0.15 
   6   2 -13    4.20    0.23 
   6   2 -13    4.01    0.26 
   5   2 -13    5.18    0.31 
   5   2 -13    5.67    0.29 
   4   2 -13    9.43    0.42 
   3   2 -13   21.71    0.83 
   2   2 -13    0.03    0.06 
   1   2 -13    4.80    0.28 
   0   2 -13    0.26    0.09 
  -1   2 -13    0.85    0.14 
  -2   2 -13    1.77    0.19 
  -3   2 -13    0.97    0.17 
  -4   2 -13    1.25    0.19 
  -5   2 -13    0.56    0.14 
  -6   2 -13    0.12    0.10 
  -7   2 -13    0.21    0.11 
  -8   2 -13    0.58    0.16 
  -9   2 -13   -0.01    0.11 
 -10   2 -13    0.06    0.12 
 -11   2 -13    0.07    0.13 
  15   1 -13   -0.11    0.13 
  14   1 -13    0.10    0.14 
  13   1 -13    0.83    0.19 
  12   1 -13    0.22    0.14 
  11   1 -13    3.18    0.30 
  11   1 -13    3.11    0.27 
  10   1 -13    1.23    0.18 
   9   1 -13    0.53    0.14 
   8   1 -13    0.87    0.16 
   7   1 -13    9.93    0.48 
   6   1 -13   14.54    0.56 
   6   1 -13   14.01    0.63 
   5   1 -13    0.00    0.07 
   5   1 -13   -0.02    0.05 
   4   1 -13    3.20    0.20 
   3   1 -13    0.13    0.07 
   2   1 -13    1.13    0.14 
   1   1 -13    0.03    0.06 
   0   1 -13    2.40    0.19 
  -1   1 -13    1.13    0.15 
  -2   1 -13    4.23    0.28 
  -3   1 -13    4.74    0.30 
  -4   1 -13    0.81    0.15 
  -5   1 -13    1.17    0.19 
  -6   1 -13   -0.02    0.09 
  -7   1 -13    0.00    0.09 
  -8   1 -13   -0.01    0.10 
  -9   1 -13   -0.12    0.09 
 -10   1 -13    0.72    0.19 
 -11   1 -13    0.20    0.15 
  15   0 -13    0.00    0.14 
  14   0 -13   -0.10    0.13 
  13   0 -13    0.13    0.15 
  12   0 -13   -0.09    0.11 
  12   0 -13    0.11    0.12 
  11   0 -13   -0.03    0.10 
  10   0 -13    0.00    0.10 
   9   0 -13    0.19    0.11 
   8   0 -13    0.11    0.10 
   7   0 -13    0.10    0.10 
   6   0 -13    0.05    0.09 
   6   0 -13   -0.01    0.05 
   5   0 -13    0.00    0.05 
   5   0 -13    0.07    0.08 
   4   0 -13   -0.03    0.07 
   4   0 -13   -0.05    0.05 
   3   0 -13    0.05    0.06 
   2   0 -13   -0.05    0.05 
   1   0 -13    0.04    0.06 
   0   0 -13   -0.08    0.04 
  -1   0 -13   -0.07    0.06 
  -2   0 -13    0.07    0.08 
  -3   0 -13    0.03    0.08 
  -4   0 -13    0.00    0.09 
  -5   0 -13    0.17    0.11 
  -6   0 -13    0.11    0.10 
  -7   0 -13   -0.14    0.08 
  -8   0 -13    0.10    0.11 
  -9   0 -13    0.00    0.09 
 -10   0 -13    0.00    0.12 
 -11   0 -13   -0.13    0.12 
 -12   0 -13    0.19    0.17 
  15  -1 -13    0.12    0.15 
  14  -1 -13    0.33    0.16 
  13  -1 -13    0.97    0.20 
  13  -1 -13    0.67    0.18 
  12  -1 -13    0.32    0.14 
  12  -1 -13    0.52    0.16 
  11  -1 -13    3.25    0.29 
  10  -1 -13    1.00    0.18 
   9  -1 -13    0.68    0.16 
   8  -1 -13    0.92    0.17 
   7  -1 -13   10.10    0.50 
   6  -1 -13   16.21    0.70 
   5  -1 -13    0.03    0.05 
   5  -1 -13    0.12    0.09 
   4  -1 -13    3.07    0.23 
   4  -1 -13    3.33    0.19 
   3  -1 -13    0.05    0.09 
   3  -1 -13    0.13    0.06 
   2  -1 -13    1.07    0.12 
   1  -1 -13   -0.02    0.06 
   0  -1 -13    2.60    0.19 
  -1  -1 -13    1.07    0.15 
  -2  -1 -13    4.28    0.28 
  -3  -1 -13    5.01    0.31 
  -4  -1 -13    0.91    0.16 
  -5  -1 -13    0.79    0.16 
  -6  -1 -13    0.06    0.10 
  -7  -1 -13   -0.05    0.09 
  -8  -1 -13    0.02    0.10 
  -9  -1 -13    0.12    0.13 
 -10  -1 -13    1.09    0.22 
 -11  -1 -13    0.00    0.13 
  15  -2 -13    0.03    0.16 
  14  -2 -13    0.45    0.19 
  14  -2 -13    0.12    0.14 
  13  -2 -13    0.16    0.15 
  13  -2 -13   -0.06    0.13 
  12  -2 -13   -0.01    0.12 
  11  -2 -13    0.50    0.16 
  10  -2 -13    0.16    0.12 
   9  -2 -13    0.22    0.12 
   8  -2 -13    3.83    0.29 
   7  -2 -13    1.61    0.20 
   6  -2 -13    5.24    0.34 
   5  -2 -13    5.80    0.34 
   5  -2 -13    5.63    0.26 
   4  -2 -13    9.35    0.39 
   4  -2 -13    9.64    0.47 
   3  -2 -13   19.46    0.75 
   3  -2 -13   20.97    0.84 
   2  -2 -13    0.05    0.05 
   2  -2 -13   -0.02    0.07 
   1  -2 -13    5.42    0.29 
   0  -2 -13    0.31    0.09 
  -1  -2 -13    0.99    0.15 
  -2  -2 -13    1.83    0.19 
  -3  -2 -13    1.01    0.16 
  -4  -2 -13    1.16    0.18 
  -5  -2 -13    0.90    0.17 
  -6  -2 -13    0.21    0.11 
  -7  -2 -13    0.15    0.11 
  -8  -2 -13    0.34    0.14 
  -9  -2 -13    0.04    0.11 
 -10  -2 -13    0.16    0.14 
 -11  -2 -13    0.01    0.15 
  15  -3 -13   -0.23    0.13 
  15  -3 -13   -0.06    0.18 
  14  -3 -13    0.07    0.13 
  14  -3 -13    0.12    0.17 
  13  -3 -13   -0.16    0.10 
  13  -3 -13   -0.03    0.14 
  12  -3 -13   -0.01    0.14 
  11  -3 -13    0.05    0.11 
  10  -3 -13    0.38    0.14 
   9  -3 -13    1.27    0.20 
   8  -3 -13    0.53    0.16 
   7  -3 -13    0.02    0.11 
   6  -3 -13    0.20    0.12 
   5  -3 -13    0.17    0.11 
   5  -3 -13    0.32    0.07 
   4  -3 -13    3.21    0.25 
   4  -3 -13    3.23    0.19 
   3  -3 -13    1.74    0.19 
   3  -3 -13    1.50    0.14 
   2  -3 -13    0.62    0.11 
   2  -3 -13    0.40    0.11 
   1  -3 -13    0.12    0.07 
   1  -3 -13    0.05    0.08 
   0  -3 -13    0.69    0.12 
  -1  -3 -13    0.12    0.08 
  -2  -3 -13    0.65    0.14 
  -3  -3 -13    1.31    0.18 
  -4  -3 -13   -0.06    0.08 
  -5  -3 -13    1.21    0.19 
  -6  -3 -13    1.29    0.20 
  -7  -3 -13    0.24    0.12 
  -8  -3 -13    0.02    0.12 
  -9  -3 -13    0.09    0.13 
 -10  -3 -13    0.40    0.17 
 -11  -3 -13    0.10    0.16 
  14  -4 -13   -0.20    0.12 
  14  -4 -13   -0.07    0.16 
  13  -4 -13    0.21    0.17 
  12  -4 -13    0.42    0.17 
  11  -4 -13    0.04    0.12 
  10  -4 -13    0.17    0.14 
   9  -4 -13   -0.07    0.11 
   8  -4 -13    1.78    0.23 
   7  -4 -13    0.48    0.16 
   6  -4 -13    2.22    0.24 
   5  -4 -13   11.02    0.54 
   4  -4 -13    0.11    0.07 
   4  -4 -13    0.21    0.13 
   3  -4 -13    9.11    0.45 
   3  -4 -13    8.18    0.38 
   2  -4 -13    5.76    0.34 
   2  -4 -13    6.00    0.31 
   1  -4 -13    5.71    0.34 
   1  -4 -13    5.50    0.30 
   0  -4 -13    2.08    0.20 
   0  -4 -13    1.80    0.18 
  -1  -4 -13    4.86    0.31 
  -1  -4 -13    4.64    0.29 
  -2  -4 -13   13.29    0.60 
  -3  -4 -13    1.41    0.20 
  -4  -4 -13    0.21    0.11 
  -5  -4 -13    0.37    0.13 
  -6  -4 -13    0.25    0.12 
  -7  -4 -13    0.16    0.12 
  -8  -4 -13   -0.08    0.11 
  -9  -4 -13    0.46    0.17 
 -10  -4 -13    0.33    0.17 
 -11  -4 -13    0.18    0.17 
  14  -5 -13    0.49    0.22 
  14  -5 -13    0.16    0.15 
  13  -5 -13    0.54    0.21 
  12  -5 -13   -0.09    0.13 
  11  -5 -13    0.74    0.20 
  10  -5 -13    0.31    0.16 
   9  -5 -13    0.62    0.17 
   8  -5 -13    2.23    0.27 
   7  -5 -13    0.52    0.15 
   6  -5 -13    0.03    0.10 
   5  -5 -13    9.09    0.49 
   4  -5 -13    0.01    0.12 
   4  -5 -13    0.21    0.08 
   3  -5 -13    0.14    0.08 
   3  -5 -13    0.11    0.11 
   2  -5 -13    0.37    0.12 
   2  -5 -13    0.44    0.10 
   1  -5 -13    4.69    0.30 
   1  -5 -13    4.03    0.26 
   0  -5 -13    5.36    0.33 
   0  -5 -13    4.96    0.31 
  -1  -5 -13    0.27    0.11 
  -1  -5 -13    0.15    0.10 
  -2  -5 -13   -0.03    0.09 
  -2  -5 -13    0.05    0.09 
  -3  -5 -13    0.19    0.10 
  -4  -5 -13    0.11    0.10 
  -5  -5 -13   -0.06    0.09 
  -6  -5 -13    0.14    0.11 
  -7  -5 -13    0.09    0.12 
  -8  -5 -13   -0.07    0.11 
  -9  -5 -13    0.08    0.14 
 -10  -5 -13   -0.02    0.15 
  13  -6 -13    0.20    0.19 
  12  -6 -13    0.57    0.21 
  11  -6 -13   -0.01    0.14 
  10  -6 -13    1.50    0.25 
   9  -6 -13    0.09    0.12 
   8  -6 -13    0.12    0.12 
   7  -6 -13    2.36    0.27 
   6  -6 -13    1.32    0.21 
   5  -6 -13   14.09    0.68 
   4  -6 -13    2.46    0.26 
   3  -6 -13    0.68    0.16 
   3  -6 -13    0.89    0.13 
   2  -6 -13    3.78    0.24 
   2  -6 -13    3.54    0.27 
   1  -6 -13    0.17    0.12 
   1  -6 -13    0.18    0.10 
   0  -6 -13    4.88    0.32 
   0  -6 -13    4.35    0.29 
  -1  -6 -13   11.02    0.54 
  -1  -6 -13   11.51    0.54 
  -2  -6 -13    5.74    0.36 
  -2  -6 -13    6.05    0.35 
  -3  -6 -13    0.00    0.09 
  -3  -6 -13    0.14    0.10 
  -4  -6 -13    0.89    0.18 
  -4  -6 -13    0.82    0.15 
  -5  -6 -13    0.20    0.12 
  -6  -6 -13    0.08    0.11 
  -7  -6 -13   -0.12    0.11 
  -8  -6 -13    0.03    0.13 
  -9  -6 -13   -0.03    0.13 
 -10  -6 -13   -0.01    0.13 
  13  -7 -13    0.35    0.23 
  12  -7 -13    0.18    0.20 
  11  -7 -13    0.51    0.21 
  10  -7 -13    1.46    0.27 
   9  -7 -13    1.30    0.25 
   8  -7 -13   -0.20    0.10 
   7  -7 -13    1.21    0.22 
   6  -7 -13    0.06    0.12 
   5  -7 -13    0.20    0.13 
   4  -7 -13    1.40    0.21 
   3  -7 -13    0.48    0.11 
   3  -7 -13    0.26    0.13 
   2  -7 -13    0.09    0.11 
   2  -7 -13    0.20    0.10 
   1  -7 -13    4.36    0.31 
   1  -7 -13    4.40    0.29 
   0  -7 -13    2.67    0.25 
   0  -7 -13    2.60    0.25 
  -1  -7 -13    1.79    0.22 
  -1  -7 -13    1.98    0.22 
  -2  -7 -13    0.05    0.10 
  -2  -7 -13    0.25    0.12 
  -3  -7 -13    0.29    0.12 
  -3  -7 -13    0.24    0.12 
  -4  -7 -13   -0.20    0.09 
  -5  -7 -13    0.13    0.13 
  -6  -7 -13    0.36    0.16 
  -7  -7 -13    0.07    0.14 
  -8  -7 -13   -0.17    0.11 
  -9  -7 -13    0.04    0.15 
  12  -8 -13    0.14    0.21 
  11  -8 -13   -0.07    0.18 
  10  -8 -13   -0.20    0.14 
   9  -8 -13    0.01    0.14 
   8  -8 -13    1.09    0.23 
   7  -8 -13    0.31    0.14 
   6  -8 -13    0.17    0.14 
   5  -8 -13   -0.15    0.10 
   4  -8 -13    0.32    0.14 
   3  -8 -13    0.49    0.16 
   3  -8 -13    0.94    0.15 
   2  -8 -13    0.72    0.15 
   2  -8 -13    0.83    0.18 
   1  -8 -13    0.13    0.11 
   1  -8 -13    0.16    0.11 
   0  -8 -13   -0.03    0.09 
   0  -8 -13   -0.08    0.10 
  -1  -8 -13    0.81    0.17 
  -1  -8 -13    0.65    0.16 
  -2  -8 -13    0.05    0.10 
  -2  -8 -13    0.01    0.11 
  -3  -8 -13    0.32    0.14 
  -4  -8 -13    0.41    0.16 
  -5  -8 -13   -0.15    0.11 
  -6  -8 -13   -0.03    0.12 
  -7  -8 -13    0.16    0.16 
  -8  -8 -13    0.13    0.16 
  -9  -8 -13   -0.01    0.16 
  11  -9 -13    0.32    0.21 
  10  -9 -13    0.37    0.19 
   9  -9 -13    0.24    0.18 
   8  -9 -13   -0.07    0.13 
   7  -9 -13    1.03    0.22 
   6  -9 -13    0.89    0.20 
   5  -9 -13   -0.04    0.12 
   4  -9 -13    0.10    0.12 
   3  -9 -13    0.05    0.11 
   2  -9 -13    0.07    0.13 
   2  -9 -13    0.26    0.11 
   1  -9 -13    0.04    0.10 
   1  -9 -13    0.07    0.13 
   0  -9 -13    0.76    0.16 
   0  -9 -13    0.48    0.16 
  -1  -9 -13    0.17    0.12 
  -1  -9 -13    0.23    0.13 
  -2  -9 -13   -0.01    0.10 
  -3  -9 -13    0.44    0.16 
  -4  -9 -13    0.31    0.16 
  -5  -9 -13    0.06    0.13 
  -6  -9 -13    1.38    0.27 
  -7  -9 -13    0.32    0.19 
  -8  -9 -13   -0.11    0.16 
  10 -10 -13    0.03    0.15 
   9 -10 -13   -0.03    0.16 
   8 -10 -13   -0.18    0.14 
   7 -10 -13    0.21    0.15 
   6 -10 -13    0.12    0.15 
   5 -10 -13    0.24    0.14 
   4 -10 -13    0.16    0.13 
   3 -10 -13   -0.01    0.12 
   2 -10 -13    0.91    0.20 
   2 -10 -13    0.66    0.16 
   1 -10 -13    0.83    0.18 
   1 -10 -13    0.58    0.16 
   0 -10 -13    0.05    0.10 
   0 -10 -13    0.07    0.12 
  -1 -10 -13    0.51    0.17 
  -2 -10 -13    0.10    0.13 
  -3 -10 -13    0.23    0.14 
  -4 -10 -13    0.11    0.15 
  -5 -10 -13   -0.03    0.15 
  -6 -10 -13   -0.01    0.17 
  -7 -10 -13   -0.12    0.17 
   9 -11 -13   -0.01    0.16 
   8 -11 -13    0.46    0.19 
   7 -11 -13   -0.07    0.14 
   6 -11 -13    0.54    0.18 
   5 -11 -13    0.09    0.16 
   4 -11 -13    0.18    0.15 
   3 -11 -13    0.42    0.17 
   2 -11 -13    0.53    0.17 
   1 -11 -13   -0.05    0.11 
   0 -11 -13    0.40    0.15 
  -1 -11 -13    0.05    0.13 
  -2 -11 -13   -0.08    0.13 
  -3 -11 -13   -0.01    0.14 
  -4 -11 -13    0.19    0.17 
  -5 -11 -13    0.26    0.18 
   7 -12 -13    0.09    0.18 
   6 -12 -13    0.15    0.17 
   5 -12 -13    1.04    0.24 
   4 -12 -13    0.64    0.20 
   3 -12 -13    0.44    0.18 
   0 -12 -13    0.16    0.15 
  -1 -12 -13    0.24    0.15 
  -2 -12 -13    0.14    0.17 
  -3 -12 -13   -0.03    0.17 
  -4 -12 -13   -0.12    0.15 
   4 -13 -13    0.16    0.19 
   0 -13 -13    0.01    0.18 
  -6 -12  14    0.29    0.20 
  -5 -12  14    0.07    0.15 
  -4 -12  14    0.23    0.16 
  -3 -12  14    0.08    0.14 
  -2 -12  14    0.45    0.20 
  -1 -12  14    0.12    0.16 
   0 -12  14   -0.15    0.16 
   1 -12  14    0.12    0.19 
   2 -12  14    0.11    0.20 
  -8 -11  14    0.73    0.22 
  -7 -11  14    0.62    0.20 
  -6 -11  14    0.07    0.16 
  -5 -11  14    0.27    0.17 
  -4 -11  14    0.60    0.20 
  -3 -11  14    0.14    0.14 
  -2 -11  14    0.70    0.21 
  -1 -11  14    0.21    0.16 
   0 -11  14    0.13    0.15 
   1 -11  14   -0.06    0.14 
   2 -11  14    0.02    0.15 
  -3  11 -14   -0.02    0.13 
  -4  11 -14    0.11    0.15 
  -5  11 -14    0.07    0.16 
  -9 -10  14    0.29    0.17 
  -8 -10  14    0.23    0.16 
  -7 -10  14    0.30    0.15 
  -6 -10  14    0.19    0.14 
  -5 -10  14    0.45    0.18 
  -4 -10  14   -0.17    0.11 
  -3 -10  14   -0.14    0.10 
  -2 -10  14    0.40    0.17 
  -1 -10  14   -0.10    0.12 
   0 -10  14    1.17    0.24 
   1 -10  14    0.48    0.18 
   2 -10  14    0.14    0.15 
  -3  10 -14    0.65    0.19 
  -4  10 -14    0.13    0.15 
  -5  10 -14    0.01    0.14 
  -6  10 -14   -0.05    0.14 
  11   9 -14    0.59    0.21 
  10   9 -14    1.16    0.24 
  -9  -9  14   -0.08    0.13 
  -8  -9  14    0.55    0.18 
  -7  -9  14    0.05    0.12 
  -6  -9  14    0.08    0.11 
  -5  -9  14    0.20    0.13 
  -4  -9  14    0.80    0.20 
  -3  -9  14    0.05    0.12 
  -2  -9  14   -0.02    0.10 
  -1  -9  14    0.09    0.13 
   0  -9  14   -0.02    0.11 
   1  -9  14    0.04    0.13 
  -2   9 -14   -0.12    0.10 
  -3   9 -14    0.24    0.14 
  -4   9 -14    0.16    0.14 
  -5   9 -14    0.01    0.13 
  -6   9 -14   -0.09    0.12 
  -7   9 -14    0.12    0.16 
   7  -9  14    0.07    0.20 
  12   8 -14    0.05    0.17 
  11   8 -14    0.37    0.17 
  10   8 -14    1.41    0.24 
   9   8 -14    0.47    0.15 
  -9  -8  14    0.40    0.18 
   8   8 -14    0.07    0.11 
  -8  -8  14    0.04    0.12 
  -7  -8  14    0.00    0.12 
  -6  -8  14    0.68    0.18 
  -5  -8  14    0.14    0.12 
  -4  -8  14    0.30    0.14 
  -3  -8  14    2.65    0.30 
  -2  -8  14    1.57    0.25 
  -1  -8  14    0.20    0.12 
   0  -8  14    2.34    0.30 
   1  -8  14    0.23    0.14 
  -2   8 -14    0.31    0.14 
  -3   8 -14    2.15    0.27 
  -4   8 -14    0.83    0.20 
  -5   8 -14    0.17    0.13 
  -6   8 -14    0.08    0.14 
  -7   8 -14    0.87    0.21 
  -8   8 -14    0.11    0.17 
  13   7 -14    0.13    0.17 
  12   7 -14    0.12    0.17 
  11   7 -14    0.25    0.16 
  10   7 -14    0.29    0.14 
   9   7 -14   -0.19    0.10 
   8   7 -14    0.07    0.11 
  -8  -7  14    0.06    0.10 
   7   7 -14    0.78    0.16 
  -7  -7  14    0.76    0.18 
   6   7 -14    0.70    0.15 
  -6  -7  14    0.53    0.16 
   5   7 -14    0.04    0.08 
  -5  -7  14   -0.07    0.09 
  -4  -7  14    0.08    0.11 
  -3  -7  14    0.33    0.15 
  -2  -7  14    0.16    0.12 
  -1  -7  14    0.20    0.13 
   0  -7  14    0.12    0.12 
  -1   7 -14    4.32    0.33 
  -2   7 -14    0.54    0.16 
  -3   7 -14    0.98    0.19 
  -4   7 -14    1.51    0.24 
  -5   7 -14    0.00    0.10 
  -6   7 -14    0.50    0.18 
  -7   7 -14    0.06    0.13 
  -8   7 -14   -0.14    0.14 
  -9   7 -14   -0.05    0.13 
  13   6 -14   -0.02    0.16 
  12   6 -14   -0.08    0.15 
  11   6 -14    0.52    0.17 
  10   6 -14    0.15    0.14 
   9   6 -14    0.36    0.15 
   8   6 -14    1.12    0.19 
  -8  -6  14    0.89    0.18 
   7   6 -14    0.19    0.12 
  -7  -6  14    0.43    0.14 
   6   6 -14    0.53    0.13 
  -6  -6  14    0.66    0.15 
   5   6 -14    0.08    0.08 
  -5  -6  14   -0.02    0.10 
   4   6 -14    0.55    0.10 
  -4  -6  14    0.33    0.15 
  -3  -6  14    6.20    0.41 
  -2  -6  14   -0.05    0.10 
  -1  -6  14    1.01    0.20 
   0   6 -14    4.70    0.33 
  -1   6 -14    0.71    0.16 
  -2   6 -14    0.30    0.13 
  -3   6 -14    0.44    0.14 
  -4   6 -14    1.67    0.23 
  -5   6 -14    0.29    0.15 
  -6   6 -14    0.63    0.17 
  -7   6 -14    1.46    0.24 
  -8   6 -14    0.11    0.13 
  -9   6 -14    0.18    0.15 
  14   5 -14    0.12    0.18 
  13   5 -14   -0.03    0.16 
  12   5 -14    0.10    0.16 
  11   5 -14    0.26    0.15 
  10   5 -14   -0.01    0.11 
   9   5 -14    0.03    0.10 
   8   5 -14    2.42    0.25 
  -8  -5  14    2.60    0.25 
   7   5 -14    4.05    0.29 
   7   5 -14    3.72    0.26 
  -7  -5  14    3.95    0.30 
   6   5 -14    2.41    0.22 
  -6  -5  14    2.97    0.27 
  -5  -5  14    0.17    0.11 
  -4  -5  14    0.03    0.10 
  -3  -5  14    1.69    0.23 
  -2  -5  14    4.13    0.32 
   1   5 -14    3.22    0.26 
   0   5 -14    8.12    0.45 
  -1   5 -14    0.00    0.10 
  -2   5 -14    1.05    0.19 
  -3   5 -14    2.68    0.27 
  -4   5 -14   -0.03    0.09 
  -5   5 -14    0.89    0.18 
  -6   5 -14    0.67    0.16 
  -7   5 -14    0.05    0.12 
  -8   5 -14   -0.18    0.11 
  -9   5 -14    0.13    0.14 
 -10   5 -14    0.03    0.16 
  14   4 -14   -0.02    0.18 
  13   4 -14    0.05    0.16 
  12   4 -14   -0.03    0.12 
  11   4 -14    0.33    0.15 
  10   4 -14   -0.04    0.10 
   9   4 -14    1.13    0.19 
   8   4 -14    0.24    0.12 
   8   4 -14    0.50    0.12 
   7   4 -14    0.87    0.15 
  -7  -4  14    1.20    0.18 
   6   4 -14    0.01    0.08 
  -6  -4  14   -0.12    0.07 
  -5  -4  14    0.30    0.12 
  -4  -4  14    0.83    0.16 
  -3  -4  14    4.93    0.34 
   2   4 -14    2.62    0.23 
   1   4 -14    4.34    0.29 
   0   4 -14    0.34    0.13 
  -1   4 -14    0.20    0.12 
  -2   4 -14    2.25    0.24 
  -3   4 -14    2.72    0.26 
  -4   4 -14    0.08    0.09 
  -5   4 -14    0.00    0.10 
  -6   4 -14    0.42    0.14 
  -7   4 -14    0.56    0.16 
  -8   4 -14    0.08    0.12 
  -9   4 -14    0.02    0.13 
 -10   4 -14   -0.05    0.13 
  14   3 -14    0.85    0.24 
  13   3 -14   -0.02    0.14 
  12   3 -14    2.66    0.31 
  11   3 -14    1.54    0.23 
  10   3 -14    0.22    0.13 
   9   3 -14    0.16    0.11 
   9   3 -14    0.22    0.11 
   8   3 -14    0.53    0.13 
   7   3 -14    3.68    0.26 
   6   3 -14    0.07    0.09 
  -6  -3  14    0.11    0.09 
   4   3 -14    6.95    0.36 
   3   3 -14    4.07    0.26 
   2   3 -14    0.85    0.15 
   1   3 -14   12.30    0.55 
   0   3 -14    1.19    0.17 
  -1   3 -14    2.63    0.25 
  -2   3 -14   13.07    0.60 
  -3   3 -14    0.68    0.15 
  -4   3 -14    0.98    0.18 
  -5   3 -14    0.58    0.14 
  -6   3 -14    0.16    0.11 
  -7   3 -14    0.30    0.13 
  -8   3 -14    0.33    0.16 
  -9   3 -14    0.40    0.16 
 -10   3 -14    0.37    0.17 
 -11   3 -14   -0.04    0.13 
  15   2 -14    0.16    0.16 
  14   2 -14    0.12    0.17 
  13   2 -14    0.13    0.15 
  12   2 -14    0.43    0.16 
  11   2 -14    0.18    0.14 
  10   2 -14    0.02    0.10 
  10   2 -14    0.00    0.11 
   9   2 -14    0.28    0.11 
   8   2 -14    1.70    0.20 
   7   2 -14    0.71    0.14 
   6   2 -14    0.27    0.09 
   6   2 -14    0.34    0.11 
   5   2 -14    0.09    0.07 
   5   2 -14   -0.06    0.08 
   4   2 -14    0.63    0.11 
   3   2 -14   15.68    0.64 
   2   2 -14    0.12    0.08 
   1   2 -14    0.00    0.08 
   0   2 -14    1.03    0.16 
  -1   2 -14    0.47    0.12 
  -2   2 -14    0.05    0.09 
  -3   2 -14    1.12    0.18 
  -4   2 -14    2.52    0.25 
  -5   2 -14    0.37    0.12 
  -6   2 -14    0.00    0.09 
  -7   2 -14   -0.10    0.10 
  -8   2 -14   -0.09    0.09 
  -9   2 -14    0.12    0.13 
 -10   2 -14   -0.06    0.12 
 -11   2 -14    0.04    0.15 
  15   1 -14    0.37    0.19 
  14   1 -14   -0.05    0.14 
  13   1 -14   -0.05    0.12 
  12   1 -14    1.35    0.24 
  11   1 -14    0.88    0.17 
  11   1 -14    0.74    0.18 
  10   1 -14    0.22    0.12 
   9   1 -14    0.54    0.14 
   8   1 -14   -0.06    0.09 
   7   1 -14    0.96    0.16 
   6   1 -14    0.09    0.07 
   6   1 -14    0.11    0.10 
   5   1 -14    0.17    0.07 
   5   1 -14    0.20    0.10 
   4   1 -14    0.72    0.12 
   3   1 -14    0.46    0.10 
   2   1 -14    0.03    0.07 
   1   1 -14   10.29    0.47 
   0   1 -14    0.03    0.08 
  -1   1 -14    0.14    0.09 
  -2   1 -14    2.59    0.23 
  -3   1 -14   -0.03    0.08 
  -4   1 -14    0.47    0.14 
  -5   1 -14   -0.04    0.09 
  -6   1 -14    0.05    0.10 
  -7   1 -14   -0.08    0.08 
  -8   1 -14    0.10    0.12 
  -9   1 -14   -0.14    0.10 
 -10   1 -14    0.18    0.13 
 -11   1 -14   -0.12    0.13 
  15   0 -14    0.18    0.16 
  14   0 -14    0.12    0.15 
  13   0 -14    0.60    0.18 
  12   0 -14    0.53    0.16 
  12   0 -14    0.37    0.16 
  11   0 -14    0.56    0.16 
  10   0 -14    0.81    0.18 
   9   0 -14    1.58    0.21 
   8   0 -14    0.38    0.13 
   7   0 -14    0.42    0.13 
   6   0 -14    8.47    0.45 
   6   0 -14    8.40    0.36 
   5   0 -14    3.33    0.26 
   5   0 -14    3.35    0.20 
   4   0 -14    1.76    0.19 
   4   0 -14    2.21    0.16 
   3   0 -14    0.28    0.09 
   2   0 -14    0.46    0.11 
   1   0 -14    7.28    0.36 
   0   0 -14    1.53    0.17 
  -1   0 -14    0.19    0.09 
  -2   0 -14    0.87    0.15 
  -3   0 -14    0.63    0.14 
  -4   0 -14    2.44    0.26 
  -5   0 -14    0.45    0.14 
  -6   0 -14    0.18    0.11 
  -7   0 -14    0.31    0.13 
  -8   0 -14   -0.07    0.09 
  -9   0 -14   -0.07    0.12 
 -10   0 -14    0.61    0.19 
 -11   0 -14    0.25    0.17 
  15  -1 -14    0.22    0.17 
  14  -1 -14    0.12    0.15 
  13  -1 -14   -0.08    0.13 
  13  -1 -14   -0.11    0.12 
  12  -1 -14    1.24    0.21 
  11  -1 -14    1.19    0.21 
  10  -1 -14    0.03    0.11 
   9  -1 -14    0.27    0.13 
   8  -1 -14    0.04    0.10 
   7  -1 -14    0.93    0.17 
   6  -1 -14   -0.12    0.07 
   5  -1 -14   -0.04    0.05 
   5  -1 -14    0.12    0.10 
   4  -1 -14    0.60    0.13 
   4  -1 -14    0.49    0.09 
   3  -1 -14    0.33    0.11 
   3  -1 -14    0.23    0.08 
   2  -1 -14    0.05    0.06 
   1  -1 -14    9.87    0.45 
   0  -1 -14    0.05    0.08 
  -1  -1 -14    0.08    0.09 
  -2  -1 -14    3.24    0.25 
  -3  -1 -14   -0.04    0.08 
  -4  -1 -14    0.38    0.13 
  -5  -1 -14    0.02    0.09 
  -6  -1 -14    0.07    0.10 
  -7  -1 -14    0.03    0.09 
  -8  -1 -14   -0.18    0.11 
  -9  -1 -14   -0.13    0.11 
 -10  -1 -14   -0.13    0.12 
 -11  -1 -14    0.16    0.16 
  15  -2 -14    0.17    0.16 
  14  -2 -14   -0.05    0.16 
  14  -2 -14    0.21    0.15 
  13  -2 -14    0.54    0.19 
  13  -2 -14    0.42    0.17 
  12  -2 -14    0.32    0.16 
  11  -2 -14    0.09    0.13 
  10  -2 -14   -0.04    0.11 
   9  -2 -14    0.44    0.14 
   8  -2 -14    1.56    0.21 
   7  -2 -14    0.54    0.14 
   6  -2 -14    0.24    0.12 
   5  -2 -14   -0.02    0.05 
   5  -2 -14   -0.03    0.10 
   4  -2 -14    0.85    0.11 
   4  -2 -14    0.57    0.14 
   3  -2 -14   15.13    0.60 
   3  -2 -14   14.84    0.67 
   2  -2 -14    0.25    0.11 
   2  -2 -14    0.29    0.09 
   1  -2 -14    0.03    0.06 
   0  -2 -14    0.66    0.13 
  -1  -2 -14    0.46    0.12 
  -2  -2 -14   -0.11    0.08 
  -3  -2 -14    0.81    0.16 
  -4  -2 -14    2.42    0.25 
  -5  -2 -14    0.62    0.15 
  -6  -2 -14   -0.03    0.09 
  -7  -2 -14    0.10    0.12 
  -8  -2 -14    0.18    0.14 
  -9  -2 -14    0.09    0.14 
 -10  -2 -14    0.13    0.13 
 -11  -2 -14    0.03    0.16 
  14  -3 -14    1.02    0.24 
  14  -3 -14    1.16    0.23 
  13  -3 -14   -0.05    0.14 
  12  -3 -14    1.93    0.27 
  11  -3 -14    1.43    0.22 
  10  -3 -14    0.18    0.14 
   9  -3 -14    0.33    0.14 
   8  -3 -14    0.49    0.15 
   7  -3 -14    3.64    0.29 
   6  -3 -14   -0.04    0.10 
   5  -3 -14    0.24    0.13 
   4  -3 -14    6.99    0.32 
   4  -3 -14    6.96    0.40 
   3  -3 -14    4.53    0.31 
   3  -3 -14    4.45    0.25 
   2  -3 -14    0.87    0.16 
   2  -3 -14    0.89    0.13 
   1  -3 -14   11.02    0.49 
   1  -3 -14   10.78    0.53 
   0  -3 -14    1.60    0.18 
  -1  -3 -14    2.45    0.23 
  -2  -3 -14   15.15    0.67 
  -3  -3 -14    0.39    0.13 
  -4  -3 -14    0.73    0.16 
  -5  -3 -14    0.69    0.16 
  -6  -3 -14   -0.07    0.09 
  -7  -3 -14    0.20    0.12 
  -8  -3 -14    0.63    0.18 
  -9  -3 -14    0.58    0.18 
 -10  -3 -14    0.21    0.17 
 -11  -3 -14   -0.14    0.13 
  14  -4 -14   -0.03    0.14 
  14  -4 -14   -0.08    0.17 
  13  -4 -14   -0.01    0.17 
  12  -4 -14    0.14    0.15 
  11  -4 -14    0.45    0.17 
  10  -4 -14    0.01    0.12 
   9  -4 -14    0.84    0.18 
   8  -4 -14    0.37    0.15 
   7  -4 -14    0.99    0.19 
   6  -4 -14   -0.11    0.10 
   5  -4 -14    0.41    0.14 
   4  -4 -14    0.80    0.11 
   4  -4 -14    0.77    0.17 
   3  -4 -14    4.11    0.25 
   3  -4 -14    4.66    0.31 
   2  -4 -14    2.54    0.24 
   2  -4 -14    2.63    0.19 
   1  -4 -14    3.60    0.24 
   1  -4 -14    3.72    0.28 
   0  -4 -14    0.33    0.11 
   0  -4 -14    0.27    0.11 
  -1  -4 -14    0.30    0.12 
  -1  -4 -14    0.43    0.13 
  -2  -4 -14    2.70    0.25 
  -3  -4 -14    2.74    0.26 
  -4  -4 -14    0.13    0.10 
  -5  -4 -14   -0.01    0.10 
  -6  -4 -14    0.31    0.14 
  -7  -4 -14    0.17    0.13 
  -8  -4 -14    0.05    0.11 
  -9  -4 -14    0.44    0.18 
 -10  -4 -14   -0.01    0.14 
  14  -5 -14    0.21    0.21 
  14  -5 -14    0.11    0.15 
  13  -5 -14    0.01    0.18 
  12  -5 -14   -0.07    0.16 
  11  -5 -14    0.07    0.15 
  10  -5 -14   -0.07    0.11 
   9  -5 -14    0.08    0.13 
   8  -5 -14    2.24    0.27 
   7  -5 -14    4.11    0.33 
   6  -5 -14    2.05    0.24 
   5  -5 -14   -0.14    0.11 
   4  -5 -14   -0.11    0.09 
   3  -5 -14    1.80    0.22 
   3  -5 -14    1.62    0.16 
   2  -5 -14    4.34    0.31 
   2  -5 -14    4.02    0.25 
   1  -5 -14    3.70    0.26 
   1  -5 -14    4.17    0.29 
   0  -5 -14    8.02    0.43 
   0  -5 -14    7.45    0.41 
  -1  -5 -14    0.04    0.09 
  -1  -5 -14   -0.09    0.09 
  -2  -5 -14    0.72    0.15 
  -2  -5 -14    0.82    0.16 
  -3  -5 -14    2.23    0.25 
  -4  -5 -14   -0.03    0.10 
  -5  -5 -14    0.93    0.19 
  -6  -5 -14    0.43    0.16 
  -7  -5 -14   -0.09    0.12 
  -8  -5 -14    0.11    0.14 
  -9  -5 -14    0.28    0.15 
 -10  -5 -14    0.21    0.16 
  13  -6 -14   -0.06    0.17 
  12  -6 -14    0.15    0.19 
  11  -6 -14    0.56    0.21 
  10  -6 -14   -0.10    0.12 
   9  -6 -14    0.38    0.16 
   8  -6 -14    0.99    0.21 
   7  -6 -14    0.31    0.14 
   6  -6 -14    0.71    0.18 
   5  -6 -14    0.12    0.12 
   4  -6 -14    0.49    0.15 
   3  -6 -14    6.48    0.40 
   3  -6 -14    6.49    0.34 
   2  -6 -14   -0.14    0.07 
   2  -6 -14   -0.03    0.09 
   1  -6 -14    1.22    0.17 
   1  -6 -14    1.17    0.19 
   0  -6 -14    4.64    0.30 
   0  -6 -14    4.31    0.30 
  -1  -6 -14    1.16    0.17 
  -1  -6 -14    0.67    0.15 
  -2  -6 -14    0.04    0.10 
  -2  -6 -14    0.14    0.11 
  -3  -6 -14    0.30    0.13 
  -3  -6 -14    0.71    0.17 
  -4  -6 -14    1.35    0.22 
  -4  -6 -14    1.77    0.20 
  -5  -6 -14    0.43    0.16 
  -6  -6 -14    0.43    0.16 
  -7  -6 -14    1.41    0.26 
  -8  -6 -14    0.07    0.13 
  -9  -6 -14   -0.05    0.14 
  12  -7 -14    0.28    0.21 
  11  -7 -14    0.28    0.20 
  10  -7 -14    0.27    0.18 
   9  -7 -14    0.07    0.16 
   8  -7 -14    0.09    0.14 
   7  -7 -14    0.54    0.18 
   6  -7 -14    0.61    0.17 
   5  -7 -14   -0.12    0.10 
   4  -7 -14   -0.04    0.11 
   3  -7 -14    0.89    0.17 
   3  -7 -14    0.79    0.15 
   2  -7 -14    0.24    0.11 
   2  -7 -14    0.22    0.13 
   1  -7 -14    0.41    0.12 
   1  -7 -14    0.16    0.11 
   0  -7 -14    0.05    0.09 
   0  -7 -14    0.04    0.10 
  -1  -7 -14    3.67    0.28 
  -1  -7 -14    3.50    0.28 
  -2  -7 -14    0.46    0.14 
  -2  -7 -14    0.44    0.15 
  -3  -7 -14    0.71    0.16 
  -3  -7 -14    0.63    0.16 
  -4  -7 -14    1.12    0.21 
  -5  -7 -14    0.01    0.12 
  -6  -7 -14    0.13    0.14 
  -7  -7 -14    0.14    0.16 
  -8  -7 -14    0.05    0.16 
  -9  -7 -14   -0.03    0.16 
  12  -8 -14    0.17    0.21 
  11  -8 -14   -0.01    0.16 
  10  -8 -14    1.23    0.27 
   9  -8 -14    1.03    0.23 
   8  -8 -14   -0.05    0.12 
   7  -8 -14   -0.14    0.11 
   6  -8 -14    0.42    0.17 
   5  -8 -14    0.08    0.13 
   4  -8 -14    0.14    0.14 
   3  -8 -14    3.05    0.30 
   2  -8 -14    1.48    0.22 
   2  -8 -14    1.67    0.21 
   1  -8 -14    0.13    0.12 
   1  -8 -14    0.05    0.11 
   0  -8 -14    3.36    0.28 
   0  -8 -14    3.17    0.29 
  -1  -8 -14    0.59    0.16 
  -1  -8 -14    0.61    0.16 
  -2  -8 -14    0.48    0.15 
  -2  -8 -14    0.64    0.16 
  -3  -8 -14    1.93    0.26 
  -4  -8 -14    0.88    0.21 
  -5  -8 -14    0.18    0.16 
  -6  -8 -14   -0.10    0.12 
  -7  -8 -14    0.25    0.17 
  -8  -8 -14    0.20    0.18 
  11  -9 -14    0.43    0.23 
  10  -9 -14    0.64    0.23 
   9  -9 -14    0.00    0.15 
   8  -9 -14    0.59    0.20 
   7  -9 -14    0.31    0.15 
   6  -9 -14    0.12    0.15 
   5  -9 -14   -0.03    0.12 
   4  -9 -14    0.34    0.16 
   3  -9 -14    0.07    0.14 
   2  -9 -14    0.07    0.13 
   2  -9 -14    0.08    0.11 
   1  -9 -14    0.19    0.12 
   1  -9 -14    0.16    0.13 
   0  -9 -14    0.28    0.13 
   0  -9 -14   -0.02    0.11 
  -1  -9 -14    0.12    0.13 
  -1  -9 -14    0.30    0.13 
  -2  -9 -14   -0.03    0.11 
  -3  -9 -14   -0.18    0.10 
  -4  -9 -14    0.33    0.17 
  -5  -9 -14    0.09    0.15 
  -6  -9 -14   -0.06    0.15 
  -7  -9 -14    0.16    0.20 
  10 -10 -14    0.22    0.18 
   9 -10 -14   -0.04    0.15 
   8 -10 -14    0.13    0.17 
   7 -10 -14    0.26    0.17 
   6 -10 -14    0.12    0.15 
   5 -10 -14    0.37    0.16 
   4 -10 -14    0.10    0.14 
   3 -10 -14    0.25    0.15 
   2 -10 -14    0.35    0.16 
   1 -10 -14   -0.03    0.11 
   1 -10 -14   -0.04    0.13 
   0 -10 -14    1.36    0.23 
   0 -10 -14    0.87    0.20 
  -1 -10 -14    0.76    0.20 
  -2 -10 -14    0.19    0.14 
  -3 -10 -14    0.84    0.21 
  -4 -10 -14    0.65    0.21 
  -5 -10 -14    0.01    0.16 
  -6 -10 -14    0.04    0.16 
   8 -11 -14    0.51    0.22 
   7 -11 -14    0.91    0.24 
   6 -11 -14    0.45    0.19 
   5 -11 -14   -0.11    0.13 
   4 -11 -14    0.63    0.19 
   3 -11 -14    0.18    0.14 
   2 -11 -14    0.68    0.19 
   1 -11 -14    0.20    0.15 
   0 -11 -14   -0.15    0.11 
  -1 -11 -14    0.20    0.15 
  -2 -11 -14   -0.01    0.13 
  -3 -11 -14   -0.04    0.15 
  -4 -11 -14   -0.03    0.16 
  -5 -11 -14    0.07    0.18 
   6 -12 -14    0.51    0.21 
   5 -12 -14    0.01    0.16 
   4 -12 -14    0.01    0.15 
   3 -12 -14    0.13    0.16 
   0 -12 -14   -0.01    0.16 
  -1 -12 -14    0.08    0.15 
  -2 -12 -14   -0.04    0.17 
  -5 -12  15    0.23    0.19 
  -4 -12  15    0.00    0.16 
  -3 -12  15    0.32    0.19 
  -2 -12  15    0.43    0.20 
  -1 -12  15    0.02    0.18 
   0 -12  15    0.11    0.18 
   1 -12  15    0.22    0.19 
  -7 -11  15    0.68    0.23 
  -6 -11  15    0.46    0.19 
  -5 -11  15    0.06    0.14 
  -4 -11  15    0.14    0.14 
  -3 -11  15    0.03    0.14 
  -2 -11  15    0.05    0.14 
  -1 -11  15    0.26    0.16 
   0 -11  15    0.12    0.15 
   1 -11  15   -0.12    0.13 
  -2  11 -15    0.01    0.13 
  -3  11 -15    0.28    0.18 
  -9 -10  15   -0.13    0.14 
  -8 -10  15    0.12    0.15 
  -7 -10  15    0.02    0.15 
  -6 -10  15    0.07    0.13 
  -5 -10  15    0.03    0.12 
  -4 -10  15    0.08    0.12 
  -3 -10  15    0.58    0.19 
  -2 -10  15   -0.10    0.11 
  -1 -10  15    0.64    0.20 
   0 -10  15    1.50    0.27 
   1 -10  15   -0.21    0.13 
  -2  10 -15    0.22    0.15 
  -3  10 -15    0.10    0.15 
  -4  10 -15    0.03    0.14 
  -5  10 -15    0.14    0.16 
  -9  -9  15   -0.09    0.14 
  -8  -9  15    0.10    0.15 
  -7  -9  15    0.04    0.12 
  -6  -9  15    1.29    0.24 
  -5  -9  15    0.73    0.19 
  -4  -9  15    0.07    0.13 
  -3  -9  15   -0.03    0.10 
  -2  -9  15    0.38    0.16 
  -1  -9  15    0.10    0.12 
   0  -9  15    0.14    0.14 
  -1   9 -15    0.17    0.15 
  -2   9 -15   -0.01    0.13 
  -3   9 -15    0.08    0.12 
  -4   9 -15    0.04    0.13 
  -5   9 -15    0.40    0.17 
  -6   9 -15    0.27    0.17 
  11   8 -15    0.39    0.18 
  10   8 -15   -0.20    0.12 
   9   8 -15    0.71    0.19 
  -8  -8  15    0.15    0.14 
  -7  -8  15   -0.02    0.12 
  -6  -8  15    0.28    0.14 
  -5  -8  15    0.14    0.13 
  -4  -8  15    0.28    0.13 
  -3  -8  15    0.58    0.18 
  -2  -8  15    0.23    0.14 
  -1  -8  15   -0.09    0.10 
   0  -8  15    0.12    0.13 
  -1   8 -15    0.09    0.13 
  -2   8 -15    0.37    0.15 
  -3   8 -15    0.02    0.12 
  -4   8 -15    0.12    0.14 
  -5   8 -15    0.21    0.15 
  -6   8 -15   -0.17    0.12 
  -7   8 -15   -0.08    0.13 
  12   7 -15   -0.08    0.16 
  11   7 -15    0.65    0.19 
  10   7 -15    0.43    0.17 
   9   7 -15    0.90    0.19 
   8   7 -15    0.87    0.18 
  -8  -7  15    1.05    0.20 
   7   7 -15    0.17    0.11 
  -7  -7  15    0.01    0.10 
   6   7 -15    0.78    0.16 
  -6  -7  15    1.09    0.21 
  -5  -7  15    0.27    0.13 
  -4  -7  15    0.19    0.12 
  -3  -7  15    0.10    0.12 
  -2  -7  15    0.95    0.20 
  -1  -7  15    0.12    0.12 
   0   7 -15   -0.05    0.11 
  -1   7 -15    1.00    0.20 
  -2   7 -15    0.66    0.18 
  -3   7 -15    0.09    0.11 
  -4   7 -15    0.25    0.14 
  -5   7 -15    0.28    0.15 
  -6   7 -15    0.05    0.13 
  -7   7 -15    0.33    0.16 
  -8   7 -15    0.11    0.15 
  13   6 -15    0.29    0.19 
  12   6 -15    0.42    0.20 
  11   6 -15    1.09    0.23 
  10   6 -15   -0.03    0.11 
   9   6 -15    0.19    0.13 
   8   6 -15    0.23    0.12 
  -8  -6  15    0.25    0.14 
   7   6 -15    0.27    0.12 
  -7  -6  15    0.19    0.12 
   6   6 -15    0.17    0.11 
  -6  -6  15    0.05    0.11 
   5   6 -15    0.02    0.08 
  -5  -6  15   -0.05    0.10 
   4   6 -15    3.54    0.25 
  -4  -6  15    4.06    0.34 
  -3  -6  15    4.40    0.34 
  -2  -6  15    0.19    0.13 
   1   6 -15    0.42    0.13 
   0   6 -15    1.62    0.22 
  -1   6 -15   -0.02    0.10 
  -2   6 -15    0.43    0.14 
  -3   6 -15    0.11    0.11 
  -4   6 -15   -0.15    0.09 
  -5   6 -15    0.15    0.12 
  -6   6 -15    0.49    0.17 
  -7   6 -15    0.04    0.13 
  -8   6 -15    0.18    0.14 
  -9   6 -15   -0.22    0.12 
  13   5 -15   -0.09    0.17 
  12   5 -15    0.44    0.19 
  11   5 -15    0.36    0.16 
  10   5 -15    0.64    0.17 
   9   5 -15    0.14    0.12 
   8   5 -15    0.36    0.13 
   7   5 -15   -0.05    0.10 
   7   5 -15    0.04    0.08 
  -7  -5  15   -0.05    0.10 
  -6  -5  15    0.12    0.10 
  -5  -5  15    0.33    0.13 
  -4  -5  15    1.33    0.21 
  -3  -5  15    0.75    0.17 
   2   5 -15   11.14    0.55 
   1   5 -15    6.60    0.39 
   0   5 -15    0.22    0.11 
  -1   5 -15    2.41    0.26 
  -2   5 -15    0.05    0.11 
  -3   5 -15    2.35    0.27 
  -4   5 -15    2.90    0.29 
  -5   5 -15    0.05    0.11 
  -6   5 -15    0.17    0.13 
  -7   5 -15    0.67    0.18 
  -8   5 -15    0.26    0.15 
  -9   5 -15   -0.15    0.12 
  14   4 -15    0.07    0.18 
  13   4 -15    0.07    0.18 
  12   4 -15    0.09    0.15 
  11   4 -15    0.14    0.14 
  10   4 -15    1.19    0.21 
   9   4 -15    2.07    0.25 
   8   4 -15    1.13    0.17 
   8   4 -15    1.12    0.18 
   7   4 -15    4.10    0.28 
  -7  -4  15    3.95    0.30 
   6   4 -15    1.46    0.18 
  -6  -4  15    1.68    0.21 
  -5  -4  15    1.04    0.18 
   4   4 -15    7.27    0.39 
   3   4 -15    2.41    0.23 
   2   4 -15    0.50    0.13 
   1   4 -15    6.77    0.39 
   0   4 -15    3.72    0.29 
  -1   4 -15    2.63    0.26 
  -2   4 -15    0.05    0.10 
  -3   4 -15    0.53    0.14 
  -4   4 -15    0.03    0.11 
  -5   4 -15    0.38    0.15 
  -6   4 -15    1.47    0.23 
  -7   4 -15    0.44    0.16 
  -8   4 -15    0.07    0.13 
  -9   4 -15    0.12    0.15 
 -10   4 -15    0.11    0.15 
  14   3 -15    0.08    0.16 
  13   3 -15    0.05    0.14 
  12   3 -15    0.48    0.19 
  11   3 -15    1.38    0.23 
  10   3 -15    0.68    0.17 
   9   3 -15    0.52    0.14 
   8   3 -15    1.41    0.19 
   7   3 -15    0.93    0.13 
   7   3 -15    0.88    0.15 
   6   3 -15    5.28    0.30 
   6   3 -15    5.61    0.34 
   5   3 -15    9.61    0.45 
   4   3 -15    6.09    0.34 
   3   3 -15    7.28    0.39 
   2   3 -15    0.92    0.15 
   1   3 -15    2.71    0.24 
   0   3 -15    0.69    0.15 
  -1   3 -15    0.06    0.10 
  -2   3 -15    2.28    0.24 
  -3   3 -15    2.00    0.24 
  -4   3 -15   -0.03    0.09 
  -5   3 -15   -0.09    0.10 
  -6   3 -15    0.24    0.13 
  -7   3 -15    0.11    0.12 
  -8   3 -15   -0.10    0.11 
  -9   3 -15    0.14    0.14 
 -10   3 -15   -0.11    0.13 
  14   2 -15    0.21    0.17 
  13   2 -15    0.03    0.15 
  12   2 -15    0.81    0.21 
  11   2 -15    0.37    0.16 
  10   2 -15    2.05    0.23 
   9   2 -15    0.90    0.17 
   8   2 -15   -0.14    0.08 
   7   2 -15   11.71    0.56 
   6   2 -15    0.56    0.11 
   6   2 -15    0.41    0.12 
   5   2 -15    3.42    0.26 
   5   2 -15    3.58    0.23 
   4   2 -15    9.33    0.44 
   3   2 -15    0.30    0.10 
   2   2 -15    0.12    0.09 
   1   2 -15    0.15    0.10 
   0   2 -15    0.82    0.15 
  -1   2 -15    0.89    0.16 
  -2   2 -15    2.87    0.27 
  -3   2 -15    0.59    0.15 
  -4   2 -15    0.40    0.13 
  -5   2 -15   -0.11    0.08 
  -6   2 -15    0.30    0.14 
  -7   2 -15    0.41    0.17 
  -8   2 -15   -0.03    0.12 
  -9   2 -15    0.19    0.14 
 -10   2 -15    0.11    0.15 
  14   1 -15    0.34    0.16 
  13   1 -15    0.48    0.18 
  12   1 -15    2.88    0.32 
  11   1 -15    1.17    0.20 
  10   1 -15    0.28    0.13 
   9   1 -15    0.23    0.12 
   8   1 -15    2.65    0.25 
   7   1 -15    1.38    0.18 
   6   1 -15    0.34    0.11 
   6   1 -15    0.52    0.09 
   5   1 -15   19.41    0.83 
   5   1 -15   19.75    0.75 
   4   1 -15   23.75    0.89 
   3   1 -15    2.00    0.18 
   2   1 -15   17.10    0.70 
   1   1 -15   16.60    0.69 
   0   1 -15   -0.01    0.08 
  -1   1 -15    3.31    0.26 
  -2   1 -15    1.78    0.21 
  -3   1 -15    0.46    0.13 
  -4   1 -15    1.45    0.21 
  -5   1 -15    0.30    0.14 
  -6   1 -15    0.11    0.11 
  -7   1 -15    0.46    0.16 
  -8   1 -15    0.23    0.14 
  -9   1 -15    0.09    0.12 
 -10   1 -15   -0.12    0.13 
  14   0 -15    0.01    0.14 
  13   0 -15    0.05    0.14 
  12   0 -15    0.09    0.13 
  12   0 -15   -0.09    0.12 
  11   0 -15   -0.04    0.11 
  10   0 -15   -0.10    0.11 
   9   0 -15   -0.14    0.09 
   8   0 -15    0.12    0.11 
   7   0 -15   -0.04    0.09 
   6   0 -15   -0.05    0.08 
   5   0 -15    0.00    0.08 
   5   0 -15   -0.06    0.06 
   4   0 -15   -0.08    0.06 
   4   0 -15    0.02    0.10 
   3   0 -15    0.07    0.07 
   2   0 -15   -0.05    0.06 
   1   0 -15    0.05    0.08 
   0   0 -15   -0.09    0.07 
  -1   0 -15    0.02    0.08 
  -2   0 -15    0.08    0.09 
  -3   0 -15   -0.07    0.09 
  -4   0 -15   -0.01    0.09 
  -5   0 -15   -0.02    0.09 
  -6   0 -15    0.01    0.09 
  -7   0 -15    0.02    0.11 
  -8   0 -15   -0.11    0.09 
  -9   0 -15   -0.13    0.11 
 -10   0 -15    0.09    0.15 
  14  -1 -15    0.31    0.16 
  13  -1 -15    0.82    0.20 
  13  -1 -15    0.71    0.19 
  12  -1 -15    3.29    0.31 
  11  -1 -15    0.81    0.19 
  10  -1 -15    0.24    0.13 
   9  -1 -15    0.05    0.11 
   8  -1 -15    2.20    0.24 
   7  -1 -15    1.47    0.20 
   6  -1 -15    0.45    0.13 
   5  -1 -15   20.11    0.74 
   5  -1 -15   19.46    0.84 
   4  -1 -15   24.53    0.96 
   4  -1 -15   21.80    0.85 
   3  -1 -15    1.95    0.17 
   3  -1 -15    1.88    0.21 
   2  -1 -15   19.16    0.76 
   1  -1 -15   16.37    0.68 
   0  -1 -15    0.13    0.10 
  -1  -1 -15    3.55    0.26 
  -2  -1 -15    2.05    0.22 
  -3  -1 -15    0.61    0.14 
  -4  -1 -15    0.94    0.17 
  -5  -1 -15    0.09    0.10 
  -6  -1 -15    0.30    0.13 
  -7  -1 -15    0.51    0.16 
  -8  -1 -15    0.36    0.15 
  -9  -1 -15   -0.11    0.12 
 -10  -1 -15    0.09    0.15 
  14  -2 -15    0.12    0.18 
  14  -2 -15    0.27    0.16 
  13  -2 -15   -0.05    0.12 
  13  -2 -15    0.04    0.15 
  12  -2 -15    1.03    0.21 
  11  -2 -15    0.46    0.17 
  10  -2 -15    1.56    0.24 
   9  -2 -15    1.09    0.21 
   8  -2 -15   -0.02    0.10 
   7  -2 -15   10.91    0.56 
   6  -2 -15    0.38    0.13 
   5  -2 -15    4.20    0.31 
   4  -2 -15    8.81    0.40 
   4  -2 -15    9.55    0.48 
   3  -2 -15    0.58    0.10 
   3  -2 -15    0.41    0.13 
   2  -2 -15    0.30    0.09 
   2  -2 -15    0.25    0.12 
   1  -2 -15    0.04    0.08 
   0  -2 -15    0.40    0.11 
  -1  -2 -15    1.17    0.17 
  -2  -2 -15    3.09    0.25 
  -3  -2 -15    0.67    0.15 
  -4  -2 -15    0.32    0.12 
  -5  -2 -15   -0.01    0.10 
  -6  -2 -15    0.38    0.15 
  -7  -2 -15    0.26    0.14 
  -8  -2 -15    0.12    0.13 
  -9  -2 -15    0.25    0.16 
 -10  -2 -15    0.10    0.13 
  14  -3 -15    0.19    0.19 
  14  -3 -15   -0.07    0.13 
  13  -3 -15    0.04    0.16 
  12  -3 -15    0.32    0.16 
  11  -3 -15    1.32    0.24 
  10  -3 -15    0.31    0.15 
   9  -3 -15    0.38    0.16 
   8  -3 -15    1.26    0.21 
   7  -3 -15    1.09    0.20 
   6  -3 -15    5.27    0.36 
   5  -3 -15   11.46    0.57 
   4  -3 -15    6.47    0.40 
   4  -3 -15    7.48    0.34 
   3  -3 -15    7.21    0.35 
   3  -3 -15    7.46    0.42 
   2  -3 -15    0.80    0.13 
   2  -3 -15    0.82    0.16 
   1  -3 -15    2.52    0.20 
   1  -3 -15    2.07    0.22 
   0  -3 -15    0.57    0.13 
  -1  -3 -15    0.06    0.10 
  -2  -3 -15    2.03    0.23 
  -3  -3 -15    1.92    0.23 
  -4  -3 -15    0.04    0.10 
  -5  -3 -15   -0.05    0.10 
  -6  -3 -15    0.16    0.13 
  -7  -3 -15    0.23    0.13 
  -8  -3 -15   -0.04    0.12 
  -9  -3 -15    0.02    0.14 
 -10  -3 -15   -0.26    0.14 
  14  -4 -15    0.25    0.22 
  14  -4 -15    0.14    0.16 
  13  -4 -15    0.00    0.17 
  12  -4 -15    0.14    0.16 
  11  -4 -15    0.35    0.16 
  10  -4 -15    1.23    0.23 
   9  -4 -15    2.23    0.28 
   8  -4 -15    1.03    0.21 
   7  -4 -15    4.63    0.34 
   6  -4 -15    1.47    0.22 
   5  -4 -15    1.14    0.20 
   4  -4 -15    7.33    0.35 
   4  -4 -15    7.27    0.43 
   3  -4 -15    2.33    0.24 
   3  -4 -15    2.75    0.19 
   2  -4 -15    0.63    0.15 
   2  -4 -15    0.35    0.10 
   1  -4 -15    6.34    0.39 
   1  -4 -15    6.77    0.36 
   0  -4 -15    3.10    0.24 
   0  -4 -15    2.80    0.26 
  -1  -4 -15    1.99    0.22 
  -1  -4 -15    2.06    0.22 
  -2  -4 -15   -0.17    0.07 
  -3  -4 -15    0.82    0.17 
  -4  -4 -15   -0.02    0.10 
  -5  -4 -15    0.38    0.14 
  -6  -4 -15    1.19    0.22 
  -7  -4 -15    0.24    0.15 
  -8  -4 -15    0.10    0.14 
  -9  -4 -15    0.19    0.17 
 -10  -4 -15    0.10    0.17 
  13  -5 -15   -0.27    0.16 
  12  -5 -15    0.21    0.19 
  11  -5 -15    0.55    0.19 
  10  -5 -15    0.37    0.17 
   9  -5 -15   -0.11    0.12 
   8  -5 -15    0.05    0.13 
   7  -5 -15   -0.11    0.10 
   6  -5 -15    0.23    0.13 
   5  -5 -15    0.26    0.13 
   4  -5 -15    1.10    0.20 
   3  -5 -15    0.85    0.17 
   3  -5 -15    0.68    0.11 
   2  -5 -15   12.35    0.58 
   2  -5 -15   10.73    0.51 
   1  -5 -15    5.76    0.36 
   1  -5 -15    5.94    0.34 
   0  -5 -15    0.25    0.11 
   0  -5 -15    0.17    0.11 
  -1  -5 -15    2.20    0.23 
  -1  -5 -15    2.34    0.23 
  -2  -5 -15   -0.10    0.09 
  -2  -5 -15    0.02    0.09 
  -3  -5 -15    2.66    0.27 
  -3  -5 -15    2.52    0.24 
  -4  -5 -15    2.31    0.27 
  -5  -5 -15    0.14    0.13 
  -6  -5 -15    0.21    0.15 
  -7  -5 -15    0.74    0.20 
  -8  -5 -15    0.27    0.16 
  -9  -5 -15    0.06    0.17 
  13  -6 -15    0.08    0.20 
  12  -6 -15    0.42    0.20 
  11  -6 -15    0.68    0.22 
  10  -6 -15    0.04    0.14 
   9  -6 -15   -0.05    0.14 
   8  -6 -15    0.37    0.17 
   7  -6 -15    0.03    0.12 
   6  -6 -15    0.28    0.14 
   5  -6 -15   -0.17    0.08 
   4  -6 -15    4.31    0.33 
   3  -6 -15    4.56    0.33 
   3  -6 -15    3.74    0.26 
   2  -6 -15    0.32    0.14 
   2  -6 -15    0.36    0.11 
   1  -6 -15    0.62    0.16 
   1  -6 -15    0.62    0.14 
   0  -6 -15    1.55    0.20 
   0  -6 -15    1.75    0.21 
  -1  -6 -15    0.06    0.09 
  -1  -6 -15    0.20    0.11 
  -2  -6 -15    0.47    0.14 
  -2  -6 -15    0.35    0.13 
  -3  -6 -15    0.30    0.14 
  -3  -6 -15    0.37    0.14 
  -4  -6 -15   -0.03    0.11 
  -4  -6 -15    0.13    0.11 
  -5  -6 -15    0.10    0.13 
  -6  -6 -15    0.22    0.15 
  -7  -6 -15   -0.08    0.14 
  -8  -6 -15    0.11    0.14 
  -9  -6 -15   -0.12    0.14 
  12  -7 -15    0.04    0.20 
  11  -7 -15    0.74    0.24 
  10  -7 -15    0.15    0.19 
   9  -7 -15    0.90    0.22 
   8  -7 -15    0.86    0.21 
   7  -7 -15    0.09    0.14 
   6  -7 -15    0.80    0.20 
   5  -7 -15   -0.02    0.11 
   4  -7 -15    0.08    0.12 
   3  -7 -15    0.36    0.14 
   2  -7 -15    1.00    0.17 
   2  -7 -15    1.16    0.20 
   1  -7 -15    0.42    0.14 
   1  -7 -15    0.35    0.13 
   0  -7 -15    0.01    0.11 
   0  -7 -15    0.12    0.10 
  -1  -7 -15    0.78    0.17 
  -1  -7 -15    0.96    0.18 
  -2  -7 -15    0.89    0.18 
  -2  -7 -15    0.72    0.16 
  -3  -7 -15    0.08    0.12 
  -3  -7 -15    0.12    0.12 
  -4  -7 -15    0.11    0.13 
  -5  -7 -15    0.12    0.14 
  -6  -7 -15    0.02    0.14 
  -7  -7 -15    0.54    0.20 
  -8  -7 -15    0.09    0.17 
  11  -8 -15    0.00    0.19 
  10  -8 -15   -0.18    0.16 
   9  -8 -15    0.91    0.23 
   8  -8 -15    0.18    0.14 
   7  -8 -15    0.26    0.15 
   6  -8 -15    0.29    0.16 
   5  -8 -15    0.22    0.15 
   4  -8 -15    0.38    0.16 
   3  -8 -15    0.56    0.17 
   2  -8 -15    0.18    0.12 
   2  -8 -15    0.41    0.15 
   1  -8 -15    0.06    0.12 
   1  -8 -15    0.07    0.10 
   0  -8 -15    0.22    0.13 
   0  -8 -15    0.10    0.11 
  -1  -8 -15    0.26    0.13 
  -1  -8 -15    0.22    0.13 
  -2  -8 -15    0.45    0.15 
  -2  -8 -15    0.32    0.15 
  -3  -8 -15    0.03    0.12 
  -4  -8 -15    0.02    0.13 
  -5  -8 -15    0.40    0.17 
  -6  -8 -15   -0.10    0.14 
  -7  -8 -15    0.02    0.17 
  10  -9 -15    0.25    0.20 
   9  -9 -15    0.21    0.18 
   8  -9 -15    0.07    0.14 
   7  -9 -15   -0.03    0.13 
   6  -9 -15    1.28    0.25 
   5  -9 -15    1.10    0.23 
   4  -9 -15    0.06    0.13 
   3  -9 -15    0.02    0.12 
   2  -9 -15    0.08    0.13 
   1  -9 -15    0.00    0.12 
   1  -9 -15   -0.14    0.09 
   0  -9 -15    0.13    0.13 
   0  -9 -15   -0.08    0.11 
  -1  -9 -15    0.22    0.14 
  -1  -9 -15    0.09    0.14 
  -2  -9 -15    0.09    0.13 
  -3  -9 -15    0.07    0.14 
  -4  -9 -15   -0.09    0.13 
  -5  -9 -15    0.18    0.17 
  -6  -9 -15    0.18    0.18 
   9 -10 -15    0.18    0.17 
   8 -10 -15   -0.08    0.15 
   7 -10 -15    0.02    0.16 
   6 -10 -15   -0.04    0.13 
   5 -10 -15    0.10    0.15 
   4 -10 -15   -0.07    0.13 
   3 -10 -15    0.61    0.19 
   2 -10 -15    0.08    0.14 
   1 -10 -15    0.43    0.17 
   1 -10 -15    0.23    0.13 
   0 -10 -15    1.46    0.24 
  -1 -10 -15   -0.02    0.12 
  -2 -10 -15    0.40    0.17 
  -3 -10 -15    0.12    0.16 
  -4 -10 -15   -0.25    0.12 
  -5 -10 -15    0.27    0.20 
   7 -11 -15    0.39    0.21 
   6 -11 -15    0.63    0.21 
   5 -11 -15   -0.16    0.13 
   4 -11 -15    0.15    0.15 
   3 -11 -15    0.21    0.15 
   2 -11 -15    0.00    0.15 
   0 -11 -15   -0.15    0.12 
  -1 -11 -15    0.16    0.15 
  -2 -11 -15   -0.05    0.15 
  -3 -11 -15    0.07    0.17 
   5 -12 -15    0.41    0.19 
   4 -12 -15   -0.08    0.17 
   3 -12 -15    0.59    0.22 
  -1 -12 -15    0.12    0.17 
  -6 -11  16    0.09    0.15 
  -5 -11  16    0.08    0.15 
  -4 -11  16    0.28    0.17 
  -3 -11  16    0.08    0.15 
  -2 -11  16    0.04    0.15 
  -1 -11  16   -0.29    0.13 
   0 -11  16    0.03    0.17 
  -1  11 -16    0.45    0.19 
  -2  11 -16   -0.07    0.16 
  -8 -10  16   -0.18    0.13 
  -7 -10  16    0.09    0.15 
  -6 -10  16    0.31    0.17 
  -5 -10  16    0.25    0.17 
  -4 -10  16    0.10    0.13 
  -3 -10  16    0.02    0.13 
  -2 -10  16    0.24    0.15 
  -1 -10  16    0.02    0.14 
   0 -10  16    0.22    0.17 
  -1  10 -16   -0.02    0.15 
  -2  10 -16    0.15    0.16 
  -3  10 -16    0.17    0.17 
  -4  10 -16   -0.02    0.14 
  -8  -9  16    0.09    0.14 
  -7  -9  16    0.07    0.14 
  -6  -9  16    0.09    0.13 
  -5  -9  16    0.18    0.13 
  -4  -9  16    0.12    0.14 
  -3  -9  16   -0.06    0.12 
  -2  -9  16    0.01    0.14 
  -1  -9  16    0.08    0.13 
   0   9 -16    0.00    0.12 
   0  -9  16   -0.14    0.10 
  -1   9 -16    0.20    0.15 
  -2   9 -16    0.20    0.15 
  -3   9 -16    0.04    0.14 
  -4   9 -16   -0.01    0.14 
  -5   9 -16   -0.13    0.13 
  11   8 -16    0.20    0.18 
  10   8 -16    0.19    0.16 
  -8  -8  16    0.01    0.12 
  -7  -8  16    0.87    0.22 
  -6  -8  16    0.11    0.13 
  -5  -8  16    0.41    0.16 
  -4  -8  16   -0.08    0.12 
  -3  -8  16    0.11    0.12 
  -2  -8  16    1.08    0.22 
  -1  -8  16    2.06    0.30 
   0   8 -16    0.87    0.20 
  -1   8 -16    0.03    0.13 
  -2   8 -16    0.29    0.15 
  -3   8 -16   -0.18    0.10 
  -4   8 -16    0.14    0.15 
  -5   8 -16    0.25    0.16 
  -6   8 -16   -0.06    0.13 
  -7   8 -16    0.20    0.18 
  12   7 -16   -0.10    0.16 
  11   7 -16    0.13    0.16 
  10   7 -16   -0.02    0.13 
   9   7 -16    1.07    0.21 
   8   7 -16    0.59    0.17 
  -8  -7  16    0.78    0.20 
   7   7 -16    0.66    0.16 
  -7  -7  16    0.52    0.16 
  -6  -7  16    0.13    0.13 
  -5  -7  16    0.24    0.15 
  -4  -7  16    2.14    0.28 
  -3  -7  16    1.28    0.23 
  -2  -7  16    0.75    0.18 
   1   7 -16   -0.02    0.11 
   0   7 -16    0.43    0.15 
  -1   7 -16    0.07    0.11 
  -2   7 -16   -0.06    0.10 
  -3   7 -16   -0.16    0.11 
  -4   7 -16    0.58    0.18 
  -5   7 -16    0.63    0.17 
  -6   7 -16    0.18    0.15 
  -7   7 -16   -0.03    0.12 
  12   6 -16   -0.12    0.15 
  11   6 -16    0.06    0.14 
  10   6 -16    0.85    0.20 
   9   6 -16    0.57    0.16 
   8   6 -16    0.00    0.11 
   7   6 -16    0.86    0.17 
  -7  -6  16    0.80    0.19 
   6   6 -16   -0.11    0.09 
  -6  -6  16   -0.02    0.10 
   5   6 -16    1.91    0.21 
  -5  -6  16    2.10    0.27 
  -4  -6  16    1.10    0.20 
  -3  -6  16    0.16    0.12 
   2   6 -16    1.86    0.24 
   1   6 -16    4.70    0.34 
   0   6 -16    1.22    0.20 
  -1   6 -16    0.28    0.13 
  -2   6 -16    0.28    0.14 
  -3   6 -16    0.07    0.11 
  -4   6 -16   -0.01    0.11 
  -5   6 -16    0.34    0.15 
  -6   6 -16    0.28    0.15 
  -7   6 -16   -0.03    0.12 
  -8   6 -16    0.00    0.15 
  13   5 -16   -0.24    0.16 
  12   5 -16    0.67    0.22 
  11   5 -16    0.77    0.19 
  10   5 -16    0.08    0.13 
   9   5 -16    2.35    0.27 
   8   5 -16   -0.09    0.10 
   7   5 -16    0.96    0.17 
   7   5 -16    1.27    0.18 
  -7  -5  16    1.16    0.20 
  -6  -5  16    3.17    0.30 
  -5  -5  16   -0.01    0.10 
  -4  -5  16    2.56    0.28 
   3   5 -16    7.40    0.42 
   2   5 -16    1.25    0.19 
   1   5 -16    0.51    0.15 
   0   5 -16    0.73    0.17 
  -1   5 -16    0.80    0.17 
  -2   5 -16    0.98    0.20 
  -3   5 -16    1.07    0.21 
  -4   5 -16    1.24    0.21 
  -5   5 -16    0.60    0.18 
  -6   5 -16   -0.07    0.13 
  -7   5 -16    0.52    0.17 
  -8   5 -16    0.04    0.13 
  -9   5 -16    0.12    0.16 
  13   4 -16    0.08    0.18 
  12   4 -16    0.88    0.22 
  11   4 -16   -0.03    0.12 
  10   4 -16    1.08    0.21 
   9   4 -16    1.23    0.21 
   8   4 -16    0.22    0.12 
   7   4 -16   -0.06    0.09 
  -7  -4  16    0.07    0.11 
   6   4 -16    1.47    0.18 
   6   4 -16    1.23    0.18 
   5   4 -16    1.67    0.20 
   4   4 -16    0.53    0.14 
   3   4 -16    0.11    0.10 
   2   4 -16    0.22    0.11 
   1   4 -16    0.83    0.17 
   0   4 -16    0.13    0.11 
  -1   4 -16    0.36    0.13 
  -2   4 -16    0.03    0.10 
  -3   4 -16    0.57    0.15 
  -4   4 -16    1.09    0.21 
  -5   4 -16    0.14    0.13 
  -6   4 -16    0.37    0.14 
  -7   4 -16    0.08    0.13 
  -8   4 -16    0.12    0.14 
  -9   4 -16    0.10    0.15 
  14   3 -16   -0.08    0.15 
  13   3 -16    0.73    0.22 
  12   3 -16    1.20    0.23 
  11   3 -16    0.47    0.16 
  10   3 -16    0.41    0.16 
   9   3 -16    0.35    0.14 
   8   3 -16    0.01    0.10 
   7   3 -16    0.45    0.13 
   6   3 -16    0.14    0.10 
   6   3 -16   -0.03    0.08 
   5   3 -16    0.38    0.11 
   4   3 -16   -0.04    0.08 
   3   3 -16    7.84    0.42 
   2   3 -16   18.30    0.77 
   1   3 -16    1.64    0.21 
   0   3 -16    3.38    0.27 
  -1   3 -16    4.06    0.30 
  -2   3 -16    0.31    0.11 
  -3   3 -16    1.08    0.19 
  -4   3 -16    1.18    0.21 
  -5   3 -16    0.22    0.13 
  -6   3 -16    0.02    0.11 
  -7   3 -16    0.28    0.14 
  -8   3 -16    0.25    0.16 
  -9   3 -16    0.05    0.14 
  14   2 -16    0.14    0.17 
  13   2 -16    0.14    0.16 
  12   2 -16    0.01    0.14 
  11   2 -16    0.20    0.15 
  10   2 -16    0.65    0.17 
   9   2 -16    0.07    0.11 
   8   2 -16    0.30    0.13 
   7   2 -16    2.54    0.24 
   6   2 -16    2.11    0.22 
   6   2 -16    2.13    0.19 
   5   2 -16    0.44    0.11 
   5   2 -16    0.39    0.12 
   4   2 -16    0.02    0.08 
   3   2 -16    0.36    0.11 
   2   2 -16    0.45    0.13 
   1   2 -16   -0.13    0.07 
   0   2 -16    0.26    0.12 
  -1   2 -16    0.09    0.10 
  -2   2 -16    0.25    0.12 
  -3   2 -16    0.60    0.16 
  -4   2 -16    0.07    0.10 
  -5   2 -16    0.69    0.17 
  -6   2 -16    0.10    0.12 
  -7   2 -16    0.12    0.14 
  -8   2 -16    0.71    0.20 
  -9   2 -16    0.44    0.17 
 -10   2 -16   -0.09    0.14 
  14   1 -16   -0.04    0.16 
  13   1 -16    0.78    0.21 
  12   1 -16    0.59    0.19 
  11   1 -16   -0.04    0.13 
  10   1 -16    0.22    0.13 
   9   1 -16    1.23    0.20 
   8   1 -16    0.10    0.12 
   7   1 -16    0.86    0.17 
   6   1 -16    0.86    0.17 
   5   1 -16    0.58    0.11 
   5   1 -16    0.64    0.14 
   4   1 -16    1.80    0.18 
   3   1 -16    0.00    0.07 
   2   1 -16    1.43    0.18 
   1   1 -16    1.57    0.19 
   0   1 -16    1.86    0.21 
  -1   1 -16    3.77    0.28 
  -2   1 -16    0.07    0.10 
  -3   1 -16   -0.02    0.08 
  -4   1 -16    0.12    0.11 
  -5   1 -16   -0.01    0.11 
  -6   1 -16    0.06    0.11 
  -7   1 -16   -0.09    0.11 
  -8   1 -16    0.04    0.13 
  -9   1 -16    0.37    0.18 
 -10   1 -16   -0.05    0.13 
  14   0 -16    0.21    0.17 
  13   0 -16    0.59    0.19 
  12   0 -16    0.69    0.19 
  11   0 -16    1.09    0.20 
  10   0 -16    5.29    0.37 
   9   0 -16    4.99    0.35 
   8   0 -16    1.92    0.24 
   7   0 -16    3.03    0.25 
   6   0 -16    0.66    0.15 
   5   0 -16    4.06    0.24 
   5   0 -16    4.16    0.30 
   4   0 -16    0.32    0.09 
   4   0 -16    0.39    0.13 
   3   0 -16    0.13    0.08 
   2   0 -16    0.27    0.10 
   1   0 -16   16.75    0.70 
   0   0 -16    0.25    0.11 
  -1   0 -16    2.52    0.24 
  -2   0 -16    0.85    0.17 
  -3   0 -16    2.38    0.27 
  -4   0 -16    1.23    0.21 
  -5   0 -16    0.56    0.16 
  -6   0 -16    0.21    0.13 
  -7   0 -16    0.52    0.17 
  -8   0 -16    1.01    0.21 
  -9   0 -16    0.49    0.19 
 -10   0 -16    0.39    0.20 
  14  -1 -16    0.09    0.16 
  13  -1 -16    0.82    0.22 
  13  -1 -16    1.00    0.23 
  12  -1 -16    0.36    0.16 
  11  -1 -16    0.09    0.13 
  10  -1 -16   -0.02    0.13 
   9  -1 -16    0.88    0.19 
   8  -1 -16    0.01    0.10 
   7  -1 -16    0.75    0.16 
   6  -1 -16    1.41    0.20 
   5  -1 -16    0.50    0.10 
   5  -1 -16    0.46    0.14 
   4  -1 -16    1.87    0.22 
   4  -1 -16    1.85    0.17 
   3  -1 -16   -0.09    0.09 
   3  -1 -16   -0.04    0.06 
   2  -1 -16    1.62    0.18 
   1  -1 -16    1.68    0.20 
   0  -1 -16    2.04    0.22 
  -1  -1 -16    4.06    0.29 
  -2  -1 -16    0.04    0.09 
  -3  -1 -16   -0.08    0.08 
  -4  -1 -16   -0.20    0.07 
  -5  -1 -16    0.08    0.11 
  -6  -1 -16   -0.09    0.09 
  -7  -1 -16    0.10    0.12 
  -8  -1 -16    0.00    0.12 
  -9  -1 -16   -0.07    0.12 
 -10  -1 -16    0.04    0.16 
  14  -2 -16    0.10    0.16 
  14  -2 -16    0.21    0.20 
  13  -2 -16    0.07    0.15 
  12  -2 -16    0.05    0.15 
  11  -2 -16    0.20    0.15 
  10  -2 -16    0.39    0.17 
   9  -2 -16    0.18    0.14 
   8  -2 -16    0.56    0.16 
   7  -2 -16    2.36    0.26 
   6  -2 -16    2.29    0.25 
   5  -2 -16    0.20    0.12 
   4  -2 -16   -0.11    0.08 
   4  -2 -16    0.05    0.06 
   3  -2 -16    0.24    0.08 
   3  -2 -16    0.17    0.12 
   2  -2 -16    0.43    0.14 
   2  -2 -16    0.52    0.12 
   1  -2 -16    0.01    0.08 
   0  -2 -16    0.25    0.11 
  -1  -2 -16   -0.02    0.09 
  -2  -2 -16    0.10    0.09 
  -3  -2 -16    0.53    0.15 
  -4  -2 -16   -0.01    0.09 
  -5  -2 -16    0.33    0.14 
  -6  -2 -16   -0.05    0.12 
  -7  -2 -16    0.36    0.15 
  -8  -2 -16    0.66    0.19 
  -9  -2 -16    0.31    0.16 
 -10  -2 -16    0.12    0.15 
  14  -3 -16    0.17    0.16 
  14  -3 -16    0.28    0.21 
  13  -3 -16    1.29    0.27 
  12  -3 -16    1.03    0.22 
  11  -3 -16    0.29    0.17 
  10  -3 -16    0.89    0.21 
   9  -3 -16    0.25    0.15 
   8  -3 -16   -0.18    0.09 
   7  -3 -16    0.51    0.16 
   6  -3 -16   -0.07    0.09 
   5  -3 -16    0.59    0.15 
   4  -3 -16    0.08    0.06 
   4  -3 -16    0.15    0.10 
   3  -3 -16    6.93    0.35 
   3  -3 -16    7.03    0.41 
   2  -3 -16   17.98    0.78 
   2  -3 -16   16.26    0.69 
   1  -3 -16    1.08    0.16 
   1  -3 -16    1.24    0.19 
   0  -3 -16    2.78    0.25 
  -1  -3 -16    3.73    0.28 
  -2  -3 -16    0.49    0.14 
  -3  -3 -16    0.88    0.17 
  -4  -3 -16    1.10    0.20 
  -5  -3 -16   -0.01    0.11 
  -6  -3 -16   -0.08    0.12 
  -7  -3 -16    0.09    0.14 
  -8  -3 -16    0.03    0.13 
  -9  -3 -16    0.03    0.15 
  13  -4 -16    0.07    0.19 
  12  -4 -16    1.13    0.25 
  11  -4 -16    0.01    0.15 
  10  -4 -16    0.83    0.21 
   9  -4 -16    1.71    0.27 
   8  -4 -16    0.04    0.14 
   7  -4 -16    0.13    0.13 
   6  -4 -16    1.43    0.22 
   5  -4 -16    1.76    0.23 
   4  -4 -16    0.61    0.15 
   3  -4 -16    0.10    0.07 
   3  -4 -16    0.01    0.11 
   2  -4 -16    0.16    0.11 
   2  -4 -16    0.16    0.09 
   1  -4 -16    1.04    0.16 
   1  -4 -16    0.88    0.17 
   0  -4 -16    0.19    0.11 
   0  -4 -16    0.21    0.11 
  -1  -4 -16    0.17    0.10 
  -1  -4 -16    0.39    0.13 
  -2  -4 -16    0.03    0.10 
  -3  -4 -16    0.57    0.16 
  -4  -4 -16    0.79    0.19 
  -5  -4 -16   -0.03    0.11 
  -6  -4 -16    0.32    0.16 
  -7  -4 -16    0.25    0.17 
  -8  -4 -16   -0.19    0.11 
  -9  -4 -16    0.16    0.17 
  13  -5 -16   -0.05    0.19 
  12  -5 -16    1.01    0.26 
  11  -5 -16    0.53    0.19 
  10  -5 -16    0.08    0.15 
   9  -5 -16    2.67    0.31 
   8  -5 -16    0.00    0.12 
   7  -5 -16    1.91    0.27 
   6  -5 -16    3.44    0.32 
   5  -5 -16   -0.08    0.10 
   4  -5 -16    2.81    0.28 
   3  -5 -16    7.57    0.39 
   3  -5 -16    7.99    0.46 
   2  -5 -16    1.30    0.19 
   2  -5 -16    1.02    0.16 
   1  -5 -16    0.73    0.16 
   1  -5 -16    1.09    0.17 
   0  -5 -16    0.95    0.18 
   0  -5 -16    1.03    0.18 
  -1  -5 -16    0.78    0.16 
  -1  -5 -16    0.69    0.15 
  -2  -5 -16    1.19    0.18 
  -2  -5 -16    1.12    0.19 
  -3  -5 -16    0.97    0.18 
  -3  -5 -16    0.98    0.19 
  -4  -5 -16    1.40    0.22 
  -5  -5 -16    1.15    0.22 
  -6  -5 -16    0.10    0.14 
  -7  -5 -16    0.20    0.15 
  -8  -5 -16    0.06    0.15 
  -9  -5 -16   -0.06    0.14 
  12  -6 -16    0.08    0.19 
  11  -6 -16    0.04    0.17 
  10  -6 -16    0.73    0.21 
   9  -6 -16    0.56    0.19 
   8  -6 -16    0.16    0.15 
   7  -6 -16    0.68    0.19 
   6  -6 -16   -0.08    0.13 
   5  -6 -16    2.04    0.26 
   4  -6 -16    0.63    0.17 
   3  -6 -16    0.05    0.12 
   2  -6 -16    2.00    0.25 
   2  -6 -16    1.87    0.21 
   1  -6 -16    5.00    0.33 
   1  -6 -16    5.32    0.36 
   0  -6 -16    1.36    0.20 
   0  -6 -16    1.29    0.19 
  -1  -6 -16    0.14    0.11 
  -1  -6 -16    0.09    0.10 
  -2  -6 -16    0.21    0.12 
  -2  -6 -16    0.21    0.12 
  -3  -6 -16    0.30    0.12 
  -3  -6 -16    0.39    0.15 
  -4  -6 -16   -0.17    0.10 
  -4  -6 -16    0.14    0.10 
  -5  -6 -16    0.20    0.16 
  -6  -6 -16    0.19    0.16 
  -7  -6 -16   -0.03    0.15 
  -8  -6 -16   -0.10    0.14 
  12  -7 -16   -0.05    0.19 
  11  -7 -16    0.31    0.22 
  10  -7 -16   -0.02    0.17 
   9  -7 -16    0.54    0.21 
   8  -7 -16    0.46    0.18 
   7  -7 -16    0.71    0.20 
   6  -7 -16   -0.03    0.13 
   5  -7 -16    0.06    0.13 
   4  -7 -16    1.94    0.26 
   3  -7 -16    1.58    0.24 
   2  -7 -16    0.71    0.18 
   2  -7 -16    0.82    0.16 
   1  -7 -16    0.21    0.13 
   1  -7 -16    0.08    0.11 
   0  -7 -16    0.18    0.10 
   0  -7 -16    0.37    0.14 
  -1  -7 -16   -0.04    0.10 
  -1  -7 -16    0.23    0.13 
  -2  -7 -16   -0.04    0.09 
  -2  -7 -16   -0.01    0.09 
  -3  -7 -16    0.18    0.13 
  -3  -7 -16    0.09    0.12 
  -4  -7 -16    0.50    0.17 
  -5  -7 -16    0.10    0.13 
  -6  -7 -16    0.01    0.15 
  -7  -7 -16   -0.12    0.16 
  11  -8 -16    0.06    0.20 
  10  -8 -16    0.04    0.18 
   9  -8 -16   -0.05    0.13 
   8  -8 -16   -0.03    0.14 
   7  -8 -16    0.87    0.22 
   6  -8 -16    0.44    0.18 
   5  -8 -16    0.29    0.16 
   4  -8 -16    0.24    0.15 
   3  -8 -16    0.12    0.14 
   2  -8 -16    0.91    0.20 
   1  -8 -16    2.36    0.27 
   1  -8 -16    1.92    0.24 
   0  -8 -16    0.95    0.20 
   0  -8 -16    1.11    0.21 
  -1  -8 -16   -0.08    0.10 
  -1  -8 -16    0.04    0.12 
  -2  -8 -16    0.37    0.16 
  -2  -8 -16    0.34    0.15 
  -3  -8 -16   -0.14    0.12 
  -4  -8 -16    0.03    0.14 
  -5  -8 -16    0.29    0.18 
  -6  -8 -16    0.53    0.22 
  -7  -8 -16    0.19    0.19 
  10  -9 -16    0.10    0.17 
   9  -9 -16    0.26    0.19 
   8  -9 -16   -0.02    0.14 
   7  -9 -16   -0.04    0.13 
   6  -9 -16    0.19    0.16 
   5  -9 -16   -0.16    0.14 
   4  -9 -16    0.00    0.12 
   3  -9 -16   -0.13    0.13 
   2  -9 -16   -0.07    0.12 
   1  -9 -16   -0.03    0.13 
   1  -9 -16    0.24    0.12 
   0  -9 -16   -0.04    0.11 
   0  -9 -16    0.07    0.14 
  -1  -9 -16    0.37    0.16 
  -2  -9 -16    0.09    0.13 
  -3  -9 -16    0.06    0.15 
  -4  -9 -16    0.24    0.18 
  -5  -9 -16   -0.14    0.16 
   8 -10 -16    0.14    0.18 
   7 -10 -16    0.17    0.18 
   6 -10 -16    0.80    0.22 
   5 -10 -16    0.15    0.16 
   4 -10 -16    0.23    0.17 
   3 -10 -16   -0.08    0.13 
   2 -10 -16    0.01    0.13 
   1 -10 -16   -0.06    0.13 
   0 -10 -16    0.04    0.15 
  -1 -10 -16    0.30    0.16 
  -2 -10 -16    0.42    0.19 
  -3 -10 -16    0.10    0.16 
  -4 -10 -16    0.17    0.19 
   6 -11 -16    0.14    0.18 
   5 -11 -16    0.04    0.17 
   4 -11 -16    0.12    0.17 
   3 -11 -16    0.29    0.17 
   2 -11 -16   -0.09    0.15 
   0 -11 -16    0.14    0.18 
  -1 -11 -16    0.25    0.17 
  -2 -11 -16   -0.06    0.16 
  -4 -11  17    0.00    0.16 
  -3 -11  17    0.10    0.17 
  -2 -11  17    0.47    0.22 
  -1 -11  17    0.35    0.20 
   0  11 -17    0.14    0.18 
  -7 -10  17    0.13    0.16 
  -6 -10  17    0.24    0.17 
  -5 -10  17    0.75    0.22 
  -4 -10  17    1.18    0.25 
  -3 -10  17    0.49    0.19 
  -2 -10  17    0.06    0.15 
  -1 -10  17    0.06    0.15 
   0  10 -17    0.09    0.17 
  -1  10 -17    0.30    0.18 
  -2  10 -17    0.14    0.17 
  -3  10 -17    0.00    0.16 
  -8  -9  17   -0.07    0.13 
  -7  -9  17    1.23    0.25 
  -6  -9  17    0.76    0.21 
  -5  -9  17    0.48    0.17 
  -4  -9  17    1.45    0.26 
  -3  -9  17    0.61    0.19 
  -2  -9  17   -0.08    0.12 
   1   9 -17   -0.06    0.12 
   0   9 -17   -0.05    0.13 
  -1   9 -17    0.22    0.17 
  -2   9 -17    0.06    0.14 
  -3   9 -17    0.79    0.21 
  -4   9 -17    0.63    0.21 
  -8  -8  17    0.30    0.19 
  -7  -8  17    0.17    0.14 
  -6  -8  17    0.05    0.14 
  -5  -8  17    0.44    0.17 
  -4  -8  17    0.16    0.13 
  -3  -8  17    0.35    0.17 
  -2  -8  17    0.33    0.17 
   1   8 -17   -0.07    0.12 
   0   8 -17    0.21    0.15 
  -1   8 -17    0.05    0.14 
  -2   8 -17    0.03    0.14 
  -3   8 -17    0.21    0.13 
  -4   8 -17    0.16    0.16 
  -5   8 -17    0.00    0.14 
  -6   8 -17    0.29    0.19 
  11   7 -17    0.00    0.15 
  10   7 -17    0.94    0.22 
   9   7 -17    0.59    0.18 
   8   7 -17   -0.22    0.10 
  -7  -7  17    0.97    0.22 
  -6  -7  17    0.14    0.14 
  -5  -7  17    0.67    0.19 
  -4  -7  17    0.19    0.13 
  -3  -7  17    1.08    0.22 
   2   7 -17    0.73    0.18 
   1   7 -17   -0.07    0.11 
   0   7 -17    0.19    0.14 
  -1   7 -17   -0.13    0.12 
  -2   7 -17    0.47    0.18 
  -3   7 -17    0.96    0.22 
  -4   7 -17    0.55    0.19 
  -5   7 -17    0.03    0.13 
  -6   7 -17    0.04    0.15 
  -7   7 -17    0.38    0.19 
  12   6 -17    0.16    0.18 
  11   6 -17    0.07    0.16 
  10   6 -17    0.10    0.14 
   9   6 -17    0.20    0.13 
   8   6 -17    0.39    0.14 
   7   6 -17   -0.09    0.10 
  -7  -6  17   -0.01    0.10 
   6   6 -17   -0.09    0.09 
  -6  -6  17    0.15    0.11 
  -5  -6  17    0.42    0.15 
  -4  -6  17    3.40    0.34 
   3   6 -17    0.55    0.15 
   2   6 -17    0.58    0.16 
   1   6 -17    0.13    0.12 
   0   6 -17    0.02    0.11 
  -1   6 -17    0.56    0.16 
  -2   6 -17    0.58    0.17 
  -3   6 -17   -0.18    0.10 
  -4   6 -17    0.05    0.12 
  -5   6 -17    0.02    0.13 
  -6   6 -17   -0.05    0.12 
  -7   6 -17   -0.09    0.14 
  12   5 -17    0.64    0.21 
  11   5 -17    0.34    0.17 
  10   5 -17    0.11    0.13 
   9   5 -17   -0.09    0.11 
   8   5 -17    0.07    0.12 
   7   5 -17    1.05    0.18 
   7   5 -17    0.83    0.17 
  -7  -5  17    0.87    0.19 
  -6  -5  17    1.07    0.20 
   5   5 -17    0.04    0.09 
   4   5 -17   -0.04    0.09 
   3   5 -17    3.42    0.29 
   2   5 -17    3.04    0.28 
   1   5 -17    0.23    0.13 
   0   5 -17    0.88    0.18 
  -1   5 -17   -0.01    0.10 
  -2   5 -17    0.14    0.13 
  -3   5 -17    0.09    0.12 
  -4   5 -17    0.04    0.12 
  -5   5 -17    0.06    0.14 
  -6   5 -17    0.12    0.13 
  -7   5 -17    0.17    0.15 
  -8   5 -17   -0.02    0.15 
  13   4 -17    0.09    0.17 
  12   4 -17    0.16    0.16 
  11   4 -17    0.28    0.17 
  10   4 -17    0.66    0.18 
   9   4 -17    0.01    0.11 
   8   4 -17    0.22    0.12 
   7   4 -17    0.70    0.15 
   6   4 -17    0.16    0.10 
   6   4 -17   -0.03    0.10 
   5   4 -17    1.87    0.21 
   4   4 -17    3.40    0.26 
   3   4 -17    0.13    0.11 
   2   4 -17   -0.02    0.10 
   1   4 -17   -0.09    0.08 
   0   4 -17    0.05    0.11 
  -1   4 -17    0.88    0.18 
  -2   4 -17    1.13    0.19 
  -3   4 -17    1.02    0.20 
  -4   4 -17    1.10    0.22 
  -5   4 -17    0.93    0.20 
  -6   4 -17    0.36    0.16 
  -7   4 -17   -0.10    0.12 
  -8   4 -17    0.00    0.13 
  13   3 -17    0.54    0.22 
  12   3 -17    1.38    0.27 
  11   3 -17    0.35    0.16 
  10   3 -17    0.62    0.17 
   9   3 -17    1.39    0.21 
   8   3 -17    0.10    0.10 
   7   3 -17    0.50    0.14 
   6   3 -17    0.30    0.11 
   6   3 -17    0.12    0.11 
   5   3 -17   -0.12    0.07 
   4   3 -17    0.75    0.15 
   3   3 -17    0.40    0.13 
   2   3 -17    0.81    0.17 
   1   3 -17    0.25    0.11 
   0   3 -17    0.02    0.09 
  -1   3 -17    0.36    0.14 
  -2   3 -17    0.11    0.11 
  -3   3 -17    0.12    0.12 
  -4   3 -17    0.09    0.13 
  -5   3 -17    0.80    0.19 
  -6   3 -17    0.82    0.20 
  -7   3 -17    0.13    0.16 
  -8   3 -17   -0.04    0.13 
  -9   3 -17   -0.04    0.14 
  13   2 -17    0.10    0.16 
  12   2 -17    0.04    0.14 
  11   2 -17    0.86    0.21 
  10   2 -17    0.17    0.14 
   9   2 -17    0.03    0.11 
   8   2 -17    1.01    0.19 
   7   2 -17    0.78    0.16 
   6   2 -17    1.56    0.20 
   6   2 -17    1.74    0.18 
   5   2 -17    1.37    0.17 
   5   2 -17    1.37    0.20 
   4   2 -17    0.04    0.08 
   3   2 -17    0.01    0.09 
   2   2 -17    0.15    0.09 
   1   2 -17    1.43    0.19 
   0   2 -17    7.30    0.42 
  -1   2 -17    6.04    0.38 
  -2   2 -17    0.25    0.11 
  -3   2 -17    1.13    0.20 
  -4   2 -17    0.31    0.13 
  -5   2 -17    1.59    0.25 
  -6   2 -17    1.27    0.24 
  -7   2 -17    0.02    0.12 
  -8   2 -17    0.09    0.15 
  -9   2 -17    0.05    0.16 
  14   1 -17   -0.05    0.15 
  13   1 -17    0.45    0.19 
  12   1 -17    0.09    0.14 
  11   1 -17    0.14    0.14 
  10   1 -17    0.04    0.12 
   9   1 -17    0.45    0.15 
   8   1 -17    0.02    0.11 
   7   1 -17    0.51    0.15 
   6   1 -17    0.26    0.12 
   5   1 -17    2.83    0.21 
   5   1 -17    2.52    0.26 
   4   1 -17    4.65    0.29 
   3   1 -17   -0.01    0.09 
   2   1 -17    0.22    0.11 
   1   1 -17    0.51    0.14 
   0   1 -17    1.10    0.17 
  -1   1 -17    0.37    0.14 
  -2   1 -17   -0.02    0.10 
  -3   1 -17    0.07    0.10 
  -4   1 -17    0.05    0.12 
  -5   1 -17    0.74    0.20 
  -6   1 -17    0.59    0.17 
  -7   1 -17   -0.05    0.11 
  -8   1 -17    0.01    0.14 
  -9   1 -17    0.11    0.16 
  14   0 -17   -0.01    0.14 
  13   0 -17   -0.17    0.13 
  12   0 -17    0.06    0.15 
  11   0 -17    0.04    0.14 
  10   0 -17    0.05    0.12 
   9   0 -17   -0.15    0.11 
   8   0 -17    0.02    0.12 
   7   0 -17   -0.05    0.07 
   6   0 -17    0.11    0.10 
   5   0 -17    0.16    0.07 
   5   0 -17    0.08    0.10 
   4   0 -17    0.05    0.07 
   4   0 -17   -0.11    0.08 
   3   0 -17    0.01    0.08 
   2   0 -17    0.11    0.09 
   1   0 -17    0.11    0.09 
   0   0 -17    0.01    0.09 
  -1   0 -17   -0.07    0.09 
  -2   0 -17   -0.11    0.08 
  -3   0 -17   -0.04    0.11 
  -4   0 -17   -0.12    0.10 
  -5   0 -17   -0.02    0.12 
  -6   0 -17    0.06    0.12 
  -7   0 -17    0.16    0.13 
  -8   0 -17    0.24    0.16 
  -9   0 -17   -0.11    0.14 
  14  -1 -17   -0.09    0.14 
  13  -1 -17    0.14    0.16 
  12  -1 -17    0.24    0.16 
  11  -1 -17    0.10    0.15 
  10  -1 -17   -0.04    0.13 
   9  -1 -17    0.13    0.13 
   8  -1 -17   -0.14    0.10 
   7  -1 -17    0.34    0.14 
   6  -1 -17    0.17    0.11 
   5  -1 -17    2.82    0.27 
   4  -1 -17    4.62    0.33 
   4  -1 -17    4.99    0.29 
   3  -1 -17   -0.02    0.08 
   3  -1 -17   -0.05    0.08 
   2  -1 -17    0.34    0.12 
   1  -1 -17    0.74    0.15 
   0  -1 -17    1.06    0.18 
  -1  -1 -17    0.32    0.12 
  -2  -1 -17   -0.02    0.08 
  -3  -1 -17    0.00    0.09 
  -4  -1 -17   -0.07    0.09 
  -5  -1 -17    1.08    0.22 
  -6  -1 -17    0.36    0.16 
  -7  -1 -17    0.38    0.16 
  -8  -1 -17    0.19    0.16 
  -9  -1 -17    0.05    0.15 
  13  -2 -17   -0.02    0.16 
  12  -2 -17    0.21    0.16 
  11  -2 -17    0.71    0.20 
  10  -2 -17    0.28    0.16 
   9  -2 -17    0.00    0.12 
   8  -2 -17    1.00    0.20 
   7  -2 -17    0.55    0.16 
   6  -2 -17    1.39    0.21 
   5  -2 -17    1.38    0.21 
   4  -2 -17    0.06    0.10 
   4  -2 -17    0.15    0.06 
   3  -2 -17    0.11    0.08 
   3  -2 -17   -0.09    0.09 
   2  -2 -17    0.07    0.09 
   2  -2 -17    0.06    0.10 
   1  -2 -17    1.25    0.17 
   0  -2 -17    6.34    0.37 
  -1  -2 -17    5.61    0.36 
  -2  -2 -17   -0.02    0.09 
  -3  -2 -17    1.39    0.21 
  -4  -2 -17    0.26    0.12 
  -5  -2 -17    1.65    0.25 
  -6  -2 -17    1.21    0.24 
  -7  -2 -17    0.11    0.13 
  -8  -2 -17    0.14    0.15 
  -9  -2 -17    0.16    0.17 
  13  -3 -17    0.85    0.25 
  12  -3 -17    1.58    0.28 
  11  -3 -17    0.64    0.20 
  10  -3 -17    0.69    0.19 
   9  -3 -17    1.52    0.25 
   8  -3 -17    0.02    0.13 
   7  -3 -17    0.62    0.18 
   6  -3 -17    0.28    0.13 
   5  -3 -17    0.05    0.11 
   4  -3 -17    0.65    0.16 
   3  -3 -17    0.29    0.12 
   3  -3 -17    0.44    0.12 
   2  -3 -17    0.46    0.12 
   2  -3 -17    0.64    0.15 
   1  -3 -17    0.19    0.10 
   1  -3 -17    0.16    0.11 
   0  -3 -17   -0.04    0.09 
  -1  -3 -17    0.26    0.12 
  -2  -3 -17   -0.07    0.10 
  -3  -3 -17    0.05    0.10 
  -4  -3 -17    0.00    0.11 
  -5  -3 -17    1.06    0.22 
  -6  -3 -17    0.99    0.21 
  -7  -3 -17    0.24    0.16 
  -8  -3 -17   -0.04    0.13 
  -9  -3 -17    0.25    0.17 
  13  -4 -17   -0.03    0.19 
  12  -4 -17    0.05    0.17 
  11  -4 -17    0.25    0.19 
  10  -4 -17    0.89    0.23 
   9  -4 -17    0.07    0.14 
   8  -4 -17    0.25    0.16 
   7  -4 -17    0.77    0.19 
   6  -4 -17    0.26    0.14 
   5  -4 -17    1.95    0.25 
   4  -4 -17    3.72    0.31 
   3  -4 -17    0.27    0.12 
   3  -4 -17    0.03    0.08 
   2  -4 -17    0.01    0.10 
   2  -4 -17    0.03    0.09 
   1  -4 -17    0.23    0.11 
   1  -4 -17    0.00    0.09 
   0  -4 -17    0.26    0.11 
   0  -4 -17    0.05    0.10 
  -1  -4 -17    0.89    0.16 
  -1  -4 -17    0.43    0.14 
  -2  -4 -17    1.21    0.20 
  -3  -4 -17    1.05    0.20 
  -4  -4 -17    0.62    0.17 
  -5  -4 -17    0.83    0.20 
  -6  -4 -17    0.08    0.13 
  -7  -4 -17    0.07    0.16 
  -8  -4 -17   -0.06    0.15 
  12  -5 -17    0.50    0.23 
  11  -5 -17    0.41    0.21 
  10  -5 -17    0.05    0.17 
   9  -5 -17    0.02    0.15 
   8  -5 -17   -0.02    0.13 
   7  -5 -17    0.90    0.21 
   6  -5 -17    0.67    0.18 
   5  -5 -17    0.13    0.13 
   4  -5 -17    0.02    0.10 
   3  -5 -17    3.96    0.31 
   2  -5 -17    2.75    0.24 
   2  -5 -17    2.87    0.27 
   1  -5 -17    0.14    0.11 
   1  -5 -17    0.03    0.10 
   0  -5 -17    1.26    0.20 
   0  -5 -17    1.34    0.21 
  -1  -5 -17    0.17    0.12 
  -1  -5 -17    0.04    0.10 
  -2  -5 -17    0.44    0.13 
  -2  -5 -17    0.30    0.14 
  -3  -5 -17    0.12    0.12 
  -3  -5 -17    0.03    0.10 
  -4  -5 -17   -0.01    0.13 
  -5  -5 -17   -0.01    0.13 
  -6  -5 -17   -0.01    0.13 
  -7  -5 -17    0.29    0.17 
  -8  -5 -17    0.10    0.15 
  12  -6 -17    0.17    0.20 
  11  -6 -17   -0.11    0.17 
  10  -6 -17    0.23    0.18 
   9  -6 -17   -0.16    0.15 
   8  -6 -17    0.75    0.22 
   7  -6 -17   -0.21    0.11 
   6  -6 -17   -0.09    0.11 
   5  -6 -17    0.14    0.13 
   4  -6 -17    3.46    0.33 
   3  -6 -17    0.40    0.15 
   2  -6 -17    0.50    0.14 
   2  -6 -17    0.68    0.17 
   1  -6 -17    0.19    0.13 
   1  -6 -17    0.21    0.12 
   0  -6 -17    0.00    0.09 
   0  -6 -17    0.31    0.14 
  -1  -6 -17    0.85    0.18 
  -1  -6 -17    0.78    0.17 
  -2  -6 -17    0.23    0.13 
  -2  -6 -17    0.39    0.14 
  -3  -6 -17    0.15    0.11 
  -3  -6 -17    0.23    0.13 
  -4  -6 -17    0.11    0.13 
  -4  -6 -17    0.21    0.14 
  -5  -6 -17    0.12    0.13 
  -6  -6 -17    0.00    0.14 
  -7  -6 -17    0.14    0.18 
  11  -7 -17   -0.03    0.19 
  10  -7 -17    1.02    0.26 
   9  -7 -17    0.46    0.21 
   8  -7 -17   -0.05    0.12 
   7  -7 -17    1.18    0.24 
   6  -7 -17    0.03    0.14 
   5  -7 -17    0.31    0.17 
   4  -7 -17    0.20    0.14 
   3  -7 -17    0.94    0.20 
   2  -7 -17    0.75    0.19 
   2  -7 -17    0.80    0.17 
   1  -7 -17    0.18    0.12 
   1  -7 -17    0.04    0.12 
   0  -7 -17    0.10    0.12 
   0  -7 -17    0.23    0.13 
  -1  -7 -17   -0.06    0.12 
  -1  -7 -17    0.13    0.11 
  -2  -7 -17    0.51    0.15 
  -2  -7 -17    0.27    0.13 
  -3  -7 -17    1.12    0.21 
  -3  -7 -17    1.27    0.23 
  -4  -7 -17    0.77    0.21 
  -5  -7 -17    0.06    0.15 
  -6  -7 -17    0.22    0.19 
  -7  -7 -17    0.59    0.22 
  10  -8 -17   -0.02    0.17 
   9  -8 -17    0.07    0.16 
   8  -8 -17    0.30    0.17 
   7  -8 -17    0.23    0.18 
   6  -8 -17    0.10    0.15 
   5  -8 -17    0.39    0.19 
   4  -8 -17    0.39    0.18 
   3  -8 -17    0.17    0.14 
   2  -8 -17    0.20    0.15 
   1  -8 -17    0.07    0.11 
   1  -8 -17    0.10    0.13 
   0  -8 -17    0.21    0.15 
   0  -8 -17    0.05    0.12 
  -1  -8 -17    0.02    0.14 
  -1  -8 -17   -0.06    0.12 
  -2  -8 -17    0.00    0.15 
  -2  -8 -17    0.23    0.15 
  -3  -8 -17    0.14    0.16 
  -4  -8 -17    0.16    0.16 
  -5  -8 -17    0.17    0.17 
  -6  -8 -17    0.06    0.17 
   9  -9 -17    0.71    0.23 
   8  -9 -17   -0.02    0.15 
   7  -9 -17    1.00    0.23 
   6  -9 -17    0.19    0.17 
   5  -9 -17    0.32    0.18 
   4  -9 -17    1.18    0.25 
   3  -9 -17    0.38    0.17 
   2  -9 -17   -0.17    0.13 
   1  -9 -17   -0.02    0.13 
   0  -9 -17    0.47    0.18 
   0  -9 -17    0.29    0.15 
  -1  -9 -17    0.31    0.15 
  -2  -9 -17    0.01    0.15 
  -3  -9 -17    0.79    0.22 
  -4  -9 -17    0.62    0.22 
   7 -10 -17    0.27    0.19 
   6 -10 -17    0.21    0.18 
   5 -10 -17    1.19    0.26 
   4 -10 -17    1.54    0.28 
   3 -10 -17    0.04    0.15 
   2 -10 -17    0.19    0.16 
   1 -10 -17    0.02    0.16 
   0 -10 -17    0.01    0.16 
  -1 -10 -17    0.22    0.18 
  -2 -10 -17    0.22    0.17 
  -3 -10 -17   -0.05    0.17 
   5 -11 -17    0.25    0.19 
   4 -11 -17    0.13    0.17 
   3 -11 -17    0.15    0.16 
   2 -11 -17    0.69    0.24 
  -6 -10  18    0.34    0.19 
  -5 -10  18    0.04    0.16 
  -4 -10  18    0.01    0.15 
  -3 -10  18    0.16    0.17 
  -2 -10  18    0.19    0.19 
   1  10 -18    0.36    0.20 
   0  10 -18    0.05    0.17 
  -1  10 -18    0.50    0.20 
  -7  -9  18    0.10    0.16 
  -6  -9  18    0.17    0.16 
  -5  -9  18   -0.01    0.13 
  -4  -9  18   -0.07    0.13 
  -3  -9  18    0.17    0.15 
   2   9 -18    0.12    0.14 
   1   9 -18    0.11    0.17 
   0   9 -18    0.73    0.22 
  -1   9 -18    0.39    0.20 
  -2   9 -18   -0.12    0.13 
  -3   9 -18   -0.06    0.14 
  -7  -8  18    0.40    0.18 
  -6  -8  18    0.05    0.14 
  -5  -8  18    0.97    0.23 
  -4  -8  18    0.06    0.14 
   3   8 -18    0.31    0.15 
  -3  -8  18    0.39    0.16 
   2   8 -18    2.38    0.30 
   1   8 -18    1.02    0.22 
   0   8 -18    0.09    0.15 
  -1   8 -18    0.11    0.14 
  -2   8 -18   -0.04    0.15 
  -3   8 -18   -0.07    0.13 
  -4   8 -18    0.05    0.15 
  -5   8 -18   -0.01    0.15 
  10   7 -18    0.57    0.20 
   9   7 -18    0.02    0.15 
  -7  -7  18    0.06    0.13 
  -6  -7  18   -0.04    0.12 
  -5  -7  18    0.06    0.13 
   4   7 -18    0.02    0.12 
   3   7 -18    0.29    0.15 
   2   7 -18    0.45    0.16 
   1   7 -18    0.02    0.12 
   0   7 -18    0.22    0.14 
  -1   7 -18    0.22    0.16 
  -2   7 -18    0.29    0.17 
  -3   7 -18    1.66    0.29 
  -4   7 -18    0.56    0.19 
  -5   7 -18    0.09    0.15 
  -6   7 -18    0.25    0.18 
  11   6 -18    0.49    0.20 
  10   6 -18    0.53    0.17 
   9   6 -18    0.22    0.14 
   8   6 -18    0.47    0.16 
   7   6 -18    0.52    0.15 
  -7  -6  18    0.41    0.16 
  -6  -6  18    2.09    0.27 
   5   6 -18    0.28    0.14 
   4   6 -18   -0.08    0.09 
   3   6 -18    0.33    0.15 
   2   6 -18    1.22    0.21 
   1   6 -18    0.28    0.14 
   0   6 -18    0.08    0.12 
  -1   6 -18    0.09    0.13 
  -2   6 -18   -0.02    0.13 
  -3   6 -18    0.07    0.14 
  -4   6 -18    0.39    0.17 
  -5   6 -18    0.12    0.15 
  -6   6 -18   -0.20    0.13 
  12   5 -18    0.09    0.17 
  11   5 -18    0.30    0.17 
  10   5 -18    0.63    0.19 
   9   5 -18    0.35    0.15 
   8   5 -18    0.50    0.15 
   7   5 -18    1.15    0.19 
   6   5 -18   -0.13    0.09 
   5   5 -18    0.32    0.13 
   4   5 -18    2.48    0.26 
   3   5 -18    0.87    0.18 
   2   5 -18    0.08    0.12 
   1   5 -18    1.19    0.21 
   0   5 -18    0.91    0.19 
  -1   5 -18   -0.02    0.11 
  -2   5 -18    0.41    0.17 
  -3   5 -18    1.10    0.22 
  -4   5 -18    0.03    0.14 
  -5   5 -18    0.39    0.18 
  -6   5 -18    0.47    0.18 
  -7   5 -18    0.03    0.15 
  12   4 -18    0.34    0.20 
  11   4 -18    0.77    0.20 
  10   4 -18    0.55    0.18 
   9   4 -18   -0.08    0.11 
   8   4 -18    0.05    0.11 
   7   4 -18    1.05    0.19 
   6   4 -18    1.11    0.18 
   6   4 -18    1.07    0.19 
   5   4 -18    1.30    0.20 
   4   4 -18    0.05    0.09 
   3   4 -18    0.44    0.14 
   2   4 -18    1.42    0.21 
   1   4 -18   -0.12    0.09 
   0   4 -18    0.26    0.13 
  -1   4 -18    0.20    0.13 
  -2   4 -18    0.16    0.13 
  -3   4 -18    0.05    0.12 
  -4   4 -18    0.00    0.13 
  -5   4 -18   -0.01    0.12 
  -6   4 -18   -0.17    0.11 
  -7   4 -18    0.08    0.15 
  13   3 -18    0.59    0.22 
  12   3 -18   -0.03    0.15 
  11   3 -18    0.11    0.15 
  10   3 -18    1.03    0.21 
   9   3 -18    0.57    0.16 
   8   3 -18    0.68    0.16 
   7   3 -18    0.29    0.12 
   6   3 -18    0.15    0.11 
   6   3 -18    0.09    0.10 
   5   3 -18    0.25    0.11 
   4   3 -18    2.09    0.22 
   3   3 -18    2.58    0.26 
   2   3 -18    0.47    0.14 
   1   3 -18    1.20    0.19 
   0   3 -18    0.39    0.14 
  -1   3 -18    0.51    0.15 
  -2   3 -18    0.33    0.14 
  -3   3 -18    0.19    0.13 
  -4   3 -18    0.17    0.14 
  -5   3 -18   -0.08    0.11 
  -6   3 -18   -0.10    0.12 
  -7   3 -18    0.15    0.16 
  -8   3 -18   -0.07    0.14 
  13   2 -18    0.07    0.17 
  12   2 -18    0.07    0.17 
  10   2 -18   -0.03    0.12 
   9   2 -18    0.62    0.17 
   8   2 -18    0.67    0.16 
   7   2 -18    0.12    0.12 
   6   2 -18    1.13    0.19 
   5   2 -18    3.50    0.26 
   5   2 -18    3.76    0.29 
   4   2 -18    0.96    0.16 
   3   2 -18    1.34    0.19 
   2   2 -18    5.60    0.35 
   1   2 -18    1.81    0.22 
   0   2 -18   -0.09    0.09 
  -1   2 -18    1.14    0.20 
  -2   2 -18    0.94    0.18 
  -3   2 -18    0.06    0.11 
  -4   2 -18    0.61    0.17 
  -5   2 -18    0.80    0.21 
  -6   2 -18   -0.07    0.12 
  -7   2 -18   -0.02    0.13 
  -8   2 -18   -0.03    0.14 
  13   1 -18    0.25    0.18 
  12   1 -18   -0.01    0.12 
  11   1 -18    0.18    0.16 
  10   1 -18    0.59    0.17 
   9   1 -18    0.18    0.14 
   8   1 -18    0.72    0.18 
   7   1 -18    0.96    0.19 
   6   1 -18    0.03    0.10 
   5   1 -18    0.36    0.13 
   5   1 -18    0.36    0.12 
   4   1 -18    0.27    0.11 
   3   1 -18    1.54    0.19 
   2   1 -18    0.04    0.10 
   1   1 -18    0.19    0.11 
   0   1 -18    0.80    0.16 
  -1   1 -18    1.54    0.22 
  -2   1 -18    0.50    0.15 
  -3   1 -18    0.13    0.11 
  -4   1 -18    0.02    0.13 
  -5   1 -18   -0.09    0.12 
  -6   1 -18   -0.16    0.12 
  -7   1 -18   -0.11    0.12 
  -8   1 -18    0.17    0.16 
  13   0 -18    0.38    0.17 
  12   0 -18    1.38    0.25 
  11   0 -18    1.67    0.26 
  10   0 -18   -0.17    0.11 
   9   0 -18    1.61    0.24 
   8   0 -18    0.08    0.13 
   7   0 -18    0.25    0.13 
   6   0 -18    2.11    0.25 
   5   0 -18    0.27    0.13 
   4   0 -18    0.03    0.09 
   4   0 -18    0.20    0.09 
   3   0 -18    1.95    0.20 
   2   0 -18    8.81    0.45 
   1   0 -18    5.32    0.34 
   0   0 -18    0.46    0.13 
  -1   0 -18    2.41    0.26 
  -2   0 -18    7.64    0.47 
  -3   0 -18    1.23    0.22 
  -4   0 -18    0.51    0.16 
  -5   0 -18    1.25    0.23 
  -6   0 -18    0.10    0.13 
  -7   0 -18    0.71    0.20 
  -8   0 -18    0.78    0.22 
  13  -1 -18    0.24    0.18 
  12  -1 -18    0.08    0.16 
  11  -1 -18    0.26    0.17 
  10  -1 -18    0.78    0.21 
   9  -1 -18    0.04    0.14 
   8  -1 -18    1.06    0.21 
   7  -1 -18    0.84    0.19 
   6  -1 -18    0.07    0.10 
   5  -1 -18    0.47    0.15 
   4  -1 -18    0.24    0.12 
   4  -1 -18    0.23    0.11 
   3  -1 -18    1.30    0.21 
   3  -1 -18    1.53    0.19 
   2  -1 -18    0.27    0.12 
   1  -1 -18    0.48    0.14 
   0  -1 -18    0.87    0.17 
  -1  -1 -18    1.75    0.23 
  -2  -1 -18    0.38    0.15 
  -3  -1 -18    0.07    0.11 
  -4  -1 -18    0.14    0.12 
  -5  -1 -18   -0.02    0.12 
  -6  -1 -18    0.01    0.12 
  -7  -1 -18    0.08    0.13 
  -8  -1 -18   -0.31    0.11 
  13  -2 -18    0.14    0.18 
  12  -2 -18    0.32    0.20 
  11  -2 -18   -0.09    0.14 
  10  -2 -18    0.17    0.17 
   9  -2 -18    0.66    0.20 
   8  -2 -18    0.62    0.19 
   7  -2 -18   -0.08    0.11 
   6  -2 -18    1.22    0.22 
   5  -2 -18    3.92    0.32 
   4  -2 -18    1.09    0.19 
   3  -2 -18    1.37    0.17 
   3  -2 -18    1.46    0.22 
   2  -2 -18    5.01    0.31 
   2  -2 -18    4.93    0.35 
   1  -2 -18    1.82    0.21 
   0  -2 -18   -0.01    0.09 
  -1  -2 -18    1.38    0.21 
  -2  -2 -18    1.28    0.21 
  -3  -2 -18   -0.07    0.10 
  -4  -2 -18    0.69    0.18 
  -5  -2 -18    0.59    0.18 
  -6  -2 -18   -0.18    0.12 
  -7  -2 -18    0.11    0.15 
  -8  -2 -18    0.04    0.16 
  13  -3 -18    0.16    0.19 
  12  -3 -18    0.08    0.17 
  11  -3 -18   -0.17    0.13 
  10  -3 -18    0.78    0.21 
   9  -3 -18    0.60    0.19 
   8  -3 -18    0.21    0.15 
   7  -3 -18   -0.07    0.13 
   6  -3 -18    0.12    0.13 
   5  -3 -18    0.38    0.14 
   4  -3 -18    2.33    0.26 
   3  -3 -18    2.30    0.21 
   3  -3 -18    1.86    0.24 
   2  -3 -18    0.35    0.13 
   2  -3 -18    0.45    0.13 
   1  -3 -18    1.34    0.19 
   1  -3 -18    1.03    0.19 
   0  -3 -18    0.27    0.12 
  -1  -3 -18    0.58    0.16 
  -2  -3 -18    0.32    0.13 
  -3  -3 -18    0.53    0.16 
  -4  -3 -18    0.08    0.12 
  -5  -3 -18    0.08    0.13 
  -6  -3 -18    0.01    0.14 
  -7  -3 -18    0.05    0.15 
  -8  -3 -18    0.01    0.15 
  12  -4 -18    0.24    0.20 
  11  -4 -18    0.78    0.24 
  10  -4 -18    0.88    0.23 
   9  -4 -18    0.34    0.18 
   8  -4 -18   -0.06    0.12 
   7  -4 -18    1.17    0.23 
   6  -4 -18    1.32    0.23 
   5  -4 -18    1.40    0.23 
   4  -4 -18   -0.02    0.11 
   3  -4 -18    0.85    0.17 
   3  -4 -18    0.47    0.13 
   2  -4 -18    1.54    0.19 
   2  -4 -18    1.08    0.19 
   1  -4 -18    0.06    0.11 
   1  -4 -18    0.03    0.10 
   0  -4 -18    0.20    0.13 
   0  -4 -18    0.25    0.12 
  -1  -4 -18    0.19    0.12 
  -1  -4 -18    0.13    0.12 
  -2  -4 -18   -0.02    0.11 
  -3  -4 -18    0.07    0.11 
  -4  -4 -18    0.21    0.15 
  -5  -4 -18    0.11    0.14 
  -6  -4 -18    0.01    0.15 
  -7  -4 -18    0.10    0.17 
  12  -5 -18    0.08    0.19 
  11  -5 -18    0.50    0.21 
  10  -5 -18    0.27    0.19 
   9  -5 -18    0.09    0.15 
   8  -5 -18    0.80    0.22 
   7  -5 -18    0.94    0.23 
   6  -5 -18    0.08    0.14 
   5  -5 -18    0.14    0.14 
   4  -5 -18    2.06    0.27 
   3  -5 -18    0.56    0.17 
   2  -5 -18    0.12    0.11 
   2  -5 -18    0.20    0.11 
   1  -5 -18    1.15    0.21 
   1  -5 -18    1.11    0.19 
   0  -5 -18    0.97    0.19 
   0  -5 -18    0.98    0.18 
  -1  -5 -18    0.01    0.13 
  -1  -5 -18    0.15    0.12 
  -2  -5 -18    0.76    0.17 
  -2  -5 -18    0.38    0.15 
  -3  -5 -18    1.01    0.20 
  -3  -5 -18    0.99    0.20 
  -4  -5 -18   -0.05    0.12 
  -5  -5 -18    0.29    0.17 
  -6  -5 -18    0.10    0.15 
  -7  -5 -18    0.09    0.17 
  11  -6 -18    0.51    0.23 
  10  -6 -18    0.29    0.20 
   9  -6 -18    0.22    0.18 
   8  -6 -18    0.52    0.21 
   7  -6 -18    0.22    0.17 
   6  -6 -18    2.43    0.31 
   5  -6 -18    0.28    0.16 
   4  -6 -18   -0.11    0.12 
   3  -6 -18    0.23    0.14 
   2  -6 -18    0.98    0.18 
   2  -6 -18    0.85    0.19 
   1  -6 -18    0.49    0.17 
   1  -6 -18    0.13    0.11 
   0  -6 -18    0.09    0.10 
   0  -6 -18   -0.06    0.10 
  -1  -6 -18    0.23    0.14 
  -1  -6 -18    0.02    0.12 
  -2  -6 -18    0.05    0.12 
  -2  -6 -18    0.07    0.11 
  -3  -6 -18   -0.01    0.12 
  -3  -6 -18    0.11    0.14 
  -4  -6 -18    0.25    0.17 
  -4  -6 -18    0.35    0.16 
  -5  -6 -18    0.21    0.16 
  -6  -6 -18    0.05    0.18 
  10  -7 -18    0.55    0.24 
   9  -7 -18    0.16    0.18 
   8  -7 -18    0.07    0.16 
   7  -7 -18   -0.04    0.14 
   6  -7 -18    0.30    0.17 
   5  -7 -18    0.14    0.15 
   4  -7 -18    0.04    0.15 
   3  -7 -18    0.07    0.15 
   2  -7 -18    0.22    0.14 
   1  -7 -18   -0.04    0.12 
   1  -7 -18   -0.07    0.10 
   0  -7 -18    0.30    0.14 
   0  -7 -18    0.14    0.12 
  -1  -7 -18    0.04    0.12 
  -1  -7 -18    0.05    0.12 
  -2  -7 -18    0.32    0.15 
  -2  -7 -18    0.22    0.14 
  -3  -7 -18    1.79    0.28 
  -4  -7 -18    0.40    0.19 
  -5  -7 -18   -0.03    0.15 
  -6  -7 -18    0.34    0.20 
   9  -8 -18    0.08    0.17 
   8  -8 -18    0.00    0.15 
   7  -8 -18    0.15    0.16 
   6  -8 -18    0.11    0.17 
   5  -8 -18    0.85    0.22 
   4  -8 -18   -0.08    0.13 
   3  -8 -18    0.37    0.17 
   2  -8 -18    2.54    0.30 
   1  -8 -18    0.81    0.19 
   1  -8 -18    0.83    0.20 
   0  -8 -18    0.19    0.13 
   0  -8 -18    0.07    0.14 
  -1  -8 -18    0.16    0.14 
  -1  -8 -18    0.22    0.15 
  -2  -8 -18   -0.13    0.12 
  -3  -8 -18    0.14    0.16 
  -4  -8 -18    0.13    0.17 
  -5  -8 -18    0.26    0.19 
   8  -9 -18    0.01    0.17 
   7  -9 -18    0.23    0.18 
   6  -9 -18    0.05    0.15 
   5  -9 -18    0.04    0.14 
   4  -9 -18   -0.03    0.15 
   3  -9 -18    0.17    0.16 
   2  -9 -18    0.27    0.17 
   1  -9 -18    0.38    0.17 
   0  -9 -18    0.43    0.19 
   0  -9 -18    0.37    0.17 
  -1  -9 -18    0.95    0.23 
  -2  -9 -18    0.25    0.19 
  -3  -9 -18    0.10    0.18 
   6 -10 -18    0.05    0.16 
   5 -10 -18    0.16    0.17 
   4 -10 -18    0.30    0.19 
   3 -10 -18    0.00    0.16 
   2 -10 -18    0.35    0.18 
   1 -10 -18    0.20    0.18 
  -1 -10 -18    0.36    0.19 
   2  10 -19    0.40    0.20 
  -7  -9  19    0.53    0.21 
  -6  -9  19    0.00    0.16 
  -5  -9  19   -0.02    0.14 
  -4  -9  19    0.23    0.17 
   3   9 -19    0.32    0.18 
   2   9 -19    0.12    0.17 
   1   9 -19    0.01    0.17 
   0   9 -19    0.33    0.19 
  -1   9 -19   -0.04    0.15 
  -2   9 -19    0.30    0.18 
  -7  -8  19    0.07    0.16 
  -6  -8  19    0.07    0.14 
  -5  -8  19    0.07    0.15 
   4   8 -19   -0.09    0.13 
   3   8 -19    0.06    0.13 
   2   8 -19    0.00    0.13 
   1   8 -19    0.15    0.16 
   0   8 -19    0.73    0.22 
  -1   8 -19    0.26    0.17 
  -2   8 -19   -0.07    0.15 
  -3   8 -19   -0.03    0.15 
   5   7 -19    0.32    0.15 
   4   7 -19    0.68    0.19 
   3   7 -19    1.10    0.22 
   2   7 -19    0.11    0.12 
   1   7 -19    0.16    0.15 
   0   7 -19    0.00    0.12 
  -1   7 -19    0.89    0.22 
  -2   7 -19    0.69    0.20 
  -3   7 -19    0.07    0.16 
  -4   7 -19    0.00    0.14 
  10   6 -19    0.31    0.17 
   9   6 -19    0.17    0.15 
   8   6 -19   -0.10    0.12 
   6   6 -19    0.22    0.13 
   5   6 -19    0.39    0.15 
   4   6 -19    0.13    0.12 
   3   6 -19    2.58    0.29 
   2   6 -19    0.09    0.13 
   1   6 -19    1.37    0.24 
   0   6 -19    1.97    0.28 
  -1   6 -19    0.19    0.14 
  -2   6 -19   -0.11    0.12 
  -3   6 -19   -0.10    0.14 
  -4   6 -19    0.04    0.15 
  -5   6 -19    0.08    0.16 
  11   5 -19    0.06    0.16 
  10   5 -19    0.06    0.14 
   9   5 -19    0.15    0.14 
   8   5 -19    0.42    0.15 
   7   5 -19    0.30    0.13 
   6   5 -19    0.02    0.12 
   5   5 -19    0.29    0.13 
   4   5 -19    0.11    0.12 
   3   5 -19   -0.08    0.10 
   2   5 -19    1.36    0.22 
   1   5 -19    0.37    0.15 
   0   5 -19    0.90    0.20 
  -1   5 -19    1.98    0.28 
  -2   5 -19    0.17    0.14 
  -3   5 -19    0.66    0.21 
  -4   5 -19    0.09    0.16 
  -5   5 -19    0.14    0.14 
  -6   5 -19   -0.01    0.14 
  12   4 -19   -0.08    0.17 
  11   4 -19    0.58    0.20 
  10   4 -19    0.02    0.14 
   8   4 -19    0.41    0.14 
   7   4 -19    1.24    0.21 
   6   4 -19    3.96    0.32 
   6   4 -19    4.02    0.30 
   5   4 -19    0.09    0.11 
   4   4 -19    1.80    0.23 
   3   4 -19    3.38    0.30 
   2   4 -19    0.01    0.12 
   1   4 -19    1.03    0.20 
   0   4 -19    1.73    0.24 
  -1   4 -19    0.49    0.17 
  -2   4 -19    0.36    0.16 
  -3   4 -19    1.48    0.25 
  -4   4 -19    1.65    0.27 
  -5   4 -19    0.05    0.13 
  -6   4 -19    0.29    0.16 
  -7   4 -19    0.17    0.18 
  12   3 -19   -0.07    0.16 
  11   3 -19    0.25    0.17 
   9   3 -19    1.01    0.21 
   8   3 -19    0.53    0.17 
   7   3 -19    0.11    0.12 
   6   3 -19    0.11    0.13 
   5   3 -19    0.34    0.13 
   4   3 -19    0.09    0.09 
   3   3 -19   -0.01    0.09 
   2   3 -19    0.79    0.17 
   1   3 -19    0.44    0.15 
   0   3 -19    0.59    0.16 
  -1   3 -19    0.21    0.14 
  -2   3 -19    0.36    0.15 
  -3   3 -19    0.25    0.15 
  -4   3 -19    0.08    0.14 
  -5   3 -19   -0.02    0.15 
  -6   3 -19    0.06    0.15 
  -7   3 -19    0.29    0.17 
  12   2 -19    0.84    0.23 
  10   2 -19    2.09    0.27 
   9   2 -19    3.15    0.31 
   8   2 -19    0.42    0.15 
   7   2 -19    2.59    0.28 
   6   2 -19    1.75    0.24 
   5   2 -19    0.43    0.13 
   5   2 -19    0.27    0.13 
   4   2 -19    0.61    0.15 
   3   2 -19    0.02    0.09 
   2   2 -19    0.00    0.09 
   1   2 -19    0.08    0.11 
   0   2 -19    1.56    0.22 
  -1   2 -19    2.99    0.30 
  -2   2 -19    0.60    0.17 
  -3   2 -19    0.92    0.20 
  -4   2 -19    1.77    0.27 
  -5   2 -19    0.01    0.13 
  -6   2 -19    0.36    0.16 
  -7   2 -19    0.48    0.18 
  11   1 -19    0.04    0.15 
  10   1 -19    0.39    0.17 
   9   1 -19    0.76    0.19 
   8   1 -19    0.12    0.13 
   7   1 -19    1.85    0.25 
   6   1 -19    0.95    0.19 
   5   1 -19    1.65    0.23 
   4   1 -19    4.91    0.32 
   3   1 -19    0.27    0.12 
   2   1 -19    2.98    0.27 
   1   1 -19    2.40    0.25 
   0   1 -19    0.01    0.10 
  -1   1 -19   -0.12    0.08 
  -2   1 -19    0.64    0.17 
  -3   1 -19    1.00    0.21 
  -4   1 -19    0.42    0.17 
  -5   1 -19    0.29    0.16 
  -6   1 -19    0.20    0.18 
  -7   1 -19    0.14    0.16 
  12   0 -19    0.01    0.16 
  11   0 -19    0.13    0.16 
  10   0 -19   -0.12    0.13 
   9   0 -19    0.17    0.15 
   8   0 -19   -0.05    0.11 
   7   0 -19    0.05    0.10 
   6   0 -19   -0.02    0.10 
   5   0 -19    0.14    0.12 
   4   0 -19   -0.06    0.09 
   4   0 -19   -0.20    0.08 
   3   0 -19    0.07    0.10 
   2   0 -19   -0.03    0.09 
   1   0 -19    0.08    0.11 
   0   0 -19    0.04    0.10 
  -1   0 -19    0.07    0.11 
  -2   0 -19    0.01    0.11 
  -3   0 -19    0.11    0.13 
  -4   0 -19   -0.07    0.12 
  -5   0 -19   -0.12    0.12 
  -6   0 -19    0.06    0.14 
  -7   0 -19    0.20    0.16 
  12  -1 -19    1.58    0.29 
  11  -1 -19   -0.21    0.13 
  10  -1 -19    0.63    0.20 
   9  -1 -19    0.36    0.17 
   8  -1 -19   -0.11    0.11 
   7  -1 -19    1.87    0.26 
   6  -1 -19    0.99    0.21 
   5  -1 -19    1.60    0.24 
   4  -1 -19    5.24    0.38 
   4  -1 -19    5.35    0.33 
   3  -1 -19    0.23    0.12 
   3  -1 -19    0.06    0.12 
   2  -1 -19    3.03    0.27 
   1  -1 -19    2.13    0.24 
   0  -1 -19    0.07    0.11 
  -1  -1 -19    0.19    0.12 
  -2  -1 -19    0.55    0.16 
  -3  -1 -19    0.60    0.17 
  -4  -1 -19    0.21    0.13 
  -5  -1 -19    0.14    0.14 
  -6  -1 -19    0.22    0.18 
  -7  -1 -19    0.08    0.17 
  12  -2 -19    1.00    0.26 
  11  -2 -19   -0.17    0.14 
  10  -2 -19    1.90    0.29 
   9  -2 -19    2.70    0.32 
   8  -2 -19    0.46    0.18 
   7  -2 -19    2.85    0.31 
   6  -2 -19    1.97    0.26 
   5  -2 -19    0.24    0.14 
   4  -2 -19    0.53    0.16 
   3  -2 -19    0.01    0.11 
   3  -2 -19   -0.13    0.08 
   2  -2 -19    0.09    0.11 
   2  -2 -19    0.03    0.10 
   1  -2 -19    0.04    0.11 
   0  -2 -19    1.80    0.23 
  -1  -2 -19    2.97    0.29 
  -2  -2 -19    0.45    0.16 
  -3  -2 -19    0.57    0.17 
  -4  -2 -19    1.21    0.23 
  -5  -2 -19   -0.03    0.14 
  -6  -2 -19    0.45    0.19 
  -7  -2 -19    0.52    0.21 
  12  -3 -19   -0.04    0.16 
  11  -3 -19    0.42    0.21 
  10  -3 -19    0.27    0.18 
   9  -3 -19    0.57    0.20 
   8  -3 -19    0.65    0.20 
   7  -3 -19   -0.18    0.12 
   6  -3 -19    0.09    0.15 
   5  -3 -19    0.21    0.15 
   4  -3 -19    0.01    0.12 
   3  -3 -19    0.03    0.10 
   3  -3 -19    0.06    0.12 
   2  -3 -19    1.02    0.18 
   2  -3 -19    1.02    0.20 
   1  -3 -19    0.48    0.15 
   1  -3 -19    0.26    0.12 
   0  -3 -19    0.62    0.17 
   0  -3 -19    0.39    0.14 
  -1  -3 -19    0.11    0.11 
  -2  -3 -19    0.24    0.14 
  -3  -3 -19    0.47    0.17 
  -4  -3 -19    0.18    0.14 
  -5  -3 -19   -0.02    0.14 
  -6  -3 -19    0.06    0.15 
  -7  -3 -19    0.08    0.17 
  12  -4 -19   -0.01    0.19 
  11  -4 -19    0.47    0.24 
  10  -4 -19    0.19    0.19 
   9  -4 -19    0.63    0.21 
   8  -4 -19   -0.03    0.13 
   7  -4 -19    1.43    0.25 
   6  -4 -19    4.24    0.38 
   5  -4 -19   -0.06    0.12 
   4  -4 -19    1.97    0.26 
   3  -4 -19    3.19    0.31 
   2  -4 -19   -0.02    0.11 
   2  -4 -19   -0.05    0.09 
   1  -4 -19    0.97    0.20 
   1  -4 -19    0.86    0.17 
   0  -4 -19    1.67    0.23 
   0  -4 -19    1.74    0.24 
  -1  -4 -19    0.69    0.17 
  -1  -4 -19    0.32    0.14 
  -2  -4 -19    0.03    0.11 
  -3  -4 -19    1.70    0.26 
  -4  -4 -19    1.61    0.25 
  -5  -4 -19   -0.05    0.14 
  -6  -4 -19    0.23    0.16 
  -7  -4 -19    0.38    0.20 
  11  -5 -19   -0.06    0.18 
  10  -5 -19    0.27    0.21 
   9  -5 -19    0.08    0.18 
   8  -5 -19    0.43    0.20 
   7  -5 -19    0.17    0.16 
   6  -5 -19   -0.03    0.13 
   5  -5 -19    0.41    0.17 
   4  -5 -19    0.23    0.14 
   3  -5 -19    0.20    0.14 
   2  -5 -19    1.12    0.19 
   2  -5 -19    0.80    0.18 
   1  -5 -19    0.50    0.15 
   1  -5 -19    0.42    0.16 
   0  -5 -19    0.73    0.18 
   0  -5 -19    0.40    0.14 
  -1  -5 -19    1.28    0.21 
  -1  -5 -19    1.51    0.24 
  -2  -5 -19    0.14    0.13 
  -2  -5 -19    0.24    0.14 
  -3  -5 -19    0.17    0.13 
  -3  -5 -19    0.68    0.18 
  -4  -5 -19    0.11    0.14 
  -4  -5 -19    0.37    0.15 
  -5  -5 -19    0.06    0.15 
  -6  -5 -19    0.03    0.18 
  10  -6 -19    0.42    0.24 
   9  -6 -19    0.20    0.20 
   8  -6 -19    0.23    0.20 
   7  -6 -19    0.20    0.16 
   6  -6 -19    0.00    0.14 
   5  -6 -19    0.71    0.20 
   4  -6 -19    0.20    0.15 
   3  -6 -19    2.89    0.32 
   2  -6 -19    0.31    0.17 
   1  -6 -19    1.74    0.23 
   1  -6 -19    1.24    0.22 
   0  -6 -19    2.12    0.26 
   0  -6 -19    2.05    0.26 
  -1  -6 -19    0.17    0.14 
  -1  -6 -19    0.33    0.16 
  -2  -6 -19    0.16    0.13 
  -2  -6 -19    0.01    0.12 
  -3  -6 -19    0.04    0.14 
  -3  -6 -19   -0.03    0.13 
  -4  -6 -19    0.10    0.16 
  -5  -6 -19   -0.06    0.16 
   9  -7 -19   -0.14    0.17 
   8  -7 -19    0.54    0.20 
   7  -7 -19    0.03    0.16 
   6  -7 -19   -0.10    0.14 
   5  -7 -19    0.46    0.18 
   4  -7 -19    0.69    0.21 
   3  -7 -19    1.34    0.25 
   2  -7 -19    0.23    0.14 
   1  -7 -19    0.05    0.12 
   1  -7 -19    0.05    0.13 
   0  -7 -19    0.23    0.16 
   0  -7 -19   -0.02    0.11 
  -1  -7 -19    0.80    0.19 
  -1  -7 -19    0.98    0.21 
  -2  -7 -19    0.74    0.20 
  -2  -7 -19    0.67    0.18 
  -3  -7 -19    0.18    0.16 
  -4  -7 -19   -0.15    0.14 
   8  -8 -19   -0.03    0.16 
   7  -8 -19    0.02    0.16 
   6  -8 -19    0.11    0.17 
   5  -8 -19    0.42    0.19 
   4  -8 -19    0.03    0.15 
   3  -8 -19   -0.19    0.13 
   2  -8 -19    0.17    0.16 
   1  -8 -19    0.16    0.15 
   0  -8 -19    0.16    0.15 
   0  -8 -19    0.49    0.18 
  -1  -8 -19    0.03    0.15 
  -1  -8 -19    0.32    0.17 
  -2  -8 -19   -0.01    0.15 
  -3  -8 -19   -0.06    0.16 
   7  -9 -19    0.44    0.20 
   6  -9 -19    0.25    0.19 
   5  -9 -19   -0.07    0.14 
   4  -9 -19    0.26    0.19 
   3  -9 -19    0.36    0.18 
   2  -9 -19    0.19    0.17 
   1  -9 -19   -0.03    0.14 
   0  -9 -19    0.32    0.20 
  -1  -9 -19   -0.07    0.15 
  -2  -9 -19    0.38    0.20 
   3 -10 -19    0.08    0.18 
   2 -10 -19    0.33    0.19 
   4   9 -20    0.08    0.17 
   3   9 -20    0.05    0.16 
   2   9 -20    0.04    0.17 
   1   9 -20    0.11    0.17 
   6   8 -20    0.41    0.19 
   5   8 -20    0.20    0.16 
   4   8 -20    0.10    0.15 
   3   8 -20    0.21    0.17 
   2   8 -20    0.14    0.16 
   1   8 -20    0.39    0.19 
   0   8 -20    0.21    0.18 
  -1   8 -20   -0.15    0.14 
  -2   8 -20   -0.06    0.16 
   6   7 -20    0.17    0.15 
   5   7 -20    0.07    0.14 
   4   7 -20    0.11    0.14 
   3   7 -20    0.06    0.14 
   2   7 -20   -0.03    0.13 
   1   7 -20   -0.01    0.14 
   0   7 -20    0.48    0.21 
  -1   7 -20    0.01    0.15 
  -2   7 -20    0.25    0.19 
  -3   7 -20    0.63    0.22 
   9   6 -20    0.10    0.17 
   6   6 -20    0.46    0.17 
   5   6 -20    0.45    0.16 
   4   6 -20    0.38    0.16 
   3   6 -20   -0.12    0.11 
   2   6 -20    0.14    0.14 
   1   6 -20    0.29    0.16 
   0   6 -20    0.01    0.14 
  -1   6 -20    0.10    0.16 
  -2   6 -20    0.31    0.17 
  -3   6 -20    0.47    0.19 
  -4   6 -20    0.13    0.18 
  10   5 -20    0.43    0.19 
   9   5 -20    1.39    0.25 
   8   5 -20    0.53    0.17 
   7   5 -20    0.11    0.13 
   6   5 -20    0.31    0.15 
   5   5 -20    0.39    0.15 
   4   5 -20    0.01    0.12 
   3   5 -20   -0.04    0.11 
   2   5 -20    1.14    0.22 
   1   5 -20    0.42    0.16 
   0   5 -20    0.14    0.14 
  -1   5 -20   -0.19    0.11 
  -2   5 -20    0.07    0.14 
  -3   5 -20    0.18    0.17 
  -4   5 -20    0.38    0.19 
  -5   5 -20    0.02    0.16 
  11   4 -20    0.01    0.16 
  10   4 -20    0.03    0.15 
   8   4 -20    0.74    0.18 
   7   4 -20    0.44    0.15 
   6   4 -20    0.99    0.20 
   5   4 -20    0.55    0.16 
   4   4 -20    0.06    0.12 
   3   4 -20    0.13    0.12 
   2   4 -20    0.51    0.17 
   1   4 -20    0.28    0.14 
   0   4 -20    0.21    0.14 
  -1   4 -20    0.04    0.13 
  -2   4 -20    0.44    0.17 
  -3   4 -20    1.25    0.25 
  -4   4 -20    0.15    0.16 
  -5   4 -20    0.08    0.17 
  11   3 -20   -0.12    0.14 
   9   3 -20   -0.01    0.13 
   8   3 -20    0.21    0.14 
   7   3 -20    0.64    0.17 
   6   3 -20    0.23    0.14 
   5   3 -20    3.50    0.30 
   4   3 -20    3.62    0.31 
   3   3 -20    0.21    0.12 
   2   3 -20    2.07    0.25 
   1   3 -20    0.59    0.17 
   0   3 -20    0.58    0.18 
  -1   3 -20    0.66    0.18 
  -2   3 -20   -0.01    0.13 
  -3   3 -20    0.10    0.15 
  -4   3 -20   -0.04    0.12 
  -5   3 -20   -0.07    0.15 
  -6   3 -20    0.04    0.16 
  12   2 -20    0.35    0.20 
  10   2 -20    0.77    0.21 
   9   2 -20    0.48    0.19 
   8   2 -20    0.04    0.12 
   7   2 -20    1.44    0.23 
   6   2 -20    1.96    0.26 
   5   2 -20    0.14    0.12 
   4   2 -20    1.70    0.22 
   3   2 -20    1.06    0.19 
   2   2 -20    0.44    0.15 
   1   2 -20    0.13    0.12 
   0   2 -20    0.42    0.15 
  -1   2 -20   -0.08    0.10 
  -2   2 -20   -0.06    0.12 
  -3   2 -20    0.17    0.14 
  -4   2 -20   -0.02    0.15 
  -5   2 -20    0.13    0.17 
  -6   2 -20    0.02    0.15 
  11   1 -20    0.26    0.19 
  10   1 -20    0.18    0.15 
   9   1 -20    0.24    0.17 
   8   1 -20   -0.15    0.12 
   7   1 -20    0.23    0.16 
   6   1 -20    0.13    0.12 
   5   1 -20    0.93    0.20 
   4   1 -20    1.48    0.24 
   4   1 -20    1.66    0.21 
   3   1 -20    0.51    0.14 
   2   1 -20    1.06    0.19 
   1   1 -20    0.79    0.17 
   0   1 -20    0.20    0.12 
  -1   1 -20    0.07    0.11 
  -2   1 -20    0.07    0.13 
  -3   1 -20   -0.05    0.13 
  -4   1 -20   -0.02    0.13 
  -5   1 -20   -0.10    0.13 
  -6   1 -20    0.06    0.17 
  12   0 -20    1.35    0.28 
  11   0 -20    0.04    0.17 
  10   0 -20    1.77    0.27 
   9   0 -20    0.09    0.15 
   8   0 -20    1.72    0.26 
   7   0 -20    6.21    0.43 
   6   0 -20    0.06    0.12 
   5   0 -20    0.13    0.13 
   4   0 -20    0.65    0.16 
   4   0 -20    0.78    0.18 
   3   0 -20    0.25    0.12 
   2   0 -20    1.59    0.22 
   1   0 -20    1.76    0.24 
   0   0 -20    0.15    0.12 
  -1   0 -20   -0.01    0.11 
  -2   0 -20    0.50    0.16 
  -3   0 -20    1.72    0.26 
  -4   0 -20    1.31    0.25 
  -5   0 -20    0.16    0.16 
  -6   0 -20    0.32    0.18 
  12  -1 -20    0.24    0.21 
  11  -1 -20    0.35    0.20 
  10  -1 -20    0.03    0.15 
   9  -1 -20    0.14    0.16 
   8  -1 -20    0.42    0.18 
   7  -1 -20    0.36    0.17 
   6  -1 -20   -0.08    0.11 
   5  -1 -20    0.95    0.21 
   4  -1 -20    1.51    0.24 
   3  -1 -20    0.62    0.15 
   3  -1 -20    0.61    0.18 
   2  -1 -20    1.10    0.19 
   1  -1 -20    0.82    0.17 
   0  -1 -20    0.15    0.11 
  -1  -1 -20    0.10    0.11 
  -2  -1 -20    0.07    0.12 
  -3  -1 -20    0.21    0.14 
  -4  -1 -20   -0.10    0.11 
  -5  -1 -20    0.08    0.14 
  -6  -1 -20   -0.03    0.16 
  11  -2 -20   -0.08    0.17 
  10  -2 -20    1.28    0.26 
   9  -2 -20    0.48    0.19 
   8  -2 -20    0.06    0.14 
   7  -2 -20    1.66    0.27 
   6  -2 -20    1.77    0.26 
   5  -2 -20   -0.05    0.11 
   4  -2 -20    1.39    0.24 
   3  -2 -20    0.51    0.17 
   3  -2 -20    0.76    0.16 
   2  -2 -20    0.78    0.19 
   2  -2 -20    0.43    0.14 
   1  -2 -20    0.04    0.12 
   1  -2 -20    0.20    0.11 
   0  -2 -20    0.40    0.15 
  -1  -2 -20    0.12    0.12 
  -2  -2 -20    0.08    0.12 
  -3  -2 -20   -0.03    0.12 
  -4  -2 -20   -0.12    0.13 
  -5  -2 -20    0.08    0.16 
  -6  -2 -20    0.05    0.16 
  11  -3 -20   -0.06    0.16 
  10  -3 -20   -0.13    0.17 
   9  -3 -20   -0.12    0.14 
   8  -3 -20    0.13    0.16 
   7  -3 -20    0.71    0.21 
   6  -3 -20    0.21    0.16 
   5  -3 -20    3.15    0.33 
   4  -3 -20    3.14    0.32 
   3  -3 -20    0.08    0.13 
   2  -3 -20    2.09    0.23 
   2  -3 -20    1.88    0.26 
   1  -3 -20    0.35    0.15 
   1  -3 -20    0.19    0.12 
   0  -3 -20    0.46    0.13 
   0  -3 -20    0.58    0.18 
  -1  -3 -20    0.66    0.17 
  -2  -3 -20    0.10    0.12 
  -3  -3 -20   -0.08    0.12 
  -4  -3 -20   -0.08    0.13 
  -5  -3 -20    0.06    0.16 
  -6  -3 -20   -0.02    0.17 
  11  -4 -20   -0.03    0.19 
  10  -4 -20    0.01    0.18 
   9  -4 -20    0.42    0.21 
   8  -4 -20    1.09    0.26 
   7  -4 -20    0.48    0.19 
   6  -4 -20    1.31    0.26 
   5  -4 -20    0.84    0.21 
   4  -4 -20   -0.15    0.11 
   3  -4 -20    0.23    0.13 
   2  -4 -20    0.47    0.14 
   2  -4 -20    0.42    0.16 
   1  -4 -20    0.16    0.14 
   1  -4 -20    0.46    0.15 
   0  -4 -20    0.11    0.13 
   0  -4 -20    0.15    0.14 
  -1  -4 -20    0.16    0.14 
  -1  -4 -20    0.15    0.12 
  -2  -4 -20    0.27    0.16 
  -2  -4 -20    0.39    0.16 
  -3  -4 -20    1.20    0.24 
  -4  -4 -20    0.36    0.19 
  -5  -4 -20    0.06    0.15 
  -6  -4 -20    0.00    0.17 
  10  -5 -20    0.63    0.25 
   9  -5 -20    1.83    0.32 
   8  -5 -20    0.41    0.22 
   7  -5 -20    0.07    0.17 
   6  -5 -20    0.40    0.19 
   5  -5 -20    0.41    0.18 
   4  -5 -20    0.06    0.13 
   3  -5 -20    0.15    0.14 
   2  -5 -20    0.76    0.19 
   1  -5 -20    0.50    0.15 
   1  -5 -20    0.30    0.15 
   0  -5 -20    0.43    0.16 
   0  -5 -20    0.11    0.14 
  -1  -5 -20   -0.07    0.12 
  -1  -5 -20    0.02    0.12 
  -2  -5 -20    0.47    0.17 
  -2  -5 -20    0.14    0.13 
  -3  -5 -20    0.16    0.14 
  -3  -5 -20    0.04    0.13 
  -4  -5 -20    0.32    0.18 
  -4  -5 -20   -0.02    0.13 
  -5  -5 -20    0.12    0.18 
   9  -6 -20    0.04    0.19 
   8  -6 -20    0.15    0.19 
   7  -6 -20    1.58    0.28 
   6  -6 -20    0.55    0.20 
   5  -6 -20    0.42    0.19 
   4  -6 -20    0.39    0.18 
   3  -6 -20   -0.12    0.12 
   2  -6 -20   -0.21    0.11 
   1  -6 -20    0.10    0.13 
   1  -6 -20    0.10    0.13 
   0  -6 -20   -0.01    0.12 
   0  -6 -20   -0.02    0.12 
  -1  -6 -20    0.05    0.14 
  -1  -6 -20    0.04    0.13 
  -2  -6 -20    0.70    0.20 
  -2  -6 -20    0.54    0.17 
  -3  -6 -20    0.31    0.18 
  -3  -6 -20    0.16    0.14 
  -4  -6 -20   -0.06    0.16 
   8  -7 -20   -0.02    0.16 
   7  -7 -20    0.09    0.17 
   6  -7 -20    0.06    0.14 
   5  -7 -20    0.27    0.17 
   4  -7 -20    0.15    0.17 
   3  -7 -20    0.04    0.14 
   2  -7 -20    0.01    0.14 
   1  -7 -20    0.09    0.14 
   0  -7 -20    0.47    0.18 
   0  -7 -20    0.36    0.16 
  -1  -7 -20    0.10    0.14 
  -1  -7 -20    0.12    0.13 
  -2  -7 -20    0.29    0.18 
  -2  -7 -20    0.29    0.16 
  -3  -7 -20    0.47    0.21 
   7  -8 -20   -0.20    0.15 
   6  -8 -20    0.24    0.20 
   5  -8 -20   -0.08    0.15 
   4  -8 -20    0.09    0.16 
   3  -8 -20    0.05    0.16 
   2  -8 -20    0.00    0.14 
   1  -8 -20    0.69    0.22 
   0  -8 -20    0.25    0.17 
   0  -8 -20    0.01    0.16 
  -1  -8 -20    0.10    0.16 
  -1  -8 -20    0.15    0.16 
  -2  -8 -20    0.24    0.18 
   4  -9 -20   -0.03    0.17 
   3  -9 -20    0.26    0.18 
   2  -9 -20   -0.04    0.16 
   1  -9 -20    0.20    0.18 
   5   8 -21    0.21    0.17 
   4   8 -21    0.06    0.17 
   3   8 -21    0.03    0.16 
   2   8 -21    0.12    0.17 
   1   8 -21   -0.06    0.16 
   6   7 -21    0.37    0.18 
   5   7 -21    0.09    0.14 
   4   7 -21    0.00    0.15 
   3   7 -21    0.09    0.16 
   2   7 -21    0.22    0.17 
   1   7 -21   -0.05    0.15 
   0   7 -21    0.41    0.20 
  -1   7 -21    0.60    0.22 
   5   6 -21   -0.02    0.13 
   4   6 -21    0.20    0.15 
   3   6 -21   -0.05    0.13 
   2   6 -21    0.35    0.17 
   1   6 -21   -0.07    0.15 
   0   6 -21    0.26    0.17 
  -1   6 -21    0.23    0.18 
  -2   6 -21    0.00    0.16 
  -3   6 -21    0.10    0.18 
   9   5 -21    0.11    0.17 
   8   5 -21    0.31    0.16 
   7   5 -21    0.40    0.17 
   6   5 -21    0.45    0.17 
   5   5 -21    1.09    0.21 
   4   5 -21    0.07    0.14 
   3   5 -21   -0.02    0.12 
   2   5 -21    0.13    0.14 
   1   5 -21    0.32    0.16 
   0   5 -21    0.86    0.21 
  -1   5 -21    0.36    0.18 
  -2   5 -21   -0.05    0.16 
  -3   5 -21   -0.02    0.17 
  -4   5 -21    0.11    0.17 
  10   4 -21    0.05    0.16 
   8   4 -21    0.98    0.21 
   7   4 -21    0.46    0.16 
   6   4 -21    0.18    0.13 
   5   4 -21    0.46    0.17 
   4   4 -21    0.49    0.16 
   3   4 -21    0.17    0.12 
   2   4 -21    0.29    0.15 
   1   4 -21    0.42    0.17 
   0   4 -21    0.51    0.18 
  -1   4 -21    0.03    0.14 
  -2   4 -21   -0.10    0.14 
  -3   4 -21   -0.02    0.15 
  -4   4 -21   -0.06    0.14 
   9   3 -21    0.48    0.19 
   8   3 -21    0.14    0.15 
   7   3 -21    0.39    0.15 
   6   3 -21   -0.01    0.11 
   5   3 -21   -0.02    0.12 
   4   3 -21    0.22    0.13 
   3   3 -21    0.20    0.13 
   2   3 -21    0.03    0.11 
   1   3 -21    0.24    0.14 
   0   3 -21   -0.23    0.10 
  -1   3 -21    0.08    0.14 
  -2   3 -21    0.00    0.14 
  -3   3 -21   -0.06    0.14 
  -4   3 -21    0.43    0.20 
  -5   3 -21    0.29    0.20 
  10   2 -21    0.89    0.24 
   9   2 -21    0.16    0.17 
   8   2 -21    0.19    0.15 
   7   2 -21    0.11    0.13 
   6   2 -21    0.03    0.13 
   5   2 -21   -0.12    0.11 
   4   2 -21    0.26    0.14 
   3   2 -21    0.44    0.16 
   2   2 -21    0.13    0.12 
   1   2 -21   -0.12    0.10 
   0   2 -21    0.53    0.16 
  -1   2 -21    0.16    0.13 
  -2   2 -21    0.24    0.15 
  -3   2 -21    0.39    0.19 
  -4   2 -21   -0.02    0.15 
  -5   2 -21    0.44    0.21 
  11   1 -21    0.36    0.21 
  10   1 -21   -0.24    0.14 
   9   1 -21    0.21    0.15 
   8   1 -21    1.90    0.28 
   7   1 -21    0.87    0.21 
   6   1 -21    0.63    0.18 
   5   1 -21    3.32    0.33 
   4   1 -21    0.72    0.17 
   4   1 -21    1.09    0.23 
   3   1 -21    0.89    0.18 
   2   1 -21    3.93    0.31 
   1   1 -21    0.22    0.14 
   0   1 -21    0.38    0.15 
  -1   1 -21    1.17    0.22 
  -2   1 -21    0.67    0.21 
  -3   1 -21   -0.02    0.15 
  -4   1 -21    0.60    0.19 
  -5   1 -21    0.66    0.23 
  11   0 -21   -0.12    0.17 
  10   0 -21   -0.27    0.15 
   9   0 -21    0.09    0.15 
   8   0 -21   -0.02    0.13 
   7   0 -21   -0.07    0.12 
   6   0 -21   -0.03    0.12 
   5   0 -21    0.09    0.13 
   4   0 -21   -0.03    0.12 
   3   0 -21    0.09    0.13 
   3   0 -21   -0.07    0.11 
   2   0 -21   -0.02    0.11 
   1   0 -21    0.03    0.13 
   0   0 -21    0.01    0.12 
  -1   0 -21    0.16    0.14 
  -2   0 -21   -0.05    0.12 
  -3   0 -21   -0.13    0.11 
  -4   0 -21   -0.16    0.13 
  -5   0 -21   -0.21    0.15 
  11  -1 -21    0.28    0.22 
  10  -1 -21    0.00    0.17 
   9  -1 -21    0.44    0.18 
   8  -1 -21    2.52    0.32 
   7  -1 -21    1.43    0.25 
   6  -1 -21    1.00    0.22 
   5  -1 -21    3.74    0.35 
   4  -1 -21    0.89    0.21 
   3  -1 -21    0.65    0.20 
   3  -1 -21    0.73    0.17 
   2  -1 -21    3.36    0.35 
   2  -1 -21    3.97    0.31 
   1  -1 -21   -0.04    0.10 
   0  -1 -21    0.43    0.16 
  -1  -1 -21    0.75    0.19 
  -2  -1 -21    0.43    0.17 
  -3  -1 -21   -0.09    0.13 
  -4  -1 -21    0.83    0.23 
  -5  -1 -21    0.80    0.24 
  11  -2 -21    0.78    0.25 
  10  -2 -21    0.43    0.21 
   9  -2 -21    0.04    0.18 
   8  -2 -21   -0.05    0.15 
   7  -2 -21   -0.04    0.13 
   6  -2 -21    0.13    0.14 
   5  -2 -21    0.06    0.14 
   4  -2 -21    0.24    0.15 
   3  -2 -21    0.35    0.15 
   2  -2 -21    0.08    0.12 
   2  -2 -21    0.28    0.16 
   1  -2 -21    0.14    0.13 
   1  -2 -21    0.00    0.11 
   0  -2 -21    0.63    0.16 
  -1  -2 -21    0.34    0.16 
  -2  -2 -21    0.33    0.15 
  -3  -2 -21    0.60    0.19 
  -4  -2 -21    0.23    0.18 
  -5  -2 -21    0.72    0.22 
  10  -3 -21    0.01    0.21 
   9  -3 -21    0.39    0.21 
   8  -3 -21    0.15    0.17 
   7  -3 -21    0.79    0.23 
   6  -3 -21    0.14    0.16 
   5  -3 -21   -0.15    0.11 
   4  -3 -21    0.03    0.11 
   3  -3 -21    0.23    0.16 
   2  -3 -21   -0.08    0.10 
   2  -3 -21    0.08    0.13 
   1  -3 -21    0.29    0.14 
   1  -3 -21    0.42    0.17 
   0  -3 -21    0.11    0.12 
   0  -3 -21   -0.06    0.12 
  -1  -3 -21   -0.09    0.11 
  -2  -3 -21   -0.09    0.12 
  -3  -3 -21    0.00    0.15 
  -4  -3 -21    0.46    0.20 
  -5  -3 -21    0.40    0.20 
  10  -4 -21    0.54    0.25 
   9  -4 -21   -0.02    0.18 
   8  -4 -21    0.69    0.24 
   7  -4 -21    0.12    0.17 
   6  -4 -21    0.18    0.17 
   5  -4 -21    0.49    0.18 
   4  -4 -21    0.28    0.17 
   3  -4 -21    0.12    0.12 
   2  -4 -21    0.31    0.16 
   1  -4 -21    0.33    0.16 
   1  -4 -21    0.34    0.14 
   0  -4 -21    0.50    0.16 
   0  -4 -21    0.39    0.16 
  -1  -4 -21    0.26    0.14 
  -1  -4 -21    0.00    0.12 
  -2  -4 -21   -0.05    0.12 
  -2  -4 -21   -0.12    0.12 
  -3  -4 -21    0.23    0.17 
  -4  -4 -21    0.14    0.18 
   9  -5 -21    0.17    0.21 
   8  -5 -21    0.26    0.19 
   7  -5 -21    0.16    0.19 
   6  -5 -21    0.45    0.18 
   5  -5 -21    1.22    0.25 
   4  -5 -21    0.01    0.13 
   3  -5 -21    0.10    0.13 
   2  -5 -21    0.26    0.15 
   1  -5 -21    0.28    0.16 
   1  -5 -21    0.04    0.14 
   0  -5 -21    1.25    0.22 
   0  -5 -21    0.98    0.22 
  -1  -5 -21    0.68    0.20 
  -1  -5 -21    0.18    0.15 
  -2  -5 -21   -0.21    0.11 
  -2  -5 -21   -0.15    0.13 
  -3  -5 -21    0.07    0.16 
  -3  -5 -21    0.08    0.15 
  -4  -5 -21    0.06    0.16 
  -4  -5 -21   -0.06    0.16 
   8  -6 -21    0.06    0.19 
   7  -6 -21    0.15    0.18 
   6  -6 -21   -0.03    0.16 
   5  -6 -21   -0.08    0.15 
   4  -6 -21    0.07    0.16 
   3  -6 -21   -0.12    0.13 
   2  -6 -21    0.20    0.16 
   1  -6 -21    0.10    0.15 
   0  -6 -21    0.09    0.13 
   0  -6 -21    0.22    0.14 
  -1  -6 -21    0.09    0.15 
  -1  -6 -21    0.32    0.16 
  -2  -6 -21   -0.01    0.14 
  -2  -6 -21   -0.13    0.15 
  -3  -6 -21    0.03    0.15 
  -3  -6 -21    0.09    0.17 
   7  -7 -21    0.47    0.22 
   6  -7 -21    0.49    0.21 
   5  -7 -21    0.11    0.15 
   4  -7 -21    0.17    0.17 
   3  -7 -21    0.15    0.17 
   2  -7 -21    0.14    0.16 
   1  -7 -21    0.07    0.15 
   0  -7 -21    0.42    0.18 
   0  -7 -21    0.40    0.19 
  -1  -7 -21    0.31    0.18 
  -1  -7 -21    0.20    0.16 
   5  -8 -21    0.04    0.17 
   4  -8 -21   -0.09    0.15 
   3  -8 -21    0.11    0.18 
   2  -8 -21    0.24    0.18 
   1  -8 -21    0.04    0.16 
   5   7 -22    0.23    0.18 
   4   7 -22   -0.02    0.17 
   3   7 -22   -0.01    0.17 
   2   7 -22   -0.01    0.16 
   1   7 -22    0.05    0.17 
   5   6 -22    0.18    0.16 
   4   6 -22    0.17    0.16 
   3   6 -22    0.34    0.19 
   2   6 -22    0.02    0.16 
   1   6 -22   -0.05    0.14 
   0   6 -22    0.12    0.17 
  -1   6 -22    0.19    0.19 
   7   5 -22    0.18    0.16 
   6   5 -22   -0.04    0.12 
   5   5 -22    0.14    0.17 
   4   5 -22   -0.01    0.14 
   3   5 -22   -0.04    0.13 
   2   5 -22   -0.07    0.13 
   1   5 -22    1.10    0.23 
   0   5 -22    0.66    0.21 
  -1   5 -22    0.09    0.17 
  -2   5 -22    0.45    0.21 
   8   4 -22    0.06    0.14 
   7   4 -22    0.15    0.15 
   6   4 -22    0.11    0.14 
   4   4 -22    0.10    0.13 
   3   4 -22    0.37    0.17 
   2   4 -22    0.55    0.17 
   1   4 -22    0.01    0.12 
   0   4 -22    0.21    0.17 
  -1   4 -22    0.01    0.15 
  -2   4 -22    0.35    0.20 
  -3   4 -22   -0.16    0.16 
   9   3 -22    0.63    0.21 
   8   3 -22    0.95    0.22 
   7   3 -22   -0.01    0.12 
   6   3 -22    2.18    0.29 
   5   3 -22    1.25    0.24 
   4   3 -22    0.29    0.16 
   3   3 -22    1.18    0.22 
   2   3 -22    0.04    0.12 
   1   3 -22    0.32    0.16 
   0   3 -22    0.23    0.15 
  -1   3 -22    0.03    0.13 
  -2   3 -22    0.80    0.23 
  -3   3 -22    0.80    0.23 
  10   2 -22    0.17    0.21 
   9   2 -22    0.85    0.22 
   8   2 -22    0.24    0.16 
   7   2 -22   -0.03    0.13 
   6   2 -22    0.30    0.16 
   5   2 -22    0.04    0.12 
   3   2 -22    0.04    0.13 
   2   2 -22    0.26    0.14 
   1   2 -22    0.17    0.14 
   0   2 -22   -0.03    0.13 
  -1   2 -22    0.38    0.16 
  -2   2 -22    0.46    0.19 
  -3   2 -22    0.19    0.19 
  -4   2 -22   -0.02    0.18 
  10   1 -22    0.18    0.18 
   9   1 -22    0.11    0.17 
   8   1 -22    0.19    0.16 
   7   1 -22    0.04    0.15 
   6   1 -22    1.89    0.27 
   5   1 -22    0.76    0.19 
   4   1 -22    0.10    0.15 
   3   1 -22    0.22    0.14 
   2   1 -22    0.00    0.12 
   1   1 -22   -0.07    0.12 
   0   1 -22    0.21    0.15 
  -1   1 -22   -0.12    0.12 
  -2   1 -22   -0.11    0.15 
  -3   1 -22    0.13    0.18 
  -4   1 -22    0.36    0.19 
  10   0 -22    0.40    0.21 
   9   0 -22    2.83    0.35 
   8   0 -22    0.05    0.15 
   7   0 -22    0.60    0.20 
   6   0 -22    0.01    0.13 
   5   0 -22   -0.05    0.12 
   4   0 -22    0.11    0.14 
   3   0 -22    0.84    0.20 
   3   0 -22    0.84    0.21 
   2   0 -22    0.12    0.13 
   1   0 -22    0.67    0.19 
   0   0 -22    0.00    0.13 
  -1   0 -22    0.18    0.15 
  -2   0 -22    1.06    0.23 
  -3   0 -22   -0.05    0.14 
  -4   0 -22    0.20    0.17 
  10  -1 -22    0.16    0.19 
   9  -1 -22    0.11    0.18 
   8  -1 -22    0.02    0.16 
   7  -1 -22    0.00    0.15 
   6  -1 -22    1.84    0.27 
   5  -1 -22    1.06    0.22 
   4  -1 -22    0.08    0.14 
   3  -1 -22    0.39    0.17 
   2  -1 -22    0.05    0.14 
   2  -1 -22    0.04    0.11 
   1  -1 -22    0.27    0.14 
   0  -1 -22    0.32    0.16 
  -1  -1 -22    0.05    0.14 
  -2  -1 -22   -0.01    0.13 
  -3  -1 -22    0.21    0.17 
  -4  -1 -22    0.48    0.21 
  10  -2 -22    0.29    0.20 
   9  -2 -22    0.79    0.26 
   8  -2 -22    0.34    0.20 
   7  -2 -22    0.16    0.17 
   6  -2 -22    0.26    0.16 
   5  -2 -22    0.14    0.16 
   4  -2 -22    0.07    0.13 
   3  -2 -22    0.08    0.13 
   2  -2 -22    0.25    0.13 
   2  -2 -22    0.24    0.15 
   1  -2 -22    0.15    0.13 
   1  -2 -22    0.14    0.14 
   0  -2 -22    0.15    0.14 
  -1  -2 -22    0.48    0.17 
  -2  -2 -22    0.56    0.19 
  -3  -2 -22   -0.03    0.15 
  -4  -2 -22   -0.03    0.16 
   9  -3 -22    0.47    0.25 
   8  -3 -22    0.51    0.23 
   7  -3 -22    0.10    0.18 
   6  -3 -22    1.87    0.30 
   5  -3 -22    1.04    0.23 
   4  -3 -22    0.29    0.16 
   3  -3 -22    1.19    0.25 
   2  -3 -22    0.22    0.15 
   1  -3 -22    0.40    0.17 
   1  -3 -22    0.21    0.14 
   0  -3 -22    0.07    0.14 
   0  -3 -22   -0.08    0.12 
  -1  -3 -22   -0.10    0.13 
  -1  -3 -22    0.01    0.12 
  -2  -3 -22    0.67    0.20 
  -3  -3 -22    0.97    0.23 
   9  -4 -22   -0.03    0.19 
   8  -4 -22    0.09    0.20 
   7  -4 -22    0.17    0.18 
   6  -4 -22    0.03    0.17 
   5  -4 -22    0.18    0.15 
   4  -4 -22    0.16    0.16 
   3  -4 -22    0.43    0.17 
   2  -4 -22    0.19    0.14 
   1  -4 -22    0.17    0.15 
   1  -4 -22   -0.01    0.12 
   0  -4 -22    0.27    0.16 
   0  -4 -22    0.31    0.16 
  -1  -4 -22    0.10    0.14 
  -1  -4 -22   -0.06    0.13 
  -2  -4 -22   -0.07    0.15 
  -2  -4 -22   -0.06    0.15 
  -3  -4 -22    0.05    0.15 
  -3  -4 -22    0.09    0.18 
   8  -5 -22   -0.05    0.18 
   7  -5 -22    0.14    0.20 
   6  -5 -22    0.01    0.14 
   5  -5 -22   -0.11    0.14 
   4  -5 -22    0.13    0.15 
   3  -5 -22    0.24    0.16 
   2  -5 -22    0.03    0.11 
   1  -5 -22    0.99    0.22 
   0  -5 -22    0.65    0.20 
   0  -5 -22    0.52    0.18 
  -1  -5 -22   -0.01    0.15 
  -1  -5 -22   -0.05    0.13 
  -2  -5 -22    0.23    0.16 
  -2  -5 -22    0.56    0.20 
   7  -6 -22    0.09    0.18 
   6  -6 -22    0.16    0.19 
   5  -6 -22    0.26    0.17 
   4  -6 -22    0.11    0.16 
   3  -6 -22    0.19    0.17 
   2  -6 -22    0.14    0.17 
   1  -6 -22    0.05    0.15 
   0  -6 -22   -0.07    0.14 
   0  -6 -22   -0.11    0.15 
  -1  -6 -22    0.14    0.17 
  -1  -6 -22    0.05    0.15 
   5  -7 -22    0.30    0.19 
   4  -7 -22    0.01    0.17 
   3  -7 -22    0.30    0.20 
   2  -7 -22   -0.17    0.14 
   1  -7 -22    0.17    0.17 
   6   5 -23    1.08    0.24 
   4   5 -23    0.23    0.17 
   3   5 -23    0.04    0.15 
   2   5 -23    0.30    0.18 
   1   5 -23   -0.04    0.15 
   0   5 -23    0.05    0.18 
   7   4 -23    0.76    0.20 
   6   4 -23    1.06    0.23 
   4   4 -23   -0.11    0.13 
   3   4 -23    0.02    0.15 
   2   4 -23    0.22    0.17 
   1   4 -23   -0.12    0.14 
   0   4 -23    0.37    0.20 
  -1   4 -23    0.21    0.18 
   8   3 -23    0.02    0.16 
   7   3 -23    0.04    0.15 
   6   3 -23    0.06    0.16 
   5   3 -23   -0.07    0.14 
   3   3 -23    0.37    0.17 
   2   3 -23    0.07    0.14 
   1   3 -23   -0.03    0.14 
   0   3 -23    0.07    0.15 
  -1   3 -23   -0.05    0.14 
  -2   3 -23   -0.02    0.16 
   8   2 -23    0.20    0.18 
   7   2 -23    0.28    0.18 
   6   2 -23   -0.21    0.13 
   5   2 -23    0.03    0.15 
   4   2 -23    0.02    0.15 
   3   2 -23    0.04    0.13 
   2   2 -23   -0.04    0.12 
   1   2 -23   -0.15    0.12 
   0   2 -23   -0.02    0.14 
  -1   2 -23    0.59    0.20 
  -2   2 -23    0.24    0.19 
   9   1 -23   -0.08    0.17 
   8   1 -23    0.11    0.17 
   7   1 -23    0.46    0.20 
   6   1 -23    0.85    0.21 
   5   1 -23    0.33    0.17 
   4   1 -23    1.59    0.27 
   3   1 -23    0.64    0.19 
   2   1 -23    0.20    0.15 
   1   1 -23    0.91    0.22 
   0   1 -23    0.16    0.17 
  -1   1 -23   -0.01    0.16 
  -2   1 -23   -0.10    0.13 
  -3   1 -23    0.02    0.16 
   9   0 -23   -0.16    0.17 
   8   0 -23    0.12    0.17 
   7   0 -23    0.12    0.17 
   6   0 -23   -0.06    0.15 
   5   0 -23    0.09    0.17 
   4   0 -23   -0.10    0.14 
   3   0 -23   -0.21    0.14 
   2   0 -23    0.15    0.15 
   1   0 -23   -0.04    0.13 
   0   0 -23    0.07    0.15 
  -1   0 -23    0.16    0.16 
  -2   0 -23    0.05    0.17 
  -3   0 -23   -0.09    0.14 
   9  -1 -23   -0.04    0.19 
   8  -1 -23    0.10    0.19 
   7  -1 -23    0.91    0.25 
   6  -1 -23    0.52    0.20 
   5  -1 -23   -0.05    0.14 
   4  -1 -23    1.83    0.29 
   3  -1 -23    0.68    0.21 
   2  -1 -23    0.10    0.16 
   2  -1 -23    0.27    0.16 
   1  -1 -23    0.89    0.21 
   0  -1 -23   -0.05    0.13 
  -1  -1 -23    0.03    0.15 
  -2  -1 -23    0.14    0.17 
  -3  -1 -23    0.03    0.16 
   8  -2 -23    0.14    0.21 
   7  -2 -23    0.26    0.20 
   6  -2 -23    0.07    0.17 
   5  -2 -23    0.16    0.17 
   4  -2 -23    0.15    0.16 
   3  -2 -23    0.15    0.16 
   2  -2 -23   -0.02    0.12 
   1  -2 -23    0.07    0.13 
   1  -2 -23    0.07    0.14 
   0  -2 -23    0.08    0.14 
   0  -2 -23    0.15    0.14 
  -1  -2 -23    0.37    0.19 
  -2  -2 -23    0.19    0.18 
   8  -3 -23   -0.23    0.16 
   7  -3 -23    0.11    0.19 
   6  -3 -23    0.21    0.18 
   5  -3 -23   -0.24    0.14 
   4  -3 -23    0.07    0.14 
   3  -3 -23    0.49    0.19 
   2  -3 -23    0.04    0.13 
   1  -3 -23    0.10    0.15 
   1  -3 -23   -0.01    0.13 
   0  -3 -23   -0.02    0.14 
   0  -3 -23    0.10    0.15 
  -1  -3 -23    0.02    0.15 
  -1  -3 -23   -0.04    0.14 
  -2  -3 -23    0.02    0.17 
   7  -4 -23    0.83    0.26 
   6  -4 -23    1.45    0.30 
   5  -4 -23    0.44    0.19 
   4  -4 -23    0.06    0.14 
   3  -4 -23    0.08    0.13 
   2  -4 -23    0.22    0.16 
   1  -4 -23    0.23    0.15 
   0  -4 -23    0.10    0.16 
   0  -4 -23    0.25    0.17 
  -1  -4 -23    0.50    0.20 
  -1  -4 -23    0.30    0.17 
   6  -5 -23    0.83    0.24 
   5  -5 -23   -0.06    0.16 
   4  -5 -23    0.31    0.17 
   3  -5 -23    0.04    0.15 
   2  -5 -23    0.11    0.14 
   1  -5 -23    0.04    0.14 
   0  -5 -23    0.16    0.17 
   0  -5 -23    0.20    0.19 
   3  -6 -23    0.56    0.21 
   3   4 -24    1.13    0.26 
   2   4 -24    0.00    0.16 
   6   3 -24    0.25    0.19 
   5   3 -24    0.56    0.21 
   3   3 -24    0.13    0.18 
   2   3 -24    0.52    0.19 
   1   3 -24   -0.11    0.16 
   7   2 -24    0.06    0.17 
   6   2 -24    0.00    0.17 
   5   2 -24   -0.08    0.16 
   4   2 -24    0.11    0.18 
   2   2 -24    0.20    0.16 
   1   2 -24    0.13    0.16 
   0   2 -24    0.73    0.23 
   7   1 -24   -0.02    0.18 
   6   1 -24    0.21    0.19 
   5   1 -24    0.17    0.17 
   4   1 -24    0.41    0.20 
   3   1 -24   -0.16    0.15 
   2   1 -24   -0.07    0.15 
   1   1 -24   -0.01    0.16 
   0   1 -24    0.14    0.17 
  -1   1 -24    0.13    0.19 
   7   0 -24   -0.01    0.19 
   6   0 -24    0.29    0.20 
   5   0 -24    0.41    0.21 
   4   0 -24    0.30    0.19 
   3   0 -24    0.23    0.18 
   2   0 -24    1.21    0.24 
   2   0 -24    1.05    0.25 
   1   0 -24    0.25    0.16 
   0   0 -24    0.79    0.22 
  -1   0 -24    1.00    0.24 
   7  -1 -24    0.11    0.18 
   6  -1 -24    0.19    0.18 
   5  -1 -24    0.46    0.22 
   4  -1 -24    0.35    0.19 
   3  -1 -24   -0.08    0.16 
   2  -1 -24    0.05    0.17 
   1  -1 -24    0.00    0.14 
   1  -1 -24   -0.12    0.14 
   0  -1 -24    0.36    0.19 
  -1  -1 -24   -0.02    0.16 
   7  -2 -24    0.20    0.19 
   6  -2 -24    0.26    0.20 
   5  -2 -24   -0.14    0.15 
   4  -2 -24   -0.02    0.16 
   3  -2 -24    0.85    0.24 
   2  -2 -24    0.03    0.15 
   1  -2 -24    0.04    0.15 
   1  -2 -24   -0.01    0.15 
   0  -2 -24    0.45    0.19 
   0  -2 -24    0.31    0.18 
   6  -3 -24   -0.17    0.17 
   5  -3 -24    0.60    0.23 
   4  -3 -24    0.09    0.16 
   3  -3 -24    0.10    0.17 
   2  -3 -24    0.49    0.20 
   1  -3 -24    0.05    0.14 
   4  -4 -24    0.17    0.17 
   3  -4 -24    0.69    0.21 
   2  -4 -24   -0.05    0.16 
   0   0   0    0.00    0.00 
;
_shelx_hkl_checksum              76201
loop_
_space_group_symop_operation_xyz
'x, y, z'
'-x, y+1/2, -z+1/2'
'-x, -y, -z'
'x, -y-1/2, z-1/2'
loop_
_atom_site_label
_atom_site_type_symbol
_atom_site_fract_x
_atom_site_fract_y
_atom_site_fract_z
_atom_site_U_iso_or_equiv
_atom_site_adp_type
_atom_site_occupancy
_atom_site_site_symmetry_order
_atom_site_calc_flag
_atom_site_refinement_flags_posn
_atom_site_refinement_flags_adp
_atom_site_refinement_flags_occupancy
_atom_site_disorder_assembly
_atom_site_disorder_group
S1 S 0.34669(6) 0.43655(6) 0.14894(4) 0.0516(2) Uani 1 1 d . . . . .
Cl1 Cl 0.27505(9) 0.61572(10) 0.61183(5) 0.0879(4) Uani 1 1 d . . . . .
N1 N 0.5129(2) 0.6305(2) 0.36993(14) 0.0549(6) Uani 1 1 d D . . . .
N2 N 0.4406(2) 0.41066(19) 0.22313(13) 0.0472(6) Uani 1 1 d D . . . .
O1 O 0.33595(18) 0.39378(17) 0.34616(11) 0.0602(6) Uani 1 1 d . . . . .
O2 O 0.6040(2) 0.66644(19) 0.25023(15) 0.0861(8) Uani 1 1 d . . . . .
O3 O 0.38678(19) 0.53159(19) 0.11374(12) 0.0679(6) Uani 1 1 d . . . . .
O4 O 0.32606(19) 0.32908(19) 0.11221(12) 0.0681(6) Uani 1 1 d . . . . .
C1 C 0.4649(2) 0.6393(2) 0.43121(15) 0.0493(7) Uani 1 1 d . . . . .
C2 C 0.4843(3) 0.7210(3) 0.48623(17) 0.0595(8) Uani 1 1 d . . . . .
H2 H 0.5355 0.7799 0.4862 0.071 Uiso 1 1 calc R U . . .
C3 C 0.4246(3) 0.7116(3) 0.54117(17) 0.0648(9) Uani 1 1 d . . . . .
H3 H 0.4357 0.7649 0.5791 0.078 Uiso 1 1 calc R U . . .
C4 C 0.3477(3) 0.6231(3) 0.54056(17) 0.0607(8) Uani 1 1 d . . . . .
C5 C 0.3288(3) 0.5419(3) 0.48633(16) 0.0551(7) Uani 1 1 d . . . . .
H5 H 0.2782 0.4826 0.4867 0.066 Uiso 1 1 calc R U . . .
C6 C 0.3882(2) 0.5517(2) 0.43089(15) 0.0477(7) Uani 1 1 d . . . . .
C7 C 0.3868(2) 0.4812(2) 0.36556(15) 0.0457(6) Uani 1 1 d . . . . .
C8 C 0.4683(2) 0.5407(2) 0.32662(15) 0.0454(6) Uani 1 1 d . . . . .
C9 C 0.4942(2) 0.5068(2) 0.26211(15) 0.0446(6) Uani 1 1 d . . . . .
C10 C 0.5799(3) 0.5676(3) 0.23107(16) 0.0541(7) Uani 1 1 d . . . . .
C11 C 0.6392(2) 0.5095(3) 0.17905(16) 0.0524(7) Uani 1 1 d . . . . .
C12 C 0.6663(3) 0.3937(3) 0.18409(18) 0.0605(8) Uani 1 1 d . . . . .
H12 H 0.6437 0.3478 0.2192 0.073 Uiso 1 1 calc R U . . .
C13 C 0.7274(3) 0.3469(4) 0.1366(2) 0.0837(12) Uani 1 1 d . . . . .
H13 H 0.7486 0.2700 0.1405 0.100 Uiso 1 1 calc R U . . .
C14 C 0.7565(3) 0.4162(5) 0.0829(3) 0.1013(16) Uani 1 1 d . . . . .
H14 H 0.7956 0.3844 0.0499 0.122 Uiso 1 1 calc R U . . .
C15 C 0.7292(4) 0.5296(5) 0.0774(2) 0.0938(13) Uani 1 1 d . . . . .
H15 H 0.7489 0.5744 0.0408 0.113 Uiso 1 1 calc R U . . .
C16 C 0.6723(3) 0.5779(3) 0.12624(19) 0.0708(9) Uani 1 1 d . . . . .
H16 H 0.6561 0.6561 0.1239 0.085 Uiso 1 1 calc R U . . .
C17 C 0.2261(2) 0.4791(3) 0.17825(16) 0.0531(7) Uani 1 1 d . . . . .
C18 C 0.2111(3) 0.5925(3) 0.1939(2) 0.0737(10) Uani 1 1 d . . . . .
H18 H 0.2624 0.6478 0.1866 0.088 Uiso 1 1 calc R U . . .
C19 C 0.1184(3) 0.6233(4) 0.2207(3) 0.0889(12) Uani 1 1 d . . . . .
H19 H 0.1081 0.7002 0.2313 0.107 Uiso 1 1 calc R U . . .
C20 C 0.0413(3) 0.5446(4) 0.2322(2) 0.0805(11) Uani 1 1 d . . . . .
C21 C 0.0591(3) 0.4321(4) 0.2161(2) 0.0893(12) Uani 1 1 d . . . . .
H21 H 0.0077 0.3769 0.2234 0.107 Uiso 1 1 calc R U . . .
C22 C 0.1503(3) 0.3980(3) 0.1897(2) 0.0778(11) Uani 1 1 d . . . . .
H22 H 0.1607 0.3209 0.1796 0.093 Uiso 1 1 calc R U . . .
C23 C -0.0602(4) 0.5791(5) 0.2618(3) 0.1199(18) Uani 1 1 d . . . . .
H23A H -0.1175 0.5227 0.2477 0.180 Uiso 1 1 calc R U . . .
H23B H -0.0862 0.6527 0.2421 0.180 Uiso 1 1 calc R U . . .
H23C H -0.0410 0.5838 0.3141 0.180 Uiso 1 1 calc R U . . .
C24 C 0.0888(19) 0.2381(16) 1.0054(9) 0.199(3) Uani 0.5 1 d . U P A 1
H24 H 0.1583 0.2762 1.0280 0.239 Uiso 0.5 1 calc R U P A 1
Cl2 Cl 0.1056(11) 0.1879(10) 0.9104(5) 0.182(3) Uani 0.5 1 d . U P A 1
Cl3 Cl 0.0817(7) 0.1318(4) 1.0475(3) 0.213(2) Uani 0.5 1 d . U P A 1
Cl4 Cl -0.0014(9) 0.3360(7) 0.9843(6) 0.218(3) Uani 0.5 1 d . U P A 1
C24' C 0.025(2) 0.2183(16) 0.9701(9) 0.200(3) Uani 0.5 1 d . U P B 2
H24' H -0.0474 0.2074 0.9373 0.240 Uiso 0.5 1 calc R U P B 2
Cl2' Cl 0.0880(10) 0.1702(12) 0.9166(6) 0.206(5) Uani 0.5 1 d . . P B 2
Cl3' Cl -0.0166(5) 0.1608(4) 1.0413(2) 0.1713(17) Uani 0.5 1 d . . P B 2
Cl4' Cl 0.0056(4) 0.3766(5) 0.9780(4) 0.1289(15) Uani 0.5 1 d . . P B 2
H1A H 0.553(2) 0.679(2) 0.3571(17) 0.057(9) Uiso 1 1 d D . . . .
H2A H 0.419(2) 0.3590(19) 0.2462(14) 0.042(8) Uiso 1 1 d D . . . .
loop_
_atom_site_aniso_label
_atom_site_aniso_U_11
_atom_site_aniso_U_22
_atom_site_aniso_U_33
_atom_site_aniso_U_23
_atom_site_aniso_U_13
_atom_site_aniso_U_12
S1 0.0647(5) 0.0479(4) 0.0445(4) 0.0012(3) 0.0165(3) 0.0059(3)
Cl1 0.0937(7) 0.1188(8) 0.0606(6) -0.0136(5) 0.0381(5) 0.0192(6)
N1 0.0736(17) 0.0424(14) 0.0545(16) -0.0039(12) 0.0265(13) -0.0076(13)
N2 0.0641(15) 0.0358(13) 0.0452(14) 0.0031(10) 0.0198(12) 0.0010(11)
O1 0.0785(14) 0.0527(12) 0.0556(13) -0.0067(10) 0.0284(11) -0.0153(11)
O2 0.133(2) 0.0458(13) 0.0992(19) -0.0083(13) 0.0707(17) -0.0210(13)
O3 0.0772(15) 0.0707(14) 0.0594(13) 0.0223(11) 0.0222(11) 0.0052(11)
O4 0.0844(15) 0.0638(14) 0.0557(13) -0.0156(11) 0.0131(11) 0.0092(11)
C1 0.0618(17) 0.0422(15) 0.0454(16) 0.0012(12) 0.0144(14) 0.0070(13)
C2 0.075(2) 0.0467(17) 0.0572(19) -0.0064(14) 0.0134(16) 0.0034(15)
C3 0.080(2) 0.064(2) 0.0505(18) -0.0160(16) 0.0119(17) 0.0159(18)
C4 0.069(2) 0.070(2) 0.0473(18) -0.0027(16) 0.0214(15) 0.0190(17)
C5 0.0594(18) 0.0584(18) 0.0514(18) 0.0011(14) 0.0205(15) 0.0072(14)
C6 0.0576(17) 0.0454(16) 0.0424(15) -0.0014(12) 0.0153(13) 0.0079(13)
C7 0.0551(16) 0.0413(15) 0.0428(15) 0.0027(12) 0.0150(13) 0.0035(13)
C8 0.0565(16) 0.0365(14) 0.0455(15) 0.0026(12) 0.0160(13) 0.0027(12)
C9 0.0588(16) 0.0332(14) 0.0445(15) 0.0031(12) 0.0171(13) 0.0049(12)
C10 0.073(2) 0.0424(16) 0.0519(17) 0.0050(13) 0.0243(15) 0.0001(14)
C11 0.0534(17) 0.0593(19) 0.0473(16) -0.0012(14) 0.0169(14) -0.0027(14)
C12 0.0594(18) 0.063(2) 0.060(2) -0.0122(16) 0.0152(15) -0.0018(15)
C13 0.061(2) 0.088(3) 0.104(3) -0.043(2) 0.023(2) -0.0027(19)
C14 0.074(3) 0.153(5) 0.090(3) -0.051(3) 0.046(2) -0.020(3)
C15 0.093(3) 0.132(4) 0.067(2) 0.000(3) 0.042(2) -0.012(3)
C16 0.065(2) 0.091(3) 0.061(2) 0.0108(19) 0.0260(17) -0.0029(18)
C17 0.0576(17) 0.0504(17) 0.0512(17) -0.0011(14) 0.0108(14) 0.0028(14)
C18 0.069(2) 0.0503(19) 0.105(3) 0.0001(18) 0.025(2) 0.0057(16)
C19 0.079(3) 0.069(2) 0.120(4) -0.018(2) 0.024(2) 0.020(2)
C20 0.060(2) 0.103(3) 0.079(3) -0.019(2) 0.0146(19) 0.008(2)
C21 0.070(2) 0.095(3) 0.111(3) -0.015(3) 0.037(2) -0.022(2)
C22 0.078(2) 0.059(2) 0.102(3) -0.017(2) 0.033(2) -0.0114(18)
C23 0.078(3) 0.162(5) 0.128(4) -0.035(4) 0.037(3) 0.016(3)
C24 0.318(6) 0.154(4) 0.159(5) 0.019(4) 0.126(5) 0.062(4)
Cl2 0.300(6) 0.139(4) 0.145(4) 0.028(3) 0.137(4) 0.072(4)
Cl3 0.367(6) 0.157(3) 0.140(3) 0.017(3) 0.112(4) 0.035(4)
Cl4 0.297(6) 0.182(5) 0.204(5) 0.003(4) 0.120(4) 0.094(4)
C24' 0.319(6) 0.156(4) 0.159(5) 0.018(4) 0.126(5) 0.064(4)
Cl2' 0.211(6) 0.215(9) 0.199(7) 0.040(6) 0.056(5) 0.113(6)
Cl3' 0.217(4) 0.166(4) 0.130(3) 0.032(3) 0.032(3) -0.052(3)
Cl4' 0.114(2) 0.128(3) 0.163(3) 0.024(3) 0.071(2) 0.029(2)
loop_
_atom_type_symbol
_atom_type_description
_atom_type_scat_dispersion_real
_atom_type_scat_dispersion_imag
_atom_type_scat_source
C C 0.0033 0.0016 'International Tables Vol C Tables 4.2.6.8 and 6.1.1.4'
H H 0.0000 0.0000 'International Tables Vol C Tables 4.2.6.8 and 6.1.1.4'
N N 0.0061 0.0033 'International Tables Vol C Tables 4.2.6.8 and 6.1.1.4'
O O 0.0106 0.0060 'International Tables Vol C Tables 4.2.6.8 and 6.1.1.4'
S S 0.1246 0.1234 'International Tables Vol C Tables 4.2.6.8 and 6.1.1.4'
Cl Cl 0.1484 0.1585 'International Tables Vol C Tables 4.2.6.8 and 6.1.1.4'
loop_
_geom_angle_atom_site_label_1
_geom_angle_atom_site_label_2
_geom_angle_atom_site_label_3
_geom_angle
O4 S1 O3 120.27(14)
O4 S1 N2 105.80(13)
O3 S1 N2 106.30(13)
O4 S1 C17 108.52(14)
O3 S1 C17 108.58(14)
N2 S1 C17 106.57(13)
C8 N1 C1 110.8(2)
C8 N1 H1A 123(2)
C1 N1 H1A 125(2)
C9 N2 S1 117.57(18)
C9 N2 H2A 119(2)
S1 N2 H2A 109(2)
C2 C1 C6 121.5(3)
C2 C1 N1 128.4(3)
C6 C1 N1 110.1(2)
C3 C2 C1 117.3(3)
C3 C2 H2 121.4
C1 C2 H2 121.4
C2 C3 C4 120.9(3)
C2 C3 H3 119.6
C4 C3 H3 119.6
C5 C4 C3 121.9(3)
C5 C4 Cl1 119.5(3)
C3 C4 Cl1 118.6(2)
C4 C5 C6 117.3(3)
C4 C5 H5 121.3
C6 C5 H5 121.3
C5 C6 C1 121.1(3)
C5 C6 C7 130.9(3)
C1 C6 C7 108.0(2)
O1 C7 C6 129.6(3)
O1 C7 C8 126.2(2)
C6 C7 C8 104.2(2)
C9 C8 N1 127.3(3)
C9 C8 C7 125.8(3)
N1 C8 C7 106.9(2)
C8 C9 N2 120.8(2)
C8 C9 C10 121.2(3)
N2 C9 C10 117.9(2)
O2 C10 C9 119.0(3)
O2 C10 C11 119.6(3)
C9 C10 C11 121.3(3)
C12 C11 C16 120.2(3)
C12 C11 C10 122.6(3)
C16 C11 C10 117.1(3)
C13 C12 C11 119.5(3)
C13 C12 H12 120.2
C11 C12 H12 120.2
C12 C13 C14 119.1(4)
C12 C13 H13 120.4
C14 C13 H13 120.4
C15 C14 C13 121.4(4)
C15 C14 H14 119.3
C13 C14 H14 119.3
C14 C15 C16 119.8(4)
C14 C15 H15 120.1
C16 C15 H15 120.1
C15 C16 C11 119.8(4)
C15 C16 H16 120.1
C11 C16 H16 120.1
C18 C17 C22 120.2(3)
C18 C17 S1 119.8(2)
C22 C17 S1 119.9(2)
C17 C18 C19 118.8(3)
C17 C18 H18 120.6
C19 C18 H18 120.6
C20 C19 C18 122.2(4)
C20 C19 H19 118.9
C18 C19 H19 118.9
C19 C20 C21 117.3(3)
C19 C20 C23 121.9(4)
C21 C20 C23 120.8(4)
C20 C21 C22 122.2(4)
C20 C21 H21 118.9
C22 C21 H21 118.9
C21 C22 C17 119.2(3)
C21 C22 H22 120.4
C17 C22 H22 120.4
C20 C23 H23A 109.5
C20 C23 H23B 109.5
H23A C23 H23B 109.5
C20 C23 H23C 109.5
H23A C23 H23C 109.5
H23B C23 H23C 109.5
Cl3 C24 Cl4 128.4(15)
Cl3 C24 Cl2 105.5(11)
Cl4 C24 Cl2 100.9(11)
Cl3 C24 H24 106.8
Cl4 C24 H24 106.8
Cl2 C24 H24 106.8
Cl2' C24' Cl3' 132.1(13)
Cl2' C24' Cl4' 120.9(13)
Cl3' C24' Cl4' 105.7(9)
Cl2' C24' H24' 93.6
Cl3' C24' H24' 93.6
Cl4' C24' H24' 93.6
loop_
_geom_bond_atom_site_label_1
_geom_bond_atom_site_label_2
_geom_bond_distance
S1 O4 1.423(2)
S1 O3 1.423(2)
S1 N2 1.643(3)
S1 C17 1.753(3)
Cl1 C4 1.747(3)
N1 C8 1.366(4)
N1 C1 1.392(4)
N1 H1A 0.821(18)
N2 C9 1.421(4)
N2 H2A 0.815(17)
O1 C7 1.210(3)
O2 C10 1.223(4)
C1 C2 1.384(4)
C1 C6 1.388(4)
C2 C3 1.381(4)
C2 H2 0.9300
C3 C4 1.396(5)
C3 H3 0.9300
C4 C5 1.369(4)
C5 C6 1.386(4)
C5 H5 0.9300
C6 C7 1.466(4)
C7 C8 1.518(4)
C8 C9 1.364(4)
C9 C10 1.480(4)
C10 C11 1.488(4)
C11 C12 1.386(4)
C11 C16 1.389(4)
C12 C13 1.383(5)
C12 H12 0.9300
C13 C14 1.387(6)
C13 H13 0.9300
C14 C15 1.359(7)
C14 H14 0.9300
C15 C16 1.375(5)
C15 H15 0.9300
C16 H16 0.9300
C17 C18 1.371(4)
C17 C22 1.372(5)
C18 C19 1.381(5)
C18 H18 0.9300
C19 C20 1.365(6)
C19 H19 0.9300
C20 C21 1.369(6)
C20 C23 1.517(5)
C21 C22 1.371(5)
C21 H21 0.9300
C22 H22 0.9300
C23 H23A 0.9600
C23 H23B 0.9600
C23 H23C 0.9600
C24 Cl3 1.476(18)
C24 Cl4 1.58(2)
C24 Cl2 1.917(18)
C24 H24 0.9800
C24' Cl2' 1.493(19)
C24' Cl3' 1.656(17)
C24' Cl4' 1.865(19)
C24' H24' 0.9800
loop_
_geom_hbond_atom_site_label_D
_geom_hbond_atom_site_label_H
_geom_hbond_atom_site_label_A
_geom_hbond_distance_DH
_geom_hbond_distance_HA
_geom_hbond_distance_DA
_geom_hbond_angle_DHA
_geom_hbond_site_symmetry_A
N2 H2A O2 0.815(17) 2.26(2) 2.953(3) 143(3) 2_645
N2 H2A O1 0.815(17) 2.33(2) 2.856(3) 123(2) .
N1 H1A O4 0.821(18) 2.29(2) 3.016(3) 149(3) 2_655
N1 H1A O2 0.821(18) 2.21(3) 2.725(3) 121(3) .
C24 H24 O4 0.98 2.41 3.36(2) 162.8 1_556
C3 H3 O3 0.93 2.56 3.349(4) 143.4 4_576
loop_
_geom_torsion_atom_site_label_1
_geom_torsion_atom_site_label_2
_geom_torsion_atom_site_label_3
_geom_torsion_atom_site_label_4
_geom_torsion
O4 S1 N2 C9 166.8(2)
O3 S1 N2 C9 37.8(2)
C17 S1 N2 C9 -77.8(2)
C8 N1 C1 C2 -177.2(3)
C8 N1 C1 C6 1.7(3)
C6 C1 C2 C3 0.4(4)
N1 C1 C2 C3 179.2(3)
C1 C2 C3 C4 -0.2(5)
C2 C3 C4 C5 0.5(5)
C2 C3 C4 Cl1 179.8(2)
C3 C4 C5 C6 -0.9(5)
Cl1 C4 C5 C6 179.8(2)
C4 C5 C6 C1 1.0(4)
C4 C5 C6 C7 -179.3(3)
C2 C1 C6 C5 -0.8(4)
N1 C1 C6 C5 -179.8(3)
C2 C1 C6 C7 179.5(3)
N1 C1 C6 C7 0.4(3)
C5 C6 C7 O1 -3.5(5)
C1 C6 C7 O1 176.2(3)
C5 C6 C7 C8 178.2(3)
C1 C6 C7 C8 -2.1(3)
C1 N1 C8 C9 179.4(3)
C1 N1 C8 C7 -3.0(3)
O1 C7 C8 C9 2.3(5)
C6 C7 C8 C9 -179.3(3)
O1 C7 C8 N1 -175.3(3)
C6 C7 C8 N1 3.1(3)
N1 C8 C9 N2 179.7(3)
C7 C8 C9 N2 2.6(4)
N1 C8 C9 C10 0.6(5)
C7 C8 C9 C10 -176.4(3)
S1 N2 C9 C8 105.5(3)
S1 N2 C9 C10 -75.3(3)
C8 C9 C10 O2 -21.7(5)
N2 C9 C10 O2 159.2(3)
C8 C9 C10 C11 156.4(3)
N2 C9 C10 C11 -22.7(4)
O2 C10 C11 C12 143.2(3)
C9 C10 C11 C12 -34.9(4)
O2 C10 C11 C16 -33.6(5)
C9 C10 C11 C16 148.3(3)
C16 C11 C12 C13 0.5(5)
C10 C11 C12 C13 -176.1(3)
C11 C12 C13 C14 -2.5(5)
C12 C13 C14 C15 2.0(6)
C13 C14 C15 C16 0.6(7)
C14 C15 C16 C11 -2.6(6)
C12 C11 C16 C15 2.0(5)
C10 C11 C16 C15 178.9(3)
O4 S1 C17 C18 -159.4(3)
O3 S1 C17 C18 -27.1(3)
N2 S1 C17 C18 87.0(3)
O4 S1 C17 C22 24.5(3)
O3 S1 C17 C22 156.8(3)
N2 S1 C17 C22 -89.0(3)
C22 C17 C18 C19 -0.5(6)
S1 C17 C18 C19 -176.5(3)
C17 C18 C19 C20 0.1(7)
C18 C19 C20 C21 0.1(7)
C18 C19 C20 C23 179.9(4)
C19 C20 C21 C22 0.1(7)
C23 C20 C21 C22 -179.7(4)
C20 C21 C22 C17 -0.5(7)
C18 C17 C22 C21 0.7(6)
S1 C17 C22 C21 176.7(3)
