#------------------------------------------------------------------------------
#$Date: 2017-09-28 16:03:16 +0300 (Thu, 28 Sep 2017) $
#$Revision: 201430 $
#$URL: file:///home/coder/svn-repositories/cod/cif/1/54/74/1547428.cif $
#------------------------------------------------------------------------------
#
# This file is available in the Crystallography Open Database (COD),
# http://www.crystallography.net/
#
# All data on this site have been placed in the public domain by the
# contributors.
#
data_1547428
loop_
_publ_author_name
'Anuradha R. Pallipurath'
'Jonathan M. Skelton'
'Mark R. Warren'
'Naghmeh Kamali'
'Patrick McArdle'
'Andrea Erxleben'
_publ_section_title
;
 Sulfamerazine: Understanding the Influence of Slip Planes in the
 Polymorphic Phase Transformation through X-Ray Crystallographic Studies
 and ab Initio Lattice Dynamics
;
_journal_name_full               'Molecular Pharmaceutics'
_journal_page_first              3735
_journal_page_last               3748
_journal_paper_doi               10.1021/acs.molpharmaceut.5b00504
_journal_volume                  12
_journal_year                    2015
_chemical_absolute_configuration ad
_chemical_formula_moiety         'C11 H12 N4 O2 S'
_chemical_formula_sum            'C11 H12 N4 O2 S'
_chemical_formula_weight         264.31
_space_group_crystal_system      orthorhombic
_space_group_IT_number           33
_space_group_name_Hall           'P 2c -2n'
_space_group_name_H-M_alt        'P n a 21'
_symmetry_space_group_name_Hall  'P 2c -2n'
_symmetry_space_group_name_H-M   'P n a 21'
_atom_sites_solution_hydrogens   mixed
_cell_angle_alpha                90
_cell_angle_beta                 90
_cell_angle_gamma                90
_cell_formula_units_Z            8
_cell_length_a                   14.5040(2)
_cell_length_b                   8.21620(10)
_cell_length_c                   21.9984(4)
_cell_measurement_reflns_used    9336
_cell_measurement_temperature    300
_cell_measurement_theta_max      29.4290
_cell_measurement_theta_min      1.7960
_cell_volume                     2621.50(7)
_computing_cell_refinement
;
CrysAlisPro, Agilent Technologies,
Version 1.171.37.35 (release 13-08-2014 CrysAlis171 .NET)
(compiled Aug 13 2014,18:06:01)
;
_computing_data_collection
;
CrysAlisPro, Agilent Technologies,
Version 1.171.37.35 (release 13-08-2014 CrysAlis171 .NET)
(compiled Aug 13 2014,18:06:01)
;
_computing_data_reduction
;
CrysAlisPro, Agilent Technologies,
Version 1.171.37.35 (release 13-08-2014 CrysAlis171 .NET)
(compiled Aug 13 2014,18:06:01)
;
_computing_molecular_graphics    OSCAIL
_computing_structure_refinement  'SHELXL-2014/7 (Sheldrick, 2014)'
_computing_structure_solution    SHELXT
_diffrn_ambient_temperature      300
_diffrn_measured_fraction_theta_full 0.998
_diffrn_measured_fraction_theta_max 0.998
_diffrn_measurement_device       'CrystalLogic Kappa (3 circle)'
_diffrn_measurement_device_type  'Rigaku Saturn724+ (2x2 bin mode)'
_diffrn_measurement_method
;
omega rotation with 1 degree frames
;
_diffrn_measurement_specimen_support 'MiTeGen loop'
_diffrn_radiation_monochromator  'double crystal Silicon 111'
_diffrn_radiation_source         'Diamond Light Source Beamline I19'
_diffrn_radiation_type           Synchrotron
_diffrn_radiation_wavelength     0.68890
_diffrn_reflns_av_R_equivalents  0.0459
_diffrn_reflns_av_unetI/netI     0.0455
_diffrn_reflns_Laue_measured_fraction_full 0.998
_diffrn_reflns_Laue_measured_fraction_max 0.998
_diffrn_reflns_limit_h_max       20
_diffrn_reflns_limit_h_min       -13
_diffrn_reflns_limit_k_max       11
_diffrn_reflns_limit_k_min       -11
_diffrn_reflns_limit_l_max       27
_diffrn_reflns_limit_l_min       -31
_diffrn_reflns_number            23742
_diffrn_reflns_point_group_measured_fraction_full 0.989
_diffrn_reflns_point_group_measured_fraction_max 0.970
_diffrn_reflns_theta_full        24.415
_diffrn_reflns_theta_max         29.475
_diffrn_reflns_theta_min         1.795
_exptl_absorpt_coefficient_mu    0.247
_exptl_absorpt_correction_T_max  1.00000
_exptl_absorpt_correction_T_min  0.97902
_exptl_absorpt_correction_type   multi-scan
_exptl_absorpt_process_details
;
CrysAlisPro, Agilent Technologies,
Version 1.171.36.28 (release 01-02-2013 CrysAlis171 .NET)
Empirical absorption correction using spherical harmonics,
implemented in SCALE3 ABSPACK scaling algorithm.
;
_exptl_crystal_colour            Colourless
_exptl_crystal_density_diffrn    1.339
_exptl_crystal_description       Parallelepiped
_exptl_crystal_F_000             1104
_exptl_crystal_size_max          0.50
_exptl_crystal_size_mid          0.40
_exptl_crystal_size_min          0.20
_refine_diff_density_max         0.227
_refine_diff_density_min         -0.295
_refine_diff_density_rms         0.042
_refine_ls_abs_structure_details
;
 Flack x determined using 1914 quotients [(I+)-(I-)]/[(I+)+(I-)]
 (Parsons, Flack and Wagner, Acta Cryst. B69 (2013) 249-259).
;
_refine_ls_abs_structure_Flack   0.01(5)
_refine_ls_extinction_coef       .
_refine_ls_extinction_method     none
_refine_ls_goodness_of_fit_ref   0.933
_refine_ls_hydrogen_treatment    mixed
_refine_ls_matrix_type           full
_refine_ls_number_parameters     344
_refine_ls_number_reflns         7772
_refine_ls_number_restraints     1
_refine_ls_restrained_S_all      0.933
_refine_ls_R_factor_all          0.0774
_refine_ls_R_factor_gt           0.0498
_refine_ls_shift/su_max          0.036
_refine_ls_shift/su_mean         0.001
_refine_ls_structure_factor_coef Fsqd
_refine_ls_weighting_details
'w=1/[\s^2^(Fo^2^)+(0.1000P)^2^] where P=(Fo^2^+2Fc^2^)/3'
_refine_ls_weighting_scheme      calc
_refine_ls_wR_factor_gt          0.1382
_refine_ls_wR_factor_ref         0.1661
_reflns_Friedel_coverage         0.899
_reflns_Friedel_fraction_full    0.980
_reflns_Friedel_fraction_max     0.941
_reflns_number_gt                5436
_reflns_number_total             7772
_reflns_threshold_expression     'I > 2\s(I)'
_cod_data_source_file            Exp_Form-I2FSynchrotron_Form-I_300K.cif
_cod_data_source_block           300k_smz-f1_a
_cod_database_code               1547428
_shelx_space_group_comment
;
The symmetry employed for this shelxl refinement is uniquely defined
by the following loop, which should always be used as a source of
symmetry information in preference to the above space-group names.
They are only intended as comments.
;
_shelx_estimated_absorpt_t_min   0.886
_shelx_estimated_absorpt_t_max   0.952
_shelx_res_file
;
    300k_smz-f1_a.res created by SHELXL-2014/7
TITL 300k_sulfamerazinef1_a.res in Pna2(1)
REM Old TITL 002_300K_SulfamerazineF1 in Pna2(1)
REM SHELXT solution in Pna2(1)
REM R1 0.111,  Rweak 0.039,  Alpha 0.002,  Orientation as input
REM Flack x =  0.165 ( 0.078 ) from Parsons' quotients
REM Formula found by SHELXT:  C25 N5 O4 S2
CELL  0.68890  14.5040   8.2162  21.9984   90.000   90.000   90.000
ZERR    8.000   0.0002   0.0001   0.0004    0.000    0.000    0.000
REM SG 33 4 4 Pna21 PGmm2 Orthorhombic
LATT -1
REM SG  ASUN  1  .5 .5 1.
REM SG  ORGN  on 2(1)
SYMM -X,-Y,0.5+Z
SYMM 0.5+X,0.5-Y,Z
SYMM 0.5-X,0.5+Y,0.5+Z
SFAC C H N O S
UNIT 88 96 32 16 8
L.S. 10
SIZE    0.50  0.40  0.20
BOND $H
FMAP 2
PLAN 20
ACTA
CONF
HTAB
LIST 4
WGHT    0.100000
FVAR       0.42552   0.35344
S1    5    0.647483    0.496125    0.344713    11.00000    0.03941    0.04512 =
         0.04248    0.00352   -0.00158   -0.00304
S2    5    0.577768    0.494044    0.652100    11.00000    0.03914    0.04596 =
         0.04093    0.00484   -0.00186   -0.00233
O1    4    0.690452    0.371594    0.309260    11.00000    0.06305    0.04646 =
         0.05626   -0.00503    0.00180   -0.00275
O2    4    0.550902    0.522826    0.338340    11.00000    0.03993    0.06892 =
         0.05616    0.00819   -0.00926   -0.00678
O3    4    0.675076    0.466528    0.658478    11.00000    0.03856    0.06813 =
         0.05225    0.00940   -0.00636   -0.00453
O4    4    0.535302    0.620881    0.686159    11.00000    0.06187    0.04552 =
         0.05638   -0.00485   -0.00058   -0.00316
N1    3    0.843552    1.115795    0.312517    11.00000    0.05531    0.04909 =
         0.08483   -0.00907    0.02229   -0.00572
N2    3    0.656524    0.450067    0.417292    11.00000    0.03450    0.06232 =
         0.04939    0.01131    0.00062   -0.00002
N3    3    0.815855    0.410336    0.417991    11.00000    0.03819    0.05313 =
         0.05387    0.00468    0.00122    0.00405
N4    3    0.728826    0.427615    0.509056    11.00000    0.04502    0.10208 =
         0.04826    0.00733   -0.00306    0.01491
N5    3    0.380030   -0.119851    0.696062    11.00000    0.07198    0.04644 =
         0.12624   -0.00578    0.02379   -0.01119
AFIX  93
H5A   2    0.323551   -0.118053    0.707945    11.00000   -1.30000
H5B   2    0.407263   -0.211380    0.689955    11.00000   -1.30000
AFIX   0
N6    3    0.568465    0.534583    0.579259    11.00000    0.03574    0.07520 =
         0.04113    0.01284    0.00248    0.00297
N7    3    0.410372    0.584484    0.579265    11.00000    0.03932    0.06179 =
         0.05660    0.00607    0.00339    0.00608
N8    3    0.497075    0.566124    0.487442    11.00000    0.04896    0.09862 =
         0.04584    0.00944   -0.00317    0.01475
C1    1    0.706625    0.678252    0.334433    11.00000    0.03640    0.04275 =
         0.03705    0.00226    0.00246    0.00229
C2    1    0.795699    0.679813    0.311262    11.00000    0.03941    0.04598 =
         0.03739   -0.00177    0.00195    0.00547
AFIX  43
H2    2    0.824607    0.582691    0.300863    11.00000   -1.30000
AFIX   0
C3    1    0.840930    0.825246    0.303760    11.00000    0.03590    0.05057 =
         0.03846   -0.00125    0.00734    0.00225
AFIX  43
H3    2    0.900527    0.825978    0.288165    11.00000   -1.30000
AFIX   0
C4    1    0.798469    0.972211    0.319285    11.00000    0.04563    0.04484 =
         0.04238   -0.00449    0.00143   -0.00078
C5    1    0.708047    0.968839    0.342877    11.00000    0.04739    0.04587 =
         0.05764   -0.00169    0.00928    0.00525
AFIX  43
H5    2    0.678807    1.065475    0.353501    11.00000   -1.30000
AFIX   0
C6    1    0.663229    0.823152    0.350156    11.00000    0.04162    0.05012 =
         0.05479   -0.00257    0.01049    0.00191
AFIX  43
H6    2    0.603590    0.821277    0.365666    11.00000   -1.30000
AFIX   0
C7    1    0.738484    0.429006    0.449386    11.00000    0.03956    0.05317 =
         0.04428    0.00861   -0.00050    0.00454
C8    1    0.806109    0.401528    0.539784    11.00000    0.06105    0.14571 =
         0.05203    0.00808   -0.00639    0.02878
AFIX  43
H8    2    0.803146    0.397413    0.581987    11.00000   -1.30000
AFIX   0
C9    1    0.890241    0.380310    0.512338    11.00000    0.04722    0.12529 =
         0.06731   -0.00415   -0.01482    0.02470
AFIX  43
H9    2    0.943291    0.361675    0.535042    11.00000   -1.30000
AFIX   0
C10   1    0.892902    0.387669    0.450333    11.00000    0.04481    0.06496 =
         0.06868    0.00139   -0.00104    0.01220
C11   1    0.979937    0.371458    0.414833    11.00000    0.04931    0.09843 =
         0.09770   -0.00724    0.00752    0.01248
AFIX 137
H11A  2    0.978415    0.272310    0.391765    11.00000   -1.30000
H11B  2    1.031510    0.369287    0.442174    11.00000   -1.30000
H11C  2    0.985950    0.462335    0.387691    11.00000   -1.30000
AFIX   0
C12   1    0.519286    0.314173    0.665525    11.00000    0.04024    0.04297 =
         0.04112    0.00014    0.00160   -0.00017
C13   1    0.563460    0.167737    0.655626    11.00000    0.04146    0.04659 =
         0.07011   -0.00130    0.01003    0.00554
AFIX  43
H13   2    0.623911    0.166540    0.641536    11.00000   -1.30000
AFIX   0
C14   1    0.518012    0.023044    0.666617    11.00000    0.05327    0.04245 =
         0.08619   -0.00325    0.01114    0.00460
AFIX  43
H14   2    0.548438   -0.075239    0.660506    11.00000   -1.30000
AFIX   0
C15   1    0.426598    0.023027    0.686865    11.00000    0.05269    0.04496 =
         0.05680   -0.00218    0.00321   -0.00428
C16   1    0.382642    0.172086    0.696727    11.00000    0.04551    0.04945 =
         0.04724   -0.00611    0.00772   -0.00358
AFIX  43
H16   2    0.321954    0.173856    0.710356    11.00000   -1.30000
AFIX   0
C17   1    0.428174    0.315693    0.686494    11.00000    0.03916    0.04186 =
         0.04280   -0.00274    0.00401    0.00432
AFIX  43
H17   2    0.398492    0.414261    0.693492    11.00000   -1.30000
AFIX   0
C18   1    0.487520    0.563088    0.548179    11.00000    0.04069    0.05072 =
         0.04364    0.00724   -0.00136    0.00078
C19   1    0.419996    0.600564    0.456485    11.00000    0.06236    0.15283 =
         0.04693    0.00392   -0.00900    0.03232
AFIX  43
H19   2    0.422714    0.607298    0.414322    11.00000   -1.30000
AFIX   0
C20   1    0.337543    0.626100    0.484885    11.00000    0.05797    0.13597 =
         0.06939   -0.00140   -0.01305    0.03561
AFIX  43
H20   2    0.285163    0.651458    0.462416    11.00000   -1.30000
AFIX   0
C21   1    0.333009    0.613855    0.546978    11.00000    0.04389    0.06838 =
         0.06878   -0.00127   -0.00369    0.01444
C22   1    0.246970    0.634521    0.582841    11.00000    0.04361    0.12049 =
         0.10164    0.00194    0.00700    0.01741
AFIX 137
H22A  2    0.224692    0.743847    0.578220    11.00000   -1.30000
H22B  2    0.259486    0.613611    0.624976    11.00000   -1.30000
H22C  2    0.201154    0.559453    0.568494    11.00000   -1.30000
AFIX   0
H1N1  2    0.890202    1.118964    0.292575    11.00000    0.07067
H2N1  2    0.811422    1.196124    0.315700    11.00000    0.06861
H1N2  2    0.610772    0.485604    0.439807    11.00000    0.06520
H1N6  2    0.605180    0.512862    0.562676    11.00000    0.04627
HKLF 4
REM  300k_sulfamerazinef1_a.res in Pna2(1)
REM R1 =  0.0498 for    5436 Fo > 4sig(Fo)  and  0.0774 for all    7772 data
REM    344 parameters refined using      1 restraints
END
WGHT      0.0561      0.0989
REM Instructions for potential hydrogen bonds
EQIV $1 x, y-1, z
HTAB N5 O4_$1
HTAB C8 O3
HTAB C14 O4_$1
HTAB C19 O2
EQIV $2 -x+3/2, y+1/2, z-1/2
HTAB N1 O4_$2
EQIV $3 x, y+1, z
HTAB N1 O1_$3
HTAB N2 N8
HTAB N6 N4
REM Highest difference peak  0.227,  deepest hole -0.295,  1-sigma level  0.042
Q1    1   0.4832  0.3276  0.6757  11.00000  0.05    0.23
Q2    1   0.4503  0.5570  0.5726  11.00000  0.05    0.20
Q3    1   0.6951  0.5901  0.3418  11.00000  0.05    0.19
Q4    1   0.5282  0.6464  0.6982  11.00000  0.05    0.19
Q5    1   0.5478  0.3800  0.6708  11.00000  0.05    0.17
Q6    1   0.7777  0.4231  0.4309  11.00000  0.05    0.17
Q7    1   0.9607  0.4450  0.5583  11.00000  0.05    0.17
Q8    1   0.9950  0.4576  0.4295  11.00000  0.05    0.17
Q9    1   0.3479  0.5114  0.4639  11.00000  0.05    0.17
Q10   1   0.2117  0.4816  0.6062  11.00000  0.05    0.17
Q11   1   0.7318  0.6724  0.3181  11.00000  0.05    0.16
Q12   1   0.4226  0.4769  0.4036  11.00000  0.05    0.16
Q13   1   0.3607  0.5568  0.5605  11.00000  0.05    0.16
Q14   1   0.8053  0.8844  0.3093  11.00000  0.05    0.16
Q15   1   0.4181 -0.1181  0.7285  11.00000  0.05    0.15
Q16   1   0.7019  0.3851  0.3410  11.00000  0.05    0.15
Q17   1   0.4191  0.1052  0.6880  11.00000  0.05    0.15
Q18   1   0.9782  0.5799  0.5732  11.00000  0.05    0.15
Q19   1   0.6826  0.3911  0.5201  11.00000  0.05    0.15
Q20   1   0.3295  0.3954  0.5001  11.00000  0.05    0.15
;
_shelx_res_checksum              11144
_shelx_hkl_file
;
   0   0 -29   -1.89    1.36
   0   0 -28   60.92    8.19
   0   0 -27    1.55    2.40
   0   0 -26  241.57   15.13
   0   0 -25    1.43    2.15
   0   0 -24   -1.93    1.84
   0   0 -23    1.12    1.47
   0   0 -22   16.05    3.77
   0   0 -21    0.80    2.25
   0   0 -20  318.12   15.51
   0   0 -19    1.60    1.23
   0   0 -18   41.00    5.44
   0   0 -17   -0.70    1.49
   0   0 -16  170.50   10.12
   0   0 -15    0.54    1.08
   0   0 -14   51.67    5.27
   0   0 -13   -0.53    0.94
   0   0 -12 2247.87   31.95
   0   0 -11    2.33    1.68
   0   0 -10  369.23   11.76
   0   0  -9    0.07    0.34
   0   0  -8 9999.00   55.07
   0   0  -7    0.01    0.36
   0   0  -5    0.74    0.56
   0   0  -4 2822.04   20.84
   0   0  -3    1.88    0.54
   0   0  -2   98.49    2.72
   0   0   4 2878.61   15.40
   0   0   5    0.05    0.21
   0   0   7   -0.10    0.31
   0   0   9    0.01    0.26
   0   0  10  372.15    8.77
   0   0  11   -0.27    0.38
   0   0  12 2310.18   23.83
   0   0  13   -0.15    0.69
   0   0  14   58.98    4.20
   0   0  15    0.05    0.57
   0   0  16  192.68    8.20
   0   0  17   -0.04    0.81
   0   0  17   -0.39    0.57
   0   0  18   41.03    4.03
   0   0  19    0.83    0.72
   0  -1 -31    8.58    3.89
   0  -1 -30    3.65    2.33
   0  -1 -29    1.23    2.06
   0  -1 -28    0.80    2.46
   0  -1 -27    0.42    1.43
   0  -1 -26   -1.92    1.66
   0   1 -26    2.16    1.34
   0   1 -25    4.31    2.23
   0  -1 -25    2.48    2.35
   0   1 -24   -1.51    1.75
   0  -1 -24    1.61    1.95
   0  -1 -23    0.74    1.54
   0   1 -23    1.06    1.38
   0   1 -22   -1.66    2.02
   0  -1 -22    1.01    1.50
   0  -1 -21   51.00    6.35
   0   1 -21   50.71    6.40
   0  -1 -20    0.09    1.36
   0   1 -20   -1.05    1.53
   0   1 -19    5.27    2.27
   0  -1 -19    1.45    1.55
   0  -1 -18    0.77    1.63
   0   1 -18    0.63    0.92
   0   1 -17   10.00    2.46
   0  -1 -17    6.24    2.20
   0   1 -16    0.77    1.41
   0  -1 -16    0.15    0.71
   0  -1 -15   55.71    5.70
   0   1 -15   45.99    5.02
   0  -1 -14    0.45    0.65
   0   1 -14    0.41    0.92
   0   1 -13   84.50    6.26
   0  -1 -13   78.42    6.33
   0   1 -12   -0.18    0.45
   0  -1 -12    0.83    1.06
   0   1 -11   30.82    3.44
   0  -1 -11   26.86    3.54
   0   1 -10    0.40    0.93
   0  -1 -10   -0.04    0.49
   0  -1  -9 1045.26   19.71
   0   1  -9 1049.78   10.73
   0   1  -9 1011.20   17.47
   0   1  -8   -0.06    0.18
   0  -1  -8    0.19    0.33
   0   1  -8    0.19    0.57
   0   1  -7 1013.92   10.08
   0   1  -7 1002.29   15.00
   0  -1  -7 1024.79   17.55
   0   1  -6   -0.18    0.24
   0   1  -6    0.34    0.19
   0  -1  -6   -0.08    0.30
   0   1  -5 1928.10   17.08
   0  -1  -5 1953.28   19.54
   0   1  -5 1941.22   13.53
   0  -1  -5 1960.02   21.12
   0  -1  -4    0.34    0.41
   0   1  -4   -0.17    0.12
   0  -1  -4    0.23    0.22
   0   1  -4   -0.15    0.21
   0  -1  -3  829.69   11.36
   0  -1  -3  820.23   11.27
   0   1  -3  815.69    8.92
   0  -1  -2    0.07    0.20
   0  -1  -2    0.10    0.23
   0   1  -2    0.08    0.23
   0  -1  -1  397.62    5.82
   0   1  -1  396.75    6.47
   0  -1  -1  414.57    6.95
   0   1   0   -0.23    0.23
   0  -1   0   -0.01    0.15
   0   1   1  400.41    7.02
   0  -1   1  411.49    6.01
   0   1   2    0.19    0.28
   0  -1   2    0.50    0.28
   0   1   3  845.21   10.95
   0  -1   5 1926.38   11.64
   0  -1   6    0.14    0.15
   0  -1   7 1002.23    9.66
   0  -1   8   -0.12    0.19
   0   1   8   -0.11    0.22
   0  -1   9 1023.71   11.29
   0   1   9 1042.34   17.18
   0  -1  10    0.00    0.42
   0   1  10    0.12    0.50
   0  -1  11   32.58    2.30
   0   1  11   31.98    3.17
   0   1  12   -0.02    0.60
   0  -1  12    0.46    0.42
   0   1  13   89.48    5.65
   0  -1  13   87.84    4.15
   0   1  14    0.15    0.87
   0   1  14   -0.18    0.76
   0  -1  14    0.21    0.42
   0   1  15   43.44    3.81
   0  -1  15   47.30    3.42
   0   1  16    1.00    0.69
   0   1  16   -0.18    0.49
   0  -1  16    0.28    0.45
   0   1  17   10.52    2.04
   0  -1  17    8.18    1.52
   0   1  17    6.12    1.63
   0   1  18   -0.28    1.05
   0   1  18   -0.81    0.94
   0   1  19    5.40    1.71
   0   1  20    0.24    1.17
   0   1  21   51.95    5.67
   0  -2 -30   30.58    6.08
   0  -2 -29    1.89    2.11
   0  -2 -28    3.80    1.09
   0  -2 -27    0.92    2.25
   0  -2 -26   67.28    8.20
   0  -2 -25    1.02    1.32
   0  -2 -24    3.98    1.92
   0  -2 -23   -0.67    1.37
   0  -2 -22   41.86    6.17
   0  -2 -21   -0.99    1.95
   0  -2 -20  102.38    8.92
   0   2 -19   -0.48    1.61
   0  -2 -19    1.83    1.64
   0  -2 -18   18.88    3.61
   0   2 -18   20.52    3.36
   0  -2 -17   -0.23    0.94
   0   2 -17   -0.59    1.21
   0   2 -16  427.98   15.51
   0  -2 -16  444.35   16.93
   0  -2 -15    0.02    1.29
   0   2 -15    0.32    0.77
   0   2 -14  225.32    6.49
   0   2 -14  230.12   10.55
   0   2 -13   -0.53    0.86
   0   2 -13    0.58    0.56
   0  -2 -13    0.82    1.21
   0  -2 -12  913.92   22.37
   0   2 -12  971.71   13.15
   0   2 -12  911.05   18.95
   0   2 -11    0.15    0.33
   0   2 -11    0.43    0.85
   0  -2 -11    1.28    0.67
   0  -2 -10 1421.09   25.13
   0   2 -10 1375.20   21.05
   0   2 -10 1391.72   16.08
   0   2  -9    0.37    0.35
   0  -2  -9    0.30    0.89
   0  -2  -8  101.29    6.26
   0   2  -8   93.92    4.32
   0  -2  -7    0.51    0.57
   0   2  -7    0.01    0.27
   0  -2  -7    0.41    0.84
   0  -2  -6  966.49   17.51
   0  -2  -6  970.08   17.43
   0   2  -6  998.11   13.96
   0  -2  -5   -0.21    0.56
   0   2  -5   -0.06    0.29
   0  -2  -5   -0.80    0.60
   0   2  -4 1124.02   15.08
   0  -2  -4 1168.33   17.79
   0  -2  -4 1125.63   16.66
   0  -2  -3    0.18    0.40
   0   2  -3    0.41    0.43
   0   2  -2  448.59    9.78
   0  -2  -2  443.82    8.80
   0  -2  -2  436.23   10.13
   0  -2  -1    0.26    0.39
   0   2  -1   -0.11    0.59
   0  -2  -1    0.84    0.42
   0  -2   1    0.86    0.40
   0   2   1   -0.33    0.61
   0  -2   1    0.52    0.74
   0  -2   2  454.67    5.84
   0   2   2  455.62   10.55
   0  -2   2  441.46    8.81
   0   2   3    0.30    0.58
   0  -2   3    0.48    0.53
   0   2   4 1134.93   17.60
   0  -2   4 1161.71   13.05
   0  -2   5    0.14    0.43
   0   2   5    0.34    0.59
   0   2   6  993.53   17.09
   0  -2   6  993.52   11.65
   0  -2   7    0.13    0.35
   0   2   7    0.13    0.80
   0   2   8   98.53    5.62
   0  -2   8  100.79    3.61
   0   2   9    0.17    0.37
   0  -2   9    0.37    0.21
   0   2  10 1369.50   21.75
   0  -2  10 1381.79   13.59
   0   2  11    0.07    0.86
   0   2  11    0.59    1.04
   0  -2  11    0.76    0.29
   0   2  12  981.51   20.91
   0   2  12  936.36   18.85
   0   2  13    0.63    0.98
   0  -2  13    0.09    0.29
   0   2  13    1.17    0.86
   0   2  14  252.39   11.10
   0   2  14  244.63   10.10
   0   2  15    0.37    0.70
   0  -2  15   -0.36    0.34
   0   2  15    0.51    0.58
   0   2  16  448.02   15.29
   0   2  16  425.93   13.82
   0   2  17    0.17    0.75
   0   2  17    0.18    0.44
   0   2  18   22.14    3.83
   0   2  18   24.84    3.35
   0   2  19    1.64    1.37
   0   2  19   -0.95    1.03
   0   2  20   90.28    7.61
   0   2  21    0.54    1.14
   0   2  22   40.23    5.26
   0  -3 -30   -2.35    2.56
   0  -3 -29    2.39    1.86
   0  -3 -28    3.70    2.66
   0  -3 -27    2.57    2.40
   0  -3 -26    3.01    2.60
   0  -3 -25   -1.40    0.95
   0  -3 -24   -1.67    1.73
   0  -3 -23    4.66    2.67
   0  -3 -22    1.93    1.29
   0  -3 -21   39.70    6.10
   0  -3 -20    0.09    1.86
   0  -3 -19   36.84    5.33
   0  -3 -18   -0.24    1.06
   0  -3 -17   26.54    4.49
   0  -3 -16    0.83    1.34
   0  -3 -15   70.36    6.78
   0  -3 -14    1.28    1.43
   0   3 -14   -0.65    0.80
   0   3 -13   61.43    4.33
   0  -3 -13   72.91    6.58
   0   3 -12   -0.39    0.80
   0  -3 -12    1.33    1.36
   0  -3 -11   77.79    6.33
   0   3 -11   71.08    4.62
   0  -3 -10   -0.67    1.18
   0   3 -10    0.37    0.65
   0  -3  -9 1646.06   28.04
   0  -3  -9 1658.67   27.64
   0   3  -9 1658.76   22.38
   0  -3  -8    0.07    0.82
   0   3  -8   -0.48    0.39
   0  -3  -8    0.28    0.91
   0  -3  -7    5.28    1.65
   0   3  -7    6.73    1.45
   0  -3  -7    3.32    1.12
   0  -3  -6    0.32    0.66
   0   3  -6    1.17    0.85
   0  -3  -6    0.27    0.66
   0  -3  -5  408.88   11.58
   0  -3  -5  432.49   12.92
   0   3  -5  440.44   11.68
   0   3  -4   -0.41    0.46
   0  -3  -4    1.28    0.60
   0  -3  -4    0.24    0.83
   0  -3  -3  494.93   13.21
   0  -3  -3  484.96   11.35
   0   3  -3  457.46   12.17
   0   3  -2    0.09    0.71
   0  -3  -2    1.67    1.10
   0  -3  -2    0.44    0.65
   0  -3  -1  986.87   17.79
   0  -3  -1 1036.97   14.14
   0   3  -1 1033.29   18.58
   0  -3   0    0.27    0.88
   0   3   0    1.10    1.54
   0  -3   0    0.55    0.49
   0  -3   1 1030.57   11.89
   0  -3   1 1006.99   17.22
   0   3   2    1.12    0.91
   0  -3   2   -0.18    0.56
   0  -3   2    0.20    0.18
   0  -3   3  491.49   11.42
   0   3   3  478.03   13.15
   0  -3   3  493.78    7.35
   0   3   4   -0.22    0.61
   0  -3   4    0.57    0.29
   0  -3   4   -0.12    0.27
   0   3   5  424.01   12.75
   0  -3   5  429.63   10.33
   0  -3   6    0.33    0.54
   0   3   6   -0.22    0.50
   0   3   7    4.42    1.34
   0  -3   7    3.27    0.90
   0   3   8    0.60    0.47
   0  -3   8   -0.01    0.23
   0   3   9 1726.04   27.54
   0  -3   9 1689.67   18.15
   0  -3  10   -0.19    0.47
   0   3  10   -0.18    0.63
   0  -3  11   63.70    3.46
   0   3  11   70.45    5.81
   0   3  12   -0.85    1.24
   0  -3  12   -0.15    0.41
   0  -3  13   61.89    3.27
   0   3  13   70.93    6.49
   0   3  13   77.82    6.22
   0  -3  14    0.05    0.23
   0   3  14    0.68    0.66
   0   3  15   70.43    6.28
   0   3  15   63.35    6.14
   0   3  16    0.62    1.09
   0   3  16    0.16    1.26
   0   3  17   21.21    3.48
   0   3  17   30.23    4.35
   0   3  18    0.77    1.54
   0   3  18    0.11    0.57
   0   3  19   56.99    6.28
   0   3  19   44.55    5.21
   0   3  20    0.40    1.53
   0   3  21   35.46    5.55
   0   3  22   -0.01    0.91
   0   3  23    2.62    0.91
   0  -4 -29    4.44    2.82
   0  -4 -28    4.23    2.32
   0  -4 -27    8.32    3.30
   0  -4 -26   17.86    4.20
   0  -4 -25   -0.77    1.79
   0  -4 -24    1.69    1.57
   0  -4 -23   -0.92    1.52
   0  -4 -22  114.29   10.13
   0  -4 -21    0.33    1.61
   0  -4 -20   27.63    5.37
   0  -4 -19   -0.96    1.74
   0  -4 -18   47.43    6.07
   0  -4 -17    0.20    1.24
   0  -4 -16  401.71   17.43
   0  -4 -15    0.60    1.66
   0  -4 -14  125.53    9.27
   0   4 -14  119.98    7.10
   0  -4 -13   -0.36    1.10
   0   4 -13    1.05    0.47
   0  -4 -12  382.44   15.09
   0   4 -12  369.00   12.40
   0   4 -11    0.54    1.34
   0  -4 -11   -0.49    0.86
   0   4 -10 1135.88   21.43
   0  -4 -10 1116.82   24.99
   0   4  -9    0.90    0.97
   0  -4  -9   -0.57    0.78
   0  -4  -9    2.23    2.07
   0  -4  -8  308.80   12.85
   0  -4  -8  313.67   12.38
   0   4  -8  316.00   11.42
   0  -4  -7    0.17    0.76
   0  -4  -7    1.88    1.35
   0   4  -7    0.29    0.74
   0   4  -6  509.26   14.72
   0  -4  -6  519.80   14.78
   0  -4  -6  514.30   16.09
   0   4  -5   -0.16    0.60
   0  -4  -5    0.34    0.67
   0  -4  -5    0.83    0.80
   0  -4  -4 1299.08   24.42
   0  -4  -4 1254.56   21.00
   0   4  -4 1264.45   23.29
   0  -4  -3    0.81    0.93
   0  -4  -3    0.48    0.55
   0   4  -3    0.42    0.91
   0  -4  -2  302.45    9.41
   0  -4  -2  326.71   11.91
   0   4  -2  307.96   11.62
   0  -4  -1    0.45    0.48
   0   4  -1    1.05    0.70
   0  -4  -1    1.83    1.17
   0  -4   0  140.42    5.53
   0  -4   0  138.66    7.57
   0   4   0  145.76    8.05
   0   4   1    0.29    0.90
   0  -4   1    0.05    0.23
   0  -4   1   -0.56    1.03
   0  -4   2  305.47    7.18
   0   4   2  296.89   11.62
   0  -4   2  301.36   10.74
   0  -4   3    0.85    0.33
   0   4   3   -0.13    0.96
   0  -4   3   -0.53    0.97
   0  -4   4 1231.12   21.16
   0   4   4 1218.02   24.06
   0  -4   4 1249.14   13.29
   0   4   5    1.18    1.18
   0  -4   5    0.58    0.62
   0  -4   5    0.35    0.49
   0  -4   6  535.36    9.06
   0  -4   6  550.31   13.58
   0   4   6  515.34   16.13
   0   4   7    1.62    1.07
   0  -4   7    0.41    0.80
   0  -4   8  310.50   10.00
   0   4   8  308.77   12.75
   0  -4   9   -0.10    0.52
   0   4   9   -0.20    0.96
   0   4  10 1178.20   25.27
   0  -4  10 1105.86   18.09
   0   4  11    2.14    1.82
   0  -4  11   -0.09    0.36
   0   4  12  396.07   15.16
   0  -4  12  392.13   10.04
   0   4  13   -0.10    1.55
   0  -4  13   -0.24    0.50
   0   4  14  125.32    9.30
   0   4  14  131.31    8.95
   0   4  15    0.67    0.86
   0   4  15    0.77    1.41
   0   4  16  382.24   16.87
   0   4  16  387.30   16.16
   0   4  17    0.64    1.16
   0   4  17    0.73    0.55
   0   4  18   53.20    6.35
   0   4  18   42.95    5.60
   0   4  19   -1.67    1.07
   0   4  19   -0.84    1.38
   0   4  20   25.26    4.49
   0   4  20   29.49    4.90
   0   4  21   -2.95    1.80
   0   4  22  121.92   10.19
   0   4  23   -0.23    1.62
   0   4  24    1.79    1.00
   0  -5 -28   -2.14    1.21
   0  -5 -27    0.10    2.05
   0  -5 -26   -0.89    1.47
   0  -5 -25    1.11    1.26
   0  -5 -24    0.41    1.78
   0  -5 -23   10.48    3.48
   0  -5 -22    3.09    1.56
   0  -5 -21    2.15    2.12
   0  -5 -20    1.92    1.77
   0  -5 -19    5.33    2.40
   0  -5 -18   -2.83    2.25
   0  -5 -17    1.19    1.37
   0  -5 -16    0.61    1.79
   0  -5 -15    4.38    2.62
   0  -5 -14   -1.47    1.45
   0  -5 -13   21.82    4.21
   0   5 -13   18.22    2.85
   0  -5 -12   -1.26    0.87
   0   5 -12    0.65    1.18
   0   5 -11    5.40    2.09
   0  -5 -11    7.97    2.52
   0  -5 -10    0.86    1.51
   0   5 -10   -1.12    0.89
   0  -5 -10    0.99    1.65
   0  -5  -9    2.55    0.80
   0   5  -9    1.46    0.71
   0  -5  -8   -0.24    0.94
   0  -5  -8    1.32    0.76
   0   5  -8    0.26    0.61
   0  -5  -7   60.17    5.47
   0   5  -7   60.92    5.77
   0  -5  -7   59.46    6.10
   0  -5  -6    0.01    0.57
   0   5  -6   -1.36    1.00
   0  -5  -6   -0.08    0.82
   0   5  -5  139.74    8.59
   0  -5  -5  131.66    7.63
   0  -5  -4    0.88    0.79
   0   5  -4    0.07    1.08
   0  -5  -4   -0.14    0.54
   0   5  -3  110.21    7.70
   0  -5  -3  121.12    6.84
   0  -5  -3  114.29    7.81
   0   5  -2   -0.83    1.11
   0  -5  -2   -0.05    0.49
   0  -5  -2    0.39    0.42
   0  -5  -1   28.97    3.94
   0   5  -1   32.46    4.03
   0  -5  -1   34.27    3.32
   0  -5   0    0.02    0.70
   0   5   0   -0.90    1.06
   0  -5   0   -0.37    0.56
   0   5   1   31.85    4.27
   0  -5   1   30.52    2.67
   0  -5   1   35.03    4.16
   0  -5   2    0.36    0.75
   0   5   2    1.26    1.63
   0  -5   2    0.99    0.80
   0  -5   3  111.89    4.68
   0   5   3  116.00    8.21
   0  -5   3  121.08    7.51
   0   5   4   -0.33    1.02
   0  -5   4    1.08    1.13
   0  -5   4    0.96    0.62
   0   5   5  143.28    9.24
   0  -5   5  131.17    7.60
   0  -5   6    1.14    1.26
   0  -5   6    0.32    0.41
   0   5   6    0.00    0.71
   0  -5   7   59.46    3.14
   0   5   7   63.65    6.12
   0  -5   7   55.64    4.89
   0  -5   8   -0.03    0.90
   0   5   8    0.46    0.48
   0  -5   8   -0.27    0.53
   0  -5   9    4.57    0.98
   0   5   9    6.12    2.22
   0  -5   9    6.53    1.47
   0  -5  10    0.52    1.26
   0   5  10   -0.40    0.76
   0   5  11    5.85    2.15
   0  -5  11    7.17    1.75
   0  -5  12    0.17    0.46
   0   5  12    0.61    1.63
   0   5  13   17.68    3.75
   0   5  14   -0.58    0.82
   0   5  15    2.85    1.86
   0   5  15    1.93    1.50
   0   5  16    1.82    1.79
   0   5  16   -1.64    0.93
   0   5  17    1.84    1.28
   0   5  17    3.62    0.83
   0   5  18    1.14    1.06
   0   5  18    0.01    1.28
   0   5  19    5.50    2.47
   0   5  19    4.00    2.16
   0   5  20   -1.03    2.30
   0   5  20   -0.97    2.34
   0   5  21    4.04    2.26
   0   5  21    3.21    2.57
   0   5  22    0.93    1.90
   0   5  23    6.73    2.87
   0   5  24    2.18    2.63
   0   5  25   -1.85    2.02
   0  -6 -27   -2.70    3.37
   0  -6 -26   28.52    5.98
   0  -6 -25   -2.66    2.41
   0  -6 -24   13.28    4.05
   0  -6 -23   -1.46    2.20
   0  -6 -22   64.69    7.76
   0  -6 -21    5.37    2.70
   0  -6 -20   35.77    6.24
   0  -6 -19   -0.67    1.29
   0  -6 -18   -1.52    1.58
   0  -6 -17   -0.17    1.28
   0  -6 -16   95.71    9.08
   0  -6 -15    0.87    1.20
   0  -6 -14   10.77    3.09
   0   6 -13   -1.40    1.27
   0  -6 -13    0.63    0.73
   0   6 -12  113.21    8.60
   0  -6 -12  131.93   10.14
   0  -6 -11   -0.35    0.73
   0   6 -11    0.51    0.89
   0  -6 -10  211.19   11.79
   0   6 -10  174.54   10.63
   0  -6  -9   -0.44    1.63
   0  -6  -9   -1.37    1.16
   0   6  -9    0.45    0.87
   0  -6  -8   16.14    3.27
   0   6  -8   21.03    3.68
   0  -6  -8   22.09    4.29
   0  -6  -7    0.96    1.08
   0   6  -7   -0.27    1.39
   0  -6  -7    0.20    1.38
   0  -6  -6 1089.67   27.21
   0   6  -6 1067.37   26.11
   0  -6  -6 1022.14   23.92
   0  -6  -5    0.17    1.29
   0  -6  -5   -0.31    1.09
   0   6  -5    0.23    1.66
   0  -6  -4  454.60   14.81
   0  -6  -4  458.44   17.22
   0   6  -4  447.53   17.04
   0  -6  -3    0.87    0.95
   0   6  -3    5.13    2.20
   0  -6  -3    2.36    2.25
   0   6  -2  732.86   21.80
   0  -6  -2  720.03   21.22
   0  -6  -2  762.15   17.79
   0  -6  -1   -0.38    1.88
   0  -6  -1    1.28    1.29
   0   6  -1    0.50    1.74
   0  -6   0  650.44   19.73
   0   6   0  650.75   20.61
   0  -6   0  630.26   15.04
   0  -6   1   -0.18    1.40
   0  -6   1   -0.61    0.55
   0   6   1    1.87    1.81
   0  -6   2  732.42   20.65
   0  -6   2  749.37   14.25
   0   6   2  738.26   22.39
   0  -6   3   -0.08    1.07
   0  -6   3    0.57    0.99
   0   6   3    2.04    1.89
   0  -6   4  419.89    9.58
   0   6   4  468.54   17.90
   0  -6   4  449.30   16.01
   0  -6   5    0.55    0.57
   0   6   5   -1.05    1.41
   0  -6   5    0.55    0.92
   0  -6   6 1103.18   24.59
   0   6   6 1077.74   27.65
   0   6   7    0.27    1.46
   0  -6   7    0.34    1.20
   0  -6   8   18.80    3.27
   0   6   8   21.48    3.99
   0  -6   9   -0.38    0.51
   0   6   9    1.61    1.60
   0   6  10  191.24   11.63
   0  -6  10  170.82    9.37
   0  -6  11    0.19    0.48
   0   6  11    1.00    1.79
   0   6  12  133.22   10.17
   0   6  13    0.82    1.48
   0   6  14    6.00    2.35
   0   6  15    0.38    0.77
   0   6  15    1.36    1.54
   0   6  16   89.02    8.88
   0   6  16   98.22    9.33
   0   6  17   -0.63    1.55
   0   6  17    1.88    2.19
   0   6  18    2.94    1.19
   0   6  18    0.53    1.27
   0   6  19   -1.54    2.32
   0   6  19    1.51    1.40
   0   6  20   44.24    6.71
   0   6  20   37.85    6.06
   0   6  21    0.26    1.61
   0   6  21   -0.62    1.11
   0   6  22   66.80    8.32
   0   6  23   -0.71    1.13
   0   6  24    8.71    3.59
   0   6  25   -0.44    2.00
   0   6  26   20.17    5.35
   0  -7 -25    1.54    1.47
   0  -7 -24    0.23    1.87
   0  -7 -23    4.76    2.87
   0  -7 -22    0.31    2.11
   0  -7 -21    0.12    2.06
   0  -7 -20   -1.17    1.38
   0  -7 -19   10.24    3.55
   0  -7 -18    1.73    2.39
   0  -7 -17    1.48    1.57
   0  -7 -16    2.34    1.57
   0  -7 -15   12.86    3.47
   0  -7 -14    1.13    2.01
   0  -7 -13   17.25    3.68
   0  -7 -12   -1.81    1.84
   0   7 -12   -0.04    1.17
   0  -7 -11   10.04    2.50
   0   7 -11   13.15    3.34
   0   7 -10   -1.03    1.02
   0  -7 -10    2.32    1.80
   0  -7  -9   58.82    6.82
   0   7  -9   53.11    6.31
   0  -7  -9   57.41    6.32
   0   7  -8    1.52    1.41
   0  -7  -8    0.28    1.62
   0  -7  -8   -0.58    1.87
   0  -7  -7  361.17   16.80
   0   7  -7  363.37   16.90
   0  -7  -7  365.14   15.44
   0   7  -6   -0.84    0.76
   0  -7  -6    1.71    1.59
   0  -7  -6    0.51    1.05
   0  -7  -5  240.55   12.06
   0   7  -5  227.08   12.84
   0   7  -4   -1.17    1.39
   0  -7  -4    1.66    1.84
   0  -7  -4   -1.51    1.37
   0   7  -3   25.95    4.66
   0  -7  -3   35.59    4.33
   0  -7  -3   28.69    4.66
   0  -7  -2   -0.06    1.14
   0  -7  -2    0.85    1.25
   0   7  -2    0.95    1.24
   0  -7  -1  754.67   23.36
   0   7  -1  728.55   23.78
   0  -7  -1  731.15   18.08
   0   7   0    2.43    2.96
   0  -7   0    1.31    2.19
   0  -7   0    0.39    1.19
   0  -7   1  719.79   22.44
   0   7   1  802.25   24.74
   0  -7   2   -1.74    0.81
   0   7   2    0.98    1.99
   0   7   3   30.63    5.32
   0  -7   3   35.02    4.87
   0  -7   4    3.30    2.38
   0   7   4    0.47    2.12
   0  -7   5  256.53   13.13
   0   7   5  256.01   14.39
   0  -7   6    0.89    1.66
   0   7   6    1.80    1.82
   0   7   7  361.67   17.04
   0  -7   7  369.80   15.51
   0  -7   8    2.69    1.77
   0   7   8    0.68    0.95
   0  -7   9   48.08    5.70
   0   7   9   65.09    7.38
   0  -7  10    0.97    1.16
   0   7  10    0.03    1.34
   0   7  11    7.18    2.83
   0   7  12    2.00    2.37
   0   7  13   16.07    3.64
   0   7  14    0.02    1.44
   0   7  15    7.09    3.26
   0   7  15    8.12    2.98
   0   7  16   -0.64    1.80
   0   7  16    0.34    1.09
   0   7  17    5.20    2.88
   0   7  17    4.12    2.77
   0   7  18    0.40    1.89
   0   7  18   -0.18    1.16
   0   7  19    6.68    3.18
   0   7  19    5.48    2.97
   0   7  20   -3.45    2.93
   0   7  20    2.00    2.56
   0   7  21    0.57    2.13
   0   7  21    3.32    1.17
   0   7  22    1.54    1.89
   0   7  23    1.56    1.76
   0   7  24   -2.35    2.44
   0   7  25    4.26    2.47
   0  -8 -22    2.84    3.21
   0  -8 -21    6.43    3.81
   0  -8 -20    4.27    1.90
   0  -8 -19    2.15    3.29
   0  -8 -18   -0.65    1.35
   0  -8 -17    0.71    2.31
   0  -8 -16   21.05    4.92
   0  -8 -15   -1.54    2.39
   0  -8 -14    4.95    1.94
   0  -8 -13    1.22    1.31
   0  -8 -12    1.55    1.51
   0   8 -12   10.17    3.97
   0   8 -11   -0.60    1.47
   0  -8 -11    1.52    1.30
   0   8 -10   25.71    4.80
   0  -8 -10   26.55    4.86
   0   8  -9    3.20    2.08
   0  -8  -9   -0.23    1.67
   0   8  -8   -0.45    1.25
   0  -8  -8    1.72    1.93
   0   8  -7   -0.09    0.93
   0  -8  -7    0.24    1.49
   0  -8  -7    2.15    2.05
   0  -8  -6   47.69    5.51
   0  -8  -6   69.29    7.75
   0   8  -6   63.70    7.65
   0   8  -5    2.33    1.17
   0  -8  -5   -1.01    0.71
   0  -8  -5   -0.15    1.32
   0   8  -4   21.76    4.64
   0  -8  -4   26.28    4.30
   0  -8  -4   27.66    4.64
   0   8  -3    3.30    2.32
   0  -8  -3   -1.44    1.78
   0   8  -2   39.48    5.65
   0  -8  -2   33.99    5.66
   0  -8  -1    1.62    2.00
   0   8  -1   -0.46    1.70
   0   8   0   53.97    6.76
   0  -8   0   53.23    6.40
   0   8   1    2.03    1.41
   0  -8   1    0.65    1.86
   0  -8   2   34.81    5.39
   0   8   2   31.36    5.57
   0  -8   3   -1.01    1.29
   0   8   3    0.52    2.57
   0  -8   4   32.74    5.40
   0   8   4   32.97    5.23
   0   8   5   -0.83    1.70
   0  -8   5    2.13    1.86
   0   8   6   53.32    6.69
   0  -8   6   70.31    7.32
   0   8   7    0.24    1.06
   0  -8   7   -1.75    0.79
   0   8   8    1.08    1.40
   0  -8   8    0.70    1.61
   0   8   9    1.79    2.64
   0  -8   9   -0.21    1.68
   0   8  10   16.87    3.59
   0   8  11   -1.54    2.30
   0   8  12    5.93    3.34
   0   8  13   -0.35    0.96
   0   8  14   -0.02    0.96
   0   8  14    4.30    2.52
   0   8  15    0.27    1.66
   0   8  15   -1.30    1.35
   0   8  16   16.11    4.60
   0   8  16   14.55    4.09
   0   8  17    0.51    1.11
   0   8  17   -0.66    1.36
   0   8  18   -2.30    2.37
   0   8  18    0.40    2.16
   0   8  19    0.98    1.55
   0   8  19   -0.05    2.71
   0   8  20    6.44    2.83
   0   8  20   13.49    4.10
   0   8  21   -1.65    2.25
   0   8  21   -1.92    2.42
   0   8  22    2.49    2.29
   0  -9 -20   -0.92    1.72
   0  -9 -19   -1.46    2.01
   0  -9 -18   -0.21    1.38
   0  -9 -17    9.37    3.65
   0  -9 -16   -0.16    2.29
   0  -9 -15    1.94    1.30
   0  -9 -14   -1.12    1.80
   0  -9 -13    1.98    2.53
   0  -9 -12   -1.03    2.23
   0   9 -11    8.38    3.03
   0  -9 -11    3.33    2.40
   0   9 -10   -0.23    1.01
   0  -9 -10   -0.13    1.41
   0   9  -9    6.61    3.06
   0   9  -8   -0.64    1.77
   0   9  -7    5.27    2.23
   0   9  -6    0.67    1.02
   0  -9  -5    0.03    0.85
   0   9  -5   -0.02    0.94
   0  -9  -4   -0.71    2.12
   0   9  -4   -1.53    1.57
   0   9  -3   12.61    3.57
   0  -9  -3   15.38    3.94
   0  -9  -2    1.85    1.39
   0   9  -2    0.91    0.92
   0  -9  -1   -1.48    2.17
   0   9  -1    2.45    2.73
   0   9   0   -0.14    1.82
   0  -9   0    0.32    1.49
   0   9   1    2.37    2.01
   0  -9   1    0.66    1.50
   0  -9   2    1.08    1.34
   0   9   2   -0.58    1.84
   0  -9   3   18.03    4.19
   0   9   3   19.74    4.51
   0   9   4    0.30    1.39
   0  -9   4   -1.04    1.04
   0  -9   5    0.82    1.81
   0   9   5    1.77    0.90
   0  -9   6   -0.51    1.01
   0   9   6    0.04    1.13
   0   9   7    6.22    2.35
   0  -9   7    4.39    2.06
   0   9   8   -2.17    2.65
   0  -9   8    3.03    2.83
   0   9   9    9.24    2.74
   0   9  10    0.03    1.16
   0   9  11   10.66    3.91
   0   9  12    0.41    1.64
   0   9  13    0.07    1.12
   0   9  13    0.58    0.90
   0   9  14    1.12    1.88
   0   9  14    0.21    1.19
   0   9  15    4.86    2.98
   0   9  15    2.31    2.79
   0   9  16   -3.36    2.56
   0   9  16   -0.99    1.23
   0   9  17   13.76    4.40
   0   9  17    0.85    1.14
   0   9  18    0.39    1.34
   0   9  18    3.49    2.83
   0   9  19    1.41    1.60
   0   9  19    3.42    2.60
   0   9  20   -3.92    2.49
   0   9  20   -2.67    3.09
   0  10 -10    4.12    2.47
   0  10  -9   -2.33    2.82
   0  10  -8   -1.68    1.60
   0  10  -7    0.92    1.17
   0  10  -6   34.38    6.39
   0  10  -5    0.59    1.93
   0  10  -4   20.50    4.35
   0  10  -3    1.29    1.92
   0  10  -2    5.18    2.51
   0  10  -1    2.25    2.40
   0  10   0   47.03    6.88
   0 -10   0   56.38    7.46
   0  10   1   -0.41    1.16
   0 -10   1   -3.83    2.83
   0 -10   2   13.93    4.24
   0  10   2   10.95    4.00
   0 -10   3    0.55    1.69
   0  10   3    1.63    1.84
   0  10   4   21.84    4.98
   0 -10   4   14.98    3.68
   0 -10   5    2.52    2.89
   0  10   5   -2.21    1.45
   0  10   6   36.18    6.04
   0 -10   6   30.73    5.66
   0  10   7   -0.67    1.18
   0  10   8   -1.27    1.38
   0  10   9   -0.95    2.18
   0  10  10   15.74    4.83
   0  10  11   -0.58    2.56
   0  10  11    1.21    2.24
   0  10  12    9.64    3.29
   0  10  12    5.04    2.12
   0  10  13    2.30    1.28
   0  10  13    2.04    2.28
   0  10  14   -1.65    2.28
   0  10  14    0.93    1.55
   0  10  15   -0.53    1.47
   0  10  15   -0.02    1.53
   0  10  16    7.53    3.33
   0  10  16    2.96    2.51
   0  11  -9    0.94    1.76
   0  11  -8    1.05    1.42
   0  11  -7    2.00    2.27
   0  11  -6   -0.05    1.53
   0  11  -5    0.25    1.03
   0  11  -4    2.45    1.63
   0  11  -3    1.67    1.95
   0  11  -2   -0.69    1.80
   0  11  -1   -0.28    1.12
   0  11   0   -0.35    1.40
   0  11   1    1.72    2.13
   0  11   2   -3.06    2.04
   0  11   3    3.77    1.80
   0  11   4   -0.07    1.06
   0  11   5   -0.10    1.42
   0  11   6   -1.21    1.68
   0  11   7   -0.84    1.77
   0  11   8    1.26    1.56
   0  11   8    2.15    1.54
   0  11   9    0.87    1.28
   0  11   9    1.26    1.44
   0  11  10    1.85    2.22
   0  11  10   -0.61    1.25
   1   0 -31    2.22    2.80
   1   0 -30    4.05    3.07
   1   0 -29   -0.02    1.99
   1   0 -28   -0.02    1.67
   1   0 -27    3.31    2.66
   1   0 -26   -0.47    1.76
  -1   0 -26    0.56    2.01
   1   0 -25    2.16    1.83
  -1   0 -25    2.42    1.85
   1   0 -24    1.51    2.05
  -1   0 -24    1.06    0.82
  -1   0 -23    1.34    1.41
   1   0 -23   -0.57    0.91
  -1   0 -22    0.81    1.26
   1   0 -22   -1.81    2.05
   1   0 -21    3.46    2.11
  -1   0 -21    1.32    0.79
   1   0 -20   -0.64    0.94
  -1   0 -20    0.40    1.32
  -1   0 -19    0.87    1.71
   1   0 -19    0.24    0.79
  -1   0 -18   -1.04    1.23
   1   0 -18    1.64    1.35
  -1   0 -17   -0.16    1.09
   1   0 -17    0.51    0.55
  -1   0 -16   -0.50    0.75
   1   0 -16    0.27    0.63
  -1   0 -15    0.11    0.62
   1   0 -15   -1.44    1.41
   1   0 -14    0.35    0.74
  -1   0 -14    1.45    0.94
  -1   0 -13    0.68    0.72
   1   0 -13   -0.07    0.66
   1   0 -12   -0.03    0.56
  -1   0 -12    0.82    0.85
   1   0 -11   -0.01    0.61
  -1   0 -11   -0.10    0.40
   1   0 -10    0.95    0.40
  -1   0 -10    1.15    0.75
   1   0  -9   -0.15    0.41
  -1   0  -9   -0.37    0.57
  -1   0  -8    0.47    0.42
   1   0  -8   -0.09    0.31
  -1   0  -7   -0.25    0.56
   1   0  -7    0.15    0.51
   1   0  -6   -0.02    0.12
   1   0  -6   -0.28    0.43
   1   0  -5    0.44    0.37
   1   0  -5    0.29    0.27
  -1   0  -5    0.05    0.43
   1   0  -4    0.43    0.26
   1   0  -4    0.42    0.20
  -1   0  -4   -0.03    0.18
   1   0  -3   -0.17    0.26
  -1   0  -3   -0.06    0.26
   1   0  -3    0.09    0.11
   1   0  -2    0.29    0.18
   1   0  -2   -0.04    0.19
   1   0  -1   -0.03    0.08
   1   0  -1   -0.06    0.08
   1   0   1    0.14    0.08
   1   0   2    0.09    0.08
   1   0   3    0.14    0.23
   1   0   4   -0.17    0.16
   1   0   5    0.42    0.39
   1   0   6   -0.05    0.24
   1   0   7    0.15    0.47
  -1   0   8    0.19    0.31
   1   0   8   -0.08    0.41
   1   0   9    0.45    0.68
   1   0   9   -0.07    0.10
  -1   0   9   -0.06    0.31
   1   0  10    0.01    0.23
  -1   0  10    0.25    0.41
   1   0  10   -0.12    0.40
   1   0  11    0.04    0.25
  -1   0  11   -0.07    0.34
   1   0  11   -0.03    0.29
   1   0  12    0.09    0.23
   1   0  12   -0.07    0.40
  -1   0  12    0.32    0.48
   1   0  13    0.01    0.19
  -1   0  13    0.25    0.44
   1   0  13   -0.29    0.67
   1   0  14   -0.11    0.20
  -1   0  14   -0.18    0.54
   1   0  14    0.08    0.48
   1   0  15    0.19    0.44
  -1   0  15   -0.33    0.59
   1   0  15   -0.05    0.27
   1   0  16    0.26    0.90
  -1   0  16    0.26    0.44
   1   0  16    0.23    0.33
   1   0  17    0.20    0.71
  -1   0  17    0.65    1.03
   1   0  18    0.18    0.54
  -1   0  18    0.13    0.47
   1   0  19    0.01    0.51
   1   0  20    0.85    0.76
   1  -1 -31    1.21    1.67
   1  -1 -30   13.09    3.64
   1  -1 -29   17.85    4.57
  -1  -1 -29   23.50    4.98
   1   1 -29   16.31    4.65
   1  -1 -28   16.38    3.92
  -1  -1 -28   11.62    3.85
   1   1 -28   10.13    3.09
  -1  -1 -27    2.22    1.94
   1   1 -27    5.92    3.01
   1  -1 -27    2.05    2.03
  -1  -1 -26   46.67    6.90
   1  -1 -26   47.41    6.91
   1   1 -26   39.01    6.10
   1  -1 -25   30.45    5.02
  -1  -1 -25   42.05    6.64
   1   1 -25   39.42    6.10
   1   1 -24   -1.13    1.19
  -1  -1 -24    1.65    2.30
   1  -1 -24    4.54    2.39
   1  -1 -23   35.77    5.79
  -1  -1 -23   35.15    5.47
   1   1 -23   29.70    5.20
   1   1 -22   24.56    4.49
  -1  -1 -22   19.76    4.31
  -1   1 -22   18.96    3.92
   1  -1 -22   16.52    3.39
   1   1 -21    0.66    0.95
  -1  -1 -21    4.85    2.30
   1  -1 -21    6.07    2.47
  -1   1 -21    2.77    2.12
  -1  -1 -20   65.27    7.10
   1  -1 -20   56.42    6.73
   1   1 -20   67.75    6.97
  -1   1 -20   75.58    7.60
  -1  -1 -19   90.46    8.07
  -1   1 -19   76.02    7.28
   1  -1 -19   73.55    7.37
   1   1 -19   72.82    6.99
   1  -1 -18   15.88    3.51
  -1  -1 -18   18.81    3.67
   1   1 -18    8.42    2.66
  -1   1 -18   13.18    3.12
   1   1 -17   88.60    7.33
  -1  -1 -17   78.88    7.37
  -1   1 -17   74.85    6.88
   1  -1 -17   81.60    7.34
   1   1 -16  133.53    8.65
   1  -1 -16  138.01    9.37
  -1  -1 -16  139.18    9.33
  -1   1 -16  128.50    8.85
  -1  -1 -15    3.81    1.69
   1  -1 -15    7.12    2.42
   1   1 -15   10.86    2.67
  -1   1 -15   11.08    2.69
  -1  -1 -14   75.74    6.56
   1   1 -14   79.86    6.22
   1  -1 -14   81.26    6.58
  -1   1 -14   72.53    6.05
  -1   1 -13  334.17   12.77
   1  -1 -13  336.38   13.17
  -1  -1 -13  335.45   13.32
   1   1 -13  336.74   12.32
   1   1 -12  722.24   17.42
  -1   1 -12  709.73   17.77
   1  -1 -12  739.53   18.86
   1  -1 -11  270.60   11.08
  -1  -1 -11  279.04   11.15
   1   1 -11  265.10   10.12
  -1   1 -11  279.33   10.57
  -1  -1 -10  511.45   14.70
   1  -1 -10  523.36   14.70
  -1   1 -10  512.55   13.72
   1   1 -10  519.27   13.15
   1   1 -10  525.87    9.96
  -1  -1  -9  562.79   14.63
   1   1  -9  589.36   13.16
   1  -1  -9  582.45   14.62
   1  -1  -9  575.11   12.62
  -1   1  -9  548.66   13.41
   1   1  -9  572.93   10.00
  -1   1  -8  327.81    9.77
   1   1  -8  321.81    9.21
   1  -1  -8  317.66    9.01
  -1  -1  -8  344.76   10.83
   1   1  -8  336.25    7.40
   1  -1  -8  321.48   10.47
   1   1  -7  495.70    8.89
  -1  -1  -7  506.46   12.69
   1  -1  -7  495.92   10.77
   1   1  -7  514.75   10.59
   1  -1  -7  488.40   12.33
   1  -1  -6 1094.08   17.33
   1   1  -6 1055.13   12.84
  -1  -1  -6 1120.80   17.54
   1  -1  -6 1066.29   15.14
   1   1  -6 1100.26   13.97
  -1  -1  -5  569.68   11.59
   1   1  -5  551.60    8.79
   1   1  -5  569.14    9.12
   1  -1  -5  579.98   10.65
   1  -1  -5  558.36   11.82
   1   1  -4 1900.37   16.37
   1   1  -4 1878.00   14.15
  -1   1  -4 1939.94   12.01
  -1  -1  -4 1801.75   19.25
   1  -1  -4 1837.64   18.53
   1  -1  -4 1892.45   19.75
  -1  -1  -3 1460.68   15.40
  -1   1  -3 1445.51   11.31
   1   1  -3 1472.39    9.79
   1   1  -3 1449.37   13.96
   1  -1  -3 1451.48   15.44
   1  -1  -3 1448.85   15.94
   1  -1  -2   62.82    3.05
   1   1  -2   62.75    2.87
  -1  -1  -2   58.34    2.67
   1  -1  -2   57.84    2.95
   1   1  -2   62.40    2.08
   1  -1  -1 2126.66   17.33
  -1  -1  -1 2168.61   13.69
   1   1  -1 2129.04   16.68
   1  -1  -1 2132.23   16.26
   1   1   1 2167.96   17.08
   1   1   1 2174.24   17.05
   1  -1   2   60.09    2.66
   1   1   2   56.31    2.99
   1   1   2   59.81    2.85
   1   1   3 1446.76   15.98
   1  -1   3 1430.16   13.36
   1   1   4 1867.57   16.79
   1  -1   4 1867.93   15.44
   1   1   5  555.19   10.83
   1   1   5  548.76    9.21
   1  -1   5  525.27    8.50
   1  -1   6 1086.67   12.37
   1   1   6 1047.37   13.27
   1   1   6 1096.43   15.97
   1   1   7  537.82    9.67
   1   1   7  530.99   11.58
   1  -1   7  536.99    9.05
   1  -1   8  335.04    7.53
   1   1   8  348.02    8.04
   1   1   9  555.30   12.84
   1  -1   9  561.02   10.30
   1   1   9  559.99   10.50
   1   1  10  539.95   13.10
   1   1  10  513.51   10.33
   1  -1  10  536.15   10.44
  -1   1  11  277.87    9.51
   1   1  11  275.99    7.83
   1   1  11  256.87    9.36
   1  -1  11  271.97    7.78
  -1  -1  11  255.75    5.21
   1   1  12  740.81   16.38
   1  -1  12  740.24   13.26
   1   1  12  726.28   13.01
  -1  -1  12  714.37    9.45
  -1   1  12  714.38   15.84
  -1  -1  13  353.34    7.13
   1   1  13  368.19   11.89
  -1   1  13  380.22   11.62
   1  -1  13  355.46    9.64
   1   1  13  351.03    9.36
   1   1  14   76.79    4.45
   1  -1  14   75.78    4.59
  -1  -1  14   76.94    3.51
   1   1  14   87.70    5.95
  -1   1  14   77.73    5.33
  -1  -1  15    6.93    1.10
   1  -1  15    7.93    1.63
  -1   1  15    6.36    1.79
   1   1  15    6.53    1.33
   1   1  15    6.40    1.78
   1   1  16  123.28    5.90
   1  -1  16  138.46    6.69
  -1   1  16  127.86    7.26
  -1  -1  16  126.16    5.04
   1  -1  17   77.26    5.30
   1   1  17   74.67    4.74
   1   1  17   86.04    6.52
  -1   1  17   83.42    6.17
   1  -1  18   11.17    2.20
   1   1  18   13.90    2.55
  -1   1  18   14.86    2.67
   1   1  19   68.97    6.17
  -1   1  19   70.41    6.03
  -1   1  20   55.73    5.36
   1   1  20   59.43    6.08
   1   1  21    5.08    2.28
   1  -2 -30    3.04    3.14
  -1  -2 -30    2.46    1.60
  -1  -2 -29    3.42    2.78
   1  -2 -29    2.48    2.83
   1  -2 -28    1.97    1.04
  -1  -2 -28    1.86    1.86
  -1  -2 -27    2.18    1.72
   1  -2 -27    0.44    0.79
   1  -2 -26    1.71    0.87
  -1  -2 -26    3.36    1.57
   1  -2 -25    2.86    2.04
  -1  -2 -25    3.73    2.44
   1   2 -24    4.35    1.92
  -1  -2 -24    8.30    3.50
   1  -2 -24    5.78    2.78
   1  -2 -23    4.51    1.54
  -1  -2 -23    5.44    2.42
   1   2 -23    4.79    2.11
   1   2 -22    3.86    2.28
   1  -2 -22    2.38    1.96
  -1  -2 -22    0.81    1.28
   1   2 -21    6.35    2.41
   1  -2 -21    8.20    3.13
  -1  -2 -21    7.85    2.29
   1  -2 -20   36.20    5.07
   1   2 -20   24.99    4.27
  -1  -2 -20   28.26    4.90
   1  -2 -19   11.46    3.23
   1   2 -19   11.67    2.79
  -1  -2 -19    8.21    2.52
   1   2 -18   10.58    2.73
  -1  -2 -18    6.38    2.86
   1  -2 -18   13.51    3.26
   1   2 -17   12.06    2.95
  -1  -2 -17   18.48    3.52
   1  -2 -17   16.83    3.83
  -1  -2 -16   17.69    3.35
   1  -2 -16   11.92    3.21
   1   2 -16   10.49    2.37
  -1  -2 -15   20.29    3.43
   1  -2 -15   13.15    3.19
   1   2 -15   10.90    1.74
   1   2 -15   16.48    2.89
  -1  -2 -14   47.55    5.35
   1  -2 -14   59.01    5.99
   1   2 -14   57.20    5.10
   1   2 -14   51.01    3.53
  -1   2 -13    3.68    0.60
   1   2 -13    4.81    1.24
   1  -2 -13    1.95    0.86
  -1  -2 -13    3.27    1.24
   1   2 -13    4.87    1.62
   1   2 -12    3.44    1.22
   1   2 -12    2.39    0.91
  -1  -2 -12    2.50    0.66
  -1   2 -12    3.22    0.65
   1  -2 -12    3.78    0.92
   1   2 -11    0.01    0.60
  -1   2 -11    0.91    0.38
   1   2 -11    0.99    0.71
  -1  -2 -11    0.15    0.91
   1  -2 -11    2.37    1.22
  -1   2 -10   37.71    2.29
   1   2 -10   33.10    3.18
   1  -2 -10   40.28    4.35
   1  -2 -10   36.07    3.76
  -1  -2 -10   40.58    4.33
   1   2 -10   35.36    2.88
  -1   2  -9  120.74    4.30
   1   2  -9  126.05    5.50
  -1  -2  -9  131.81    7.39
   1  -2  -9  122.19    6.70
   1   2  -9  129.23    5.77
   1  -2  -9  118.97    7.20
  -1  -2  -8   87.05    5.74
   1  -2  -8   87.85    5.89
  -1   2  -8   76.12    3.49
   1   2  -8   83.58    4.41
   1   2  -8   78.72    4.15
   1  -2  -8   76.29    5.08
   1  -2  -7  102.25    5.85
   1   2  -7  112.89    5.08
  -1   2  -7  103.29    4.21
   1  -2  -7  100.77    5.94
   1   2  -7  111.67    4.43
  -1  -2  -6  108.45    5.81
   1   2  -6  100.21    4.86
   1  -2  -6  114.21    6.06
   1  -2  -6  112.65    5.90
   1   2  -6  102.52    3.76
  -1   2  -6  106.21    4.39
  -1  -2  -5   20.60    2.40
   1  -2  -5   18.65    2.36
  -1   2  -5   16.87    1.77
   1  -2  -5   22.66    2.63
   1  -2  -4  107.62    5.36
  -1  -2  -4  109.05    5.12
   1   2  -4  112.92    5.01
  -1   2  -4  106.06    4.50
   1  -2  -4  113.41    5.69
   1   2  -3  892.33   14.27
  -1  -2  -3  881.02   13.61
  -1   2  -3  914.94   13.51
   1  -2  -3  898.45   14.49
   1  -2  -3  910.48   15.61
  -1  -2  -2 2844.14   21.59
  -1  -2  -2 2813.07   26.07
   1  -2  -2 2858.86   26.82
  -1   2  -2 2774.67   24.68
   1  -2  -2 2838.05   23.69
   1   2  -2 2811.10   25.52
  -1  -2  -1 2720.26   18.51
   1  -2  -1 2724.43   25.67
  -1  -2  -1 2766.46   24.88
  -1   2  -1 2720.29   24.79
   1  -2  -1 2750.31   21.87
   1   2  -1 2722.79   25.14
   1  -2   0 4888.49   27.52
   1  -2   0 4889.78   32.98
  -1  -2   0 4776.21   31.21
   1   2   0 4756.86   34.06
  -1   2   0 4829.93   33.54
   1  -2   1 2664.11   24.18
  -1  -2   1 2730.20   22.30
   1   2   1 2736.39   25.86
   1  -2   1 2747.89   19.77
   1  -2   2 2809.25   24.16
   1  -2   2 2818.30   20.09
  -1  -2   2 2813.03   21.63
  -1  -2   3  908.04   11.42
   1   2   3  875.32   15.17
   1  -2   3  869.28   13.51
   1   2   4  111.66    5.44
  -1  -2   4  111.09    3.72
   1  -2   4  118.37    4.77
  -1  -2   5   21.51    1.50
   1   2   5   19.19    2.28
   1  -2   5   22.48    2.06
  -1  -2   6  110.00    3.17
   1   2   6  114.86    6.22
   1   2   6  103.78    5.31
   1  -2   6  112.37    4.65
   1   2   7  117.07    6.43
   1   2   7  106.45    5.56
   1  -2   7  112.02    4.65
   1   2   8   87.23    5.69
   1   2   8   82.67    4.99
   1  -2   8   82.20    3.99
   1   2   9  115.73    6.11
   1   2   9  112.32    6.70
   1  -2   9  127.84    5.05
   1   2  10   31.08    3.23
   1  -2  10   33.47    2.65
   1   2  11    0.59    0.66
   1  -2  11    0.77    0.51
   1  -2  12    2.33    0.71
   1   2  12    2.80    1.10
   1   2  12    3.55    1.31
   1   2  13    7.75    1.90
   1   2  13    6.66    1.61
   1  -2  13    5.63    1.22
  -1   2  14   58.69    5.52
   1  -2  14   52.72    3.67
   1   2  14   50.89    4.97
   1   2  14   60.74    4.71
   1   2  15   12.56    2.34
  -1   2  15   14.56    2.97
   1  -2  15   11.51    1.79
   1   2  15   15.11    2.79
  -1   2  16   14.33    2.88
   1  -2  16   10.85    1.68
   1   2  16   12.01    2.90
   1   2  16   10.88    2.17
   1  -2  17    8.10    1.58
  -1   2  17   13.96    2.74
  -1   2  17   13.66    2.65
   1   2  17   11.45    2.47
   1   2  17   15.90    3.02
   1   2  18    9.34    2.58
  -1   2  18    8.80    2.24
  -1   2  18    9.89    2.27
   1   2  18    8.50    2.01
  -1   2  19    7.90    1.76
   1   2  19   12.77    2.79
  -1   2  19    7.20    1.95
   1   2  20   32.13    4.39
  -1   2  20   27.89    4.21
   1   2  21    9.99    3.07
  -1   2  21    5.02    1.73
   1   2  22    4.57    2.31
   1   2  23    2.42    1.12
   1  -3 -30   13.84    4.49
  -1  -3 -30   21.04    4.85
   1  -3 -29    9.81    3.98
  -1  -3 -29   11.38    3.65
  -1  -3 -28    3.36    2.50
   1  -3 -28    1.48    1.36
  -1  -3 -27    1.97    2.28
   1  -3 -27    1.62    2.31
  -1  -3 -26   37.59    5.78
   1  -3 -26   23.85    4.68
   1  -3 -25   15.87    4.37
  -1  -3 -25   21.86    4.61
   1  -3 -24   10.61    2.99
  -1  -3 -24   14.40    3.30
  -1  -3 -23   36.52    5.77
   1  -3 -23   33.06    5.87
  -1  -3 -22   63.39    7.36
   1  -3 -22   62.92    7.71
  -1  -3 -21   15.60    3.36
   1  -3 -21   14.63    3.24
   1  -3 -20   56.60    6.79
  -1  -3 -20   73.13    7.66
  -1  -3 -19   73.71    7.55
   1  -3 -19   65.91    7.11
   1  -3 -18   31.88    5.08
  -1  -3 -18   32.95    4.82
  -1  -3 -17  110.48    8.95
   1  -3 -17  128.66    9.73
  -1  -3 -16  362.52   15.79
   1  -3 -16  373.09   16.14
  -1  -3 -15   41.94    5.55
   1  -3 -15   39.46    5.40
   1   3 -14  339.61   10.60
  -1  -3 -14  346.09   14.80
   1  -3 -14  353.43   15.08
   1   3 -13  474.14   12.53
  -1  -3 -13  499.13   17.21
  -1   3 -13  472.04   10.52
   1  -3 -12  169.28    9.83
  -1   3 -12  162.96    6.45
  -1  -3 -12  165.59    9.69
   1  -3 -12  160.97    9.30
   1  -3 -11  151.22    8.72
   1  -3 -11  179.18    9.70
  -1   3 -11  165.49    6.50
  -1  -3 -11  167.28    9.34
   1   3 -11  158.84    7.17
   1  -3 -10  783.74   19.39
   1   3 -10  758.91   16.25
   1  -3 -10  809.51   20.18
  -1  -3 -10  795.12   19.76
  -1   3 -10  808.93   14.62
  -1   3  -9  166.45    6.75
  -1  -3  -9  174.36    8.93
   1  -3  -9  185.64    9.33
   1   3  -9  172.69    7.69
   1  -3  -9  178.03    9.00
   1  -3  -8  132.36    7.62
  -1  -3  -8  132.10    7.46
   1  -3  -8  119.45    7.30
   1   3  -8  129.71    6.52
  -1   3  -8  132.15    6.04
  -1   3  -7  356.73   10.24
   1  -3  -7  330.10   11.96
   1  -3  -7  344.98   11.97
  -1  -3  -7  340.16   11.54
   1   3  -7  340.23   10.55
   1  -3  -6   39.31    4.08
   1  -3  -6   38.08    3.74
  -1  -3  -6   35.08    3.69
  -1   3  -6   40.13    3.54
   1   3  -6   37.11    3.50
  -1  -3  -5  195.95    8.76
   1   3  -5  192.51    7.95
  -1  -3  -5  186.70    7.83
   1  -3  -5  209.97    9.14
  -1   3  -5  201.70    7.84
   1  -3  -5  204.12    8.51
  -1  -3  -4  593.37   14.90
   1  -3  -4  614.88   15.24
   1   3  -4  577.99   13.85
  -1   3  -4  600.97   13.64
   1  -3  -4  616.95   13.87
  -1  -3  -4  623.76   13.39
   1  -3  -3  136.60    6.22
   1  -3  -3  145.36    7.26
   1   3  -3  129.85    6.67
  -1   3  -3  134.07    6.47
  -1  -3  -3  125.55    6.60
  -1  -3  -3  136.13    5.80
   1   3  -2  142.68    6.96
  -1  -3  -2  140.41    6.90
   1  -3  -2  131.80    5.80
   1  -3  -2  159.81    7.42
  -1  -3  -2  140.93    5.60
  -1   3  -2  140.63    6.74
   1  -3  -1  557.57   11.45
   1  -3  -1  575.59   14.03
  -1  -3  -1  562.75   10.16
  -1   3  -1  588.29   14.03
   1   3  -1  573.43   14.08
  -1  -3  -1  568.29   13.51
  -1  -3   0 1254.39   13.21
   1  -3   0 1239.41   20.31
  -1   3   0 1256.77   20.85
   1  -3   0 1276.23   16.45
  -1  -3   0 1282.18   19.59
   1   3   0 1285.38   21.07
   1  -3   1  557.63   13.16
  -1  -3   1  591.89    7.59
   1   3   1  574.78   14.18
   1  -3   1  564.91   10.45
  -1   3   1  589.13   14.63
  -1  -3   1  590.02   12.85
  -1   3   2  144.54    7.21
  -1  -3   2  145.66    6.20
   1   3   2  135.13    6.92
   1  -3   2  147.28    5.24
   1  -3   2  149.22    6.66
   1  -3   3  133.90    6.28
   1  -3   3  133.74    4.91
   1   3   3  131.67    6.85
  -1  -3   3  130.28    5.68
  -1   3   3  128.45    6.95
  -1  -3   4  626.44   12.01
   1  -3   4  617.59   13.30
   1  -3   4  603.06   10.52
   1   3   4  596.40   14.96
  -1   3   4  586.68   15.28
   1   3   5  192.71    8.53
   1  -3   5  219.96    7.89
  -1  -3   5  217.18    6.78
  -1   3   5  199.39    8.91
   1  -3   6   40.54    3.30
  -1   3   6   40.67    3.99
  -1  -3   6   41.65    2.82
   1   3   6   40.24    3.96
  -1  -3   7  356.17    8.03
   1  -3   7  362.76    9.98
   1   3   7  362.87   11.95
  -1   3   7  342.52   11.94
  -1   3   8  132.99    7.62
   1  -3   8  131.70    6.03
   1   3   8  115.07    6.81
  -1  -3   8  121.73    4.45
  -1  -3   9  168.32    4.94
   1   3   9  166.42    9.09
  -1   3   9  179.46    9.06
   1   3   9  168.95    8.33
  -1   3  10  779.85   18.99
   1   3  10  794.07   18.42
   1   3  10  789.14   20.20
  -1  -3  10  757.82    9.79
   1   3  11  161.45    8.35
   1   3  11  171.67    9.56
  -1   3  11  157.91    8.92
   1  -3  11  163.75    6.48
  -1  -3  11  151.06    3.92
  -1   3  12  188.06    9.76
   1   3  12  172.59    8.87
   1  -3  12  172.79    6.71
   1   3  12  173.57    9.74
   1   3  13  452.04   14.61
   1   3  13  486.07   16.85
   1  -3  13  462.43   11.01
  -1   3  13  446.05   15.52
   1  -3  14  332.13    9.41
   1   3  14  370.69   14.61
  -1   3  14  339.22   13.56
   1   3  14  363.80   13.41
  -1   3  15   48.61    5.23
   1  -3  15   36.96    3.22
  -1   3  15   41.54    5.33
   1   3  15   47.16    5.30
   1   3  15   43.82    4.75
  -1   3  16  397.88   15.23
   1   3  16  344.13   14.68
  -1   3  16  361.74   15.32
   1   3  16  364.06   14.11
  -1   3  17  117.98    8.82
   1   3  17  114.58    8.13
   1   3  17  104.38    8.19
  -1   3  17  113.86    8.46
   1   3  18   36.88    5.14
   1   3  18   32.32    4.33
  -1   3  18   23.60    4.25
  -1   3  18   27.45    4.41
  -1   3  19   59.29    6.56
   1   3  19   74.61    6.67
  -1   3  19   75.67    7.09
   1   3  19   67.70    7.19
  -1   3  20   79.57    7.41
   1   3  20   76.61    7.54
   1   3  21   12.24    2.78
  -1   3  21   11.00    2.94
  -1   3  22   57.70    7.04
   1   3  22   54.39    6.72
   1   3  23   41.60    5.83
  -1   3  23   39.41    5.77
   1   3  24    3.34    2.28
  -1  -4 -29   -3.43    2.49
   1  -4 -29    0.05    1.67
  -1  -4 -28   -0.21    1.64
   1  -4 -28   -1.09    1.76
   1  -4 -27    3.31    2.63
  -1  -4 -27    1.30    1.40
   1  -4 -26    7.35    3.36
  -1  -4 -26    2.72    2.50
   1  -4 -25    1.83    1.94
  -1  -4 -25    0.88    1.48
   1  -4 -24    2.48    2.38
  -1  -4 -24    7.09    2.57
   1  -4 -23   12.08    3.42
  -1  -4 -23   11.69    2.92
   1  -4 -22   16.02    3.64
  -1  -4 -22    7.07    2.48
  -1  -4 -21   13.25    3.60
   1  -4 -21   16.20    3.80
  -1  -4 -20   -1.24    1.71
   1  -4 -20   -0.36    1.27
   1  -4 -19    4.63    3.02
  -1  -4 -19    4.79    1.67
   1  -4 -18   10.66    2.75
  -1  -4 -18   10.07    3.20
  -1  -4 -17   22.14    4.10
   1  -4 -17   12.39    3.41
   1  -4 -16   10.65    3.44
  -1  -4 -16   17.22    3.74
  -1  -4 -15   35.69    5.09
   1  -4 -15   32.27    4.61
   1   4 -14    3.20    1.15
  -1  -4 -14    2.07    1.52
   1  -4 -14    3.03    1.20
   1  -4 -13    4.10    2.21
   1   4 -13    4.31    1.51
  -1  -4 -13    6.03    2.41
  -1   4 -13    5.98    1.45
   1  -4 -12   86.86    7.31
  -1  -4 -12   94.48    7.53
  -1   4 -12   85.65    5.80
   1  -4 -12   93.43    7.76
  -1  -4 -11   25.70    3.81
   1  -4 -11   26.19    3.95
  -1   4 -11   23.24    2.99
   1   4 -11   28.16    3.60
   1  -4 -11   28.63    4.23
  -1   4 -10  136.19    7.33
   1  -4 -10  134.83    8.78
   1  -4 -10  128.25    8.49
  -1  -4 -10  129.91    8.33
  -1   4  -9  261.76   10.14
  -1  -4  -9  238.58   11.05
   1  -4  -9  247.52   11.59
   1  -4  -9  254.18   11.87
   1   4  -9  252.26   10.70
   1  -4  -8  121.04    7.77
   1  -4  -8  117.30    7.91
   1   4  -8  113.30    7.04
  -1   4  -8  123.58    7.05
  -1  -4  -8  112.76    7.48
   1  -4  -7   11.52    2.45
   1  -4  -7   13.65    2.82
  -1   4  -7   12.72    2.47
  -1  -4  -7   13.89    2.77
   1   4  -7   14.75    2.53
  -1   4  -6   57.64    4.88
  -1  -4  -6   60.58    5.09
  -1  -4  -6   61.38    5.54
   1   4  -6   65.03    5.31
   1  -4  -6   56.88    5.34
   1  -4  -6   56.09    4.88
   1  -4  -5   76.34    5.57
  -1  -4  -5   88.15    5.73
  -1  -4  -5   79.90    6.28
  -1   4  -5   78.83    5.78
   1  -4  -5   69.37    5.74
   1   4  -5   83.24    6.01
  -1   4  -4   49.15    4.58
  -1  -4  -4   53.01    5.03
   1   4  -4   49.89    4.67
   1  -4  -4   48.43    4.88
  -1  -4  -4   56.31    4.36
   1  -4  -4   48.88    4.33
   1   4  -3   44.43    4.31
  -1  -4  -3   35.81    3.26
  -1  -4  -3   40.28    4.29
   1  -4  -3   41.89    3.73
   1  -4  -3   42.75    4.44
  -1   4  -3   38.39    4.02
  -1   4  -2  145.48    7.95
  -1  -4  -2  159.76    8.30
   1  -4  -2  161.59    7.22
   1  -4  -2  150.13    8.24
   1   4  -2  158.15    8.36
  -1  -4  -2  163.21    6.62
  -1   4  -1  313.84   11.91
   1   4  -1  322.03   12.15
  -1  -4  -1  339.20    8.81
  -1  -4  -1  351.60   12.15
   1  -4  -1  337.83    9.87
   1  -4  -1  350.38   12.39
   1  -4   0  916.89   15.52
  -1   4   0  885.40   20.03
   1   4   0  877.68   20.07
  -1  -4   0  870.55   18.76
   1  -4   0  904.88   19.48
  -1  -4   0  924.72   13.20
   1   4   1  322.64   12.20
  -1  -4   1  329.06   11.22
   1  -4   1  321.56    8.89
  -1  -4   1  337.30    7.14
  -1   4   1  323.47   12.11
   1  -4   1  325.37   11.67
   1  -4   2  165.12    6.18
  -1   4   2  151.57    8.47
   1  -4   2  155.23    7.86
  -1  -4   2  154.20    7.56
   1   4   2  153.48    8.35
  -1  -4   2  145.08    4.05
  -1   4   3   36.81    4.27
  -1  -4   3   37.61    1.72
   1  -4   3   37.20    2.90
   1   4   3   39.41    4.41
  -1  -4   3   45.64    4.06
   1  -4   3   41.87    4.22
   1  -4   4   54.67    3.35
  -1   4   4   61.12    5.58
   1  -4   4   58.72    4.72
  -1  -4   4   55.81    4.29
   1   4   4   49.12    4.73
  -1  -4   5   84.98    5.24
   1  -4   5   84.54    4.28
  -1   4   5   84.17    6.53
   1  -4   5   84.85    5.63
   1   4   5   98.25    6.88
  -1  -4   6   67.58    4.53
   1  -4   6   70.56    4.07
   1   4   6   63.49    5.58
   1  -4   6   69.04    5.05
  -1   4   6   67.90    5.90
  -1  -4   7   11.19    1.02
  -1  -4   7   12.79    1.91
  -1   4   7   12.79    2.53
   1  -4   7   14.36    2.28
   1   4   7    9.69    2.20
   1   4   8   95.21    6.96
  -1  -4   8  116.28    5.58
   1  -4   8  116.64    6.32
  -1   4   8  115.14    7.95
  -1   4   9  232.12   11.44
   1   4   9  259.67   11.66
   1  -4   9  243.84    9.06
  -1  -4   9  249.75    8.04
  -1  -4  10  130.42    5.57
   1   4  10  142.81    8.76
  -1   4  10  133.89    8.88
   1  -4  11   26.53    2.90
  -1  -4  11   26.97    2.39
  -1   4  11   28.31    4.19
   1   4  11   31.27    4.42
   1   4  11   30.16    4.18
   1   4  12   89.97    7.04
  -1   4  12   85.29    7.23
   1   4  12   83.29    7.45
  -1  -4  12   87.13    4.05
  -1   4  13    4.59    1.72
   1   4  13    3.48    1.69
   1  -4  13    7.11    1.66
   1   4  13    5.41    2.47
  -1   4  14    0.96    1.06
   1  -4  14    2.86    0.80
   1   4  14    3.27    1.51
   1   4  14    1.62    1.34
   1   4  15   25.45    4.21
   1   4  15   23.62    4.32
  -1   4  15   31.05    4.34
  -1   4  16   12.03    2.98
   1   4  16   14.62    3.03
  -1   4  16   11.22    3.22
   1   4  16   11.19    2.88
   1   4  17   19.80    3.93
  -1   4  17   15.59    3.55
   1   4  17   16.09    3.33
  -1   4  17   10.84    2.90
  -1   4  18   10.03    3.03
  -1   4  18    7.63    2.75
   1   4  18   14.47    3.36
   1   4  18    9.00    2.66
   1   4  19    4.79    2.48
   1   4  19    5.28    2.43
  -1   4  19    1.94    1.72
  -1   4  19    7.19    2.50
   1   4  20    1.59    1.90
  -1   4  20    4.32    2.31
   1   4  20   -0.09    1.18
  -1   4  20    3.81    2.35
   1   4  21   15.04    3.55
  -1   4  21   20.28    4.36
  -1   4  21   19.25    3.84
  -1   4  22   13.30    3.30
   1   4  22   10.01    2.84
  -1   4  23   12.84    3.41
   1   4  23   14.67    3.89
   1   4  24    2.81    2.38
  -1   4  24    3.50    2.46
   1   4  25    1.87    2.12
   1  -5 -28    2.09    1.56
  -1  -5 -28    0.23    0.94
   1  -5 -27    0.22    1.08
  -1  -5 -27   -1.01    1.89
   1  -5 -26    5.31    1.50
  -1  -5 -26    9.24    3.38
   1  -5 -25   13.84    4.30
  -1  -5 -25    4.73    2.77
   1  -5 -24   -0.37    1.20
  -1  -5 -24   -0.89    1.15
   1  -5 -23    9.70    2.56
  -1  -5 -23   18.34    4.40
   1  -5 -22   31.60    5.49
  -1  -5 -22   33.19    5.59
   1  -5 -21    7.97    2.51
  -1  -5 -21    5.33    2.33
  -1  -5 -20   12.44    3.41
   1  -5 -20   17.29    3.81
   1  -5 -19   34.01    5.59
  -1  -5 -19   32.74    5.58
  -1  -5 -18   11.12    2.88
   1  -5 -18   12.22    3.54
  -1  -5 -17   16.84    3.41
   1  -5 -17   22.59    4.37
   1  -5 -16  132.39    9.82
  -1  -5 -16  135.45   10.47
  -1  -5 -15   29.69    4.73
   1  -5 -15   26.33    4.62
  -1  -5 -14   48.22    6.04
   1   5 -14   42.53    4.77
   1  -5 -14   52.74    6.32
   1  -5 -13  109.09    8.89
  -1   5 -13  106.03    7.41
   1   5 -13  118.72    8.26
   1  -5 -13  106.62    8.64
  -1  -5 -13  113.17    8.68
   1   5 -12   73.72    6.45
  -1   5 -12   69.12    5.94
  -1  -5 -12   84.02    7.35
   1  -5 -12   78.21    7.34
   1  -5 -12   70.79    7.10
  -1  -5 -11   18.05    3.59
  -1   5 -11   12.79    2.44
   1   5 -11   14.47    2.97
   1  -5 -11   20.59    3.93
   1  -5 -11   11.77    3.12
  -1  -5 -10  256.00   12.34
   1  -5 -10  264.79   13.25
   1   5 -10  246.29   11.45
   1  -5 -10  237.69   12.08
  -1   5 -10  234.84   11.10
  -1   5  -9  127.26    8.16
   1  -5  -9  118.69    8.33
   1  -5  -9  135.27    9.39
   1   5  -9  130.58    8.47
  -1  -5  -9  129.23    8.67
   1  -5  -8   21.29    3.43
   1   5  -8   21.29    3.55
  -1   5  -8   19.94    3.12
   1  -5  -8   22.34    3.83
  -1  -5  -8   22.57    3.54
  -1   5  -7  144.33    8.75
   1  -5  -7  131.64    8.32
   1  -5  -7  146.99    9.46
   1   5  -7  138.18    8.66
  -1  -5  -7  148.57    8.55
   1  -5  -6  114.37    7.56
  -1  -5  -6  121.40    7.52
   1  -5  -6  118.16    8.43
  -1   5  -6  112.54    7.79
   1   5  -6  118.07    7.94
  -1  -5  -6  120.22    8.50
  -1   5  -5   53.95    5.39
  -1  -5  -5   48.08    4.53
  -1  -5  -5   46.35    5.34
   1   5  -5   49.52    5.20
   1  -5  -5   46.66    4.87
   1  -5  -5   58.08    5.84
  -1  -5  -4  192.39    8.74
  -1   5  -4  188.98   10.11
   1  -5  -4  193.27   10.44
  -1  -5  -4  191.83   10.31
   1  -5  -4  196.11    9.27
   1   5  -4  201.70   10.52
  -1  -5  -3  253.66    9.56
  -1  -5  -3  247.35   11.51
  -1   5  -3  243.63   11.47
   1  -5  -3  243.42   11.56
   1  -5  -3  245.67   10.05
   1   5  -3  242.89   11.62
  -1   5  -2   35.12    4.34
   1  -5  -2   33.20    4.20
   1  -5  -2   30.79    3.29
  -1  -5  -2   33.75    4.23
  -1  -5  -2   29.18    3.08
   1   5  -2   31.54    4.08
   1  -5  -1   22.02    3.32
   1  -5  -1   17.44    2.42
  -1  -5  -1   16.18    2.80
  -1   5  -1   16.45    3.05
   1   5  -1   15.80    3.23
  -1  -5  -1   14.76    2.18
   1  -5   0  158.62    7.21
  -1  -5   0  156.81    8.82
  -1  -5   0  163.38    6.34
   1  -5   0  167.08    9.48
   1   5   0  177.51   10.00
  -1   5   0  161.76    9.44
   1  -5   1   17.95    3.06
   1  -5   1   19.30    2.36
  -1  -5   1   19.40    3.34
  -1   5   1   20.34    3.43
  -1  -5   1   15.53    1.82
   1   5   1   23.92    3.69
  -1   5   2   34.87    4.63
   1  -5   2   28.92    2.87
   1   5   2   32.94    4.25
   1  -5   2   29.71    3.79
  -1  -5   2   40.32    4.32
  -1  -5   2   28.50    2.31
   1   5   3  257.52   12.08
   1  -5   3  247.46    8.10
  -1  -5   3  228.17    5.41
  -1  -5   3  239.21   10.44
  -1   5   3  234.58   11.75
   1  -5   3  252.83   11.16
  -1   5   4  185.30   10.41
   1   5   4  191.35   10.46
  -1  -5   4  209.38    9.58
   1  -5   4  193.92    6.99
   1  -5   4  205.52   10.00
  -1  -5   5   56.25    4.90
  -1   5   5   52.29    5.62
   1   5   5   48.83    5.41
   1  -5   5   47.03    4.70
   1  -5   5   50.88    3.56
   1   5   6  119.94    8.56
  -1  -5   6  111.75    6.79
  -1   5   6  110.59    8.19
   1  -5   6  118.45    7.50
  -1   5   7  131.91    9.06
   1  -5   7  132.19    7.98
   1   5   7  121.13    8.66
   1  -5   7  136.33    5.99
  -1  -5   7  139.96    7.52
  -1  -5   8   20.74    2.70
   1   5   8   24.82    4.17
   1  -5   8   22.55    2.57
   1  -5   8   25.97    3.32
  -1   5   8   26.54    4.16
   1   5   9  141.81    9.49
  -1  -5   9  128.24    6.95
   1  -5   9  127.94    6.24
  -1   5   9  150.48    9.93
   1  -5   9  114.39    7.31
   1   5  10  240.87   12.42
   1  -5  10  225.42   10.10
  -1  -5  10  232.09    9.21
   1   5  11    7.18    1.99
  -1  -5  11   13.94    2.20
  -1   5  11   11.73    2.97
   1  -5  11   13.35    2.43
   1   5  12   73.92    7.15
  -1  -5  12   75.24    4.91
   1   5  12   86.25    7.95
   1  -5  12   86.57    6.19
  -1   5  12   87.87    7.79
   1  -5  13  102.10    6.76
  -1   5  13  108.75    8.94
   1   5  13  123.21    9.15
   1   5  13  102.99    8.78
   1   5  14   45.18    5.85
  -1   5  14   44.72    6.17
   1   5  14   51.13    6.04
  -1   5  15   27.31    4.59
   1   5  15   24.94    4.36
   1   5  15   29.48    4.54
  -1   5  16  121.97    9.63
   1   5  16  140.57   10.58
   1   5  16  132.74    9.96
  -1   5  17   20.88    4.31
  -1   5  17   21.79    4.12
   1   5  17   19.70    3.98
   1   5  17   19.67    4.10
  -1   5  18   11.84    2.83
   1   5  18    7.31    2.62
  -1   5  18    7.33    3.41
   1   5  18    6.75    2.48
  -1   5  19   36.76    5.18
   1   5  19   29.43    5.38
   1   5  19   29.05    5.27
  -1   5  19   26.09    4.95
  -1   5  20   16.26    3.83
  -1   5  20   10.66    3.56
   1   5  20   18.02    4.14
   1   5  20   14.83    3.80
  -1   5  21   11.32    3.03
  -1   5  21    9.44    3.16
   1   5  21    4.63    1.49
   1   5  22   38.15    6.02
  -1   5  22   35.66    5.91
  -1   5  23   14.43    4.15
   1   5  23   10.72    3.48
  -1   5  24   -1.78    2.27
   1   5  24    0.92    1.84
  -1   5  25    5.97    2.93
   1   5  25    8.41    3.17
   1   5  26   15.33    4.28
  -1  -6 -26    3.73    2.11
   1  -6 -26    0.15    1.77
   1  -6 -25   -0.63    1.15
  -1  -6 -25   -3.26    2.04
  -1  -6 -24   -0.71    1.52
   1  -6 -24   -0.60    0.98
   1  -6 -23    0.99    1.25
  -1  -6 -23    1.70    1.71
  -1  -6 -22    3.36    1.27
   1  -6 -22   -1.17    2.28
   1  -6 -21    2.96    2.59
  -1  -6 -21    5.09    3.05
  -1  -6 -20    0.90    0.89
   1  -6 -20    1.59    1.46
  -1  -6 -19   -0.11    0.92
   1  -6 -19    0.93    1.05
  -1  -6 -18    0.13    1.45
   1  -6 -18   -1.68    1.60
  -1  -6 -17    0.22    0.91
   1  -6 -17    1.89    2.29
   1  -6 -16    0.24    1.36
  -1  -6 -16    1.89    1.44
  -1  -6 -15    3.76    0.87
   1  -6 -15    3.99    3.00
   1  -6 -14    9.01    3.30
  -1  -6 -14    5.58    2.38
   1   6 -13   15.65    3.27
   1  -6 -13   12.10    3.30
  -1  -6 -13    9.57    2.69
   1  -6 -12   10.05    2.77
  -1   6 -12    5.36    2.07
  -1  -6 -12    8.83    2.38
   1  -6 -12   13.47    3.11
   1   6 -12   13.18    3.01
  -1  -6 -11    7.11    2.64
  -1   6 -11    4.59    1.55
   1   6 -11    5.54    2.35
   1  -6 -11    4.42    1.91
   1  -6 -11    2.98    2.33
  -1   6 -10    4.31    1.40
  -1  -6 -10    7.54    2.44
   1  -6 -10    7.81    2.88
   1  -6 -10    8.47    2.48
   1   6 -10    4.57    1.93
   1   6  -9    6.78    2.08
  -1   6  -9    7.80    2.04
  -1  -6  -9    9.05    2.66
   1  -6  -9    7.29    2.63
   1  -6  -9    8.57    2.86
  -1   6  -8    1.32    1.62
   1  -6  -8    1.00    1.19
   1   6  -8    0.52    0.89
  -1  -6  -8    0.59    0.88
   1  -6  -8    1.80    1.30
   1  -6  -7   41.10    5.21
   1   6  -7   36.63    4.93
   1  -6  -7   40.73    5.43
  -1   6  -7   30.90    4.56
  -1   6  -6   44.14    5.41
   1  -6  -6   42.64    5.43
  -1  -6  -6   40.80    4.65
  -1  -6  -6   55.38    5.93
   1   6  -6   43.43    5.57
   1  -6  -6   47.52    5.32
  -1   6  -5   92.41    7.66
   1  -6  -5   82.44    6.62
  -1  -6  -5   88.93    6.62
   1   6  -5   93.26    8.02
   1  -6  -5   99.19    8.11
  -1  -6  -5   85.95    7.55
   1   6  -4   66.86    6.64
  -1   6  -4   67.15    6.48
   1  -6  -4   65.24    5.86
  -1  -6  -4   68.29    5.67
  -1  -6  -4   77.69    7.06
   1  -6  -4   65.25    6.56
  -1  -6  -3   40.46    4.20
  -1  -6  -3   48.69    5.61
   1   6  -3   39.71    5.02
   1  -6  -3   36.59    5.02
  -1   6  -3   39.83    5.25
   1  -6  -3   46.48    4.83
   1  -6  -2   37.60    4.99
  -1   6  -2   44.61    5.37
  -1  -6  -2   46.05    4.33
   1   6  -2   32.48    4.72
  -1  -6  -2   43.17    5.23
   1  -6  -2   41.36    4.41
   1   6  -1   23.06    3.91
  -1   6  -1   20.37    3.93
  -1  -6  -1   18.64    2.42
   1  -6  -1   20.28    3.55
   1  -6  -1   18.43    2.78
  -1  -6  -1   18.03    3.57
  -1   6   0   31.79    4.58
  -1  -6   0   26.94    2.97
   1  -6   0   29.29    3.37
  -1  -6   0   31.59    4.13
   1  -6   0   28.40    3.99
   1   6   0   27.95    4.47
  -1   6   1   17.06    3.47
  -1  -6   1   19.25    2.27
   1  -6   1   23.32    3.91
   1  -6   1   21.15    2.88
  -1  -6   1   22.86    3.77
   1   6   1   20.51    3.99
  -1  -6   2   42.11    3.13
  -1   6   2   54.00    6.10
   1  -6   2   48.76    4.06
   1   6   2   49.90    5.85
   1  -6   2   43.09    5.08
  -1  -6   2   41.19    4.77
   1  -6   3   38.12    4.87
   1  -6   3   38.70    3.60
  -1  -6   3   33.50    2.47
  -1   6   3   43.94    5.38
  -1  -6   3   37.13    4.52
   1   6   3   42.58    5.37
   1  -6   4   65.60    6.20
   1  -6   4   56.60    4.14
  -1   6   4   68.57    6.69
   1   6   4   68.00    6.75
  -1  -6   4   74.25    6.45
  -1  -6   5   91.33    7.06
   1   6   5   85.80    7.94
   1  -6   5   73.73    4.64
   1  -6   5   72.94    6.44
  -1   6   5   90.00    7.96
  -1  -6   6   47.99    5.16
   1   6   6   34.13    4.75
  -1   6   6   35.97    5.45
   1  -6   6   35.27    3.11
   1  -6   6   42.36    4.97
   1   6   7   39.63    5.40
   1  -6   7   33.68    3.23
   1  -6   7   36.03    4.54
  -1   6   7   40.33    5.58
  -1  -6   7   35.74    4.36
   1  -6   8    1.78    1.32
  -1  -6   8    1.24    0.82
   1   6   8    1.33    0.82
  -1   6   8    1.97    1.98
   1   6   9    9.06    2.24
   1  -6   9    4.42    1.57
  -1   6   9    8.89    2.84
  -1  -6   9    5.56    1.82
  -1   6  10   10.16    3.16
  -1  -6  10    6.00    1.95
   1  -6  10    7.40    1.84
   1   6  10    7.43    2.58
   1  -6  11    1.78    1.24
  -1  -6  11    3.31    1.50
  -1   6  11    4.49    1.48
   1   6  11    0.29    1.22
  -1   6  12   12.59    3.38
   1   6  12    9.00    3.14
   1  -6  12   10.99    2.22
   1   6  12   11.44    3.32
   1   6  13   15.67    3.61
  -1   6  13    8.17    2.19
   1   6  13   18.03    3.74
   1   6  14    8.44    2.88
   1   6  14    2.54    2.32
  -1   6  14    3.96    2.29
   1   6  15    1.08    1.09
  -1   6  15    0.92    0.96
   1   6  15    1.82    1.87
   1   6  16    6.44    2.55
  -1   6  16    5.26    2.62
   1   6  16    2.06    1.47
   1   6  17    0.17    0.95
   1   6  17    3.72    2.21
  -1   6  17    2.13    0.81
  -1   6  17    2.00    2.26
  -1   6  18    3.30    2.26
  -1   6  18    1.98    2.09
   1   6  18    0.49    1.78
   1   6  18    0.68    1.70
   1   6  19    4.42    2.60
  -1   6  19    3.50    1.87
   1   6  19    0.17    1.18
  -1   6  19    0.62    1.81
  -1   6  20    0.30    1.48
  -1   6  20   -1.25    1.22
   1   6  20    1.87    1.08
   1   6  20    1.94    1.54
   1   6  21    3.25    1.49
  -1   6  21    3.57    2.34
   1   6  21    3.51    1.96
  -1   6  21    2.92    2.54
   1   6  22    7.40    3.13
  -1   6  22    7.02    2.13
  -1   6  23    2.25    1.89
   1   6  23    1.46    1.03
  -1   6  24   -2.08    2.03
   1   6  24    0.66    1.50
   1   6  25    0.01    1.92
  -1   6  25   -0.90    1.79
  -1   6  26    3.33    3.39
   1   6  26    2.11    2.66
  -1  -7 -25    1.01    1.79
   1  -7 -25    1.54    1.11
  -1  -7 -24   -1.57    1.33
   1  -7 -24   -0.59    1.75
  -1  -7 -23    7.14    3.83
   1  -7 -23   16.25    4.40
   1  -7 -22    8.54    3.27
  -1  -7 -22    5.33    2.93
  -1  -7 -21    1.38    1.38
   1  -7 -21    4.51    2.61
  -1  -7 -20    7.09    2.58
   1  -7 -20   12.92    3.38
  -1  -7 -19    9.73    3.34
   1  -7 -19    5.50    1.29
  -1  -7 -18   -1.57    1.81
   1  -7 -18   -0.99    1.76
  -1  -7 -17   10.92    3.21
   1  -7 -17   16.02    4.04
   1  -7 -16   16.98    4.10
  -1  -7 -16   22.22    4.63
  -1  -7 -15    5.81    2.18
   1  -7 -15    7.95    3.10
  -1  -7 -14    6.84    2.47
   1  -7 -14    8.27    2.34
   1  -7 -13   21.20    4.84
  -1  -7 -13   19.02    4.23
   1   7 -13   15.67    3.77
   1  -7 -12   10.69    2.72
  -1  -7 -12   15.02    3.84
   1   7 -12   13.99    3.37
  -1   7 -12   17.82    3.90
   1  -7 -12   12.35    3.29
   1  -7 -11    1.35    1.19
   1   7 -11    3.61    1.93
  -1  -7 -11    1.04    1.80
  -1   7 -11    3.18    1.76
   1  -7 -11    4.08    2.11
   1  -7 -10   57.63    6.74
  -1   7 -10   55.71    6.72
   1   7 -10   58.00    6.60
   1  -7 -10   69.03    7.74
  -1  -7 -10   58.11    6.75
  -1   7  -9   32.65    4.84
   1  -7  -9   44.28    5.75
   1   7  -9   42.60    5.76
  -1  -7  -9   40.72    5.45
   1  -7  -9   40.11    5.61
  -1   7  -8    5.03    2.12
   1   7  -8    4.68    2.07
  -1  -7  -8    1.85    1.30
   1  -7  -8    3.40    1.82
   1  -7  -8    5.33    2.39
  -1  -7  -7   43.56    5.17
   1  -7  -7   32.40    4.58
   1   7  -7   41.57    5.65
   1  -7  -7   40.83    5.77
  -1   7  -7   50.65    6.18
  -1   7  -6   85.94    8.11
   1   7  -6   85.95    8.18
   1  -7  -6   76.06    7.76
  -1  -7  -6   84.47    7.14
   1  -7  -6   92.94    7.79
  -1   7  -5   25.77    4.52
  -1  -7  -5   26.30    3.75
   1  -7  -5   33.00    4.43
   1  -7  -5   26.17    4.31
   1   7  -5   35.19    5.25
  -1  -7  -4   63.24    6.98
   1   7  -4   65.73    7.09
  -1   7  -4   69.60    7.15
  -1  -7  -4   52.49    5.45
   1  -7  -4   55.24    6.36
   1  -7  -4   55.87    5.72
   1   7  -3  144.71   10.50
   1  -7  -3  127.60    8.42
  -1  -7  -3  135.44    8.20
   1  -7  -3  138.72   10.26
  -1  -7  -3  128.56    9.64
  -1   7  -3  129.94    9.95
  -1   7  -2   41.30    5.67
   1   7  -2   43.75    5.91
  -1  -7  -2   46.59    4.50
  -1  -7  -2   48.76    5.97
   1  -7  -2   38.76    4.48
   1  -7  -2   40.56    5.55
  -1  -7  -1    2.35    1.27
   1  -7  -1    5.80    1.84
  -1   7  -1    5.63    2.06
   1   7  -1    4.62    2.75
   1  -7  -1    4.86    2.66
  -1  -7  -1    1.24    1.20
  -1   7   0   26.85    4.78
   1   7   0   34.37    5.23
   1  -7   0   34.56    4.81
   1  -7   0   29.27    3.58
  -1  -7   0   26.02    4.35
   1  -7   1    3.65    0.93
   1  -7   1    5.39    2.86
   1   7   1    5.34    2.54
  -1   7   1    1.82    1.86
  -1  -7   1    6.89    2.53
   1  -7   2   49.94    6.07
   1   7   2   51.84    6.17
  -1   7   2   53.97    6.68
  -1  -7   2   43.73    5.53
   1   7   3  138.53   10.27
   1  -7   3  125.22    9.40
  -1  -7   3  145.76   10.04
  -1   7   3  146.67   10.72
   1   7   4   63.09    6.97
  -1  -7   4   54.37    5.81
  -1   7   4   59.87    6.90
   1  -7   4   61.86    6.54
  -1   7   5   40.17    5.72
   1   7   5   34.64    5.50
  -1  -7   5   34.04    4.79
   1  -7   5   32.89    4.67
   1  -7   6   81.78    7.42
  -1  -7   6   98.79    8.07
  -1   7   6   80.39    7.93
   1   7   6  105.46    9.26
  -1   7   7   33.19    5.35
   1   7   7   54.32    6.69
   1  -7   7   47.09    5.54
  -1  -7   7   44.08    5.21
  -1  -7   8    3.35    2.05
   1  -7   8    1.96    1.61
   1   7   8    4.36    2.62
  -1   7   8    4.35    2.01
   1   7   9   39.56    5.84
  -1  -7   9   37.43    4.72
   1  -7   9   34.60    4.89
  -1   7   9   45.36    6.23
  -1  -7  10   56.48    5.77
   1  -7  10   61.54    6.61
  -1   7  10   46.99    6.24
   1   7  10   60.47    7.05
   1   7  11    4.25    1.97
  -1   7  11    2.36    1.57
   1  -7  11    4.48    2.07
   1   7  12   13.45    4.07
  -1   7  12   12.87    3.72
   1   7  12    9.70    2.87
   1   7  13   14.46    3.37
  -1   7  13   11.66    3.05
   1   7  13   18.93    4.35
  -1   7  14   11.17    3.49
   1   7  14    9.47    2.31
   1   7  14    9.66    3.35
   1   7  15    3.44    1.71
   1   7  15    0.21    1.08
   1   7  16   24.09    5.18
   1   7  16   24.51    4.99
  -1   7  16   24.58    5.11
  -1   7  17   19.57    4.44
   1   7  17   11.86    3.85
   1   7  17   12.70    3.69
  -1   7  17   10.03    2.66
   1   7  18    2.55    2.63
  -1   7  18    1.51    2.33
   1   7  18    0.57    1.53
  -1   7  18   -0.87    1.15
   1   7  19    3.48    2.07
  -1   7  19    4.00    1.32
  -1   7  19    7.19    2.22
   1   7  20    9.89    3.36
  -1   7  20    6.02    3.09
   1   7  20   11.55    3.10
  -1   7  20   12.85    3.31
   1   7  21    1.22    2.67
  -1   7  21    1.70    3.04
  -1   7  21    2.06    1.26
   1   7  21    1.41    1.07
   1   7  22    4.21    2.41
  -1   7  22   13.01    4.53
  -1   7  22   13.48    3.85
  -1   7  23    7.36    4.12
   1   7  23    4.27    1.90
  -1   7  24    2.30    2.08
   1   7  24    6.32    3.09
   1   7  25    4.52    2.82
  -1   7  25   -0.72    2.08
  -1  -8 -22    0.89    1.38
   1  -8 -22   -2.85    1.14
   1  -8 -21    3.32    2.85
  -1  -8 -21   -0.63    1.61
  -1  -8 -20    2.72    1.44
   1  -8 -20    0.77    2.61
  -1  -8 -19    0.04    1.68
   1  -8 -19   -1.14    1.44
  -1  -8 -18   -0.72    1.38
   1  -8 -18   -2.38    2.36
   1  -8 -17    4.60    1.37
  -1  -8 -17    2.54    2.14
   1  -8 -16    1.90    1.76
  -1  -8 -16    3.59    2.67
   1  -8 -15   -0.23    1.01
  -1  -8 -15   -1.29    1.01
   1  -8 -14   -1.45    1.73
  -1  -8 -14    2.09    2.05
  -1  -8 -13    2.31    1.36
   1  -8 -13    3.51    2.21
   1  -8 -12    1.08    1.74
  -1  -8 -12   -0.38    0.88
   1   8 -12    0.76    1.40
   1  -8 -11    6.36    2.54
  -1  -8 -11    3.54    1.80
   1  -8 -11    5.99    2.31
   1   8 -11    5.79    2.30
  -1   8 -11   10.42    3.79
   1   8 -10    0.40    1.20
   1  -8 -10    1.60    1.45
   1  -8 -10   -0.72    1.26
  -1   8 -10    1.26    1.63
  -1  -8  -9   -0.30    1.44
   1  -8  -9   -0.16    1.20
   1  -8  -9    1.00    1.18
  -1   8  -9    1.99    1.82
   1   8  -9    2.49    1.51
   1  -8  -8    5.37    2.63
   1   8  -8    3.58    1.63
   1  -8  -8    1.64    1.53
  -1   8  -8    3.67    1.75
  -1  -8  -8    4.42    2.35
  -1  -8  -7   -1.60    2.06
  -1   8  -7    1.79    1.37
   1  -8  -7    1.90    1.59
   1  -8  -7    1.64    1.64
   1   8  -7    1.83    1.65
   1   8  -6   29.40    5.34
  -1  -8  -6   29.88    4.29
  -1   8  -6   30.61    4.96
   1  -8  -6   35.90    5.40
   1  -8  -6   42.81    5.60
   1  -8  -5   14.08    3.43
  -1   8  -5    8.05    1.92
   1   8  -5   10.77    3.09
   1  -8  -5   10.21    2.62
   1  -8  -4   10.41    3.05
   1   8  -4    9.05    3.07
  -1   8  -4    5.48    2.59
   1  -8  -4    6.20    2.02
   1   8  -3    8.25    2.08
   1  -8  -3    7.60    1.93
  -1   8  -3    7.70    2.66
   1  -8  -3    7.90    2.37
   1   8  -2   37.34    5.51
  -1   8  -2   29.92    5.00
  -1  -8  -2   35.22    5.14
   1  -8  -2   27.37    4.57
   1   8  -1    2.28    2.32
  -1  -8  -1    4.02    2.42
  -1   8  -1    2.48    2.55
   1  -8  -1    1.25    1.32
   1  -8   0   13.65    3.23
   1   8   0   22.09    4.63
  -1   8   0   11.28    3.20
  -1  -8   0   15.17    3.48
   1   8   1    1.84    2.35
  -1   8   1    1.14    2.01
  -1  -8   1    3.65    1.69
   1  -8   1    2.46    1.37
   1   8   2   22.82    4.18
  -1   8   2   32.56    5.15
  -1  -8   2   32.05    5.06
   1  -8   2   28.65    5.17
   1  -8   3    7.86    2.80
  -1  -8   3    7.64    2.77
   1   8   3    6.72    2.72
  -1   8   3    9.59    3.14
  -1  -8   4    9.34    2.80
   1  -8   4    4.73    1.14
   1   8   4   10.10    2.94
  -1  -8   5   19.30    3.72
   1  -8   5   15.45    3.51
   1   8   5   10.67    2.89
  -1   8   5   10.16    2.82
   1  -8   6   39.03    5.65
  -1  -8   6   40.88    5.85
  -1   8   6   38.28    6.16
   1   8   6   41.85    6.30
   1  -8   7    2.09    2.16
   1   8   7   -0.11    2.14
  -1   8   7    0.44    1.35
  -1  -8   7    1.32    1.45
   1   8   8    5.75    2.45
   1  -8   8    1.27    1.63
  -1  -8   8    2.00    1.48
  -1   8   8    3.63    2.13
  -1   8   9    2.07    1.48
   1  -8   9    3.27    1.91
   1   8   9    1.97    2.19
   1  -8  10   -0.57    1.66
   1   8  10    1.10    1.39
  -1   8  10    0.38    1.35
   1   8  11    5.38    2.66
  -1   8  11    2.29    1.39
   1   8  11    5.87    1.79
   1   8  12    2.31    1.41
   1   8  12    0.14    1.18
  -1   8  12    2.83    2.38
  -1   8  13    8.16    2.78
   1   8  13    3.38    2.18
   1   8  13    3.60    1.43
   1   8  14    3.71    2.45
   1   8  14    0.36    1.08
  -1   8  14    1.00    1.81
   1   8  15    0.87    1.83
  -1   8  15   -1.38    1.64
   1   8  15   -0.77    0.93
   1   8  16    0.73    1.78
  -1   8  16   -0.48    1.25
   1   8  16   -3.22    3.02
  -1   8  16    1.20    1.07
  -1   8  17   -1.24    0.96
   1   8  17   -0.56    1.95
   1   8  17    1.39    1.71
  -1   8  17    1.60    1.85
  -1   8  18    3.50    2.73
   1   8  18    0.35    1.42
   1   8  18    0.67    1.50
  -1   8  18    0.99    2.39
   1   8  19    0.30    1.60
  -1   8  19    1.16    1.94
  -1   8  19   -1.93    1.99
   1   8  19    0.36    1.51
   1   8  20    0.33    1.79
  -1   8  20   -0.23    1.05
   1   8  20    1.88    2.09
  -1   8  20    3.97    2.94
  -1   8  21    1.74    2.40
   1   8  21    3.54    3.34
   1   8  21    4.85    2.96
  -1   8  21   -2.34    2.06
  -1   8  22    1.02    1.33
  -1   8  22    1.00    2.79
   1   8  22    0.32    1.30
  -1  -9 -20   13.28    4.56
   1  -9 -20    4.89    2.69
  -1  -9 -19    3.60    3.10
   1  -9 -19   -0.92    2.67
   1  -9 -18    1.91    1.71
  -1  -9 -18   -2.00    2.50
  -1  -9 -17    9.47    3.73
   1  -9 -17    8.63    3.48
  -1  -9 -16   14.57    4.64
   1  -9 -16    7.83    2.67
   1  -9 -15    5.29    2.34
  -1  -9 -15    2.55    2.17
  -1  -9 -14    7.18    3.33
   1  -9 -14    8.25    3.40
  -1  -9 -13   18.80    4.32
   1  -9 -13   11.88    3.83
  -1  -9 -12    5.87    2.80
   1  -9 -12    4.81    2.00
  -1   9 -11   -2.82    1.94
   1   9 -11    4.88    3.22
   1  -9 -11    6.07    2.65
   1  -9 -10   17.67    3.97
   1   9 -10   16.01    4.27
  -1   9 -10   16.02    4.17
   1   9  -9    6.42    3.27
   1  -9  -9   10.61    3.56
  -1   9  -9   11.10    3.50
   1  -9  -9   14.66    4.13
  -1   9  -8    1.42    1.32
   1   9  -8   -1.67    1.27
   1  -9  -8    1.14    2.57
   1   9  -7   18.06    4.18
   1  -9  -7   17.66    3.82
  -1   9  -7   18.22    4.17
   1   9  -6   32.31    5.30
   1  -9  -6   38.85    5.98
  -1   9  -6   36.51    6.16
   1  -9  -5    2.48    1.64
  -1   9  -5    2.27    2.04
   1   9  -5    1.71    1.47
   1   9  -4   27.69    5.38
  -1   9  -4   20.20    4.01
   1  -9  -4   25.63    4.95
  -1   9  -3   35.94    5.69
   1  -9  -3   36.68    5.89
   1   9  -3   29.87    5.45
   1   9  -2   12.64    3.80
   1  -9  -2    9.68    2.73
   1  -9  -1    5.62    1.81
  -1   9  -1    7.47    2.96
   1   9  -1    8.93    3.05
  -1   9   0   23.87    4.48
   1  -9   0   22.69    4.39
   1   9   0   26.10    5.30
   1  -9   1    6.02    2.67
  -1   9   1   -0.13    1.71
   1   9   1    5.54    2.60
   1   9   2   17.75    4.45
   1  -9   2   18.64    4.02
  -1   9   2   22.59    4.85
   1  -9   3   30.12    5.15
   1   9   3   33.58    5.65
  -1   9   3   37.80    6.33
   1  -9   4   30.78    5.51
   1   9   4   24.03    5.04
  -1   9   4   27.27    5.25
  -1   9   5    0.43    1.24
   1  -9   5    1.60    1.02
   1   9   5    2.05    1.46
   1  -9   6   36.10    5.71
  -1   9   6   31.94    5.60
   1   9   6   30.15    5.43
   1   9   7   22.39    4.40
   1  -9   7   18.68    4.14
  -1   9   7   16.78    4.70
  -1   9   8   -1.93    2.10
   1   9   8   -0.08    2.33
   1  -9   8   -0.80    1.68
   1   9   9    6.45    2.22
  -1   9   9   11.22    4.11
   1   9   9   12.46    3.53
   1   9  10   18.75    4.92
  -1   9  10   32.26    5.30
   1   9  10   22.96    5.15
   1   9  11   -0.22    1.78
   1   9  11    5.43    3.42
  -1   9  11    6.99    2.11
  -1   9  12    2.70    1.09
   1   9  12    6.32    2.67
  -1   9  13   22.58    5.17
   1   9  13   10.38    3.17
   1   9  13   21.39    5.01
   1   9  14    7.78    3.25
   1   9  14   10.69    4.02
  -1   9  14    6.02    3.22
   1   9  15    2.52    2.67
   1   9  15    7.71    2.92
  -1   9  15    4.92    2.56
  -1   9  15    3.90    2.20
   1   9  16    5.62    3.03
  -1   9  16    8.28    3.21
  -1   9  16    6.00    1.30
   1   9  16   14.58    3.45
  -1   9  17    5.27    3.11
   1   9  17    4.94    1.55
   1   9  17    9.10    3.79
  -1   9  17    6.44    2.68
  -1   9  18    0.80    1.82
  -1   9  18    3.79    2.51
   1   9  18    0.86    1.74
   1   9  18    4.94    3.79
   1   9  19    7.24    3.15
   1   9  19    3.08    1.41
  -1   9  19    3.58    2.33
  -1   9  19    8.64    3.72
   1   9  20   12.41    4.66
  -1   9  20    5.30    2.56
   1   9  20    8.63    2.82
  -1   9  20    3.43    2.00
   1  10 -11    1.70    2.89
  -1  10 -10   17.67    4.91
   1  10 -10    7.52    2.94
  -1  10  -9    6.32    2.91
   1  10  -9    8.93    3.26
  -1  10  -8   -0.33    0.92
   1  10  -8   -0.20    1.59
   1  10  -7    4.08    2.49
  -1  10  -7    2.71    1.41
   1 -10  -6   21.49    4.83
   1  10  -6   16.86    4.45
   1 -10  -5    0.60    1.47
  -1  10  -5    2.50    2.74
   1  10  -5    1.88    1.06
   1  10  -4    7.75    3.29
  -1  10  -4   11.33    3.92
   1 -10  -4    3.91    2.13
   1  10  -3    2.52    2.13
   1 -10  -3    0.62    1.72
  -1  10  -3    0.20    2.46
   1  10  -2    5.02    3.01
  -1  10  -2    0.78    1.44
   1 -10  -2    3.45    1.12
   1  10  -1    4.24    2.46
  -1  10  -1    0.95    1.43
   1  10   0   13.19    4.10
   1 -10   0    1.73    1.48
  -1  10   0    7.86    3.33
   1  10   1    2.65    2.23
  -1  10   1    3.61    2.72
   1 -10   1    0.64    1.92
  -1  10   2   -0.49    1.61
   1  10   2    8.23    3.24
   1 -10   2    7.87    3.29
   1 -10   3    2.86    2.85
  -1  10   3    0.57    1.97
   1  10   3    0.55    0.80
   1 -10   4   17.38    4.37
  -1  10   4    8.97    3.48
   1  10   4    7.38    2.77
   1  10   5    0.17    1.12
   1 -10   5    0.28    1.37
  -1  10   5    0.49    2.32
   1  10   6   11.57    3.23
  -1  10   6   18.42    4.52
   1 -10   6   18.13    4.38
   1 -10   7    6.00    3.08
   1  10   7    5.73    2.61
  -1  10   7    2.62    2.19
   1  10   7    3.40    3.58
   1  10   8    1.09    2.05
   1  10   8   -0.69    1.52
  -1  10   8   -1.88    2.18
   1  10   9    2.27    1.63
  -1  10   9    8.39    3.42
   1  10   9    3.58    2.38
  -1  10  10    6.05    1.89
   1  10  10    4.68    2.63
   1  10  10    3.90    2.65
   1  10  11    2.86    2.50
  -1  10  11    3.98    1.91
   1  10  11    3.52    2.04
  -1  10  12    8.79    4.05
   1  10  12    3.50    2.18
   1  10  12   10.36    3.57
   1  10  13    4.96    3.03
   1  10  13    6.11    2.17
  -1  10  13    6.02    3.09
   1  10  14   -0.92    1.54
  -1  10  14    3.54    2.22
  -1  10  14    1.97    2.14
   1  10  14    1.68    2.78
  -1  10  15    2.91    1.03
   1  10  15    3.04    3.48
  -1  10  15    3.07    1.73
   1  10  15    0.39    1.97
  -1  10  16    0.15    2.29
   1  10  16   -2.29    3.43
  -1  10  16    4.83    2.63
   1  10  16    2.01    2.75
   1  11 -10   -2.45    2.28
   1  11  -9    3.55    3.13
  -1  11  -8    5.63    3.44
   1  11  -8   -1.94    2.45
   1  11  -7    1.32    2.02
  -1  11  -7    0.40    2.23
  -1  11  -6    1.64    1.45
   1  11  -6    3.42    2.37
  -1  11  -5    0.56    2.03
   1  11  -5    0.44    1.41
   1  11  -4    6.10    3.00
  -1  11  -4    3.97    2.78
   1  11  -3    4.93    2.44
  -1  11  -3    4.26    3.21
   1  11  -2    1.62    2.41
   1  11  -2    0.87    1.80
  -1  11  -2    2.17    1.45
  -1  11  -1    4.34    3.25
   1 -11  -1    3.87    2.22
   1  11  -1    5.76    2.82
   1  11  -1    4.92    2.06
   1  11   0    7.30    2.86
   1 -11   0    5.59    2.94
   1  11   0    5.65    3.02
  -1  11   0    9.04    3.69
   1  11   1    7.25    2.92
   1 -11   1   10.27    4.24
   1  11   1    4.84    1.97
   1 -11   2    2.47    2.92
   1  11   2    4.37    2.57
  -1  11   2    3.03    2.47
   1  11   2    1.92    2.77
  -1  11   3    5.38    2.49
   1 -11   3    2.97    2.77
   1  11   3    4.14    2.56
   1  11   4    3.10    0.96
   1  11   4    2.80    1.63
   1 -11   4    2.43    1.09
  -1  11   4    2.01    1.94
  -1  11   5    3.02    2.31
   1 -11   5    3.90    2.70
   1  11   5    1.10    1.11
   1  11   5    0.52    2.65
   1  11   6   11.75    4.07
   1  11   6   11.71    3.56
  -1  11   6    8.21    2.19
   1  11   7    3.98    2.09
  -1  11   7    7.29    3.21
   1  11   7    0.61    1.74
  -1  11   8    1.06    1.97
   1  11   8   -4.39    3.66
   1  11   8   -2.37    2.88
   1  11   9    5.61    3.00
   1  11   9    3.70    2.63
  -1  11   9    4.02    1.53
   1  11  10   13.56    3.77
   1  11  10    5.85    2.59
  -1  11  10    6.55    3.41
   2   0 -31   -1.86    1.64
   2   0 -30   12.03    3.31
   2   0 -29   14.52    3.74
   2   0 -28   15.67    4.04
   2   0 -27    8.20    2.82
   2   0 -26    1.13    1.43
   2   0 -25   23.73    4.67
   2   0 -24   30.38    5.14
   2   0 -23   93.51    9.08
  -2   0 -22   11.32    3.31
   2   0 -22   15.55    3.67
   2   0 -21   54.77    6.44
  -2   0 -21   43.82    6.17
  -2   0 -20   23.65    4.32
   2   0 -20   22.49    4.21
   2   0 -19  353.81   15.89
  -2   0 -19  348.05   15.90
  -2   0 -18    9.82    2.68
   2   0 -18    7.13    2.17
   2   0 -17  128.46    9.23
  -2   0 -17  171.25   10.73
  -2   0 -16   10.18    2.51
   2   0 -16   12.96    2.93
   2   0 -15  324.20   13.45
  -2   0 -15  301.05   13.41
   2   0 -14   11.94    2.86
  -2   0 -14   19.97    3.32
  -2   0 -13 3045.50   39.68
   2   0 -13 2940.99   37.96
  -2   0 -12   33.55    4.00
   2   0 -12   30.53    3.72
   2   0 -11  229.39    9.76
  -2   0 -11  230.02   10.21
  -2   0 -10 1796.50   27.09
   2   0 -10 1760.39   25.71
   2   0  -9 1302.17   14.66
   2   0  -9 1245.54   20.73
  -2   0  -9 1266.33   21.60
   2   0  -8  390.48    7.60
  -2   0  -8  392.06   11.43
   2   0  -8  369.21   10.75
   2   0  -7 5662.68   28.16
   2   0  -7 5693.42   39.89
  -2   0  -7 5716.01   41.92
   2   0  -6  397.22    7.03
   2   0  -6  399.06    9.76
   2   0  -5 1797.22   14.23
   2   0  -5 1756.07   19.18
   2   0  -3 4868.14   28.09
   2   0  -1  331.55    6.03
   2   0  -1  319.94    6.33
   2   0   0    1.42    0.64
   2   0   0    3.60    0.73
   2   0   1  317.07    5.78
   2   0   1  313.22    6.36
   2   0   3 4912.27   28.15
   2   0   5 1772.39   11.35
   2   0   5 1777.03   18.64
   2   0   6  374.31    9.06
   2   0   7 5724.50   36.70
   2   0   8  378.30    9.86
   2   0   9 1272.26   18.90
   2   0  10 1779.48   23.15
   2   0  11  232.60    8.67
  -2   0  11  244.35    7.03
  -2   0  12   27.42    2.43
   2   0  12   28.92    3.12
  -2   0  13 3021.62   26.38
   2   0  13 2924.60   33.00
  -2   0  14   16.05    2.02
   2   0  14   14.55    2.64
  -2   0  15  312.86    9.21
   2   0  15  291.90   11.06
   2   0  16   12.23    2.44
  -2   0  16   14.04    2.03
   2   0  17  156.18    8.57
  -2   0  17  169.11    7.22
  -2   0  18    9.82    1.80
   2   0  18   10.30    2.23
   2   0  19  335.52   13.35
   2   0  20   20.06    3.73
   2  -1 -31    1.08    1.18
   2  -1 -30    2.47    2.18
   2  -1 -29    0.59    2.03
   2   1 -29    0.75    1.24
   2   1 -28   -0.96    1.96
   2  -1 -28    5.27    2.59
   2  -1 -27   -0.13    1.62
   2   1 -27   -0.03    1.69
  -2  -1 -26   -0.47    1.76
   2   1 -26    0.48    1.69
   2  -1 -26    0.28    1.21
   2  -1 -25    1.11    1.93
   2   1 -25    0.57    1.59
  -2  -1 -25    1.99    2.22
   2  -1 -24    0.39    0.95
   2   1 -24    3.51    2.15
  -2  -1 -24    2.64    2.17
  -2  -1 -23    2.04    1.62
   2   1 -23    2.54    2.01
   2  -1 -23    1.40    1.47
   2   1 -22    4.02    1.72
  -2  -1 -22    8.03    2.42
   2  -1 -22   11.13    3.32
  -2  -1 -21    7.57    2.54
   2   1 -21    6.54    2.41
   2  -1 -21    5.53    2.68
   2   1 -20   19.68    3.71
  -2  -1 -20   23.04    4.43
   2  -1 -20   21.08    4.16
  -2  -1 -19    6.60    2.33
   2  -1 -19    1.27    1.39
   2   1 -19    4.29    2.29
   2   1 -18   27.45    4.19
  -2  -1 -18   23.90    4.32
   2  -1 -18   24.05    4.04
  -2  -1 -17    3.32    1.57
   2  -1 -17    3.56    1.44
   2   1 -17    0.97    0.97
   2  -1 -16   16.40    3.20
   2   1 -16   17.12    3.25
  -2  -1 -16   16.29    3.26
   2   1 -15   17.86    3.08
   2  -1 -15   25.36    3.94
  -2  -1 -15   16.10    3.00
   2  -1 -14   89.12    7.13
  -2  -1 -14   87.52    7.02
   2   1 -14   82.25    6.34
  -2  -1 -13   18.99    3.02
   2  -1 -13   27.38    3.74
   2   1 -13   29.40    3.50
   2  -1 -12  392.24   13.82
  -2  -1 -12  397.71   14.15
   2  -1 -11   15.33    2.12
   2   1 -11   15.95    2.33
   2  -1 -11   15.71    2.53
  -2  -1 -11   12.77    2.58
  -2  -1 -10   15.54    2.65
   2  -1 -10   14.90    2.76
   2   1 -10   17.33    2.07
   2  -1 -10   16.67    2.22
   2   1 -10   13.25    2.21
   2  -1  -9   70.30    4.48
   2   1  -9   75.41    4.73
   2   1  -9   69.38    3.99
   2  -1  -9   78.43    5.50
  -2  -1  -9   73.87    5.38
  -2  -1  -8  108.08    6.18
   2  -1  -8  104.92    5.35
   2  -1  -8  112.74    6.39
   2   1  -8  108.03    5.25
   2   1  -8  103.39    4.83
   2   1  -7   66.86    3.90
  -2  -1  -7   58.45    4.35
   2  -1  -7   66.39    4.69
   2   1  -7   58.51    3.50
   2  -1  -7   67.66    4.07
   2   1  -6  622.76   11.31
  -2  -1  -6  605.42   13.22
   2  -1  -6  600.66   11.78
   2  -1  -6  589.74   13.22
   2   1  -6  593.39   10.74
  -2  -1  -5    9.57    1.58
   2  -1  -5   14.74    2.12
   2   1  -5   15.22    1.53
   2   1  -5   12.61    1.64
   2  -1  -5   12.49    1.74
  -2  -1  -4   95.38    4.62
   2  -1  -4   91.00    4.35
   2   1  -4   91.91    4.16
   2   1  -4   91.50    3.38
   2  -1  -4   85.13    4.44
   2   1  -3  793.35   12.19
  -2  -1  -3  819.57   12.57
   2   1  -3  819.78    8.31
   2  -1  -3  830.27   12.57
   2   1  -3  817.37    9.04
   2  -1  -3  821.75   13.09
   2   1  -2  105.38    3.29
   2   1  -2   99.82    3.01
   2  -1  -2  104.29    4.48
   2  -1  -2   97.99    4.28
   2   1  -2   97.44    4.24
   2  -1  -1   23.91    2.08
   2   1  -1   20.12    1.87
   2   1  -1   21.54    1.60
   2  -1  -1   21.37    1.93
   2   1   0    0.64    0.46
   2  -1   0    0.38    0.29
   2  -1   0    1.74    0.74
   2   1   0    0.68    0.37
   2  -1   1   21.08    1.87
   2   1   1   17.57    1.69
   2   1   1   22.23    1.88
   2  -1   2  108.59    4.29
   2   1   2  103.72    4.38
   2   1   2  103.60    4.11
   2   1   3  832.44   11.64
   2  -1   3  823.24   12.04
   2   1   3  820.61   12.77
   2  -1   4   80.71    3.86
   2   1   4   87.03    4.38
   2   1   4   92.54    3.91
   2   1   5   13.49    1.75
   2   1   5   12.03    1.38
   2  -1   5   13.42    1.59
   2  -1   6  628.65   11.21
   2   1   6  595.82   10.27
   2   1   6  592.85   12.53
   2   1   7   64.00    4.20
   2   1   7   62.76    3.31
   2  -1   7   61.81    3.60
   2   1   8   99.02    4.32
   2   1   8  108.37    5.72
   2  -1   8  113.18    5.08
   2  -1   9   71.67    4.16
   2   1   9   78.83    3.88
   2   1   9   75.97    4.99
   2   1  10   17.47    2.41
   2  -1  10   17.13    2.12
   2   1  10   15.45    1.80
   2  -1  11   14.10    2.11
   2   1  11   17.50    1.88
   2  -1  12  422.47   11.25
   2   1  12  433.40    9.75
   2   1  12  415.32   12.80
   2   1  13   23.50    3.18
  -2  -1  13   20.12    1.38
   2  -1  13   24.49    2.87
   2   1  13   29.71    2.60
   2   1  14   90.41    4.55
   2  -1  14   85.57    5.54
   2   1  14   92.09    6.51
  -2  -1  14   77.42    2.93
  -2   1  14   96.71    6.08
   2  -1  15   21.22    3.02
   2   1  15   19.75    2.23
   2   1  15   20.58    3.16
  -2   1  15   22.48    2.90
  -2  -1  15   15.61    1.52
   2  -1  16   14.90    2.47
  -2   1  16   13.08    2.42
  -2  -1  16   11.14    1.25
   2   1  16   14.53    2.78
   2  -1  17    2.44    1.27
   2   1  17    2.79    1.39
  -2   1  17    1.32    1.02
   2   1  17    3.69    1.12
   2  -1  18   29.86    3.71
  -2   1  18   26.91    3.51
   2   1  18   29.99    4.22
  -2   1  19    1.80    1.12
   2  -1  19    2.40    1.53
   2   1  19    2.79    1.47
   2   1  20   20.02    3.48
   2   1  21    7.52    2.33
   2   1  22    7.29    1.98
   2  -2 -30    1.25    1.43
   2  -2 -29   32.48    6.21
  -2  -2 -29   17.05    4.51
   2  -2 -28    6.61    2.88
  -2  -2 -28   11.01    3.47
   2  -2 -27   12.85    3.42
  -2  -2 -27   12.58    4.12
  -2  -2 -26    3.37    1.95
   2  -2 -26    5.36    2.12
   2   2 -25   46.52    7.27
  -2  -2 -25   30.39    5.55
   2  -2 -25   33.82    5.74
   2  -2 -24    4.58    1.95
  -2  -2 -24    9.69    2.57
   2   2 -24    6.04    1.76
  -2  -2 -23  114.21    9.95
   2   2 -23   91.84    8.96
  -2  -2 -22    4.53    2.51
   2   2 -22    1.72    1.05
   2  -2 -22    1.24    1.45
   2   2 -21    0.62    1.53
   2  -2 -21   -0.71    1.79
  -2  -2 -21    1.57    0.84
   2  -2 -20   10.13    3.28
  -2  -2 -20   12.81    3.62
   2   2 -20   11.61    2.57
  -2  -2 -19  117.07    9.54
   2   2 -19  104.65    8.46
   2  -2 -19  128.96   10.13
  -2  -2 -18   31.18    4.63
   2  -2 -18   40.99    5.39
   2   2 -18   30.48    4.43
   2   2 -17  167.71    9.81
   2  -2 -17  187.60   11.35
  -2  -2 -17  191.59   11.52
   2   2 -16    7.06    2.32
  -2  -2 -16    2.50    1.00
   2  -2 -16    4.83    2.19
  -2  -2 -15   16.85    2.99
   2  -2 -15   18.50    3.20
   2   2 -15   18.47    2.47
   2   2 -15   16.28    2.97
   2  -2 -14    6.65    2.24
   2   2 -14    5.59    1.55
  -2  -2 -14    6.21    2.19
   2   2 -14    5.62    1.39
   2  -2 -13  567.18   16.11
  -2  -2 -13  535.76   17.34
   2   2 -13  562.89   15.19
   2   2 -13  556.78   13.24
   2  -2 -13  566.48   17.72
   2  -2 -12  141.43    7.83
  -2  -2 -12  146.73    8.65
   2   2 -12  146.00    7.28
   2   2 -12  138.05    6.48
   2   2 -11    6.06    1.56
   2   2 -11    3.11    1.09
  -2  -2 -11    5.71    1.99
   2  -2 -11    4.98    1.71
  -2   2 -11    3.37    0.58
   2  -2 -11    4.31    1.37
   2  -2 -10   91.81    6.01
   2   2 -10   90.23    5.08
  -2  -2 -10   80.71    6.11
   2   2 -10   88.59    5.09
   2  -2 -10   86.66    6.37
  -2   2 -10   81.81    3.04
   2   2  -9  442.81   10.70
  -2  -2  -9  432.92   13.53
  -2   2  -9  436.82    7.56
   2   2  -9  434.36   11.28
   2  -2  -9  437.93   12.85
   2  -2  -9  437.77   14.00
  -2  -2  -8   25.76    3.15
   2   2  -8   23.07    2.20
  -2   2  -8   29.63    2.08
   2   2  -8   28.33    2.87
   2  -2  -8   24.20    3.15
   2  -2  -8   21.66    2.82
   2   2  -7  434.59   11.07
   2   2  -7  466.42    8.91
   2  -2  -7  444.27   12.42
  -2   2  -7  455.55    8.66
  -2  -2  -7  451.74   12.66
   2  -2  -7  470.36   13.26
   2   2  -6   18.79    1.61
   2  -2  -6   18.99    2.50
   2   2  -6   17.67    2.22
   2  -2  -6   13.31    2.18
  -2  -2  -6   22.03    2.66
  -2   2  -6   19.69    1.87
   2  -2  -5   63.25    4.41
   2   2  -5   58.07    2.48
  -2   2  -5   56.79    3.30
  -2  -2  -5   57.51    4.04
   2  -2  -5   54.27    4.11
   2   2  -5   50.38    2.20
  -2  -2  -4  146.77    6.03
   2  -2  -4  142.26    6.49
   2   2  -4  143.21    6.17
   2   2  -4  141.55    4.34
  -2   2  -4  141.40    5.28
   2  -2  -4  131.56    6.23
   2   2  -3 2157.02   18.20
   2  -2  -3 2137.97   24.06
  -2  -2  -3 2128.41   21.28
   2  -2  -3 2098.47   24.58
   2   2  -3 2120.52   23.53
   2  -2  -2  294.27    8.53
  -2  -2  -2  309.99    7.44
   2  -2  -2  287.69    8.96
   2   2  -2  300.56    7.31
   2   2  -2  299.54    8.76
   2  -2  -1  774.63   14.41
   2   2  -1  764.39   12.33
  -2  -2  -1  792.28   10.60
   2  -2  -1  765.75   13.12
   2   2  -1  758.31   14.09
   2   2   0  136.66    5.52
   2   2   0  144.33    6.13
   2  -2   0  134.84    5.30
   2  -2   1  752.92   12.34
   2  -2   1  763.57   14.00
   2   2   1  751.33   13.47
   2   2   1  770.97   14.23
   2   2   2  312.90    9.13
   2   2   2  290.51    8.67
   2  -2   2  305.47    7.92
   2  -2   2  294.10    8.52
   2  -2   3 2112.35   22.83
   2   2   3 2159.03   24.38
   2   2   3 2148.03   24.00
   2   2   4  135.71    6.19
   2   2   4  137.32    6.39
   2  -2   4  137.88    5.84
   2   2   5   57.12    4.01
   2   2   5   55.00    4.16
   2  -2   5   56.12    3.66
   2   2   6   18.47    2.29
   2  -2   6   19.84    2.17
   2   2   6   23.07    2.79
   2  -2   7  460.12   10.70
   2   2   7  452.68   12.72
   2   2   7  445.95   11.53
   2   2   8   25.09    3.06
   2  -2   8   28.50    2.68
   2   2   8   26.73    2.89
   2   2   9  432.20   13.12
   2  -2   9  462.89   10.98
   2   2   9  438.25   11.65
   2  -2  10   95.20    5.09
   2   2  10   83.81    5.91
   2   2  10   75.98    5.04
   2  -2  11    3.95    1.04
   2   2  11    2.84    0.95
   2   2  11    2.00    1.28
   2   2  12  127.32    6.82
   2   2  12  137.11    7.98
   2  -2  12  123.00    6.13
   2   2  13  563.58   16.71
   2   2  13  581.64   14.26
   2  -2  13  545.60   13.26
   2   2  14    3.75    1.17
   2   2  14    4.05    1.79
   2  -2  14    4.26    1.41
   2  -2  15   15.31    2.39
   2   2  15   17.42    3.13
  -2   2  16    2.27    0.61
   2  -2  16    1.66    0.66
   2   2  16    1.15    1.25
   2  -2  17  160.69    8.04
  -2   2  17  164.00    9.58
   2   2  17  171.96    8.30
   2   2  17  167.80    9.91
   2   2  18   25.66    4.16
   2   2  18   29.44    3.46
  -2   2  18   29.13    4.02
  -2   2  19  122.21    8.55
   2   2  19  113.85    8.68
   2   2  20   17.55    3.77
  -2   2  20    9.08    2.43
   2   2  21    1.03    1.17
  -2   2  21   -1.18    1.33
   2   2  22    1.57    1.56
   2   2  23  103.98    9.18
   2  -3 -30    0.07    1.72
  -2  -3 -30   -1.56    1.36
   2  -3 -29    4.76    1.63
  -2  -3 -29    3.13    2.07
   2  -3 -28    1.05    1.30
  -2  -3 -28    0.27    1.33
   2  -3 -27   -0.04    1.51
  -2  -3 -27   -0.62    1.30
  -2  -3 -26    2.86    2.84
   2  -3 -26    0.93    1.33
   2  -3 -25    7.26    2.98
  -2  -3 -25    6.24    2.93
   2  -3 -24    2.89    2.37
  -2  -3 -24   -2.71    1.53
   2  -3 -23    1.64    2.27
  -2  -3 -23    1.06    1.40
  -2  -3 -22   -1.24    2.14
   2  -3 -22    1.69    0.88
  -2  -3 -21   13.14    3.46
   2  -3 -21    8.64    2.75
   2  -3 -20    2.23    1.12
  -2  -3 -20    0.93    1.24
   2  -3 -19    1.36    1.12
  -2  -3 -19    2.18    1.43
   2   3 -19    0.26    1.40
   2  -3 -18    7.09    2.23
   2   3 -18    5.26    1.99
  -2  -3 -17   -0.93    1.56
   2  -3 -17    1.43    1.46
   2   3 -17    1.20    1.37
   2  -3 -16    3.18    1.94
  -2  -3 -16    4.61    1.60
   2   3 -16    3.34    1.52
   2  -3 -15    6.43    2.24
   2   3 -15    1.81    1.13
  -2  -3 -15    3.65    2.26
   2   3 -15    6.08    1.58
   2   3 -14    9.93    2.05
   2  -3 -14    6.22    2.07
  -2  -3 -14    9.22    2.58
   2   3 -14    8.43    1.85
   2  -3 -14    8.41    2.28
  -2  -3 -13    2.20    1.55
  -2   3 -13    5.14    1.32
   2  -3 -13    2.33    1.48
   2   3 -13    3.35    1.15
   2  -3 -13    1.75    0.92
   2   3 -13    5.97    1.35
   2  -3 -12   35.93    4.57
   2   3 -12   43.37    3.77
  -2   3 -12   41.06    2.99
   2  -3 -12   40.67    4.69
  -2  -3 -12   33.96    4.53
   2  -3 -11   34.23    4.06
   2   3 -11   44.40    4.06
   2  -3 -11   36.43    4.71
  -2  -3 -11   41.10    4.70
   2   3 -11   40.44    3.37
  -2   3 -11   36.21    2.93
   2  -3 -10   26.82    3.75
   2  -3 -10   33.48    4.17
   2   3 -10   32.43    2.80
  -2  -3 -10   28.77    3.87
  -2   3 -10   31.64    2.79
   2   3 -10   36.30    3.74
  -2   3  -9   40.83    3.33
   2   3  -9   39.20    2.81
   2  -3  -9   40.15    4.45
   2   3  -9   41.08    2.12
   2  -3  -9   40.15    4.47
   2   3  -9   45.97    4.07
  -2  -3  -9   42.14    4.42
  -2  -3  -8    0.83    0.48
   2  -3  -8    0.03    0.78
   2  -3  -8    2.27    1.62
  -2   3  -8    1.59    0.62
   2   3  -8    0.75    0.61
   2   3  -8    1.80    0.58
  -2   3  -7   23.07    2.52
   2  -3  -7   21.94    3.11
  -2  -3  -7   22.33    2.96
   2  -3  -7   25.48    3.38
   2   3  -7   21.07    2.90
  -2  -3  -6    3.69    1.35
  -2   3  -6    3.22    1.27
   2   3  -6    1.30    0.74
   2  -3  -6    2.79    1.29
   2  -3  -6    1.44    0.87
   2  -3  -5  161.70    7.79
   2   3  -5  151.23    7.44
  -2  -3  -5  149.61    7.05
   2  -3  -5  159.98    8.10
  -2   3  -5  158.83    7.02
   2  -3  -4   13.59    2.30
  -2   3  -4   13.51    2.19
  -2  -3  -4   11.64    1.87
   2  -3  -4   16.09    2.42
   2   3  -4   17.64    2.49
   2  -3  -3    9.33    1.78
   2   3  -3   11.41    2.17
  -2   3  -3    8.42    1.72
   2  -3  -3   11.48    2.03
  -2  -3  -3   10.78    1.65
  -2   3  -2   69.63    4.83
   2  -3  -2   76.32    5.34
   2  -3  -2   73.87    4.71
   2   3  -2   77.17    5.27
  -2  -3  -2   80.40    4.14
   2  -3  -1 1025.12   19.29
  -2   3  -1 1033.32   18.61
   2  -3  -1 1003.13   16.88
   2   3  -1 1032.39   19.21
  -2  -3  -1  979.48   13.31
   2  -3   0  111.09    5.44
   2  -3   0  111.48    6.23
   2   3   0  127.43    6.72
  -2  -3   0  120.03    4.01
   2  -3   1 1042.97   18.75
   2  -3   1 1018.42   16.11
   2   3   1 1001.91   19.22
   2  -3   2   83.04    4.53
   2   3   2   78.76    5.43
   2  -3   2   75.79    5.09
   2   3   3    9.71    1.87
   2   3   3   11.02    2.06
   2  -3   3   12.41    1.94
   2  -3   3   11.04    1.66
   2  -3   4   15.92    2.00
   2   3   4   12.93    2.20
   2  -3   4   13.75    2.11
   2   3   4   11.43    2.04
   2  -3   5  177.27    7.65
   2   3   5  165.19    7.95
   2  -3   6    0.74    0.54
   2   3   6    1.97    1.14
   2   3   6    1.86    1.04
   2  -3   7   21.54    2.60
   2   3   7   22.91    3.09
   2   3   7   26.02    3.41
   2   3   8    1.62    1.17
   2   3   8    1.02    0.51
   2  -3   8    0.59    0.60
   2   3   9   35.22    3.74
   2   3   9   33.77    4.19
   2  -3  10   35.05    3.33
   2   3  10   29.94    3.83
   2   3  10   32.62    3.79
   2   3  11   36.08    4.44
   2  -3  11   45.68    3.98
   2   3  11   34.90    3.92
   2  -3  12   37.66    3.56
   2   3  12   33.89    3.87
   2   3  13    1.17    1.79
   2  -3  13    1.79    0.58
   2   3  13    3.79    1.47
   2   3  14    4.70    1.70
   2   3  14    6.65    2.10
   2  -3  14    7.09    1.44
   2  -3  15    4.45    1.19
   2   3  15    4.08    1.80
   2   3  15    7.72    2.06
   2   3  16    1.09    1.09
   2   3  16    2.38    0.56
   2  -3  16    2.98    1.04
   2   3  17    2.21    2.18
   2   3  17    0.39    0.53
  -2   3  17    0.92    1.31
   2   3  18    3.81    1.70
   2   3  18    3.66    1.99
  -2   3  18    6.97    2.33
  -2   3  18    3.85    1.62
   2   3  19    2.47    1.69
  -2   3  19    1.22    0.69
  -2   3  19    0.88    1.77
  -2   3  20    1.41    1.08
  -2   3  20    3.05    1.90
   2   3  20    3.87    0.90
   2   3  21   10.92    3.24
  -2   3  21    5.86    2.18
  -2   3  22    2.39    1.55
   2   3  22    2.20    1.97
   2   3  23    2.77    1.70
   2   3  24   -1.62    1.72
   2  -4 -29   13.02    3.90
  -2  -4 -29   27.37    5.82
  -2  -4 -28    4.77    2.32
   2  -4 -28    9.65    3.02
  -2  -4 -27    3.49    2.52
   2  -4 -27    4.66    2.08
   2  -4 -26    1.91    1.74
  -2  -4 -26    0.82    2.00
   2  -4 -25   33.16    6.14
  -2  -4 -25   29.61    5.40
  -2  -4 -24    4.07    2.12
   2  -4 -24    0.93    1.69
  -2  -4 -23   31.21    5.61
   2  -4 -23   32.46    5.85
  -2  -4 -22    0.91    2.64
   2  -4 -22    1.79    2.76
  -2  -4 -21    0.46    2.08
   2  -4 -21   -1.47    0.91
   2  -4 -20    5.96    2.49
  -2  -4 -20    7.07    2.72
  -2  -4 -19  105.46    9.37
   2  -4 -19  119.10    9.96
  -2  -4 -18   36.47    5.33
   2  -4 -18   28.40    4.98
   2  -4 -17  113.04    9.35
  -2  -4 -17  137.17   10.09
  -2  -4 -16    0.93    1.68
   2  -4 -16    2.59    1.94
  -2  -4 -15   19.94    3.67
   2  -4 -15   13.33    2.93
   2  -4 -15   28.55    4.63
   2   4 -15   22.06    3.37
   2  -4 -14   47.43    5.81
  -2  -4 -14   42.33    5.34
   2  -4 -14   51.38    5.81
  -2  -4 -13  321.69   14.35
   2   4 -13  346.21   12.94
   2  -4 -13  329.79   14.69
   2  -4 -13  356.02   15.03
  -2  -4 -12  107.06    8.01
   2  -4 -12  102.12    8.06
   2   4 -12  113.24    7.42
   2  -4 -12  107.24    8.35
  -2   4 -12  104.59    6.25
  -2  -4 -11   54.16    5.60
  -2   4 -11   60.23    4.76
   2  -4 -11   65.66    6.41
   2  -4 -11   63.36    6.15
   2   4 -10    1.55    0.61
   2  -4 -10    3.19    1.91
   2  -4 -10    3.40    1.50
  -2   4 -10    3.66    1.19
   2   4 -10    2.09    1.07
  -2  -4 -10    3.07    1.25
   2   4  -9  356.95   12.88
   2  -4  -9  348.60   13.99
  -2  -4  -9  368.46   13.59
  -2   4  -9  366.44   12.04
   2  -4  -9  344.26   13.70
   2   4  -8   61.93    5.22
   2  -4  -8   43.70    4.69
   2  -4  -8   59.52    5.79
  -2  -4  -8   58.52    5.37
  -2   4  -8   55.62    4.84
  -2  -4  -7   90.67    6.34
   2  -4  -7  108.08    7.22
  -2   4  -7  100.11    6.47
   2  -4  -7   97.83    7.24
   2   4  -7   98.51    6.72
   2  -4  -6   45.33    4.61
   2  -4  -6   49.17    5.09
  -2   4  -6   57.56    4.86
  -2  -4  -6   48.39    4.46
   2   4  -6   52.57    4.81
   2  -4  -5   29.44    3.91
  -2   4  -5   30.04    3.50
   2   4  -5   26.17    3.53
   2  -4  -5   35.23    3.96
  -2  -4  -5   33.54    3.54
   2  -4  -4  109.53    7.35
  -2  -4  -4  108.65    6.06
  -2   4  -4  115.97    7.00
   2   4  -4  108.71    7.08
   2  -4  -4  112.83    6.81
   2   4  -3  300.33   11.64
  -2   4  -3  282.89   11.13
   2  -4  -3  301.41   10.68
  -2  -4  -3  317.13    9.89
   2  -4  -3  323.72   12.62
  -2   4  -2   38.86    4.19
  -2  -4  -2   41.91    3.33
   2  -4  -2   41.84    3.94
   2  -4  -2   44.43    4.50
   2   4  -2   50.38    4.81
  -2  -4  -1 1480.46   17.82
   2  -4  -1 1464.94   25.96
   2  -4  -1 1456.54   22.19
  -2   4  -1 1500.44   26.13
  -2  -4   0  156.17    5.26
   2  -4   0  168.63    7.34
   2  -4   0  168.02    8.74
  -2   4   0  162.11    8.67
   2   4   0  163.47    8.67
  -2   4   1 1478.29   26.40
   2  -4   1 1404.54   24.99
   2  -4   1 1468.60   21.03
   2   4   1 1430.56   25.93
  -2  -4   1 1472.55   13.82
   2  -4   2   40.59    3.42
   2   4   2   44.74    4.58
   2  -4   2   42.44    4.17
  -2   4   2   42.32    4.55
  -2   4   3  312.55   12.54
   2  -4   3  317.06   11.60
   2   4   3  336.07   12.65
   2  -4   3  327.99    9.77
   2  -4   4  106.89    5.62
   2  -4   4  112.87    6.85
   2   4   4  106.69    7.24
  -2   4   4  117.13    7.57
   2   4   5   31.31    3.97
  -2   4   5   26.01    3.68
   2  -4   5   27.39    3.42
   2  -4   5   27.51    2.88
  -2   4   6   46.07    4.92
   2  -4   6   44.93    4.27
   2   4   6   49.56    4.97
   2   4   6   57.78    5.58
   2  -4   6   47.58    3.76
   2   4   7   94.61    7.42
  -2   4   7  103.53    7.40
   2   4   7   96.12    7.14
   2  -4   7  104.01    6.47
  -2   4   8   53.49    5.34
   2   4   8   53.53    5.30
   2   4   8   45.18    5.04
   2  -4   8   52.78    4.60
   2   4   9  337.63   13.57
   2   4   9  331.78   13.96
   2  -4   9  349.94   11.75
  -2   4   9  324.73   13.58
  -2   4  10    1.91    1.23
   2  -4  10    1.24    1.23
   2   4  10    4.17    1.46
   2   4  10    0.48    0.58
   2  -4  11   68.73    5.16
   2   4  11   63.48    5.73
   2   4  11   56.57    6.03
  -2   4  11   53.21    5.71
   2   4  12   98.54    7.31
   2  -4  12  106.45    6.61
  -2   4  12   99.68    8.16
   2   4  12   86.00    7.46
  -2   4  13  340.01   14.73
   2   4  13  319.94   14.40
   2  -4  13  344.09   11.72
   2   4  13  332.80   13.97
   2   4  14   51.28    5.77
   2   4  14   55.26    5.79
  -2   4  14   40.96    5.25
   2  -4  14   43.16    4.13
  -2   4  15   20.60    3.61
   2   4  15   21.53    3.76
   2   4  15   22.30    3.92
   2  -4  15   24.36    3.38
  -2   4  16    1.72    1.94
   2   4  16    1.27    1.11
   2   4  16    1.69    1.23
   2   4  17  123.05    9.12
  -2   4  17  127.90    9.63
   2   4  17  127.51    9.46
   2   4  18   33.60    4.85
  -2   4  18   32.90    5.28
  -2   4  18   34.24    4.90
   2   4  18   36.22    5.29
   2   4  19   92.78    8.09
  -2   4  19  110.14    9.73
   2   4  19   92.11    8.84
  -2   4  19  109.18    9.41
  -2   4  20    2.58    1.29
  -2   4  20    3.19    2.16
   2   4  20    3.23    1.93
   2   4  21    1.64    1.65
  -2   4  21    2.10    1.73
  -2   4  21    0.22    1.32
   2   4  22    2.92    2.07
  -2   4  22    0.47    1.30
   2   4  23   28.54    4.81
  -2   4  23   35.76    5.77
   2   4  24    2.39    2.28
   2   4  25   30.43    5.27
   2  -5 -28   -2.17    2.21
  -2  -5 -28   -1.61    2.26
  -2  -5 -27    8.05    3.36
   2  -5 -27   -1.47    2.00
   2  -5 -26    0.35    1.03
  -2  -5 -26   -3.93    3.38
   2  -5 -25    5.11    2.88
  -2  -5 -25    9.83    3.38
  -2  -5 -24    4.80    3.04
   2  -5 -24    3.70    2.08
   2  -5 -23   -0.50    1.72
  -2  -5 -23    4.08    1.97
  -2  -5 -22    4.82    2.41
   2  -5 -22    6.27    2.87
   2  -5 -21    1.72    1.84
  -2  -5 -21    2.31    1.90
   2  -5 -20    0.58    2.03
  -2  -5 -20    0.11    1.01
  -2  -5 -19    4.69    2.45
   2  -5 -19   10.67    3.12
   2  -5 -18    2.01    2.02
  -2  -5 -18    0.34    1.61
  -2  -5 -17    2.71    1.20
   2  -5 -17    2.63    1.20
   2  -5 -16    6.45    2.68
  -2  -5 -16    4.79    2.08
   2  -5 -15    5.55    2.13
  -2  -5 -15    3.78    1.87
   2  -5 -15    0.71    1.01
   2   5 -14    6.87    1.99
   2  -5 -14    5.49    2.47
   2  -5 -14    4.64    2.18
  -2  -5 -14    2.29    0.84
   2  -5 -13   46.70    6.00
   2  -5 -13   37.20    5.18
  -2  -5 -13   49.12    5.96
   2   5 -13   46.37    5.16
  -2   5 -12   17.43    3.02
   2   5 -12   16.28    3.33
  -2  -5 -12   26.22    4.02
   2  -5 -12   18.30    3.59
   2  -5 -12   19.18    3.64
   2   5 -11    0.56    0.79
  -2   5 -11    3.35    1.62
  -2  -5 -11    5.55    2.11
   2  -5 -11    2.53    0.88
   2  -5 -11    0.97    1.73
  -2   5 -10   18.33    3.12
   2  -5 -10   19.93    3.44
  -2  -5 -10   10.92    2.78
   2  -5 -10   14.86    3.25
   2   5 -10   16.51    2.99
   2   5  -9   11.35    2.61
  -2   5  -9   10.81    2.25
  -2  -5  -9    9.29    2.55
   2  -5  -9   12.93    2.86
   2  -5  -9    9.54    2.40
   2   5  -8    7.63    1.81
   2  -5  -8    4.99    1.82
  -2  -5  -8    3.75    1.47
   2  -5  -8    4.53    1.41
   2  -5  -7    1.70    0.86
  -2   5  -7    1.01    0.89
  -2  -5  -7    0.06    0.38
   2   5  -7    0.09    0.86
   2  -5  -7    0.44    1.23
   2  -5  -6    3.33    1.68
  -2  -5  -6    3.68    1.14
   2  -5  -6    4.44    1.48
   2   5  -6    4.77    1.76
  -2   5  -6    3.62    1.64
   2  -5  -5   18.62    3.42
  -2   5  -5   16.11    2.93
   2  -5  -5   18.65    3.07
  -2  -5  -5   16.67    2.88
   2   5  -5   22.87    3.57
  -2   5  -4   64.68    5.83
   2  -5  -4   60.05    5.97
   2  -5  -4   64.51    5.48
   2   5  -4   66.61    6.08
  -2  -5  -4   63.41    5.08
   2   5  -3   75.01    6.69
  -2  -5  -3   67.73    4.80
   2  -5  -3   58.79    5.01
   2  -5  -3   71.31    6.41
  -2   5  -3   58.60    5.61
   2   5  -2    3.32    1.57
   2  -5  -2    3.32    1.63
   2  -5  -2    2.65    1.30
  -2   5  -2    2.90    1.68
  -2  -5  -2    3.13    1.03
   2  -5  -1  269.90   12.23
  -2  -5  -1  272.78    8.52
   2   5  -1  264.04   12.23
  -2   5  -1  255.99   11.88
   2  -5  -1  248.79    9.90
  -2   5   0   34.88    4.41
   2  -5   0   33.88    4.37
   2  -5   0   32.17    3.54
   2   5   0   32.95    4.34
  -2  -5   0   33.37    2.71
  -2   5   1  252.90   12.04
   2   5   1  263.67   12.24
  -2  -5   1  264.25    6.76
  -2  -5   1  274.61   11.40
   2  -5   1  273.14   12.04
   2  -5   1  243.76    9.35
  -2   5   2    5.34    1.62
   2  -5   2    3.15    1.44
  -2  -5   2    3.24    0.66
  -2  -5   2    4.39    1.32
   2  -5   2    3.19    1.23
   2   5   2    3.93    1.63
   2   5   3   76.25    6.54
  -2  -5   3   70.35    5.64
  -2   5   3   57.74    5.90
   2  -5   3   68.98    4.78
  -2  -5   4   66.81    5.34
  -2   5   4   64.92    6.30
   2  -5   4   68.51    5.87
   2   5   4   67.20    6.19
   2  -5   4   61.56    4.51
   2   5   5   18.94    3.39
  -2  -5   5   21.59    3.06
   2  -5   5   23.41    2.84
   2  -5   5   18.85    3.38
  -2   5   5   21.22    3.97
   2   5   6    4.20    1.74
  -2   5   6    6.49    2.61
   2  -5   6    6.20    1.64
   2  -5   6    6.07    2.00
  -2  -5   6    2.15    1.12
  -2   5   7    0.26    0.94
   2  -5   7    0.13    0.84
   2   5   7    1.97    1.61
   2  -5   7    0.18    0.69
   2  -5   8    6.46    1.65
  -2   5   8    6.70    1.63
   2   5   8    6.33    2.20
   2   5   8    3.55    1.20
   2  -5   8    6.72    1.66
  -2   5   9   13.36    3.05
   2   5   9   12.13    2.69
   2  -5   9    8.60    2.02
   2  -5   9    9.67    2.22
   2   5   9   14.79    3.29
   2  -5  10   14.53    2.79
   2   5  10   11.89    3.49
   2   5  10   18.43    3.49
  -2   5  10   15.25    3.84
   2   5  11    0.72    1.02
   2   5  11   -1.41    1.47
  -2   5  11    1.89    1.80
   2  -5  11    2.12    1.37
   2  -5  12   17.09    2.86
   2   5  12   16.62    3.89
  -2   5  12   17.35    3.83
   2   5  12   20.51    4.02
  -2   5  13   39.71    5.49
   2   5  13   46.97    5.68
   2   5  13   48.28    5.85
   2  -5  13   48.01    4.76
   2   5  14    9.63    3.38
  -2   5  14    4.97    2.67
   2   5  14    5.13    2.08
   2  -5  14    3.89    1.76
  -2   5  15   -0.08    1.23
   2   5  15    4.77    1.94
   2   5  15    2.09    1.64
   2   5  16    7.04    2.39
  -2   5  16   11.93    2.98
   2   5  16    9.09    2.91
   2   5  17   -0.58    0.99
   2   5  17    1.62    1.65
   2   5  18    0.68    1.96
  -2   5  18   -0.19    1.55
   2   5  18    0.89    1.34
  -2   5  19    6.28    3.07
  -2   5  19    4.58    3.25
   2   5  19    7.59    2.59
   2   5  19    7.97    3.08
  -2   5  20    0.59    1.34
   2   5  20   -0.85    1.33
   2   5  20    0.71    2.25
  -2   5  20    4.44    1.93
  -2   5  21    1.57    1.72
   2   5  21    1.35    1.26
  -2   5  21    0.83    1.03
   2   5  22   12.32    3.54
  -2   5  22   13.53    3.90
  -2   5  22    9.01    3.00
   2   5  23    3.75    2.28
  -2   5  23    1.14    1.03
  -2   5  24   -0.42    1.44
   2   5  24    1.19    2.35
   2   5  25    2.72    1.66
   2   5  26    2.37    2.97
   2  -6 -26    3.76    2.21
  -2  -6 -26   -1.45    1.56
   2  -6 -25    4.97    3.58
  -2  -6 -25    6.67    3.04
   2  -6 -24    4.78    2.29
  -2  -6 -24   10.01    4.16
   2  -6 -23    9.95    2.98
  -2  -6 -23   20.42    5.08
   2  -6 -22   12.89    4.07
  -2  -6 -22   14.94    4.18
  -2  -6 -21    6.75    3.02
   2  -6 -21    8.07    2.55
  -2  -6 -20    3.07    1.85
   2  -6 -20    5.36    2.35
  -2  -6 -19   57.77    7.07
   2  -6 -19   59.13    7.84
  -2  -6 -18    3.36    2.51
   2  -6 -18    3.92    2.09
  -2  -6 -17   30.59    5.01
   2  -6 -17   33.65    5.53
   2  -6 -16    7.13    1.97
  -2  -6 -16    6.11    2.88
   2  -6 -15   60.81    7.20
  -2  -6 -15   59.50    6.74
   2  -6 -15   49.73    6.43
   2   6 -14   25.25    4.34
   2  -6 -14   30.85    5.31
  -2  -6 -14   31.43    5.17
   2  -6 -14   24.68    4.50
  -2  -6 -13  322.07   15.46
   2   6 -13  313.84   14.84
   2  -6 -13  360.84   16.92
   2  -6 -13  342.71   16.16
  -2   6 -12    3.69    1.28
   2   6 -12    8.27    2.56
   2  -6 -12    4.59    2.40
  -2  -6 -12    9.67    2.94
   2  -6 -12    8.66    2.86
   2  -6 -11   58.39    6.76
   2  -6 -11   61.37    6.97
   2   6 -11   49.25    5.77
  -2   6 -11   51.08    5.55
  -2  -6 -11   50.26    6.10
   2   6 -10   19.00    3.62
  -2  -6 -10   23.75    4.21
  -2   6 -10   22.07    3.82
   2  -6 -10   19.14    3.55
   2  -6 -10   18.69    3.46
   2   6  -9  224.90   12.40
  -2   6  -9  243.49   12.58
   2  -6  -9  251.40   13.15
  -2  -6  -9  256.81   12.80
   2  -6  -9  262.52   13.84
   2  -6  -8  127.43    9.76
   2  -6  -8  152.97    9.97
   2   6  -8  135.91    9.59
  -2  -6  -8  151.01    9.39
  -2   6  -8  154.98   10.09
   2  -6  -7  226.91   12.68
  -2   6  -7  237.99   12.41
  -2  -6  -7  235.36   11.82
   2   6  -7  201.21   11.62
   2  -6  -7  247.11   12.49
   2  -6  -6    4.59    2.00
   2  -6  -6    2.27    1.01
  -2   6  -6    6.08    1.64
   2   6  -6    8.29    2.83
  -2  -6  -6    3.59    1.58
  -2   6  -5   32.94    4.67
   2   6  -5   37.73    4.96
   2  -6  -5   35.65    4.46
   2  -6  -5   50.24    6.29
  -2  -6  -5   31.85    4.06
   2  -6  -4  304.50   12.77
   2   6  -4  282.16   13.77
   2  -6  -4  294.75   14.14
  -2   6  -4  301.06   13.86
  -2  -6  -4  279.82   11.66
   2  -6  -3  198.73   11.67
  -2   6  -3  200.66   11.53
   2  -6  -3  208.53   10.37
  -2  -6  -3  226.72    9.69
   2   6  -3  214.46   11.79
   2  -6  -2  130.60    9.44
  -2  -6  -2  120.12    6.72
   2  -6  -2  130.72    8.01
   2   6  -2  123.18    9.17
  -2   6  -2  136.22    9.44
   2  -6  -1  206.38   11.40
  -2   6  -1  184.20   11.00
   2  -6  -1  247.10   10.75
  -2  -6  -1  233.73    8.51
   2   6  -1  249.70   12.81
  -2  -6   0   21.15    2.39
   2  -6   0   20.16    3.55
  -2   6   0   21.97    3.67
   2  -6   0   22.05    3.25
   2   6   0   23.37    4.10
   2   6   1  245.16   12.80
   2  -6   1  262.55   12.83
  -2   6   1  241.50   12.72
  -2  -6   1  222.67    7.17
   2  -6   1  225.76    9.80
  -2  -6   2  111.68    4.41
  -2   6   2  121.42    9.21
   2   6   2  137.86    9.77
   2  -6   2  132.98    9.13
   2  -6   2  129.49    7.22
   2  -6   3  185.35    8.64
  -2   6   3  182.92   11.16
   2   6   3  215.37   12.11
   2  -6   3  211.50   11.54
  -2   6   4  292.57   14.32
   2  -6   4  304.85   13.78
   2  -6   4  287.88   10.64
   2   6   4  296.51   14.56
   2  -6   5   33.43    3.67
   2   6   5   44.44    5.75
  -2   6   5   46.45    5.73
   2  -6   5   43.03    5.14
  -2   6   6    9.01    2.83
   2   6   6    6.80    2.76
   2  -6   6    3.84    1.36
   2  -6   6    7.61    2.22
   2   6   7  264.29   13.84
   2  -6   7  219.34    9.10
   2  -6   7  238.96   11.97
  -2   6   7  233.38   13.29
   2   6   8  154.13   10.48
  -2   6   8  155.36   11.06
   2   6   8  159.01   10.88
   2  -6   8  145.41    7.40
   2  -6   8  159.78    9.75
   2  -6   9  264.44   12.60
   2  -6   9  235.73    9.96
   2   6   9  246.52   13.53
  -2   6   9  247.08   13.75
   2  -6  10   18.75    3.48
   2   6  10   23.32    4.46
   2   6  10   24.54    4.65
  -2   6  10   29.96    4.84
   2   6  11   52.38    6.50
   2   6  11   68.73    7.54
  -2   6  11   53.12    6.45
   2  -6  11   61.04    6.02
   2   6  12    3.95    2.50
  -2   6  12    1.90    2.00
   2  -6  12    8.24    2.46
   2   6  12    7.37    2.80
   2   6  13  354.75   16.81
  -2   6  13  342.84   16.85
   2   6  13  337.66   16.29
  -2   6  14   22.95    4.69
   2   6  14   31.81    5.28
   2   6  14   29.20    5.62
   2   6  15   54.40    6.96
  -2   6  15   47.51    6.52
   2   6  15   42.29    6.10
  -2   6  16    6.20    2.12
   2   6  16    3.23    1.99
   2   6  16    9.90    2.90
   2   6  17   39.38    5.76
   2   6  17   34.55    5.56
  -2   6  17   37.92    5.73
  -2   6  18    3.24    1.90
   2   6  18    7.05    2.90
   2   6  18    2.36    1.79
   2   6  19   57.55    7.52
   2   6  19   72.24    8.18
  -2   6  19   77.68    8.48
  -2   6  19   72.37    8.73
   2   6  20    6.48    2.08
  -2   6  20    6.92    2.99
  -2   6  20    8.52    3.87
   2   6  20    6.30    3.39
  -2   6  21    6.25    3.36
   2   6  21   -0.15    1.00
  -2   6  21    4.70    2.01
  -2   6  22    7.26    3.52
   2   6  22    6.91    3.54
  -2   6  22    9.89    3.12
  -2   6  23    9.26    2.83
   2   6  23   11.72    3.27
  -2   6  24    2.17    1.79
   2   6  24    6.75    3.32
  -2   6  25   10.69    3.86
   2   6  25    7.33    2.93
   2   6  26    0.03    1.28
   2  -7 -25   -0.91    1.89
  -2  -7 -25   -1.75    1.32
  -2  -7 -24   -5.52    3.25
   2  -7 -24   -0.32    1.61
  -2  -7 -23    1.26    2.66
   2  -7 -23    0.63    1.32
  -2  -7 -22    0.02    1.77
   2  -7 -22   -1.88    2.38
  -2  -7 -21    2.82    2.75
   2  -7 -21    2.93    1.36
  -2  -7 -20   20.07    4.58
   2  -7 -20   14.27    4.12
  -2  -7 -19    2.33    2.69
   2  -7 -19   -0.13    2.04
  -2  -7 -18   21.79    5.13
   2  -7 -18    3.60    2.09
  -2  -7 -17   -1.26    1.50
   2  -7 -17    4.73    2.40
   2  -7 -16    2.41    1.67
  -2  -7 -16    4.91    2.71
   2  -7 -15    6.06    2.40
  -2  -7 -15    3.05    2.64
   2  -7 -14   29.19    4.82
  -2  -7 -14   27.63    5.44
   2  -7 -14   33.28    5.83
   2  -7 -13    9.35    3.23
   2   7 -13    2.12    2.18
   2  -7 -13    2.89    1.49
  -2  -7 -13    7.75    3.25
   2   7 -12   41.27    6.03
   2  -7 -12   48.01    6.40
  -2  -7 -12   43.98    5.95
   2  -7 -12   49.52    6.77
   2   7 -11   41.88    5.75
  -2   7 -11   31.54    5.06
  -2  -7 -11   41.76    5.74
   2  -7 -11   34.57    5.50
   2  -7 -11   40.15    5.73
  -2   7 -10   24.66    4.73
   2  -7 -10   23.45    4.26
   2  -7 -10   26.82    4.51
   2   7 -10   25.64    4.77
  -2  -7 -10   21.88    4.02
   2  -7  -9   36.42    5.79
   2  -7  -9   40.28    5.34
  -2   7  -9   35.72    5.29
  -2  -7  -9   44.04    5.70
   2   7  -9   40.81    5.53
  -2   7  -8   85.74    8.15
   2   7  -8   75.80    7.42
  -2  -7  -8   69.95    6.90
   2  -7  -8   84.72    8.28
   2  -7  -8   72.87    7.36
   2   7  -7    0.52    1.33
   2  -7  -7    1.61    1.13
  -2  -7  -7    0.69    1.62
   2  -7  -7    3.09    2.12
  -2   7  -7    2.68    2.13
  -2   7  -6  112.25    9.22
  -2  -7  -6   90.77    7.36
   2  -7  -6   90.94    7.87
   2  -7  -6  102.68    9.22
   2   7  -6  102.02    8.76
   2   7  -5   79.84    7.98
  -2   7  -5   83.01    7.94
   2  -7  -5   84.88    8.41
  -2  -7  -5   83.29    6.87
   2  -7  -5   76.89    7.09
   2   7  -4    5.65    2.63
   2  -7  -4    7.13    2.99
   2  -7  -4    3.20    1.80
  -2  -7  -4    4.69    1.77
  -2   7  -4    7.90    2.36
   2  -7  -3  186.93   10.44
  -2   7  -3  203.34   12.42
   2   7  -3  190.17   12.03
   2  -7  -3  218.59   12.81
  -2  -7  -3  197.80    9.88
   2  -7  -2   12.90    3.35
   2  -7  -2    9.07    2.06
   2   7  -2   10.23    3.13
  -2   7  -2   10.53    2.74
  -2  -7  -2   10.35    2.16
   2   7  -1   11.35    2.77
   2  -7  -1   22.44    3.97
  -2   7  -1   18.47    3.47
   2  -7  -1   21.87    3.56
   2   7   0    2.36    1.88
  -2   7   0    4.18    2.07
   2  -7   0    1.73    0.85
   2  -7   0    4.56    1.85
   2  -7   1   16.02    2.44
  -2   7   1   16.20    3.74
   2   7   1   16.89    3.80
   2  -7   1   20.99    3.94
   2  -7   2   11.84    2.45
   2   7   2   14.37    3.66
   2  -7   2    9.23    2.62
  -2   7   2    9.83    3.26
  -2   7   3  199.99   12.39
   2   7   3  199.43   12.45
   2  -7   3  187.65   11.82
   2  -7   3  192.54    9.33
  -2   7   4    5.51    2.35
   2  -7   4    7.17    2.41
   2   7   4   11.60    3.00
  -2   7   5   88.28    8.60
   2  -7   5   77.59    7.40
   2   7   5   79.86    8.10
  -2   7   6   91.54    8.44
   2   7   6  102.29    8.89
   2  -7   6   96.74    8.36
   2   7   7    1.59    1.91
   2  -7   7    1.77    1.48
  -2   7   7    0.92    0.78
   2  -7   8   71.29    7.45
   2   7   8   84.10    8.53
  -2   7   8   86.15    8.61
   2   7   8   78.49    8.24
   2   7   9   36.35    5.80
   2   7   9   37.15    5.57
   2  -7   9   41.16    5.36
  -2   7   9   31.79    5.09
  -2   7  10   23.86    4.76
   2   7  10   19.13    3.99
   2  -7  10   18.43    3.68
   2   7  10   29.87    5.11
  -2   7  11   43.00    6.19
   2   7  11   32.30    5.58
   2   7  11   30.85    5.54
   2  -7  11   33.94    4.95
   2   7  12   39.21    6.11
  -2   7  12   46.51    6.40
   2   7  12   47.29    7.06
  -2   7  13    7.45    2.84
   2   7  13    4.07    2.63
   2   7  13    6.11    2.86
   2   7  14   35.62    5.79
   2   7  14   39.93    5.90
  -2   7  14   43.47    6.18
  -2   7  15    3.59    3.28
   2   7  15    0.32    0.95
   2   7  15    3.85    2.69
  -2   7  16   10.18    3.28
   2   7  16    3.68    3.27
   2   7  16    7.88    3.01
   2   7  17    3.56    1.99
  -2   7  17    1.93    2.39
   2   7  17    2.87    2.20
   2   7  18    9.67    3.22
  -2   7  18   12.11    3.25
   2   7  18    5.54    1.96
  -2   7  19    2.20    1.74
   2   7  19   -0.42    1.41
  -2   7  19    1.08    2.01
   2   7  19    2.81    2.52
   2   7  20    9.98    3.49
  -2   7  20   11.65    3.61
  -2   7  20   16.52    4.75
   2   7  20   14.69    4.15
   2   7  21    2.54    2.22
  -2   7  21    2.05    1.99
  -2   7  21    2.81    1.87
  -2   7  22    1.43    1.95
   2   7  22    0.73    1.09
  -2   7  22   -0.96    2.10
   2   7  23   -0.03    1.65
  -2   7  23    0.03    1.47
  -2   7  24   -1.32    2.01
   2   7  24   -0.13    2.63
  -2   7  25    2.36    2.75
   2   7  25    1.15    1.88
  -2  -8 -22    7.15    3.95
   2  -8 -22    3.65    2.50
  -2  -8 -21    0.34    1.99
   2  -8 -21    2.45    2.08
   2  -8 -20   -2.73    2.20
  -2  -8 -20    1.91    1.99
  -2  -8 -19   -0.21    2.22
   2  -8 -19    3.92    1.81
  -2  -8 -18    1.64    1.59
   2  -8 -18    1.11    2.05
  -2  -8 -17    6.38    2.15
   2  -8 -17    6.59    3.21
  -2  -8 -16   13.19    3.64
   2  -8 -16    5.05    1.92
   2  -8 -15    1.85    2.28
  -2  -8 -15    0.31    1.60
   2  -8 -14    4.96    3.16
  -2  -8 -14   -1.26    1.61
   2  -8 -13   14.72    4.44
  -2  -8 -13   14.96    3.67
   2  -8 -13   10.50    2.86
   2   8 -13   25.17    5.73
   2   8 -12    1.78    1.66
  -2  -8 -12   -0.77    1.76
   2  -8 -12   -0.54    1.41
   2  -8 -12    2.69    1.60
  -2  -8 -11    0.37    1.08
   2  -8 -11    0.45    1.06
   2   8 -11    0.75    2.29
   2  -8 -11   -1.02    1.54
   2  -8 -10    3.89    0.94
  -2   8 -10    4.75    2.38
   2  -8 -10    0.51    2.06
  -2  -8 -10    2.34    1.61
   2   8 -10    4.42    2.26
   2   8  -9   16.70    4.10
  -2   8  -9   29.23    5.02
   2  -8  -9   24.77    4.40
  -2  -8  -9   19.09    4.05
   2  -8  -9   24.10    4.87
  -2   8  -8    2.63    1.38
   2   8  -8    2.34    2.09
   2  -8  -8    3.13    1.74
   2  -8  -8    0.50    0.94
  -2  -8  -8    0.82    0.95
  -2  -8  -7   27.08    4.20
   2   8  -7   20.55    4.61
   2  -8  -7   20.70    4.70
  -2   8  -7   22.86    4.37
   2  -8  -7   26.10    4.73
   2  -8  -6    9.80    2.72
   2   8  -6    8.99    2.83
  -2   8  -6   11.10    3.81
   2  -8  -6    8.77    3.35
  -2   8  -5    8.09    3.27
   2  -8  -5    9.43    3.24
   2   8  -5    7.38    2.89
   2  -8  -5    8.97    2.96
   2   8  -4   29.61    4.88
   2  -8  -4   28.12    4.30
  -2   8  -4   34.08    5.33
   2  -8  -4   39.28    5.82
   2  -8  -3  100.07    9.26
  -2   8  -3   93.25    9.02
   2  -8  -3  108.14    8.59
   2   8  -3   97.66    9.03
   2  -8  -2    2.59    1.89
   2  -8  -2    1.20    1.18
   2   8  -2    2.40    1.73
  -2   8  -2    3.92    2.52
  -2   8  -1    6.35    3.04
   2   8  -1    2.79    1.17
   2  -8  -1    6.70    2.62
   2   8   0    9.13    2.93
  -2   8   0    4.29    1.89
   2  -8   0    7.43    2.59
   2  -8   1    8.50    2.01
  -2   8   1   10.90    3.63
   2   8   1    5.47    2.17
   2   8   2    3.81    1.95
  -2   8   2    1.85    1.64
   2  -8   2   -0.87    1.66
   2  -8   3   91.19    8.33
  -2   8   3  104.56    9.72
   2   8   3   79.67    8.33
   2  -8   4   29.73    5.10
  -2   8   4   26.32    4.82
   2   8   4   37.30    5.89
   2   8   5    8.17    2.85
  -2   8   5   10.27    3.09
   2  -8   5    7.12    2.85
   2  -8   6    6.57    3.01
   2   8   6    4.39    2.52
   2   8   6    8.89    3.16
  -2   8   6   10.03    3.09
   2   8   7   31.57    5.28
  -2   8   7   23.52    5.32
   2   8   7   23.72    4.62
   2  -8   7   22.86    4.42
   2   8   8    1.80    2.43
  -2   8   8    3.08    2.07
   2   8   8    3.77    1.75
   2  -8   8    3.52    1.44
   2   8   9   23.77    4.62
  -2   8   9   20.87    4.39
   2  -8   9   29.45    4.61
   2   8   9   24.66    4.77
  -2   8  10    3.29    1.83
   2   8  10    3.01    2.20
   2  -8  10    6.75    3.01
   2   8  10    1.98    2.00
   2   8  11    4.47    2.80
  -2   8  11    0.01    1.57
   2   8  11    3.65    2.58
   2   8  12    0.44    2.20
  -2   8  12   -3.56    2.59
   2   8  12    0.06    1.28
  -2   8  13   15.88    3.99
   2   8  13   15.18    4.03
   2   8  13   15.55    4.44
   2   8  14    1.60    2.73
  -2   8  14    1.59    2.25
   2   8  14    5.25    1.54
   2   8  15   -2.35    1.84
  -2   8  15    2.65    1.09
   2   8  15   -1.58    1.86
   2   8  16   14.60    3.94
   2   8  16    9.67    2.80
  -2   8  16    8.66    2.88
   2   8  17   16.94    4.80
  -2   8  17    9.34    3.07
  -2   8  18   -0.13    1.37
   2   8  18    3.10    2.35
   2   8  18   -0.71    2.17
  -2   8  18   -0.93    1.76
   2   8  19    6.31    3.71
  -2   8  19    1.77    2.25
   2   8  19    1.78    1.85
  -2   8  19    3.07    2.93
  -2   8  20   -1.31    1.92
   2   8  20    1.43    3.24
  -2   8  20    0.90    1.45
   2   8  20    3.30    2.83
  -2   8  21    3.64    2.25
  -2   8  21    1.98    1.84
   2   8  21    1.77    2.77
   2   8  21    1.62    1.25
  -2   8  22    2.22    1.73
  -2   8  22    7.15    3.73
   2  -9 -19    3.28    2.49
  -2  -9 -19    7.15    4.03
  -2  -9 -18    5.52    2.36
   2  -9 -18    2.88    3.08
   2  -9 -17    5.68    3.30
  -2  -9 -17   -3.17    3.19
  -2  -9 -16   -1.67    2.91
   2  -9 -16    1.23    2.44
  -2  -9 -15    1.41    2.03
   2  -9 -15    0.23    2.30
   2  -9 -14    1.06    2.36
  -2  -9 -14    0.96    1.96
   2  -9 -13    5.33    3.43
  -2  -9 -13    3.48    1.54
   2   9 -12    1.98    1.47
   2  -9 -12    7.87    3.02
   2  -9 -12    1.68    2.36
   2   9 -11    0.16    1.51
   2  -9 -11    0.22    1.99
   2  -9 -11    4.00    2.32
   2   9 -10    2.40    2.60
   2  -9 -10    2.48    1.44
  -2   9 -10    0.16    1.56
   2  -9 -10    6.13    2.77
  -2   9  -9    2.02    2.06
   2   9  -9   -0.28    1.37
   2  -9  -9    2.28    2.09
   2  -9  -9    1.25    1.35
   2  -9  -8    4.89    2.58
   2   9  -8   -0.82    1.45
   2  -9  -8    2.51    2.18
  -2   9  -8    4.54    2.68
   2   9  -7   -1.87    1.77
   2  -9  -7   -0.29    2.05
  -2   9  -7    1.15    1.35
  -2   9  -6    8.15    2.51
   2   9  -6   10.97    3.49
   2  -9  -6    5.46    2.05
  -2   9  -5    8.06    3.36
   2   9  -5    4.65    2.64
   2  -9  -5    6.53    3.10
   2  -9  -4   13.08    3.63
   2   9  -4    6.45    3.02
  -2   9  -4    4.86    2.18
  -2   9  -3    4.92    1.91
   2   9  -3    6.54    2.26
   2  -9  -3    4.72    2.00
   2   9  -2    2.43    2.47
  -2   9  -2    2.32    2.06
   2  -9  -2    4.99    1.91
   2   9  -1   -1.69    2.10
  -2   9  -1    4.49    3.01
   2  -9  -1    1.46    1.19
   2   9   0    2.62    1.53
  -2   9   0    5.58    1.75
   2  -9   0    8.00    2.81
   2   9   1    0.57    0.91
  -2   9   1    0.84    1.43
   2  -9   1    0.84    0.92
  -2   9   2    4.09    2.45
   2   9   2    2.48    1.89
   2  -9   2    2.39    2.23
   2   9   3    4.27    2.25
   2  -9   3    4.29    0.93
   2   9   3    7.78    3.08
   2  -9   4    7.24    2.58
   2   9   4    6.80    2.82
  -2   9   4    9.28    2.97
   2   9   4    7.58    2.47
   2   9   5    5.32    2.81
   2   9   5    7.31    3.27
  -2   9   5   10.39    3.49
   2  -9   5   12.51    3.42
  -2   9   6    8.99    3.28
   2  -9   6    5.55    2.22
   2   9   6    7.90    3.09
   2   9   6    7.52    2.86
  -2   9   7    1.59    2.30
   2   9   7    0.65    1.01
   2  -9   7    0.10    0.97
   2   9   7    3.22    1.10
  -2   9   8   -1.15    1.90
   2  -9   8    1.94    1.26
   2   9   8   -0.58    0.86
  -2   9   9    0.81    1.94
   2  -9   9   -1.02    1.63
   2   9   9   -1.30    2.00
   2   9   9   -0.85    1.68
  -2   9  10    9.95    3.31
   2   9  10    8.85    3.28
   2   9  10    3.48    1.41
   2   9  11    6.57    1.60
   2   9  11   -0.60    1.87
  -2   9  11    4.47    3.08
   2   9  12   -0.88    1.61
   2   9  12    0.74    0.92
  -2   9  12    0.18    1.56
   2   9  13    2.79    1.14
  -2   9  13    4.41    2.37
   2   9  13    2.15    2.06
   2   9  14    2.66    1.92
   2   9  14    7.49    3.37
  -2   9  14    4.33    2.66
   2   9  15    1.43    1.31
  -2   9  15    0.49    1.87
   2   9  15    1.03    1.97
   2   9  16   -2.08    2.62
  -2   9  16    4.95    2.27
   2   9  16    0.26    1.67
   2   9  17   -0.30    2.17
  -2   9  17    1.29    1.00
  -2   9  17   -3.19    2.45
   2   9  17    1.93    1.43
   2   9  18    2.23    1.58
  -2   9  18    2.30    1.79
  -2   9  18    4.04    2.45
   2   9  18    0.54    1.44
   2   9  19    5.11    3.64
  -2   9  19    3.91    3.02
   2   9  19   -0.02    1.47
  -2   9  19    2.64    1.90
   2 -10 -16   -1.54    2.91
   2  10 -11    7.69    3.70
   2  10 -10   -0.68    1.80
  -2  10  -9   11.41    3.57
   2  10  -9    5.63    2.41
   2 -10  -9    7.77    2.51
  -2  10  -8   -2.34    3.03
   2  10  -8    0.08    1.19
   2 -10  -8    3.67    2.72
  -2  10  -7   18.32    4.59
   2 -10  -7   29.39    5.17
   2  10  -7   17.62    4.52
   2  10  -6    6.49    2.87
   2 -10  -6    2.28    1.71
  -2  10  -6    3.54    1.92
   2 -10  -5    2.13    1.84
   2  10  -5    3.70    2.32
  -2  10  -5    1.95    2.45
   2  10  -4   -0.73    0.97
   2  10  -4    8.30    3.46
  -2  10  -4    7.78    3.12
   2 -10  -4    8.61    3.09
  -2  10  -3   13.07    4.07
   2  10  -3   10.00    2.84
   2 -10  -3   15.03    4.19
   2  10  -3   19.56    4.88
   2 -10  -2    8.58    2.96
   2  10  -2   14.15    3.62
   2  10  -2    8.89    3.73
  -2  10  -2   14.37    4.40
   2  10  -1   -1.54    2.03
   2  10  -1    0.77    0.96
   2 -10  -1    2.28    2.04
  -2  10  -1   -0.34    1.74
   2 -10   0    0.71    1.21
   2  10   0    4.60    2.24
  -2  10   0    0.65    1.04
   2  10   0    6.44    2.78
  -2  10   1    1.13    1.08
   2  10   1    3.67    2.74
   2 -10   1    6.33    3.21
   2  10   1    0.97    2.01
   2 -10   2   10.10    3.46
   2  10   2    9.29    3.37
  -2  10   2    5.47    3.02
   2  10   2    1.68    1.38
  -2  10   3   12.42    4.26
   2  10   3   23.37    4.98
   2 -10   3   16.38    4.14
   2  10   3   13.74    4.28
   2  10   4    8.24    3.39
  -2  10   4    6.80    2.91
   2  10   4    3.86    2.79
   2 -10   4   11.06    3.45
  -2  10   5   -1.21    0.92
   2  10   5    2.27    1.84
   2 -10   5    2.44    2.74
   2  10   6    5.94    2.51
   2  10   6    4.57    2.24
   2 -10   6    7.96    2.95
  -2  10   6    6.75    2.79
   2  10   7   20.99    4.79
  -2  10   7   26.46    5.24
   2 -10   7   28.22    5.92
   2  10   7   28.69    5.94
  -2  10   8    0.35    0.98
   2  10   8    2.67    1.96
   2  10   8    5.06    2.17
   2  10   9    4.90    2.25
   2  10   9    5.99    2.64
  -2  10   9    6.19    2.67
  -2  10  10    3.45    2.64
   2  10  10   -0.01    1.81
   2  10  10    0.17    1.27
   2  10  11    7.01    2.88
  -2  10  11    9.73    3.61
   2  10  11    6.20    3.02
  -2  10  12    2.10    1.18
   2  10  12    2.26    2.21
   2  10  12   -0.70    2.02
   2  10  13   11.36    4.11
  -2  10  13   11.71    3.48
   2  10  13    8.46    3.53
   2  10  14    2.24    1.47
  -2  10  14    1.70    2.16
   2  10  14    1.48    1.70
   2  10  15   -0.28    1.41
   2  10  15   -2.30    2.47
  -2  10  15    1.85    2.92
   2  10  16    0.35    1.98
   2  10  16    1.94    1.39
  -2  10  16    2.98    3.10
  -2  10  16    6.04    3.21
   2  11 -10    3.59    2.14
   2  11  -9    0.23    1.83
  -2  11  -8    7.34    3.72
   2  11  -8    2.46    2.41
   2  11  -7   -0.83    1.87
  -2  11  -7    1.49    1.72
  -2  11  -6    1.77    1.60
   2  11  -6   -1.32    2.00
   2 -11  -5    1.98    1.77
  -2  11  -5    0.54    1.89
   2  11  -4    2.89    2.85
   2 -11  -4   -1.04    1.34
  -2  11  -4    2.47    2.36
   2  11  -3    3.08    2.14
  -2  11  -3   -0.89    1.64
   2 -11  -3    3.60    2.75
   2  11  -2   -2.74    2.75
   2 -11  -2    0.29    1.98
  -2  11  -2    3.18    1.90
   2  11  -1    2.91    1.69
  -2  11  -1    2.79    3.34
   2  11  -1   -0.43    1.98
   2 -11  -1    5.46    2.91
   2  11   0    1.42    1.73
   2 -11   0   -1.46    1.68
   2  11   0   -1.79    1.82
  -2  11   0    0.70    1.31
  -2  11   1    1.58    1.66
   2  11   1    1.59    1.83
   2  11   1   -2.60    2.71
   2 -11   1   -1.67    1.36
   2  11   2    0.01    1.49
   2  11   2   -0.88    1.37
  -2  11   2    1.16    1.58
   2 -11   2    1.34    1.31
   2  11   3   -1.13    1.43
   2  11   3    0.98    1.26
   2 -11   3    1.34    2.36
  -2  11   3   -1.05    1.90
   2  11   4   -1.04    1.50
   2  11   4    1.54    1.16
  -2  11   4    3.81    2.68
   2 -11   4    2.50    2.83
   2  11   5    0.83    1.78
   2 -11   5    5.24    3.23
  -2  11   5   -1.42    1.35
   2  11   5   -1.61    3.06
   2  11   6   -0.49    1.12
  -2  11   6    0.12    1.99
   2  11   6    0.28    2.13
  -2  11   7    1.08    1.82
   2  11   7    0.47    2.13
   2  11   7   -0.12    1.94
  -2  11   8   -0.09    1.86
   2  11   8   -0.32    1.90
   2  11   8    0.31    1.40
   2  11   9    1.98    3.54
   2  11   9    0.37    1.42
  -2  11   9    0.04    1.20
  -2  11  10    2.86    1.76
   2  11  10   -0.76    1.80
   2  11  10    2.95    2.51
   3   0 -31    2.78    1.76
   3   0 -30    0.47    1.79
   3   0 -29    2.05    2.71
   3   0 -28    0.69    1.89
   3   0 -27   -0.41    1.60
   3   0 -26   -1.84    1.35
   3   0 -25   -1.97    2.78
   3   0 -24   -0.17    0.85
   3   0 -23    1.09    1.22
   3   0 -22    2.62    1.59
   3   0 -21   -0.45    0.65
   3   0 -20   -1.33    1.53
   3   0 -19    0.74    1.33
   3   0 -18   -0.39    1.09
   3   0 -17   -0.02    1.18
   3   0 -16    2.31    1.89
   3   0 -15    1.88    0.76
   3   0 -14    1.81    0.98
   3   0 -13   -1.11    1.45
   3   0 -12    0.31    0.69
   3   0 -12    0.11    0.40
   3   0 -11   -0.29    0.46
   3   0 -11    0.11    0.39
   3   0 -10    0.78    1.02
   3   0 -10    0.49    0.52
   3   0  -9    0.00    0.75
   3   0  -9   -0.39    0.28
   3   0  -8   -0.11    0.26
   3   0  -8   -0.42    0.75
   3   0  -7    0.00    0.21
   3   0  -7   -0.25    0.34
   3   0  -6    0.04    0.51
   3   0  -6    0.06    0.25
   3   0  -6    0.01    0.29
   3   0  -5   -0.06    0.58
   3   0  -5    0.43    0.50
   3   0  -5   -0.16    0.30
   3   0  -4   -0.30    0.37
   3   0  -4    0.42    0.37
   3   0  -4    0.58    0.55
   3   0  -3    0.32    0.40
   3   0  -3    0.14    0.23
   3   0  -3    0.10    0.46
   3   0  -2    0.32    0.26
   3   0  -2   -0.37    0.54
   3   0  -2   -0.04    0.47
   3   0  -1    0.39    0.27
   3   0  -1   -0.23    0.31
   3   0  -1    0.40    0.40
   3   0   0    0.31    0.34
   3   0   0   -0.08    0.42
   3   0   1    0.20    0.38
   3   0   1   -0.07    0.26
   3   0   2    0.01    0.34
   3   0   2   -0.11    0.18
   3   0   3    0.58    0.54
   3   0   3    0.58    0.36
   3   0   4    0.57    0.26
   3   0   4   -0.13    0.23
   3   0   5    0.09    0.29
   3   0   5   -0.06    0.25
   3   0   6    0.17    0.18
   3   0   6    0.67    0.72
   3   0   7    0.09    0.77
   3   0   7   -0.16    0.30
   3   0   8    0.53    0.66
   3   0   8    0.04    0.26
   3   0   9   -0.19    0.27
   3   0   9   -0.17    0.35
   3   0  10    0.07    0.08
   3   0  10   -0.27    0.42
   3   0  11   -0.12    0.45
   3   0  12   -0.14    0.68
   3   0  13   -0.32    0.57
  -3   0  14   -0.59    0.56
   3   0  14   -0.22    0.44
  -3   0  15    0.72    0.60
   3   0  15   -0.01    0.45
   3   0  16   -0.56    1.06
  -3   0  16   -0.46    0.43
   3   0  17    0.31    0.82
  -3   0  17    0.68    0.83
   3   0  18    1.46    1.57
   3   0  19   -0.63    0.51
   3   0  20   -0.53    0.65
   3   0  21   -0.01    0.73
   3  -1 -30   -0.50    1.27
   3  -1 -29   10.75    3.09
   3   1 -29   -1.64    1.43
   3   1 -28    8.06    3.18
   3  -1 -28    8.02    3.27
   3  -1 -27   10.60    3.67
   3   1 -27   10.94    3.78
   3   1 -26    4.55    2.80
   3  -1 -26    4.57    1.84
   3  -1 -25   13.35    3.35
   3   1 -25   15.49    3.79
   3  -1 -24   11.95    3.52
   3   1 -24   10.82    2.63
   3  -1 -23   68.29    7.61
   3   1 -23   71.07    7.65
   3   1 -22   21.05    4.27
   3  -1 -22   17.84    4.09
  -3  -1 -22   16.40    3.83
   3   1 -21    3.87    2.15
  -3  -1 -21    3.48    2.34
   3  -1 -21    4.67    2.98
   3   1 -20   30.86    4.82
   3  -1 -20   24.99    4.40
   3   1 -19   74.90    7.32
   3  -1 -19   56.63    6.66
  -3  -1 -19   76.72    7.69
   3   1 -18   11.20    2.47
  -3  -1 -18   10.79    2.90
   3  -1 -18    8.85    2.45
   3  -1 -17  104.73    8.30
   3   1 -17  104.68    8.06
  -3  -1 -17  108.75    8.72
  -3  -1 -16   32.72    4.68
   3   1 -16   26.84    3.94
   3  -1 -16   36.90    4.69
   3  -1 -15    6.80    2.02
  -3  -1 -15    5.09    2.34
   3   1 -15   10.82    2.58
   3   1 -14   32.90    3.98
   3  -1 -14   34.18    3.53
   3  -1 -14   40.72    4.83
  -3  -1 -14   36.80    4.76
   3  -1 -13  322.31   13.05
   3   1 -13  328.90   12.31
  -3  -1 -13  300.77   13.14
   3  -1 -13  307.54   10.61
   3   1 -12  225.29    9.76
   3  -1 -12  197.31   10.23
   3  -1 -12  214.76    8.64
  -3  -1 -12  212.23   10.82
   3   1 -12  201.50    8.27
   3  -1 -11   32.10    3.88
  -3  -1 -11   31.69    3.90
   3   1 -11   30.68    3.37
   3  -1 -11   27.82    3.03
   3   1 -11   32.29    3.31
   3  -1 -10  151.52    6.89
   3  -1 -10  156.56    8.24
  -3  -1 -10  159.70    8.66
   3   1 -10  145.23    7.20
   3   1 -10  150.78    6.83
   3  -1  -9  402.65   12.92
   3   1  -9  413.61   11.39
   3   1  -9  402.50   10.91
  -3  -1  -9  416.15   13.30
   3  -1  -9  406.14   11.01
   3  -1  -8  100.48    6.26
   3   1  -8  119.97    5.86
   3  -1  -8  112.48    5.70
  -3  -1  -8  118.09    6.71
   3   1  -8  103.93    5.48
   3  -1  -7  284.07   10.08
   3   1  -7  275.50    8.40
   3   1  -7  274.11    8.63
   3  -1  -7  276.06    8.63
   3   1  -7  285.81    4.90
   3  -1  -6  747.39   13.88
   3   1  -6  776.35   14.22
   3   1  -6  763.78   12.90
   3  -1  -6  761.01   15.85
   3   1  -6  756.58    8.40
   3   1  -5   42.64    3.23
   3   1  -5   45.77    2.21
   3  -1  -5   40.25    3.20
   3   1  -5   38.53    2.70
   3  -1  -5   37.48    3.43
   3  -1  -4  543.44   12.34
   3  -1  -4  548.93   11.57
   3   1  -4  576.22    9.85
   3   1  -4  565.80    8.18
   3  -1  -3 2567.25   24.19
   3   1  -3 2536.15   24.44
   3  -1  -3 2546.15   25.36
   3   1  -3 2521.57   19.73
   3   1  -3 2533.35   18.83
   3   1  -2 1073.87   12.53
   3  -1  -2 1045.14   16.04
   3   1  -2 1030.49   15.50
   3  -1  -2 1041.06   15.56
   3   1  -2 1079.37   12.67
   3   1  -1  628.39   11.96
   3  -1  -1  617.23   11.83
   3  -1  -1  595.42   11.76
   3   1  -1  622.05   10.29
   3  -1   0  581.49   11.54
   3   1   0  604.85   11.47
   3   1   0  586.67   10.55
   3  -1   0  601.59   11.54
   3   1   1  626.78   11.48
   3  -1   1  604.77   11.67
   3   1   2 1058.82   14.87
   3  -1   2 1104.94   15.93
   3   1   2 1057.72   15.40
   3  -1   3 2484.26   24.68
   3   1   3 2531.57   22.85
   3   1   4  549.04   10.69
   3  -1   4  550.72   11.71
   3  -1   5   47.38    3.46
   3   1   5   44.57    3.00
   3   1   5   45.65    3.63
   3   1   6  760.72   12.45
   3  -1   6  754.01   14.05
   3  -1   7  286.31    9.02
   3   1   7  266.32    9.30
   3   1   7  279.55    7.50
   3   1   8   99.93    4.53
   3  -1   8  108.28    5.61
   3   1   8  106.03    6.06
   3   1   9  430.90   12.51
   3   1   9  411.78    9.17
   3  -1   9  404.50   11.10
   3   1  10  146.28    5.55
   3   1  10  138.75    7.52
   3  -1  10  139.09    6.73
   3  -1  11   26.56    3.03
   3   1  11   29.58    2.48
   3   1  11   29.21    3.41
   3   1  12  213.22    9.64
   3  -1  12  193.14    8.44
   3   1  12  202.15    6.60
   3   1  13  310.73    8.23
   3  -1  13  298.64   10.83
   3   1  13  316.54   12.13
   3   1  14   41.02    4.53
   3  -1  14   38.88    3.94
   3   1  14   42.61    3.01
   3   1  15   10.15    1.51
   3  -1  15   14.76    2.62
   3   1  15   12.91    2.61
   3  -1  16   38.05    4.15
   3   1  16   31.51    4.17
  -3   1  16   34.96    3.87
   3  -1  17  100.22    6.98
   3   1  17  105.96    7.75
  -3   1  17   94.98    6.74
   3   1  18    8.59    2.24
  -3   1  18    8.69    2.11
   3  -1  18   11.33    2.60
  -3   1  19   66.93    5.62
   3   1  19   68.90    6.61
   3  -1  19   66.74    5.96
   3  -1  20   35.80    4.49
   3   1  20   30.70    4.32
   3   1  21    2.15    1.04
   3   1  22    8.76    3.18
   3  -2 -30    0.25    1.36
   3  -2 -29    6.21    2.98
   3  -2 -28    3.28    2.23
   3  -2 -27   10.48    3.82
   3  -2 -26   -0.28    0.94
   3  -2 -25    3.92    1.37
  -3  -2 -25   -0.67    1.25
   3  -2 -24   -1.09    2.12
  -3  -2 -24    1.09    1.66
  -3  -2 -23    6.09    2.33
   3   2 -23    4.38    3.03
   3  -2 -23    4.83    2.44
   3   2 -22    0.87    0.78
  -3  -2 -22    0.35    1.31
   3  -2 -22    1.78    2.10
  -3  -2 -21   16.52    3.89
   3   2 -21   21.04    4.04
   3  -2 -21   14.14    3.73
  -3  -2 -20    6.90    2.22
   3   2 -20    7.55    2.26
   3  -2 -20    5.07    2.20
   3   2 -19   10.54    2.54
  -3  -2 -19   10.81    3.27
   3  -2 -19   11.37    3.10
   3  -2 -18    2.36    1.86
  -3  -2 -18    2.90    1.72
   3   2 -18    1.50    1.24
   3   2 -17   -0.18    0.56
   3  -2 -17    1.17    1.08
  -3  -2 -17    0.07    0.67
   3   2 -16   16.26    2.47
   3  -2 -16   10.05    3.18
   3   2 -16   14.43    2.65
  -3  -2 -16   12.44    3.46
  -3  -2 -15   19.96    3.92
   3  -2 -15   21.31    3.36
   3  -2 -15   20.05    3.76
   3   2 -15   21.17    2.98
   3   2 -15   26.92    3.69
   3  -2 -14    1.42    1.09
  -3  -2 -14    0.70    0.73
   3  -2 -14    1.42    1.09
   3   2 -14    0.45    0.70
   3   2 -14    0.75    0.40
   3  -2 -13    0.52    0.64
   3  -2 -13   -0.02    0.50
   3   2 -13    0.61    0.96
   3   2 -13    1.53    1.10
  -3  -2 -13    1.19    0.97
   3  -2 -12   25.35    3.33
   3  -2 -12   30.35    4.23
  -3  -2 -12   24.45    3.63
   3   2 -12   36.06    3.70
   3   2 -12   37.51    3.64
   3  -2 -11  125.94    8.19
   3   2 -11  138.76    6.74
  -3  -2 -11  151.79    8.82
   3  -2 -11  140.75    7.84
   3   2 -11  144.41    7.22
   3  -2 -10   45.56    4.69
  -3   2 -10   35.31    2.04
   3  -2 -10   45.81    4.27
  -3  -2 -10   42.25    4.42
   3   2 -10   43.58    3.91
   3   2 -10   45.26    3.71
  -3  -2  -9   17.00    2.73
  -3   2  -9   14.35    1.39
   3   2  -9   17.48    2.06
   3  -2  -9   17.67    2.68
   3  -2  -9   15.20    2.70
   3   2  -9   15.65    2.35
   3  -2  -8   50.39    4.33
  -3   2  -8   47.25    2.77
   3   2  -8   37.06    2.99
   3  -2  -8   46.88    4.47
   3   2  -8   48.77    3.97
  -3  -2  -8   48.57    4.46
  -3  -2  -7   25.35    3.24
   3   2  -7   27.69    3.16
   3  -2  -7   28.15    3.22
   3  -2  -7   25.65    3.13
   3   2  -7   23.80    1.43
  -3   2  -7   28.21    2.23
   3   2  -6  161.04    5.03
   3  -2  -6  156.91    7.70
  -3  -2  -6  152.61    7.25
   3   2  -6  148.59    4.13
   3  -2  -6  146.66    7.25
   3   2  -6  150.69    6.90
   3   2  -5  174.07    4.73
   3   2  -5  170.80    7.28
  -3  -2  -5  160.90    7.20
   3   2  -5  169.36    4.88
   3  -2  -5  151.48    7.32
   3  -2  -5  163.15    7.41
  -3  -2  -4   29.14    2.89
   3   2  -4   29.19    1.81
   3  -2  -4   28.46    2.97
   3  -2  -4   34.01    3.28
   3   2  -4   29.22    2.14
   3  -2  -3 1046.76   18.53
   3   2  -3 1070.33   18.14
   3   2  -3 1061.84   10.44
   3   2  -3 1092.98   14.14
   3  -2  -3 1072.93   18.41
   3   2  -2  496.59   12.36
   3  -2  -2  491.81   12.06
   3  -2  -2  473.38   12.45
   3   2  -2  483.92   10.02
   3   2  -1  239.89    7.45
   3  -2  -1  228.61    8.38
   3   2  -1  242.05    8.48
   3  -2  -1  236.34    8.16
   3   2   0  230.64    8.21
   3  -2   0  208.70    7.60
   3   2   0  227.18    7.52
   3  -2   0  236.12    8.41
   3  -2   1  240.45    8.41
   3   2   1  227.33    7.77
   3  -2   1  248.59    8.10
   3   2   1  235.36    8.28
   3  -2   2  480.95   11.31
   3  -2   2  477.72   11.92
   3   2   2  474.75   11.87
   3   2   2  468.51   11.62
   3   2   3 1061.30   17.74
   3  -2   3 1067.56   17.67
   3   2   3 1034.08   17.93
   3  -2   4   29.67    2.99
   3   2   4   29.80    2.94
   3   2   4   26.16    2.90
   3   2   5  167.46    7.59
   3  -2   5  158.95    6.93
   3   2   5  160.47    6.90
   3   2   6  146.90    6.64
   3   2   6  140.55    7.22
   3  -2   6  154.88    6.88
   3  -2   7   28.11    2.98
   3   2   7   30.41    3.52
   3   2   7   28.90    3.00
   3   2   8   49.53    3.88
   3  -2   8   43.47    3.72
   3   2   8   51.89    4.54
   3  -2   9   18.19    2.46
   3   2   9   15.71    2.29
   3   2   9   18.67    2.78
   3   2  10   40.57    4.26
   3   2  10   41.57    3.70
   3  -2  10   36.56    3.62
   3  -2  11  140.85    7.00
   3   2  11  135.40    6.79
   3   2  11  135.71    8.01
   3   2  12   30.58    3.22
   3   2  12   28.10    3.76
   3  -2  12   33.70    3.47
   3   2  13   -0.25    0.82
   3   2  13    0.66    0.69
   3  -2  13    1.17    0.87
   3   2  14    2.63    1.35
   3  -2  14    1.77    1.17
   3   2  14    3.06    0.92
   3  -2  15   17.72    2.67
   3   2  15   26.60    3.94
   3   2  15   23.76    3.01
   3   2  16   12.69    2.87
   3   2  16   16.13    2.50
   3  -2  16   14.43    2.57
   3  -2  17    0.15    0.94
   3   2  17    0.98    0.88
   3   2  17    0.80    1.04
  -3   2  18    0.98    0.72
   3  -2  18    1.52    1.54
   3   2  18   -0.48    1.83
  -3   2  19    5.40    1.94
   3   2  19    9.03    2.86
   3   2  20    4.76    1.98
  -3   2  20    4.64    2.13
   3   2  21   20.24    4.04
   3   2  22    3.29    1.24
   3   2  23    3.23    0.97
   3   2  24    1.83    1.42
   3  -3 -30    1.07    1.21
   3  -3 -29   25.80    5.50
   3  -3 -28    6.63    2.61
   3  -3 -27   22.54    5.01
  -3  -3 -27   18.94    4.50
   3  -3 -26   14.88    4.17
  -3  -3 -26   13.26    4.47
   3  -3 -25   16.30    3.65
  -3  -3 -25   22.50    4.59
   3  -3 -24    3.41    1.67
  -3  -3 -24    2.37    1.57
   3  -3 -23   38.89    5.81
  -3  -3 -23   42.23    6.38
   3  -3 -22    3.29    2.14
  -3  -3 -22    6.16    2.66
   3  -3 -21    2.37    1.82
  -3  -3 -21    3.27    2.76
  -3  -3 -20    4.03    2.56
   3  -3 -20    6.51    2.28
  -3  -3 -19   37.79    5.44
   3  -3 -19   32.21    5.20
   3  -3 -18   62.69    7.11
   3   3 -18   55.17    5.99
  -3  -3 -17   41.54    5.48
   3  -3 -17   44.15    5.91
   3   3 -17   39.87    4.81
   3   3 -16   39.47    4.53
  -3  -3 -16   32.08    4.70
   3   3 -16   22.70    3.39
   3  -3 -16   32.35    4.62
   3  -3 -16   36.94    5.15
   3  -3 -15   64.73    6.45
  -3  -3 -15   54.24    6.00
   3  -3 -15   51.61    5.68
   3   3 -15   50.21    4.86
   3   3 -15   53.70    4.95
   3  -3 -14   14.60    2.88
   3  -3 -14   16.91    3.45
  -3  -3 -14   17.29    3.61
   3   3 -14   14.47    2.37
   3   3 -14   13.71    2.68
   3  -3 -13  253.88   11.82
   3   3 -13  247.23   10.42
   3   3 -13  246.35    9.50
  -3  -3 -13  244.92   12.26
   3  -3 -13  268.16   12.92
  -3   3 -12  401.15    9.21
   3   3 -12  432.66   11.91
   3  -3 -12  420.84   16.05
   3  -3 -12  406.48   15.05
   3   3 -12  427.65   13.66
  -3  -3 -12  445.48   16.15
   3  -3 -11   32.67    4.30
   3  -3 -11   37.57    4.39
  -3  -3 -11   36.40    4.53
  -3   3 -11   34.00    2.82
   3   3 -11   37.80    3.28
   3  -3 -10  152.51    8.59
  -3   3 -10  137.14    6.02
   3   3 -10  143.04    5.88
  -3  -3 -10  145.58    8.61
   3  -3 -10  127.58    8.24
   3   3 -10  130.80    7.41
   3  -3  -9  694.99   18.85
  -3   3  -9  669.82   13.58
  -3  -3  -9  696.89   18.25
   3   3  -9  686.18   11.64
   3   3  -9  686.46   16.83
   3  -3  -9  656.85   18.02
  -3  -3  -8   28.56    3.51
  -3   3  -8   25.16    2.70
   3   3  -8   23.02    1.93
   3   3  -8   23.39    1.77
   3  -3  -8   23.14    3.77
   3   3  -8   24.75    3.18
   3  -3  -8   22.44    3.29
   3  -3  -7  535.72   15.84
  -3   3  -7  534.32   12.56
   3  -3  -7  500.46   15.20
   3   3  -7  531.14    7.77
   3   3  -7  516.59    9.56
  -3  -3  -7  537.00   14.88
   3   3  -6  643.19   11.28
  -3  -3  -6  623.14   15.30
   3  -3  -6  607.37   16.59
   3   3  -6  638.33   15.95
  -3   3  -6  615.08   14.03
   3  -3  -6  624.08   16.49
   3   3  -5   68.29    5.26
   3   3  -5   75.13    4.04
  -3   3  -5   69.89    4.75
   3  -3  -5   79.59    5.90
   3  -3  -5   70.39    5.44
  -3  -3  -5   62.59    4.74
   3  -3  -4 1105.84   20.79
  -3  -3  -4 1048.54   18.28
   3  -3  -4 1067.52   21.15
   3   3  -4 1071.13   20.39
   3   3  -4 1071.66   16.30
   3   3  -3 2122.32   28.81
   3  -3  -3 2209.49   28.36
   3   3  -3 2104.53   24.18
   3  -3  -3 2153.66   29.37
   3   3  -2  359.76   11.80
   3   3  -2  340.57    9.93
   3  -3  -2  335.41   10.87
   3  -3  -1  600.11   14.13
   3   3  -1  623.76   13.81
   3   3  -1  625.90   15.45
   3  -3  -1  616.41   15.62
   3  -3   0  477.71   13.68
   3   3   0  487.94   13.78
   3   3   0  485.00   12.58
   3  -3   0  476.02   12.36
   3   3   1  615.00   15.56
   3   3   1  598.08   14.35
   3  -3   1  596.63   13.60
   3  -3   1  633.02   15.51
   3  -3   2  326.27   11.32
   3   3   2  330.26   11.44
   3   3   2  324.57   10.94
   3  -3   2  334.82   10.22
   3  -3   3 2162.83   26.16
   3   3   3 2223.48   29.58
   3   3   3 2185.17   28.87
   3  -3   3 2138.03   28.64
   3   3   4 1116.59   20.98
   3  -3   4 1091.17   18.32
   3   3   4 1059.91   20.76
   3  -3   4 1095.33   19.97
   3   3   5   72.50    5.41
   3   3   5   72.18    5.57
   3  -3   5   85.13    5.62
   3  -3   6  641.90   15.34
   3   3   6  642.61   16.19
   3   3   6  603.82   16.36
   3  -3   7  538.52   14.01
   3   3   7  509.54   14.55
   3   3   8   17.66    2.81
   3  -3   8   17.17    2.74
   3  -3   9  687.18   16.19
   3   3   9  693.63   18.61
   3   3   9  716.42   17.58
   3  -3  10  153.86    7.68
   3   3  10  149.59    8.18
   3   3  10  148.60    8.79
   3   3  11   39.36    4.31
   3  -3  11   34.77    3.74
   3   3  11   32.60    4.25
   3   3  12  411.69   14.05
   3  -3  12  426.57   13.29
   3   3  12  439.61   15.68
   3  -3  13  251.67   10.29
   3   3  13  240.11   10.59
   3   3  13  247.68   12.07
   3   3  14   18.26    2.92
   3   3  14    9.75    2.78
   3  -3  14   13.80    2.29
   3  -3  15   57.44    5.21
   3   3  15   55.77    5.32
   3   3  15   56.89    6.16
   3  -3  16   33.12    3.89
   3   3  16   32.03    4.12
   3   3  16   40.52    5.27
   3   3  17   45.85    5.05
   3  -3  17   43.44    4.55
   3   3  17   45.87    5.76
   3   3  18   46.23    5.11
   3   3  18   50.69    5.76
  -3   3  19   30.65    5.09
   3   3  19   36.52    5.23
  -3   3  20    6.22    2.36
   3   3  20    5.52    2.10
  -3   3  21    3.81    1.91
  -3   3  21    2.06    1.20
   3   3  21    2.42    2.05
  -3   3  22   10.06    2.59
   3   3  22    4.19    1.91
   3   3  23   46.23    6.62
   3   3  24    2.42    1.23
   3   3  25   10.52    3.08
   3  -4 -29   -1.01    1.63
   3  -4 -28    3.82    2.87
  -3  -4 -28    1.48    1.76
  -3  -4 -27   11.57    3.71
   3  -4 -27   11.29    3.63
  -3  -4 -26    3.30    2.09
   3  -4 -26    3.48    2.21
  -3  -4 -25    8.77    2.12
   3  -4 -25    5.16    1.60
   3  -4 -24    5.07    3.03
  -3  -4 -24    2.70    2.70
  -3  -4 -23    4.03    1.09
   3  -4 -23    7.71    3.40
  -3  -4 -22    3.98    2.73
   3  -4 -22    3.51    2.55
  -3  -4 -21    7.15    2.01
   3  -4 -21    4.09    2.39
  -3  -4 -20    0.41    1.46
   3  -4 -20    1.60    1.02
   3  -4 -19   17.56    3.93
  -3  -4 -19   21.19    4.21
  -3  -4 -18    8.67    3.23
   3  -4 -18    4.13    2.68
   3  -4 -17   -1.69    1.19
   3  -4 -17    0.75    0.76
  -3  -4 -17    0.55    1.48
  -3  -4 -16    1.71    1.79
   3  -4 -16    4.27    2.39
   3  -4 -16    2.66    1.49
   3   4 -15   15.33    2.91
   3  -4 -15   17.96    3.72
   3  -4 -15   15.40    3.43
  -3  -4 -15   14.02    3.26
   3  -4 -14    0.34    1.55
   3   4 -14    1.13    1.28
   3  -4 -14    1.26    1.74
  -3  -4 -14    0.29    0.68
  -3  -4 -13    6.76    1.96
   3  -4 -13    8.55    2.09
   3  -4 -13   11.49    2.76
   3   4 -12    5.40    1.61
   3  -4 -12    8.60    2.53
   3  -4 -12   13.18    2.92
  -3   4 -12    9.75    1.96
  -3  -4 -12   11.31    2.76
   3   4 -11   38.26    4.35
  -3  -4 -11   37.26    4.52
  -3   4 -11   43.46    4.07
   3  -4 -11   36.56    4.67
   3  -4 -11   43.86    5.26
   3  -4 -10   80.01    7.00
   3  -4 -10   83.88    6.98
  -3   4 -10   64.06    5.14
  -3  -4 -10   65.19    6.00
   3   4 -10   73.76    3.79
   3  -4  -9   32.45    4.34
  -3   4  -9   27.57    3.39
   3   4  -9   34.07    4.17
   3  -4  -9   30.81    4.38
  -3  -4  -9   37.25    4.33
   3   4  -9   33.29    2.79
   3   4  -8   52.86    5.14
  -3   4  -8   54.07    4.67
   3   4  -8   50.77    3.54
  -3  -4  -8   53.39    5.06
   3  -4  -8   59.97    5.68
   3  -4  -8   61.12    5.83
   3  -4  -7   39.67    4.65
   3  -4  -7   35.96    4.52
   3   4  -7   39.48    3.34
   3   4  -7   44.80    4.83
  -3  -4  -7   42.11    4.25
  -3   4  -7   40.15    4.14
   3   4  -6   51.74    5.01
  -3  -4  -6   46.35    4.35
   3  -4  -6   46.79    4.76
   3   4  -6   53.32    4.02
  -3   4  -6   36.58    3.91
   3  -4  -6   46.89    5.13
   3  -4  -5  212.08    9.95
  -3  -4  -5  203.12    8.85
   3   4  -5  203.79   10.14
  -3   4  -5  214.31    9.63
   3  -4  -5  216.16   10.63
   3   4  -5  226.44    8.59
   3   4  -4  132.46    6.82
  -3  -4  -4  146.47    7.14
  -3   4  -4  136.20    7.79
   3  -4  -4  141.69    7.86
   3   4  -4  140.37    8.22
   3  -4  -4  139.95    8.54
   3   4  -3   95.77    7.05
  -3   4  -3   97.43    6.63
   3  -4  -3   96.06    6.50
   3  -4  -3   99.63    7.06
   3   4  -3   91.55    5.88
  -3  -4  -3   95.07    5.47
  -3   4  -2  286.23   11.46
   3   4  -2  280.09   10.55
   3   4  -2  296.77   11.89
   3  -4  -2  276.40   11.70
   3  -4  -2  282.59   10.66
  -3  -4  -2  284.38    8.86
   3   4  -1  304.24   12.09
  -3  -4  -1  292.77    8.31
  -3   4  -1  311.16   11.99
   3  -4  -1  309.30   11.06
   3   4  -1  293.95   10.93
   3  -4  -1  316.84   12.32
   3   4   0  107.15    7.17
   3   4   0   96.61    6.45
   3  -4   0   89.93    6.57
   3  -4   0   99.11    6.06
   3   4   1  300.69   11.60
   3   4   1  301.09   12.11
   3  -4   1  300.94   11.98
   3  -4   1  318.58   10.75
   3  -4   2  302.15   10.38
   3   4   2  277.51   11.77
   3   4   2  267.43   11.15
   3  -4   2  273.31   11.14
   3   4   3   97.06    6.89
   3   4   3   85.52    6.41
   3  -4   3   91.60    5.72
   3  -4   3  102.32    6.82
   3  -4   4  143.65    7.10
   3   4   4  131.81    8.03
   3  -4   4  130.50    7.79
   3   4   4  121.81    7.87
   3   4   5  217.67   10.41
   3   4   5  218.82   10.49
   3  -4   5  216.44    8.83
   3  -4   5  205.58    9.66
   3  -4   6   53.40    4.43
   3   4   6   51.23    5.18
   3   4   6   50.51    5.19
   3  -4   6   46.54    4.74
   3   4   7   47.06    5.04
   3   4   7   43.93    4.79
   3  -4   7   37.61    4.21
   3  -4   8   58.43    5.22
   3   4   8   56.59    5.54
   3   4   8   52.38    5.23
   3   4   9   27.68    3.89
   3  -4   9   27.35    3.60
   3   4   9   34.12    4.35
   3   4  10   81.03    6.98
   3   4  10   79.69    6.77
   3  -4  10   74.56    5.92
   3   4  11   35.42    4.71
   3   4  11   33.39    4.44
   3  -4  11   38.63    4.18
   3  -4  12    7.84    2.03
   3   4  12   10.14    2.56
   3   4  12   10.28    2.63
   3   4  13   13.84    2.99
   3  -4  13   10.67    2.31
   3   4  13   15.05    3.20
   3   4  14   -0.32    0.77
   3  -4  14    0.89    0.70
   3   4  14    0.69    0.81
   3  -4  15   22.81    3.38
   3   4  15    9.99    2.33
   3   4  15   18.07    3.75
   3   4  16    4.74    2.48
   3   4  16    7.36    2.48
   3   4  17   -0.02    1.54
   3   4  17    0.07    1.11
  -3   4  17    1.13    1.17
   3   4  18    6.29    2.23
   3   4  18    3.88    0.90
  -3   4  18    7.73    3.04
   3   4  19   22.26    3.89
   3   4  19   17.60    3.77
  -3   4  19   22.92    4.96
   3   4  20    2.20    1.72
  -3   4  20    0.11    1.42
  -3   4  20    1.97    1.06
   3   4  21    9.33    2.74
  -3   4  21    5.48    2.34
  -3   4  21    8.74    2.88
  -3   4  22    2.67    2.21
  -3   4  22    3.49    2.69
   3   4  22    6.81    2.67
  -3   4  23    3.49    1.52
   3   4  23    8.40    2.77
   3   4  24    1.74    1.95
   3   4  25    4.07    2.71
   3   4  26   -0.07    1.26
   3  -5 -28    3.68    2.23
  -3  -5 -28    0.74    1.29
   3  -5 -27    5.92    2.96
  -3  -5 -27    2.62    2.88
  -3  -5 -26    6.70    2.05
   3  -5 -26   10.66    3.49
  -3  -5 -25   12.02    4.03
   3  -5 -25    7.96    3.19
  -3  -5 -24   13.05    3.87
   3  -5 -24    4.27    3.38
   3  -5 -23   10.62    3.49
  -3  -5 -23    4.44    2.61
   3  -5 -22    6.03    2.78
  -3  -5 -22    3.99    2.63
  -3  -5 -21    3.26    1.41
   3  -5 -21    1.68    1.35
  -3  -5 -20   13.49    3.45
   3  -5 -20   14.62    3.87
   3  -5 -19   31.80    5.52
  -3  -5 -19   33.41    5.37
   3  -5 -18   17.64    3.93
  -3  -5 -18   18.50    4.49
  -3  -5 -17   36.48    5.61
   3  -5 -17   37.47    5.64
   3  -5 -17   37.15    5.47
  -3  -5 -16   23.71    4.53
   3  -5 -16   20.41    4.13
   3  -5 -16   27.16    4.48
   3   5 -15   39.81    5.04
  -3  -5 -15   39.17    5.74
   3  -5 -15   51.29    6.63
   3  -5 -15   40.44    5.57
   3   5 -14   48.64    5.78
   3  -5 -14   55.28    6.33
  -3  -5 -14   42.87    5.91
   3  -5 -13  144.06   10.28
   3   5 -13  149.73    9.56
   3  -5 -13  142.11   10.31
  -3  -5 -13  151.26   10.25
  -3   5 -12   85.64    6.75
   3   5 -12   83.14    7.31
   3  -5 -12   85.67    7.83
  -3  -5 -12   84.55    7.44
  -3   5 -11   34.19    4.28
  -3  -5 -11   33.71    4.84
   3   5 -11   32.46    4.32
   3  -5 -11   30.07    4.70
   3  -5 -11   25.93    4.14
   3   5 -10   38.47    4.88
  -3   5 -10   26.50    3.86
   3  -5 -10   34.56    4.71
   3  -5 -10   39.59    5.35
  -3  -5 -10   31.23    4.20
   3   5  -9  119.24    8.42
   3   5  -9  126.33    6.74
  -3   5  -9  132.22    8.35
  -3  -5  -9  128.19    8.46
   3  -5  -9  124.57    9.06
   3  -5  -9  119.74    8.64
   3   5  -8   17.19    3.12
  -3   5  -8   18.05    3.13
  -3  -5  -8   21.34    3.39
   3   5  -8   22.10    2.86
   3  -5  -8   20.68    3.66
   3  -5  -8   18.70    3.36
  -3   5  -7   67.63    6.16
   3  -5  -7   53.57    6.01
   3  -5  -7   64.11    6.01
   3   5  -7   65.12    6.08
   3   5  -7   64.21    5.18
   3  -5  -6   53.13    5.44
  -3   5  -6   48.60    5.10
   3  -5  -6   62.08    6.17
   3   5  -6   71.78    6.40
   3   5  -6   52.58    4.75
  -3  -5  -6   59.84    5.34
  -3   5  -5    7.65    2.11
   3  -5  -5   11.20    2.98
   3  -5  -5    5.48    1.90
  -3  -5  -5    3.51    1.41
   3   5  -5    3.25    1.14
   3   5  -5    7.61    2.05
   3   5  -4   43.95    4.44
  -3   5  -4   48.49    5.10
   3  -5  -4   46.96    5.57
  -3  -5  -4   47.04    4.29
   3   5  -4   48.02    5.41
   3  -5  -4   43.83    4.66
  -3  -5  -3  147.71    7.24
  -3   5  -3  154.72    9.32
   3   5  -3  141.39    8.37
   3  -5  -3  134.62    9.01
   3  -5  -3  147.20    8.37
   3   5  -3  138.87    8.99
   3   5  -2   16.96    3.10
   3  -5  -2   14.05    2.92
  -3  -5  -2   12.49    2.07
   3   5  -2   11.86    2.70
   3  -5  -2   12.36    2.57
  -3   5  -2   14.28    2.98
  -3   5  -1  164.95    9.86
   3  -5  -1  167.45    9.90
  -3  -5  -1  166.27    6.93
   3  -5  -1  172.29    8.94
   3   5  -1  178.33    9.60
   3   5  -1  173.40   10.07
   3   5   0   88.76    7.09
  -3   5   0   97.97    7.53
   3  -5   0   89.41    7.12
   3  -5   0   80.05    5.95
   3   5   0   77.18    6.63
  -3   5   1  174.44   10.36
   3   5   1  174.67    9.83
   3  -5   1  167.69    8.48
   3  -5   1  180.39   10.00
   3   5   1  177.71   10.25
   3  -5   2   13.21    2.14
   3   5   2   13.73    2.62
   3  -5   2   16.68    3.24
   3   5   2   13.38    2.56
  -3   5   2   13.78    3.01
   3   5   3  128.84    8.74
  -3   5   3  138.09    9.18
   3  -5   3  133.19    7.34
   3  -5   3  133.21    8.47
   3   5   3  119.49    8.39
   3   5   4   40.82    5.00
   3  -5   4   39.01    4.60
   3  -5   4   48.43    4.51
   3   5   4   57.14    5.80
  -3   5   4   50.56    5.64
   3   5   5    8.59    2.20
   3   5   5    5.76    2.08
  -3   5   5    5.18    2.08
   3  -5   5    4.56    1.17
   3  -5   5    6.97    1.95
   3   5   6   59.24    6.03
  -3   5   6   53.85    5.80
   3   5   6   53.61    5.80
   3  -5   6   56.62    4.84
   3  -5   6   53.48    5.41
   3   5   7   69.57    6.53
   3  -5   7   62.05    5.77
  -3   5   7   56.51    5.99
   3   5   7   69.57    6.69
   3  -5   7   70.38    5.42
  -3   5   8   22.97    4.17
   3   5   8   24.50    4.03
   3   5   8   16.85    3.65
   3  -5   8   21.07    3.20
   3  -5   8   20.00    3.35
   3   5   9  122.67    9.15
   3   5   9  123.17    8.82
  -3   5   9  131.93    9.45
   3  -5   9  113.91    7.79
   3  -5   9  123.57    7.43
   3   5  10   31.29    4.28
  -3   5  10   30.86    4.82
   3   5  10   31.75    4.62
   3  -5  10   41.16    4.83
   3   5  11   27.29    4.15
   3   5  11   27.37    4.32
  -3   5  11   42.42    5.63
   3  -5  11   34.48    4.32
   3   5  12   91.50    7.88
  -3   5  12   87.21    8.06
   3   5  12   77.09    7.40
   3  -5  12   92.87    7.18
  -3   5  13  152.11   10.91
   3   5  13  138.88   10.00
   3   5  13  158.65   10.72
   3  -5  13  158.55    9.21
   3   5  14   48.25    6.28
   3   5  14   42.76    5.53
  -3   5  14   45.43    5.83
   3  -5  14   44.96    4.89
   3   5  15   39.16    5.60
   3   5  15   39.77    5.57
  -3   5  15   37.99    5.35
   3   5  16   20.11    4.04
  -3   5  16   14.93    3.35
  -3   5  17   33.70    5.47
   3   5  17   45.26    5.78
   3   5  17   28.71    5.20
   3   5  18   26.01    4.75
   3   5  18   23.36    4.29
  -3   5  18   13.00    3.48
   3   5  19   34.33    5.32
  -3   5  19   29.78    5.37
   3   5  19   36.32    5.65
   3   5  20   20.87    4.48
  -3   5  20   19.07    4.50
   3   5  21    7.43    2.44
  -3   5  21    4.58    2.97
  -3   5  21    2.18    2.53
   3   5  22    6.99    3.09
  -3   5  22    4.23    2.97
  -3   5  22    3.60    2.55
  -3   5  23    8.92    2.69
   3   5  23    9.22    2.96
   3   5  24    5.66    1.97
  -3   5  24    7.40    2.79
   3   5  25    9.68    3.19
   3   5  26    0.98    2.71
   3   5  27    4.29    3.09
   3  -6 -26   -0.99    1.64
  -3  -6 -26   -0.33    2.66
  -3  -6 -25   -1.85    1.99
   3  -6 -25    6.41    2.40
   3  -6 -24    7.01    3.03
  -3  -6 -24   -1.41    2.06
   3  -6 -23    2.62    2.34
  -3  -6 -23    2.54    1.71
  -3  -6 -22    5.69    3.12
   3  -6 -22    2.78    2.11
   3  -6 -21    4.40    2.21
  -3  -6 -21    7.92    2.64
  -3  -6 -20   -0.38    1.44
   3  -6 -20    0.47    2.36
  -3  -6 -19   11.05    3.36
   3  -6 -19   16.63    4.13
  -3  -6 -18   19.15    4.66
   3  -6 -18   11.73    2.93
   3  -6 -17    7.57    2.63
  -3  -6 -17    6.36    2.29
   3  -6 -17    6.81    2.51
   3  -6 -16    9.48    2.99
  -3  -6 -16   10.60    2.73
   3  -6 -16    6.63    2.22
   3  -6 -15   26.49    4.71
   3  -6 -15   35.30    5.29
  -3  -6 -15   25.55    4.40
   3   6 -14    5.24    2.54
   3  -6 -14    6.80    2.28
  -3  -6 -14    4.21    1.99
   3  -6 -14    1.08    1.23
  -3  -6 -13   66.13    7.06
   3  -6 -13   70.08    7.31
   3   6 -13   62.49    7.04
   3  -6 -13   75.85    8.09
   3   6 -12    5.33    2.19
  -3  -6 -12    5.73    2.24
   3  -6 -12    3.74    2.26
   3  -6 -12    9.25    3.17
   3   6 -11   43.21    5.57
   3  -6 -11   39.16    5.61
  -3   6 -11   37.74    4.98
  -3  -6 -11   42.11    5.22
   3  -6 -11   34.57    5.34
   3   6 -10   11.14    3.42
   3  -6 -10   12.95    2.87
   3  -6 -10   12.30    3.03
  -3  -6 -10    9.61    3.00
  -3   6 -10   11.80    2.74
   3   6  -9   11.92    2.59
  -3   6  -9   13.91    3.29
   3  -6  -9   15.00    3.39
   3  -6  -9   10.57    3.03
  -3  -6  -9   10.46    2.98
  -3  -6  -8   23.51    3.79
  -3   6  -8   27.60    4.39
   3  -6  -8   24.34    4.32
   3   6  -8   27.34    3.73
   3  -6  -8   25.47    4.23
   3   6  -8   22.22    4.08
  -3  -6  -7   40.55    4.89
   3   6  -7   49.39    5.92
   3  -6  -7   48.52    5.40
  -3   6  -7   46.81    5.49
   3  -6  -7   45.78    5.69
   3   6  -7   48.82    5.20
  -3  -6  -6    9.91    2.26
   3   6  -6   10.18    2.79
   3   6  -6    6.98    2.01
  -3   6  -6   10.31    2.56
   3  -6  -6   11.52    2.74
   3  -6  -6    8.55    2.84
   3   6  -5   52.10    5.99
   3  -6  -5   46.18    5.86
  -3   6  -5   39.65    5.18
   3  -6  -5   49.19    5.37
   3   6  -5   56.04    5.74
  -3  -6  -5   44.66    4.77
   3   6  -4   11.85    2.74
  -3  -6  -4    9.06    1.97
  -3   6  -4    7.31    2.43
   3  -6  -4   10.56    2.97
   3   6  -4   11.16    2.92
   3  -6  -4    9.38    2.80
   3   6  -3   58.49    6.20
   3   6  -3   62.55    6.21
  -3  -6  -3   54.90    4.85
  -3   6  -3   61.07    6.43
   3  -6  -3   62.52    5.90
   3  -6  -3   64.84    6.64
   3   6  -2   73.75    6.61
   3   6  -2   70.15    6.94
  -3   6  -2   66.32    6.56
   3  -6  -2   76.33    6.28
  -3  -6  -2   64.51    4.80
   3  -6  -2   64.62    6.81
   3  -6  -1   49.05    6.05
  -3  -6  -1   43.46    3.94
  -3   6  -1   46.00    5.44
   3   6  -1   54.72    5.87
   3  -6  -1   52.88    5.16
   3   6  -1   56.31    5.76
   3  -6   0    2.90    1.15
   3  -6   0    0.91    1.05
   3   6   0    0.74    1.50
  -3   6   0    2.90    1.68
   3   6   0    2.65    1.47
   3   6   1   56.19    5.99
   3   6   1   46.94    5.79
   3  -6   1   42.41    4.59
   3  -6   1   47.12    5.47
  -3   6   1   48.14    5.82
   3  -6   2   80.79    6.13
   3   6   2   82.53    7.59
  -3   6   2   72.14    6.94
   3  -6   2   76.53    7.15
   3   6   2   69.24    6.60
   3   6   3   50.89    6.10
   3  -6   3   61.73    5.33
   3  -6   3   65.92    6.57
   3   6   3   53.98    6.16
  -3   6   3   61.75    6.68
   3   6   4    9.74    3.04
   3  -6   4    8.11    2.22
   3   6   4   11.56    3.24
   3  -6   4    7.42    1.56
  -3   6   4    7.39    2.57
   3  -6   5   49.09    4.76
   3   6   5   54.87    6.27
  -3   6   5   48.85    6.20
   3  -6   5   46.85    5.52
   3   6   5   48.27    5.84
  -3   6   6    6.25    2.16
   3   6   6   11.77    2.96
   3  -6   6   10.37    2.22
   3   6   6    7.97    2.34
   3  -6   6    8.54    2.16
   3   6   7   57.31    6.37
   3  -6   7   46.95    4.66
   3  -6   7   50.74    5.62
  -3   6   7   58.87    6.46
   3   6   7   36.40    5.22
   3  -6   8   24.71    4.19
   3   6   8   30.60    4.85
   3  -6   8   22.45    3.11
  -3   6   8   25.89    4.65
   3   6   8   27.73    4.37
   3  -6   9    9.08    2.69
   3   6   9   13.12    3.13
   3  -6   9   10.96    2.68
   3   6   9   12.57    2.59
  -3   6   9   10.81    3.23
   3  -6  10   16.31    3.01
   3   6  10   10.65    2.56
   3   6  10   11.19    2.87
   3  -6  10    7.33    2.28
  -3   6  10    9.50    2.97
   3   6  11   49.12    6.11
  -3   6  11   40.56    5.92
   3   6  11   52.96    6.32
   3  -6  11   43.75    4.67
   3  -6  11   40.98    4.98
   3  -6  12   10.10    2.48
  -3   6  12    3.91    2.40
   3   6  12    7.99    2.64
   3   6  12    9.32    2.48
  -3   6  13   70.85    7.80
   3   6  13   66.46    7.58
   3   6  13   61.24    6.99
   3  -6  13   62.25    6.17
  -3   6  14    4.02    1.72
   3   6  14    6.61    2.80
   3   6  14    2.40    1.42
   3   6  15   29.43    5.15
   3   6  15   32.17    5.25
  -3   6  15   26.09    5.07
   3   6  16   12.53    3.23
   3   6  16   13.96    3.51
  -3   6  16    5.78    2.62
   3   6  17    4.55    2.11
   3   6  17    3.45    1.24
   3   6  18    6.93    3.33
  -3   6  18    6.54    2.05
   3   6  18   13.39    4.16
   3   6  19   17.07    4.74
   3   6  19   17.85    4.55
  -3   6  19   13.96    4.91
  -3   6  20    2.76    1.96
   3   6  20   -0.17    1.21
   3   6  20    1.65    1.74
  -3   6  21    4.59    3.05
   3   6  21    5.30    2.83
  -3   6  21   -1.11    1.61
   3   6  22    3.28    1.95
  -3   6  22    0.60    1.10
  -3   6  22    3.84    2.43
   3   6  23    3.59    1.81
  -3   6  23   -0.78    1.93
  -3   6  24    4.76    3.20
   3   6  24    3.75    2.82
  -3   6  25    3.47    1.96
   3   6  25    3.22    2.83
   3   6  26    3.25    2.72
  -3  -7 -24    5.75    2.00
   3  -7 -24    5.57    1.44
  -3  -7 -23   10.54    3.57
   3  -7 -23    8.80    3.39
   3  -7 -22    6.86    2.38
  -3  -7 -22   13.49    3.91
   3  -7 -21    5.92    2.77
  -3  -7 -21    1.67    1.35
  -3  -7 -20    8.51    3.94
   3  -7 -20   -2.05    2.40
  -3  -7 -19   11.60    3.22
   3  -7 -19   15.56    3.10
  -3  -7 -18   -0.15    2.10
   3  -7 -18    5.48    1.73
   3  -7 -17   16.43    4.37
  -3  -7 -17   17.92    4.31
   3  -7 -16   24.43    5.07
  -3  -7 -16   17.01    4.36
   3  -7 -16   24.32    5.03
   3  -7 -15   10.07    2.99
  -3  -7 -15    5.12    1.50
   3  -7 -15    4.58    2.08
   3   7 -14    4.36    1.78
   3  -7 -14   13.36    3.65
  -3  -7 -14    6.30    2.69
   3  -7 -14   13.55    3.88
   3  -7 -13   30.76    4.92
  -3  -7 -13   38.67    5.58
   3   7 -13   36.36    5.35
   3  -7 -13   31.08    5.25
   3  -7 -12    8.75    2.91
  -3  -7 -12    6.78    2.40
   3   7 -12   10.05    3.29
   3  -7 -12    6.63    2.56
   3  -7 -11    4.73    2.20
   3  -7 -11    2.04    1.77
   3   7 -11    2.37    1.86
  -3  -7 -11    3.89    2.22
  -3   7 -11    2.03    2.04
   3  -7 -10   20.14    4.54
   3  -7 -10   24.11    4.46
   3   7 -10   18.60    3.75
  -3   7 -10   15.30    3.44
  -3  -7 -10   18.35    3.69
   3  -7  -9   52.41    6.47
  -3   7  -9   51.20    6.40
  -3  -7  -9   52.11    6.16
   3   7  -9   53.70    6.28
   3  -7  -9   48.16    6.33
   3   7  -8   14.09    3.77
  -3  -7  -8   12.37    3.09
  -3   7  -8    9.88    3.10
   3  -7  -8   11.47    3.13
   3  -7  -8    9.06    2.60
   3   7  -7   17.02    3.73
  -3  -7  -7   15.20    3.02
   3   7  -7   16.02    3.48
   3  -7  -7   14.25    3.56
   3  -7  -7   16.17    3.46
  -3   7  -7   13.52    3.18
   3   7  -6   39.37    5.67
   3   7  -6   39.50    5.07
  -3  -7  -6   39.70    4.81
   3  -7  -6   18.44    3.96
  -3   7  -6   39.46    5.64
   3  -7  -6   37.55    5.28
   3  -7  -5    6.33    1.93
  -3   7  -5   13.03    3.24
   3   7  -5   16.37    3.57
  -3  -7  -5   13.32    2.77
   3   7  -5   14.90    3.50
   3  -7  -5   13.66    3.64
   3  -7  -4   78.43    7.71
  -3   7  -4   59.72    6.74
   3  -7  -4   66.96    6.66
  -3  -7  -4   59.78    5.65
   3   7  -4   72.16    7.43
   3   7  -4   76.82    7.27
   3   7  -3   67.61    6.81
   3   7  -3   68.43    7.08
  -3   7  -3   55.45    6.66
   3  -7  -3   67.13    7.16
   3  -7  -3   57.96    6.20
  -3  -7  -3   63.51    5.63
   3  -7  -2   44.22    6.13
   3   7  -2   57.83    6.53
   3   7  -2   53.51    6.43
  -3   7  -2   62.20    6.97
   3  -7  -2   49.76    5.51
   3   7  -1  146.75   10.94
  -3   7  -1  143.39   10.43
   3   7  -1  135.08   10.08
   3  -7  -1  134.02    8.82
   3  -7  -1  128.48    9.99
   3  -7   0  102.68    8.91
   3   7   0  114.23    9.29
   3  -7   0  100.10    7.60
  -3   7   0  111.73    9.19
   3   7   0  101.16    8.67
   3   7   1  145.06   10.39
   3  -7   1  157.87   11.08
   3   7   1  140.61   10.17
   3  -7   1  137.06    8.77
  -3   7   1  127.15   10.02
   3   7   2   56.21    6.53
   3  -7   2   50.18    6.21
   3   7   2   52.42    6.32
  -3   7   2   52.93    6.60
   3  -7   2   46.50    5.18
   3   7   3   74.61    7.75
  -3   7   3   61.66    7.09
   3  -7   3   59.71    5.70
   3   7   3   74.06    7.57
   3  -7   3   69.87    7.18
   3  -7   4   56.67    5.50
   3   7   4   63.84    7.22
  -3   7   4   71.85    7.59
   3   7   4   65.45    7.07
   3  -7   4   71.16    7.12
   3   7   5   14.42    3.30
  -3   7   5   11.15    2.81
   3  -7   5   15.34    2.84
   3  -7   5   16.70    3.68
   3   7   5    9.93    2.85
   3   7   6   39.77    5.38
  -3   7   6   32.62    5.46
   3  -7   6   46.29    5.67
   3   7   6   38.28    5.49
   3  -7   7   18.44    3.90
   3   7   7   15.64    3.68
  -3   7   7   12.94    3.62
   3   7   7   19.92    4.35
   3   7   8    8.43    2.85
   3   7   8   13.05    3.46
  -3   7   8   11.99    3.71
   3  -7   8   12.71    3.34
   3   7   9   51.78    6.16
  -3   7   9   46.20    6.33
   3   7   9   52.46    6.42
   3  -7   9   53.94    6.45
   3   7  10   16.18    3.89
   3   7  10   16.11    3.97
  -3   7  10   27.04    5.11
   3  -7  10   20.60    4.02
   3   7  11   -0.37    1.59
  -3   7  11    2.51    1.58
   3   7  11    2.74    2.06
   3  -7  11    5.99    2.65
   3  -7  12    4.34    1.79
   3   7  12    8.22    2.26
   3   7  12    3.27    1.95
  -3   7  12    6.53    2.12
   3   7  13   40.52    6.42
   3   7  13   27.53    4.96
  -3   7  13   34.65    5.88
   3   7  14   13.84    3.22
   3   7  14   17.21    3.70
  -3   7  14   11.74    3.50
   3   7  15    6.50    1.96
  -3   7  15    3.98    1.46
   3   7  16   24.11    5.54
   3   7  16   23.73    5.55
  -3   7  16   26.78    5.72
  -3   7  17   10.51    3.16
   3   7  17   20.16    4.48
   3   7  17   13.46    3.63
   3   7  18    0.51    1.67
   3   7  18    4.22    1.23
  -3   7  18    2.58    1.40
   3   7  19   13.44    3.78
  -3   7  19   18.57    5.16
   3   7  19   21.65    4.70
  -3   7  20    7.78    3.31
   3   7  20    6.41    2.34
   3   7  20    7.28    3.36
  -3   7  21    0.73    1.48
   3   7  21    4.58    2.57
  -3   7  21   -0.69    2.49
   3   7  22    3.96    2.06
  -3   7  22    8.32    4.31
  -3   7  22    2.57    1.52
   3   7  23    7.32    2.69
  -3   7  23    5.93    2.48
   3   7  24    9.19    3.82
  -3   7  24    4.33    2.93
  -3  -8 -22    1.67    2.10
   3  -8 -22    8.40    3.87
  -3  -8 -21    1.93    1.85
   3  -8 -21    0.18    1.20
   3  -8 -20    1.86    2.03
  -3  -8 -20    0.96    2.15
   3  -8 -19    0.06    1.71
  -3  -8 -19    1.69    1.88
   3  -8 -18    2.74    1.56
  -3  -8 -18   -2.68    2.28
  -3  -8 -17    5.04    2.06
   3  -8 -17    1.30    1.63
  -3  -8 -16    1.18    2.10
   3  -8 -16    0.13    1.44
   3  -8 -15    5.66    2.61
  -3  -8 -15    8.15    2.88
   3  -8 -15   14.70    4.00
  -3  -8 -14    4.01    3.04
   3  -8 -14   -1.10    2.01
   3  -8 -14    1.81    1.51
   3   8 -13   20.66    5.62
   3  -8 -13   24.54    4.98
  -3  -8 -13   14.17    4.01
   3  -8 -13   26.89    4.88
   3  -8 -12    8.22    2.50
   3   8 -12    9.46    3.28
   3  -8 -12    4.42    2.71
  -3  -8 -12    7.25    2.28
  -3  -8 -11    0.90    1.80
   3   8 -11   -0.30    1.35
   3  -8 -11    4.11    1.97
   3  -8 -11    3.73    1.73
  -3  -8 -10    4.61    2.04
   3   8 -10    4.00    2.06
   3  -8 -10    2.00    1.52
  -3   8 -10    8.53    3.30
   3  -8 -10    1.85    1.26
  -3  -8  -9   14.35    3.21
   3  -8  -9    6.82    2.24
  -3   8  -9   16.25    3.76
   3   8  -9   21.39    4.00
   3  -8  -9   10.67    3.29
   3  -8  -8    9.47    2.98
  -3  -8  -8    5.09    2.12
  -3   8  -8    5.38    2.64
   3  -8  -8    5.02    2.01
   3   8  -8    4.41    1.67
   3  -8  -7    7.59    3.13
  -3   8  -7    6.59    2.98
   3  -8  -7   13.76    3.19
   3   8  -7   14.44    3.53
  -3   8  -6   -0.48    1.27
   3   8  -6    4.22    2.11
   3  -8  -6   -1.64    1.85
   3  -8  -6   -1.31    2.16
   3   8  -6    0.65    0.69
   3  -8  -5   10.06    3.06
  -3   8  -5    7.14    2.70
   3  -8  -5   10.57    3.14
   3   8  -5    7.66    2.01
   3   8  -5   11.10    3.46
  -3   8  -4   23.97    4.57
   3   8  -4   18.88    3.77
   3  -8  -4   23.64    4.30
   3   8  -4   15.05    4.42
   3  -8  -4   24.42    4.50
   3   8  -3    9.70    3.27
   3   8  -3    8.98    3.19
  -3   8  -3   12.24    3.20
   3  -8  -3    7.83    2.19
   3  -8  -3    9.29    2.12
  -3   8  -2    0.50    2.41
   3   8  -2    3.33    1.03
   3   8  -2    2.21    2.02
   3  -8  -2    1.59    0.97
   3  -8  -2    6.07    2.67
   3   8  -1   11.26    3.20
   3  -8  -1   14.75    2.92
   3  -8  -1   14.31    3.65
  -3   8  -1   12.21    3.46
   3   8  -1   10.15    2.57
   3   8   0    2.60    1.97
   3   8   0   -0.76    1.20
  -3   8   0    1.36    1.29
   3  -8   0    1.49    0.87
   3   8   1    9.45    3.14
   3   8   1   10.14    3.24
   3  -8   1   15.85    3.98
  -3   8   1   14.02    3.52
   3   8   2    0.26    1.72
   3   8   2    1.18    1.99
   3  -8   2    5.88    2.81
  -3   8   2    4.83    2.42
   3  -8   3    8.05    2.08
   3   8   3    7.87    2.93
  -3   8   3    8.97    3.44
   3   8   3    9.45    3.03
   3   8   4   18.70    4.27
   3   8   4   20.52    4.46
  -3   8   4   21.93    4.48
   3  -8   4   26.40    4.83
   3   8   5   10.39    2.79
   3   8   5    7.84    2.22
  -3   8   5    4.12    1.57
   3  -8   5    8.82    3.09
   3   8   6    0.20    1.47
   3   8   6    0.48    1.62
   3  -8   6    3.20    1.51
  -3   8   6    2.23    2.52
   3   8   7    7.55    2.50
   3  -8   7   10.23    3.03
  -3   8   7    3.17    1.97
   3   8   7    6.66    2.97
  -3   8   8    4.48    3.06
   3   8   8    3.34    1.83
   3   8   8    8.15    2.90
   3  -8   8   11.18    3.45
   3  -8   9    8.77    2.25
   3   8   9   19.61    4.36
   3   8   9   26.64    4.84
  -3   8   9   18.64    3.99
  -3   8  10    6.36    3.05
   3   8  10    4.09    1.90
   3  -8  10    4.48    1.27
   3   8  10    4.57    2.48
   3  -8  11    0.86    1.05
   3   8  11    1.08    1.85
  -3   8  11    1.68    1.71
   3   8  11    2.48    1.78
  -3   8  12    6.43    2.68
   3   8  12    3.52    2.27
   3   8  12    2.37    1.36
  -3   8  13   20.84    4.83
   3   8  13   14.29    3.29
   3   8  13   29.17    5.45
  -3   8  14    3.07    1.60
   3   8  14    2.97    1.30
   3   8  14    3.47    1.68
  -3   8  15   13.82    3.12
   3   8  15   13.32    3.74
   3   8  15    4.58    2.99
  -3   8  16   -0.42    1.51
   3   8  16    2.27    1.70
   3   8  16   -0.30    1.78
   3   8  17    8.26    2.56
  -3   8  17    3.01    1.85
   3   8  17    4.15    3.00
   3   8  18    2.10    1.64
   3   8  18    2.63    2.41
  -3   8  18    4.00    3.05
   3   8  19    0.61    1.60
   3   8  19    3.80    2.70
  -3   8  19    4.62    3.31
   3   8  20    6.45    1.93
  -3   8  20    0.69    1.72
   3   8  20    1.04    2.19
  -3   8  20    2.52    2.02
   3   8  21    4.15    2.84
  -3   8  21    0.32    1.87
  -3   8  21    5.34    3.81
  -3   8  22    5.36    2.70
  -3   8  22    2.48    4.08
   3   8  22    5.77    1.97
  -3  -9 -19    6.77    3.24
   3  -9 -19    1.69    2.81
   3  -9 -18   -1.91    1.61
  -3  -9 -18   -4.81    2.89
  -3  -9 -17    4.92    2.73
   3  -9 -17   -1.45    2.16
   3  -9 -16    5.25    2.22
  -3  -9 -16   -4.84    3.69
  -3  -9 -15    7.70    3.18
   3  -9 -15    2.22    1.73
   3  -9 -14    7.41    3.41
   3  -9 -14    8.31    2.63
   3  -9 -13    3.22    2.07
   3  -9 -13   12.72    3.62
   3   9 -12    2.35    2.32
   3  -9 -12    2.29    1.48
   3  -9 -12    4.44    1.28
   3  -9 -11    7.99    3.21
   3  -9 -11    4.74    2.90
   3   9 -11    3.07    2.88
   3  -9 -10   11.07    3.66
   3   9 -10    7.17    2.44
   3  -9 -10   11.14    3.77
  -3   9 -10    1.68    2.69
  -3   9  -9   37.92    6.17
   3  -9  -9   31.09    5.03
   3  -9  -9   34.48    5.94
   3   9  -9   30.37    5.59
  -3   9  -8    7.47    3.08
   3   9  -8    6.44    3.13
   3  -9  -8   13.30    3.73
   3  -9  -8   18.38    4.29
   3   9  -7   16.90    3.79
   3  -9  -7   22.10    4.41
   3  -9  -7   19.89    4.27
  -3   9  -6   17.03    4.01
   3  -9  -6   20.41    4.51
   3   9  -6   21.97    4.37
  -3   9  -5   15.06    4.75
   3   9  -5   23.90    4.58
   3  -9  -5   20.23    4.22
  -3   9  -4   34.87    5.80
   3  -9  -4   36.95    6.04
   3   9  -4   32.84    5.38
   3   9  -4   42.75    6.61
   3   9  -3   47.78    6.82
  -3   9  -3   40.26    6.13
   3   9  -3   45.42    6.35
   3  -9  -3   51.39    6.86
  -3   9  -2   19.68    4.75
   3   9  -2   16.44    4.05
   3   9  -2    5.50    2.52
   3  -9  -2   12.84    3.76
   3  -9  -1   39.67    6.16
   3   9  -1   35.30    5.98
   3   9  -1   31.95    5.45
  -3   9  -1   29.54    5.62
  -3   9   0   14.62    3.85
   3   9   0   17.62    4.04
   3  -9   0   19.74    4.33
   3   9   0   15.98    4.02
   3  -9   1   32.05    5.50
   3   9   1   31.50    5.60
  -3   9   1   26.97    4.96
   3   9   1   37.18    5.86
   3   9   2   10.27    3.06
   3  -9   2    9.93    3.22
   3   9   2   13.77    4.00
   3   9   3   37.07    5.99
  -3   9   3   45.51    6.78
   3  -9   3   41.64    6.40
   3   9   3   48.47    6.91
   3   9   4   33.16    5.55
  -3   9   4   39.48    6.55
   3   9   4   31.91    5.57
   3  -9   4   36.02    6.33
   3   9   5    8.13    3.15
  -3   9   5   17.34    4.39
   3  -9   5   15.98    4.11
   3   9   5   17.48    4.09
   3   9   6   21.93    4.82
   3  -9   6   29.62    5.18
   3   9   6   19.85    4.28
  -3   9   6   19.57    4.65
  -3   9   7   15.10    4.14
   3  -9   7   21.02    4.73
   3   9   7   17.20    4.26
   3   9   7   19.56    4.17
   3   9   8    7.30    2.93
  -3   9   8   11.70    3.15
   3  -9   8   15.61    3.98
   3   9   8   14.44    4.13
   3   9   9   35.78    6.19
  -3   9   9   31.06    6.16
   3  -9   9   30.09    5.62
   3   9   9   18.33    3.99
  -3   9  10    9.21    3.62
   3   9  10   10.32    3.57
   3   9  10    9.30    3.31
  -3   9  11    0.41    1.61
   3   9  11    3.84    1.60
   3   9  11    4.73    2.61
   3   9  12    0.97    1.39
   3   9  12    2.97    2.04
   3   9  13    5.79    2.66
   3   9  13   14.64    3.97
  -3   9  13    7.91    3.38
   3   9  14    9.67    3.17
   3   9  14    2.71    1.29
  -3   9  14    9.45    4.02
   3   9  15    5.75    3.34
  -3   9  15    2.64    2.19
   3   9  15    1.83    1.56
  -3   9  16    4.58    2.47
   3   9  16    6.87    3.32
   3   9  16    2.24    1.18
  -3   9  17   -0.42    1.38
   3   9  17   -0.70    1.51
   3   9  18    1.00    2.55
   3   9  18    3.50    2.11
  -3   9  18   -1.50    2.67
   3   9  19    6.71    3.60
   3   9  19    7.91    3.71
  -3   9  19    4.63    2.08
  -3   9  19    7.38    2.96
   3 -10 -15    3.30    2.30
   3  10 -12   -5.29    2.44
   3 -10 -12    4.40    2.43
   3 -10 -11    7.65    2.46
   3  10 -11   17.24    4.67
   3  10 -10   -0.58    2.21
   3 -10 -10    3.95    1.67
  -3  10  -9   16.10    5.62
   3  10  -9    9.22    2.78
   3 -10  -9   10.38    3.61
   3 -10  -8   14.25    4.62
  -3  10  -8   13.43    3.42
   3  10  -8    7.82    2.66
  -3  10  -7   -0.85    1.66
   3 -10  -7    2.15    2.29
   3  10  -7    2.83    2.46
   3  10  -6    3.88    2.74
  -3  10  -6    3.85    2.84
   3 -10  -6    0.85    1.03
   3 -10  -5   11.05    3.89
   3  10  -5   13.77    4.14
  -3  10  -5   10.98    3.61
   3 -10  -4   23.06    4.92
   3  10  -4   25.24    5.08
  -3  10  -4   22.78    5.39
   3  10  -3   25.56    5.20
  -3  10  -3   40.34    6.55
   3 -10  -3   27.93    5.39
   3  10  -3   36.30    6.63
   3  10  -2    6.63    2.79
   3 -10  -2    0.65    1.79
  -3  10  -2   12.04    4.29
   3  10  -2   12.74    3.53
   3 -10  -1    1.87    1.12
   3  10  -1    3.25    2.38
  -3  10  -1    2.04    1.33
   3  10  -1    2.39    1.45
   3  10   0    4.71    1.70
  -3  10   0   -0.77    2.14
   3 -10   0    1.37    1.41
   3  10   1    7.49    2.86
  -3  10   1    1.12    1.47
   3 -10   1    5.09    1.41
   3  10   1    7.02    2.76
   3  10   2    4.14    2.46
   3  10   2    6.94    2.32
  -3  10   2    8.83    3.52
   3 -10   2    8.42    3.25
  -3  10   3   41.41    6.27
   3  10   3   30.31    6.02
   3 -10   3   32.51    6.12
   3  10   3   36.50    6.19
   3  10   4   19.46    4.32
  -3  10   4   14.15    4.17
   3  10   4   13.81    3.93
   3 -10   4   16.72    4.15
   3  10   5    6.47    2.48
   3  10   5   17.27    4.02
   3 -10   5   14.23    4.51
  -3  10   5   10.55    3.56
   3  10   6    1.81    1.76
  -3  10   6    2.20    2.53
   3  10   6    3.06    2.64
   3 -10   6   -1.46    2.76
  -3  10   7   -0.84    1.33
   3  10   7    0.22    2.20
   3  10   7   -0.52    1.71
   3 -10   7   -2.26    2.71
   3  10   8    6.97    3.08
   3  10   8    8.62    3.72
  -3  10   8    7.92    3.35
  -3  10   9   11.79    4.05
   3  10   9   -0.85    1.36
   3  10   9    7.75    3.21
   3  10  10    0.98    1.22
   3  10  10    4.57    3.05
  -3  10  10    2.05    1.18
   3  10  11   13.07    3.67
   3  10  11   16.96    4.31
  -3  10  11    7.69    3.49
   3  10  12    1.98    1.36
   3  10  12    2.41    2.35
  -3  10  12    1.79    1.34
   3  10  13    0.94    2.46
   3  10  13    5.93    2.90
  -3  10  13    1.63    1.43
   3  10  14    2.09    1.71
  -3  10  14   -1.42    1.64
   3  10  14    2.16    1.69
  -3  10  15   -2.74    2.63
   3  10  15    1.06    1.00
   3  11  -9    0.67    1.48
   3 -11  -9    3.66    2.03
   3  11  -8    3.85    3.41
   3 -11  -8    9.66    3.75
  -3  11  -7    2.44    2.95
   3  11  -7    9.09    3.89
   3 -11  -7   14.28    4.02
   3  11  -6    2.99    2.65
   3 -11  -6    3.00    1.58
  -3  11  -6    6.35    3.93
   3  11  -5   -0.42    1.42
  -3  11  -5    0.69    1.94
   3 -11  -5    5.05    3.65
  -3  11  -4    5.52    2.39
   3  11  -4    0.37    2.03
   3 -11  -4    5.56    2.41
   3  11  -3   -0.53    2.40
  -3  11  -3    1.39    2.25
   3 -11  -3    1.30    2.07
   3 -11  -2   -0.15    2.02
   3  11  -2    1.28    1.10
  -3  11  -2    1.97    1.23
  -3  11  -1    0.83    1.27
   3  11  -1    2.69    3.07
   3  11  -1    3.18    2.38
   3 -11  -1    0.01    1.54
   3  11   0   -0.98    2.30
   3 -11   0   -2.17    3.18
  -3  11   0   -2.22    2.26
   3  11   0    0.02    2.12
   3 -11   1    3.75    2.77
   3  11   1    3.40    3.28
   3  11   1    2.92    2.55
  -3  11   1   -0.93    1.05
   3 -11   2    0.46    1.20
   3  11   2    3.75    2.99
  -3  11   2    3.83    2.22
   3  11   2   -0.50    1.34
   3  11   3    3.79    2.86
  -3  11   3    4.48    2.06
   3  11   3   -1.60    2.08
   3 -11   3   -0.48    2.22
   3  11   4    1.05    1.76
   3  11   4    5.13    2.40
   3 -11   4    5.03    2.23
   3  11   5    0.42    1.27
  -3  11   5    4.11    3.13
   3  11   5    2.63    3.33
   3 -11   5    6.48    3.81
   3  11   6    0.90    1.44
   3  11   6    4.71    2.96
   3 -11   6    3.60    2.89
  -3  11   6    3.97    2.60
  -3  11   7    9.86    3.50
   3  11   7    6.10    2.70
   3  11   7    1.60    2.14
   3  11   8    7.44    3.18
  -3  11   8    2.87    1.22
   3  11   9    0.92    1.51
   3  11   9   -1.08    1.34
   4   0 -30   -1.17    1.99
   4   0 -29    0.18    1.24
   4   0 -28    0.35    1.67
   4   0 -27   18.47    5.01
   4   0 -26   43.84    6.75
   4   0 -25    3.26    1.01
   4   0 -24    6.13    2.32
   4   0 -23   18.96    4.12
   4   0 -22   37.35    5.58
   4   0 -21   37.10    5.56
   4   0 -20   54.75    6.16
   4   0 -19   78.30    7.58
   4   0 -18  105.71    8.56
   4   0 -17  361.48   15.33
   4   0 -16  100.17    7.88
   4   0 -15  165.93    9.78
   4   0 -14  134.16    8.37
   4   0 -14  114.77    5.69
   4   0 -13   73.07    4.32
   4   0 -12   65.63    5.65
   4   0 -12   56.55    3.81
   4   0 -11  813.54   14.00
   4   0 -11  788.03   18.99
   4   0 -10   60.98    3.79
   4   0 -10   60.00    5.08
   4   0  -9  800.10   17.92
   4   0  -9  808.26   13.54
   4   0  -8  188.71    8.30
   4   0  -8  191.84    6.52
   4   0  -7   32.62    3.32
   4   0  -7   40.84    3.06
   4   0  -6   80.80    4.20
   4   0  -6   78.98    4.98
   4   0  -6   80.77    5.05
   4   0  -5  266.77    7.61
   4   0  -5  280.83    9.07
   4   0  -5  278.65    9.13
   4   0  -4   82.13    4.84
   4   0  -4   85.97    4.88
   4   0  -4   96.31    4.50
   4   0  -3 1117.90   17.28
   4   0  -3 1097.62   15.71
   4   0  -3 1106.33   17.04
   4   0  -2  735.71   12.82
   4   0  -2  710.35   13.53
   4   0  -2  720.36   13.49
   4   0  -1  410.67   10.17
   4   0  -1  413.63    9.72
   4   0  -1  417.11   10.01
   4   0   0  476.08   10.58
   4   0   0  452.18   10.49
   4   0   1  415.06    9.55
   4   0   1  421.57   10.18
   4   0   2  709.74   12.27
   4   0   2  724.58   13.72
   4   0   3 1101.00   17.43
   4   0   3 1092.15   14.71
   4   0   4   96.47    4.30
   4   0   4   94.61    5.25
   4   0   5  286.09    7.18
   4   0   5  295.53    9.53
   4   0   6   90.71    5.40
   4   0   6   79.02    3.73
   4   0   7   37.97    2.53
   4   0   7   36.53    3.52
   4   0   8  174.02    7.88
   4   0   8  170.03    5.07
   4   0   9  807.59   10.64
   4   0   9  829.50   17.67
   4   0  10   55.80    2.67
   4   0  10   47.53    4.40
   4   0  11  778.14   17.90
   4   0  12   52.35    2.17
   4   0  12   59.23    5.11
   4   0  13   63.55    5.38
   4   0  14  122.86    7.70
   4   0  15  157.94    8.97
  -4   0  16   80.99    4.97
   4   0  16   81.44    6.67
  -4   0  17   45.03    1.94
   4   0  17  345.72   14.11
   4   0  18   92.24    7.44
   4   0  19   82.39    7.28
   4   0  20   48.32    5.71
   4   0  21   27.81    4.60
   4   0  22   30.89    4.47
   4  -1 -30   -3.60    2.84
   4  -1 -29    2.65    2.05
   4  -1 -28    2.86    2.88
   4   1 -28   -5.90    2.50
   4   1 -27   -0.02    1.71
   4  -1 -27   -0.65    0.95
   4   1 -26   -0.16    1.55
   4  -1 -26   -1.56    1.96
   4   1 -25    0.58    1.29
   4  -1 -25    4.01    2.54
   4   1 -24   24.31    4.69
   4  -1 -24   24.88    4.63
   4   1 -23    2.75    1.64
   4  -1 -23    5.85    2.87
   4  -1 -22    6.89    2.72
   4   1 -22    5.00    2.07
   4   1 -21    2.49    1.78
   4  -1 -21    1.22    1.87
   4  -1 -20    1.88    1.44
   4   1 -20    0.61    1.58
   4   1 -19   26.29    4.40
   4  -1 -19   20.22    4.13
   4  -1 -18   33.72    4.98
   4   1 -18   16.67    3.66
   4   1 -17   16.34    3.36
   4  -1 -17   17.70    3.55
   4  -1 -16  177.11   10.65
   4   1 -16  171.12   10.16
   4  -1 -16  150.77    8.19
   4   1 -15    2.85    1.27
   4  -1 -15    4.03    2.08
   4  -1 -15    2.45    0.85
   4  -1 -14   39.39    5.05
   4  -1 -14   32.18    3.58
   4   1 -14   36.59    4.23
   4  -1 -13   23.10    3.04
   4   1 -13   29.12    3.85
   4  -1 -13   28.00    4.01
   4  -1 -12   32.10    3.52
   4  -1 -12   33.66    4.41
   4   1 -12   29.29    3.50
   4  -1 -11   65.32    4.86
   4   1 -11   69.47    5.15
   4   1 -11   61.16    5.00
   4  -1 -11   71.81    6.06
   4   1 -10  402.59    7.18
   4  -1 -10  426.26   14.07
   4   1 -10  412.29   12.59
   4  -1 -10  434.32   12.28
   4   1 -10  423.98   12.56
   4  -1  -9    6.35    1.72
   4  -1  -9   10.22    1.95
   4   1  -9    9.23    1.94
   4   1  -9    7.62    1.63
   4   1  -9    7.58    1.01
   4  -1  -8  133.13    6.54
   4   1  -8  136.60    6.80
   4   1  -8  136.30    6.48
   4   1  -8  131.69    4.32
   4  -1  -8  134.86    7.53
   4   1  -7   18.06    2.22
   4   1  -7   20.23    1.75
   4   1  -7   16.69    2.31
   4  -1  -7   18.29    2.39
   4  -1  -7   20.10    2.82
   4  -1  -6  102.86    5.59
   4   1  -6  103.21    4.05
   4  -1  -6  103.09    6.23
   4   1  -6   99.41    5.10
   4   1  -6  108.34    5.94
   4  -1  -5   59.15    4.60
   4   1  -5   60.65    3.84
   4   1  -5   58.56    4.30
   4  -1  -5   57.46    4.09
   4   1  -5   64.48    3.29
   4   1  -4  256.57    6.81
   4  -1  -4  254.18    8.56
   4  -1  -4  260.68    9.31
   4   1  -4  253.65    7.66
   4   1  -4  266.67    8.96
   4   1  -3   32.45    3.04
   4  -1  -3   29.58    2.89
   4   1  -3   30.38    2.66
   4  -1  -3   26.64    2.88
   4   1  -3   30.58    2.43
   4  -1  -2   58.44    3.99
   4   1  -2   53.16    3.91
   4   1  -2   51.62    3.32
   4  -1  -2   55.46    4.06
   4   1  -2   60.04    3.56
   4  -1  -1   16.37    2.16
   4  -1  -1   15.01    2.03
   4   1  -1   14.29    2.01
   4   1  -1   17.68    2.01
   4  -1   0  153.44    6.61
   4  -1   0  142.26    6.31
   4   1   0  140.56    5.82
   4   1   1   17.35    2.14
   4  -1   1   16.53    2.10
   4   1   1   15.11    2.09
   4   1   2   59.76    3.87
   4   1   2   61.99    4.15
   4  -1   2   55.02    3.98
   4   1   3   30.08    2.98
   4  -1   3   33.62    3.17
   4   1   3   30.83    2.83
   4  -1   4  272.12    9.09
   4   1   4  257.15    8.98
   4   1   5   58.16    3.74
   4   1   5   50.32    4.01
   4  -1   5   55.49    4.13
   4   1   6   95.64    5.81
   4  -1   6  105.38    5.82
   4   1   6  100.63    4.97
   4   1   7   22.95    2.34
   4   1   7   20.49    2.85
   4  -1   7   23.38    2.89
   4   1   8  132.00    5.59
   4  -1   8  125.07    6.64
   4   1   8  135.74    7.29
   4   1   9   10.41    1.59
   4  -1   9    8.61    1.50
   4   1  10  438.83   10.25
   4   1  10  419.73   13.47
   4  -1  10  423.77   12.67
   4   1  11   65.48    3.93
   4   1  11   61.31    5.25
   4  -1  11   61.42    5.01
   4   1  12   31.13    2.78
   4   1  12   30.41    3.88
   4  -1  12   24.89    3.45
   4   1  13   30.62    2.71
   4  -1  13   27.75    3.72
   4   1  13   24.98    3.52
  -4  -1  13   18.31    1.37
   4   1  14   29.17    4.01
   4  -1  14   31.82    3.81
   4   1  14   28.42    2.54
   4  -1  15    2.16    1.18
   4   1  15    2.52    0.80
   4   1  15    2.51    1.26
   4  -1  16  149.27    8.90
   4   1  16  159.84    9.61
   4  -1  17   14.54    2.69
   4   1  17   16.92    3.27
   4  -1  18   21.61    3.55
   4   1  18   28.09    4.32
  -4   1  18   29.42    3.96
   4  -1  19   21.47    3.40
   4   1  19   24.36    4.08
   4  -1  20   -0.21    0.83
   4   1  20    1.78    1.25
   4   1  21    1.80    1.47
   4   1  22    5.15    2.66
   4   1  23    2.27    1.01
   4  -2 -30   -2.69    2.17
   4  -2 -29    5.58    3.45
   4  -2 -28    3.89    3.00
   4  -2 -27   20.53    4.69
   4  -2 -26   13.85    3.81
   4  -2 -25   23.74    4.70
   4  -2 -24    4.39    2.54
   4   2 -23    8.23    3.50
   4  -2 -23   -1.11    0.98
   4  -2 -22   14.82    3.83
   4   2 -22   16.51    3.30
   4   2 -21   24.35    4.39
   4  -2 -21   35.20    5.65
  -4  -2 -20    2.07    1.05
   4   2 -20    3.84    2.25
   4  -2 -20    0.98    1.47
  -4  -2 -19   70.42    7.69
   4   2 -19   67.47    6.83
   4  -2 -19   76.94    7.69
   4  -2 -18    8.76    2.44
   4   2 -18    8.00    2.43
  -4  -2 -18    8.60    2.38
   4   2 -17    4.34    1.69
   4  -2 -17    5.59    1.91
  -4  -2 -17    3.51    1.79
   4  -2 -17    4.20    1.59
   4  -2 -16  123.33    8.26
   4   2 -16  124.94    8.39
  -4  -2 -16  118.73    9.18
   4  -2 -16  120.40    9.05
   4   2 -16  111.00    7.58
   4  -2 -15   85.83    6.74
  -4  -2 -15   75.01    7.30
   4   2 -15   74.11    5.85
   4   2 -15   78.72    6.26
   4  -2 -15   73.17    7.05
  -4  -2 -14   47.91    5.46
   4   2 -14   42.31    4.55
   4   2 -14   38.54    4.20
   4  -2 -14   38.11    4.44
   4  -2 -14   37.87    5.03
   4   2 -13   64.43    5.23
   4  -2 -13   73.81    6.64
  -4  -2 -13   76.80    6.84
   4  -2 -13   66.95    5.78
   4   2 -13   61.90    5.25
   4   2 -12  130.35    7.17
   4  -2 -12  140.75    8.20
   4  -2 -12  146.64    9.21
   4   2 -12  127.04    7.33
  -4  -2 -12  133.83    8.94
   4  -2 -11   32.46    3.99
  -4  -2 -11   31.71    4.20
   4   2 -11   31.66    3.58
   4   2 -11   34.57    3.47
  -4   2 -11   31.10    1.96
   4  -2 -11   34.69    4.45
  -4   2 -10  168.12    5.17
   4  -2 -10  173.06    8.91
   4   2 -10  182.43    7.70
   4  -2 -10  177.05    9.65
  -4  -2 -10  180.65    9.80
   4   2 -10  189.48    8.60
   4  -2  -9   45.74    4.45
   4  -2  -9   42.95    4.59
   4   2  -9   49.69    3.74
   4   2  -9   53.96    4.52
   4  -2  -8   10.82    2.10
   4  -2  -8    8.97    2.24
   4   2  -8   12.49    2.28
   4   2  -8   11.92    1.70
   4   2  -8    9.42    1.07
   4   2  -7    4.44    0.76
   4  -2  -7    1.58    0.96
   4   2  -7    3.96    1.44
   4   2  -7    4.05    1.05
   4  -2  -7    3.68    1.28
   4  -2  -6    3.74    1.00
   4   2  -6    3.02    0.60
   4   2  -6    4.17    1.34
   4   2  -6    4.56    1.12
   4   2  -5   20.42    1.96
   4  -2  -5   24.40    3.10
   4   2  -5   21.73    2.03
   4   2  -5   22.64    2.95
   4  -2  -5   16.20    2.65
   4  -2  -4  565.14   14.59
   4   2  -4  566.62   14.06
   4   2  -4  579.94   11.07
   4  -2  -4  567.93   14.55
   4   2  -4  607.74   10.21
   4   2  -3  158.08    7.35
   4   2  -3  151.70    6.18
   4  -2  -3  165.98    7.75
   4  -2  -3  158.80    7.62
   4   2  -3  163.54    5.33
   4   2  -2   80.52    4.48
   4  -2  -2   87.96    5.51
   4   2  -2   91.44    5.53
   4  -2  -2   76.24    5.20
   4  -2  -1   60.12    4.61
   4  -2  -1   54.84    4.36
   4   2  -1   68.07    4.26
   4   2   0   59.51    4.10
   4   2   0   66.24    4.71
   4  -2   0   69.88    4.96
   4  -2   0   60.30    4.43
   4  -2   1   72.86    4.96
   4   2   1   70.14    4.88
   4   2   1   63.07    4.33
   4   2   2   76.57    4.96
   4   2   2   81.18    5.23
   4  -2   2   85.46    5.40
   4  -2   2   82.18    5.26
   4   2   3  160.99    7.30
   4  -2   3  158.87    7.40
   4   2   3  160.12    7.44
   4   2   4  567.42   14.26
   4   2   4  603.19   14.13
   4  -2   4  593.44   14.34
   4   2   5   16.09    2.36
   4   2   5   13.47    2.24
   4  -2   5   15.50    2.39
   4   2   6    2.00    1.19
   4   2   6    3.38    1.19
   4  -2   6    2.89    0.97
   4   2   7    3.28    1.16
   4   2   7    2.22    1.08
   4  -2   7    2.22    1.05
   4  -2   8   11.73    2.12
   4   2   8   12.62    2.05
   4   2   8    7.39    1.96
   4   2   9   54.27    4.27
   4  -2   9   62.50    4.98
   4   2   9   50.76    4.92
   4  -2  10  175.84    8.54
   4   2  10  180.51    7.98
   4   2  10  179.08    9.33
   4   2  11   31.30    3.95
   4   2  11   31.79    3.40
   4  -2  11   34.82    3.83
   4  -2  12  131.25    7.61
   4   2  12  135.58    8.51
   4   2  12  137.03    7.05
   4   2  13   67.59    4.88
   4   2  13   73.61    6.41
   4  -2  13   57.31    5.08
   4   2  14   36.48    3.63
   4  -2  14   37.62    4.14
   4   2  14   38.93    4.84
   4   2  15   79.76    5.42
   4  -2  15   75.52    6.11
   4   2  15   75.25    6.72
   4   2  16  118.87    6.70
   4   2  16  120.54    8.85
   4  -2  16  124.66    8.11
   4   2  17    3.72    1.43
   4   2  17    4.88    2.35
   4  -2  17    3.27    1.38
   4   2  18    5.61    2.41
   4  -2  18    6.24    2.31
   4   2  19   74.47    7.40
   4  -2  19   65.62    6.25
   4   2  20    3.78    1.66
  -4   2  20    1.37    0.63
   4   2  21   35.09    5.17
   4   2  22   26.87    5.01
   4   2  23    0.06    0.88
   4   2  24   -1.25    2.26
   4  -3 -29    0.34    1.33
   4  -3 -28    2.23    1.02
   4  -3 -27    3.80    2.61
   4  -3 -26    0.51    1.54
   4  -3 -25    1.69    1.51
   4  -3 -24   -0.10    1.58
   4  -3 -23    1.42    1.43
  -4  -3 -23    1.43    1.81
  -4  -3 -22    0.40    1.05
   4  -3 -22    2.36    1.87
  -4  -3 -21    1.56    1.48
   4  -3 -21   -1.57    1.61
   4  -3 -20    1.37    2.32
  -4  -3 -20    0.91    1.53
   4  -3 -19    2.47    1.37
  -4  -3 -19    1.63    1.91
   4  -3 -18    7.99    2.74
  -4  -3 -18    3.80    2.35
   4  -3 -18    4.64    1.79
   4   3 -17   19.37    3.65
   4  -3 -17   13.34    3.22
   4  -3 -17   21.34    4.04
  -4  -3 -17   11.28    3.56
   4  -3 -16    5.70    2.43
  -4  -3 -16    5.22    2.59
   4   3 -16    5.52    1.59
   4  -3 -16    7.97    2.44
   4   3 -16    6.76    1.96
  -4  -3 -15   18.80    3.76
   4   3 -15   34.78    4.06
   4  -3 -15   30.68    4.53
   4  -3 -15   31.41    4.43
   4   3 -15   28.82    3.89
   4  -3 -14    2.02    1.57
  -4  -3 -14    3.55    1.68
   4   3 -14    1.03    0.68
   4   3 -14    0.58    0.78
   4  -3 -14    1.57    1.26
   4   3 -13   13.07    2.81
   4  -3 -13   15.40    3.67
   4   3 -13   15.54    2.41
  -4  -3 -13   15.59    3.11
   4  -3 -13   18.26    3.19
   4   3 -12   26.19    3.46
  -4   3 -12   22.42    2.30
   4  -3 -12   28.27    3.90
  -4  -3 -12   28.58    4.24
   4   3 -12   23.03    2.76
   4  -3 -12   25.17    3.93
   4   3 -11    5.36    1.94
  -4   3 -11    6.84    1.23
   4   3 -11    6.96    1.44
  -4  -3 -11    9.25    2.38
   4  -3 -11   10.73    2.56
   4  -3 -11    5.38    2.03
   4   3 -10   12.43    2.28
  -4   3 -10   12.84    1.82
  -4  -3 -10   13.78    2.87
   4   3 -10   12.41    1.83
   4  -3 -10    9.35    2.38
   4  -3 -10   10.25    2.38
  -4   3  -9   28.17    2.85
   4   3  -9   29.44    2.61
   4  -3  -9   27.21    3.79
  -4  -3  -9   23.37    3.46
   4   3  -9   24.59    1.84
   4  -3  -9   27.79    3.85
   4   3  -9   31.86    3.80
   4  -3  -8    4.04    1.43
   4   3  -8    2.96    1.04
   4   3  -8    2.58    0.65
  -4  -3  -8    3.32    1.14
   4   3  -8    3.93    0.81
   4  -3  -8    3.22    1.49
  -4   3  -8    2.95    0.65
   4   3  -7   32.46    3.85
   4   3  -7   30.95    2.47
  -4   3  -7   32.85    3.23
   4   3  -7   36.66    2.33
   4  -3  -7   34.16    4.19
   4  -3  -7   28.96    3.69
  -4  -3  -7   35.89    3.85
   4   3  -6  266.75   10.86
   4  -3  -6  247.22   10.98
   4  -3  -6  271.90   11.17
   4   3  -6  254.09    7.78
   4   3  -5   26.44    2.66
   4   3  -5   28.58    1.78
   4  -3  -5   29.30    3.77
   4   3  -5   30.05    3.70
   4  -3  -5   25.19    3.40
   4   3  -4    8.70    2.15
   4  -3  -4   12.53    2.39
   4  -3  -4   10.65    2.17
   4   3  -4   10.11    1.06
   4   3  -4   11.88    1.91
   4   3  -3   51.61    3.85
   4  -3  -3   55.36    5.03
   4   3  -3   50.37    2.55
   4  -3  -3   57.74    4.83
   4   3  -3   47.32    4.58
   4   3  -2   38.43    3.50
   4   3  -2   44.07    4.33
   4  -3  -2   41.98    4.09
   4  -3  -2   41.61    4.31
   4   3  -1   77.17    5.77
   4  -3  -1   77.39    5.51
   4   3  -1   68.65    4.77
   4  -3  -1   71.69    5.62
   4   3   0  255.22   10.39
   4   3   0  233.27    9.14
   4  -3   0  252.02    9.75
   4  -3   0  252.19   10.43
   4  -3   1   66.79    5.21
   4   3   1   67.72    5.42
   4   3   1   69.60    5.04
   4  -3   1   69.49    5.14
   4  -3   2   36.04    3.95
   4  -3   2   30.75    3.42
   4   3   2   35.90    3.80
   4  -3   3   51.11    4.46
   4  -3   3   51.11    4.44
   4   3   3   52.94    4.71
   4   3   3   49.73    4.71
   4  -3   4    9.75    1.99
   4   3   4   10.05    2.14
   4   3   4    8.45    2.02
   4  -3   4    6.83    1.61
   4  -3   5   24.07    3.22
   4   3   5   24.39    3.36
   4   3   5   29.81    3.72
   4   3   6  259.12   10.55
   4   3   6  272.33   11.26
   4  -3   6  263.82   10.50
   4   3   7   27.29    3.49
   4  -3   7   31.23    3.57
   4   3   7   34.25    4.11
   4   3   8    1.15    0.45
   4   3   8    3.47    1.36
   4  -3   8    2.87    1.05
   4   3   9   30.91    3.63
   4  -3   9   31.77    3.78
   4   3   9   27.70    3.67
   4   3  10   13.70    2.55
   4   3  10    8.01    2.39
   4  -3  10   12.28    2.38
   4  -3  11    6.32    1.61
   4   3  11    8.12    2.02
   4   3  11    8.37    1.99
   4   3  12   22.88    3.18
   4   3  12   22.58    3.73
   4  -3  12   29.64    3.77
   4   3  13   15.77    2.99
   4   3  13   11.59    2.48
   4  -3  13   16.44    2.88
   4   3  14    1.62    1.15
   4  -3  14   -0.25    0.88
   4   3  14    1.33    1.90
   4  -3  15   34.90    4.16
   4   3  15   21.20    3.81
   4   3  15   27.48    3.70
   4   3  16    2.58    1.08
   4  -3  16    4.51    1.45
   4   3  17   15.54    3.31
   4   3  17   13.04    2.55
   4  -3  17   16.68    3.02
   4   3  18    7.12    2.26
   4   3  19    2.03    0.81
   4   3  20   -0.03    0.81
  -4   3  21    0.86    1.65
   4   3  21    1.64    2.58
   4   3  22    1.16    1.60
   4   3  23    1.35    0.98
   4   3  24    2.86    1.76
   4   3  25    0.03    1.59
   4  -4 -28    0.62    1.95
   4  -4 -27   10.04    3.06
   4  -4 -26    7.51    2.78
  -4  -4 -25   13.96    4.33
   4  -4 -25    9.99    3.47
  -4  -4 -24    4.68    2.66
   4  -4 -24    7.15    2.81
  -4  -4 -23    6.95    3.79
   4  -4 -23    8.36    2.60
   4  -4 -22    8.04    2.78
  -4  -4 -22   12.89    3.09
   4  -4 -21   36.69    6.04
  -4  -4 -21   39.65    6.22
   4  -4 -20   22.03    4.52
  -4  -4 -20   17.58    4.44
  -4  -4 -19    2.18    1.29
   4  -4 -19    3.42    1.71
   4  -4 -18    6.61    2.93
   4  -4 -18    6.16    2.10
  -4  -4 -18    2.41    1.94
  -4  -4 -17    1.70    1.37
   4  -4 -17    5.00    2.09
   4  -4 -17    2.17    1.51
  -4  -4 -16   52.41    6.07
   4  -4 -16   43.46    5.92
   4  -4 -16   45.69    5.80
   4   4 -16   46.16    5.59
  -4  -4 -15  313.99   15.55
   4  -4 -15  332.42   15.34
   4   4 -15  315.59   13.54
   4  -4 -15  331.98   16.06
  -4  -4 -14   55.08    6.37
   4  -4 -14   51.80    6.40
   4  -4 -14   55.23    6.24
   4  -4 -13   24.39    3.92
   4  -4 -13   30.93    4.48
   4   4 -13   30.22    4.03
  -4  -4 -13   36.93    4.97
   4  -4 -12  100.46    8.30
  -4  -4 -12   79.83    7.26
   4  -4 -12  102.69    8.11
   4   4 -12   84.52    6.82
   4  -4 -11  115.33    8.40
  -4   4 -11  104.78    6.43
  -4  -4 -11  118.12    8.54
   4  -4 -11  107.87    8.37
   4   4 -11  122.62    8.10
  -4  -4 -10  102.91    7.83
  -4   4 -10   91.64    6.07
   4  -4 -10  103.26    7.88
   4   4 -10  101.00    7.40
   4  -4 -10   93.59    7.74
  -4   4  -9   63.89    5.11
   4   4  -9   62.01    3.85
   4  -4  -9   67.13    6.55
   4  -4  -9   66.93    6.31
   4   4  -9   61.43    5.61
  -4  -4  -9   56.98    5.57
  -4  -4  -8   10.93    2.47
   4   4  -8    7.99    2.01
  -4   4  -8   10.92    2.21
   4  -4  -8   11.04    2.76
   4   4  -8   10.38    1.57
   4  -4  -8   11.36    2.56
  -4  -4  -7  123.12    7.84
   4  -4  -7  115.08    8.05
   4  -4  -7  117.31    8.37
   4   4  -7  126.66    6.08
  -4   4  -7  117.45    7.13
   4   4  -7  121.89    8.06
  -4   4  -6   12.67    2.40
   4   4  -6    7.18    1.96
  -4  -4  -6    7.34    2.01
   4  -4  -6   10.79    2.52
   4  -4  -6   14.89    3.01
   4   4  -6   12.49    1.96
   4   4  -5   65.63    5.86
   4  -4  -5   54.40    5.59
  -4   4  -5   65.69    5.41
   4  -4  -5   66.28    5.76
  -4  -4  -5   61.94    5.05
   4   4  -5   59.21    4.47
   4   4  -4  206.36   10.33
  -4   4  -4  234.78   10.37
   4  -4  -4  224.01   10.49
   4  -4  -4  222.31   10.93
   4   4  -4  216.90    8.86
   4  -4  -3   81.20    6.12
   4   4  -3   81.73    6.53
   4  -4  -3   98.52    7.13
   4   4  -3   83.81    5.58
   4   4  -2    6.80    2.29
   4  -4  -2    7.27    1.71
   4  -4  -2    8.47    2.13
   4   4  -2    8.46    1.82
   4  -4  -1    7.35    1.99
   4   4  -1    4.43    1.54
   4  -4  -1    5.71    1.64
   4   4  -1    5.44    1.67
   4  -4   0    9.14    2.11
   4   4   0   13.44    2.43
   4   4   0    7.70    2.23
   4  -4   0   14.26    2.49
   4  -4   1    3.61    1.53
   4   4   1    0.72    0.64
   4  -4   1    3.10    1.19
   4   4   1    2.62    1.02
   4  -4   2    6.24    1.98
   4   4   2    7.06    1.86
   4  -4   2    8.92    1.98
   4   4   2   10.34    2.49
   4   4   3   75.51    6.03
   4  -4   3   86.52    6.01
   4   4   3   76.82    6.18
   4   4   4  231.66   10.77
   4   4   4  249.44   11.36
   4  -4   4  216.92    9.50
   4  -4   4  217.70   10.49
   4   4   5   66.61    5.89
   4   4   5   65.65    5.82
   4  -4   5   60.93    5.06
   4  -4   5   61.27    5.56
   4   4   6   10.72    2.39
   4  -4   6   17.83    2.92
   4  -4   6   13.56    2.49
   4   4   6   10.28    2.17
   4   4   7  106.29    7.45
   4   4   7  100.67    7.46
   4  -4   7  124.57    7.83
   4  -4   8   10.63    2.46
   4   4   8   16.09    3.09
   4   4   8    9.30    2.49
   4   4   9   69.38    6.37
   4  -4   9   64.60    5.73
   4   4   9   66.70    6.07
   4   4  10   84.87    7.29
   4  -4  10  104.02    7.21
   4   4  10  104.34    7.64
   4  -4  11  103.04    7.20
   4   4  11   99.10    7.44
   4   4  11  117.23    8.70
   4   4  12  100.56    7.78
   4   4  12  102.95    8.24
   4  -4  13   24.36    3.58
   4   4  13   25.43    3.87
   4   4  13   22.76    4.05
   4  -4  14   54.80    5.57
   4   4  14   64.80    6.23
   4   4  14   52.68    6.18
   4   4  15  351.23   14.87
   4   4  15  316.62   15.31
   4  -4  15  347.76   13.88
   4  -4  16   41.23    4.85
   4   4  16   50.95    5.62
   4   4  16   48.43    5.82
   4   4  17    4.58    2.05
   4   4  17    0.78    1.17
   4   4  18    7.01    2.87
   4   4  18    8.91    3.25
   4   4  19    5.47    2.64
   4   4  20   22.48    4.28
   4   4  21   47.96    6.70
  -4   4  21   29.76    5.78
  -4   4  22    8.92    3.48
  -4   4  22    7.35    2.95
   4   4  22    7.56    2.37
   4   4  23    2.10    1.01
   4   4  24    4.15    2.78
   4   4  25    9.71    3.18
   4   4  26   10.70    3.37
   4  -5 -27   -1.52    2.49
   4  -5 -26    0.01    1.81
  -4  -5 -26   -2.34    2.68
  -4  -5 -25    0.37    1.64
   4  -5 -25   -0.86    1.53
  -4  -5 -24    1.75    2.47
   4  -5 -24   16.78    4.72
   4  -5 -23    0.96    2.01
  -4  -5 -23    0.43    1.13
  -4  -5 -22    6.07    2.52
   4  -5 -22    2.12    1.16
  -4  -5 -21    0.06    1.47
   4  -5 -21    2.41    1.96
   4  -5 -20    8.10    2.67
  -4  -5 -20    2.89    2.40
  -4  -5 -19   -1.55    1.79
   4  -5 -19   -1.47    1.43
  -4  -5 -18    9.92    2.95
   4  -5 -18   15.23    3.55
   4  -5 -18    8.14    2.33
  -4  -5 -17   29.57    4.95
   4  -5 -17   39.76    6.14
   4  -5 -17   27.78    4.99
  -4  -5 -16   35.94    5.61
   4  -5 -16   37.54    5.55
   4  -5 -16   41.44    5.75
   4  -5 -15   65.24    7.24
  -4  -5 -15   72.45    7.32
   4  -5 -15   53.29    6.67
   4   5 -15   51.05    6.06
   4   5 -14    3.64    1.79
  -4  -5 -14    3.36    2.39
   4  -5 -14    0.14    0.92
   4  -5 -14    3.70    1.97
   4  -5 -13   37.37    5.15
  -4  -5 -13   53.02    6.29
   4  -5 -13   47.82    5.83
   4   5 -13   47.85    5.60
   4   5 -12   54.87    5.99
  -4  -5 -12   40.26    5.19
   4  -5 -12   46.88    5.83
   4  -5 -12   43.21    5.59
   4  -5 -11    3.75    1.50
   4   5 -11    5.50    2.33
  -4  -5 -11    3.30    1.39
   4  -5 -11    4.89    2.28
  -4   5 -11    7.53    2.23
  -4  -5 -10   33.50    4.76
  -4   5 -10   31.05    4.05
   4  -5 -10   25.45    4.39
   4   5 -10   25.39    4.05
   4  -5 -10   27.22    4.23
  -4  -5  -9   18.67    3.45
   4   5  -9   16.62    3.78
  -4   5  -9   25.41    3.74
   4   5  -9   28.92    3.34
   4  -5  -9   15.24    3.42
   4  -5  -9   22.69    4.08
  -4   5  -8    6.10    1.99
  -4  -5  -8   10.63    2.49
   4   5  -8   11.71    2.68
   4   5  -8   11.41    2.21
   4  -5  -8   10.74    2.54
   4  -5  -8   12.24    2.56
   4   5  -7   13.12    2.33
   4   5  -7   14.79    3.03
   4  -5  -7   13.41    3.05
  -4  -5  -7   18.67    3.22
  -4   5  -7   16.61    3.02
   4  -5  -7   12.54    2.87
   4   5  -6    7.96    2.21
  -4   5  -6    8.45    2.29
   4  -5  -6    4.55    1.61
   4   5  -6    6.28    1.78
   4  -5  -6    5.85    1.94
  -4  -5  -6    3.13    1.42
   4   5  -5   10.77    2.23
  -4   5  -5   12.02    2.75
  -4  -5  -5    7.84    1.85
   4  -5  -5   15.59    3.09
   4   5  -5    7.68    2.22
   4  -5  -5   10.94    2.83
   4   5  -4   35.71    4.69
   4   5  -4   48.24    4.80
   4  -5  -4   42.68    4.80
  -4  -5  -4   45.23    4.26
  -4   5  -4   37.92    4.86
   4  -5  -4   44.18    5.28
   4  -5  -3   12.32    2.44
  -4   5  -3   10.92    2.50
   4   5  -3   14.27    2.45
   4   5  -3   14.19    2.79
   4  -5  -3   12.22    2.97
   4   5  -2    0.17    0.64
   4   5  -2    2.16    1.37
   4  -5  -2    1.71    1.83
   4  -5  -2    1.67    1.51
  -4   5  -2    3.36    1.75
   4   5  -1   30.03    4.43
   4  -5  -1   38.14    4.33
   4   5  -1   34.76    4.16
  -4   5  -1   30.97    4.27
   4  -5  -1   37.88    4.86
   4  -5   0   14.36    2.85
   4   5   0   19.18    3.41
   4   5   0   19.33    3.01
  -4   5   0   18.38    3.40
   4  -5   0   15.66    2.74
  -4   5   1   32.00    4.40
   4   5   1   34.24    4.21
   4   5   1   31.10    4.39
   4  -5   1   29.91    4.36
   4  -5   1   34.88    4.09
   4  -5   2    0.55    1.10
   4   5   2    1.00    0.99
   4   5   2    0.77    1.43
   4  -5   2    1.69    0.87
   4  -5   3    9.57    2.55
   4   5   3    7.38    2.23
   4   5   3    9.88    2.55
   4  -5   3   12.73    2.52
   4   5   4   49.36    5.35
   4  -5   4   40.80    4.37
   4   5   4   46.28    5.13
   4  -5   4   40.40    4.88
   4   5   5   10.63    2.59
   4  -5   5    7.45    2.36
   4   5   5   11.23    2.62
   4  -5   5   10.25    2.49
   4  -5   6    6.20    1.91
   4  -5   6    6.29    2.10
   4   5   6    5.13    1.61
   4   5   6    7.16    2.06
   4   5   7   15.59    3.23
   4  -5   7   12.33    2.82
   4   5   7   13.36    2.96
   4  -5   7   13.85    2.56
   4   5   8   15.71    3.36
   4  -5   8   11.46    2.65
   4   5   8    8.95    2.12
   4  -5   8   11.91    2.64
   4   5   9   23.87    3.99
   4   5   9   15.64    2.84
   4  -5   9   21.44    3.47
   4  -5   9   22.43    3.37
   4   5  10   29.51    4.56
   4  -5  10   32.52    4.57
   4   5  10   28.16    4.40
   4  -5  11    1.95    0.94
   4   5  11    6.05    2.36
   4   5  11    3.18    1.40
   4   5  12   49.81    5.95
   4  -5  12   49.83    5.51
   4   5  12   42.62    5.71
   4   5  13   46.12    6.03
   4  -5  13   40.43    4.96
   4   5  13   45.59    5.61
   4   5  14    3.03    1.42
   4   5  14    0.95    0.70
   4  -5  14    2.60    1.54
   4   5  15   62.36    6.74
   4   5  15   51.12    6.94
   4  -5  15   55.95    6.05
   4   5  16   38.74    5.31
  -4   5  16   40.57    5.78
   4   5  16   46.57    6.31
   4   5  17   43.06    5.82
  -4   5  17   35.32    6.04
   4   5  17   43.99    6.31
   4   5  18   14.37    3.60
   4   5  18   13.53    3.23
  -4   5  18    9.33    3.10
   4   5  19    3.33    1.97
  -4   5  19    3.86    2.90
   4   5  19    1.15    1.76
  -4   5  20    3.59    1.04
   4   5  20    3.96    2.06
   4   5  21   -0.08    1.25
  -4   5  21    0.26    1.30
  -4   5  22    1.61    1.50
  -4   5  22    0.98    2.19
   4   5  22    0.92    1.78
   4   5  23    0.61    1.08
  -4   5  23    2.03    2.12
   4   5  24   10.67    3.49
   4   5  25    0.54    1.55
   4   5  26   -0.53    1.44
   4   5  27    4.73    3.63
   4  -6 -26    8.14    2.52
  -4  -6 -26    4.22    1.27
  -4  -6 -25    0.07    1.62
   4  -6 -25    6.11    3.97
   4  -6 -24    4.67    1.42
  -4  -6 -24    2.45    1.68
  -4  -6 -23   16.92    4.10
   4  -6 -23   10.64    3.79
   4  -6 -22    7.69    1.78
  -4  -6 -22   10.21    3.12
   4  -6 -21   21.89    5.07
  -4  -6 -21   17.72    5.47
  -4  -6 -20   61.40    7.75
   4  -6 -20   50.33    7.32
   4  -6 -19    4.67    2.04
  -4  -6 -19    0.23    1.92
   4  -6 -18    3.55    2.21
  -4  -6 -18    5.04    3.06
   4  -6 -18    5.49    2.46
  -4  -6 -17   23.18    4.73
   4  -6 -17   32.73    5.66
  -4  -6 -16    5.60    2.96
   4  -6 -16    8.45    2.76
   4  -6 -16   12.30    3.48
  -4  -6 -15  223.04   13.42
   4   6 -15  186.13   12.17
   4  -6 -15  196.29   12.99
   4  -6 -15  178.50   12.31
   4  -6 -14   44.46    6.21
   4   6 -14   37.16    5.48
  -4  -6 -14   44.79    6.36
   4  -6 -14   47.44    6.64
   4   6 -13    7.75    2.60
  -4  -6 -13    5.32    1.65
   4  -6 -13    8.31    2.59
   4  -6 -13    9.12    2.75
   4  -6 -12   18.23    3.87
   4   6 -12    8.67    3.06
   4  -6 -12   10.98    3.18
  -4  -6 -12   16.88    3.47
   4  -6 -11  221.03   13.34
  -4   6 -11  177.18   11.15
   4  -6 -11  213.91   12.68
  -4  -6 -11  208.47   12.23
   4   6 -11  210.78   12.41
   4  -6 -10   41.06    5.76
  -4   6 -10   38.29    5.08
  -4  -6 -10   37.74    5.38
   4  -6 -10   46.62    6.02
   4   6  -9   86.40    7.89
  -4   6  -9   91.44    7.74
  -4  -6  -9   88.06    7.59
   4  -6  -9   89.49    8.14
   4  -6  -9   95.63    8.60
   4  -6  -8   29.52    4.71
   4   6  -8   21.65    3.58
  -4  -6  -8   19.21    3.33
   4   6  -8   23.27    3.95
  -4   6  -8   24.92    3.89
   4  -6  -8   23.99    4.29
   4   6  -7    5.74    2.17
  -4  -6  -7    3.11    1.62
   4  -6  -7    5.52    1.96
  -4   6  -7    7.84    2.54
   4  -6  -7    3.11    1.55
   4   6  -7    9.42    2.50
   4   6  -6   79.15    7.48
   4   6  -6   85.86    6.73
  -4   6  -6   74.59    7.08
  -4  -6  -6   81.26    6.55
   4  -6  -6   86.34    8.06
   4  -6  -6   67.13    6.77
   4  -6  -5  147.09   10.48
   4   6  -5  129.11    8.37
  -4  -6  -5  139.31    8.35
  -4   6  -5  130.75    9.40
   4  -6  -5  138.19    9.47
   4   6  -5  127.05    9.45
   4   6  -4    2.85    1.82
   4  -6  -4    4.86    2.14
   4   6  -4    6.24    2.04
  -4   6  -4    2.63    1.51
  -4  -6  -4    1.45    0.58
   4  -6  -4    5.22    2.97
   4   6  -3   70.65    7.17
  -4   6  -3   78.85    7.33
   4   6  -3   74.71    6.40
   4  -6  -3   71.27    7.16
   4  -6  -3   75.28    6.60
  -4   6  -2   10.50    2.69
   4   6  -2    9.39    2.85
   4  -6  -2   12.28    2.84
   4   6  -2   10.81    2.61
   4  -6  -2   10.59    2.79
   4   6  -1   81.05    7.38
   4  -6  -1   73.65    7.12
  -4   6  -1   92.87    7.96
   4   6  -1   70.17    6.59
   4  -6  -1   85.21    6.99
  -4   6   0  109.35    8.75
   4   6   0  102.90    8.10
   4  -6   0  101.36    8.46
   4  -6   0  110.32    7.87
   4   6   0  109.19    8.63
   4   6   1   80.89    7.46
  -4   6   1   81.47    7.55
   4  -6   1   81.60    6.63
   4  -6   1   84.23    7.64
   4   6   1   80.81    7.12
   4  -6   2   12.63    2.92
   4   6   2    6.48    2.39
  -4   6   2   10.25    3.02
   4  -6   2   11.89    2.71
   4   6   2   17.26    3.22
   4  -6   3   74.58    6.46
  -4   6   3   72.16    7.33
   4   6   3   82.75    7.54
   4   6   3   69.07    7.10
   4  -6   3   77.23    7.32
   4   6   4    1.83    1.99
  -4   6   4    9.09    2.96
   4   6   4    2.54    1.18
   4  -6   4    6.98    2.33
   4  -6   4    1.81    0.95
   4   6   5  146.97   10.08
   4   6   5  129.26    9.32
  -4   6   5  122.64    9.51
   4  -6   5  115.56    7.79
   4  -6   5  127.69    8.96
   4   6   6   74.19    7.38
   4  -6   6   82.84    6.74
   4   6   6   80.28    7.65
  -4   6   6   82.94    8.00
   4  -6   6   70.97    6.80
   4  -6   7    5.98    2.29
  -4   6   7    4.62    2.29
   4   6   7    7.15    2.27
   4   6   7    8.09    2.59
   4  -6   7    5.30    1.27
   4  -6   8   21.55    3.26
   4   6   8   23.76    4.40
   4   6   8   17.71    3.89
  -4   6   8   18.86    3.72
   4  -6   8   14.56    3.18
   4   6   9   90.53    8.37
   4  -6   9   94.34    7.86
   4   6   9   86.26    8.11
   4  -6   9   87.32    7.21
  -4   6   9   92.27    8.49
   4   6  10   40.90    5.80
   4   6  10   52.53    6.46
  -4   6  10   52.23    6.45
   4  -6  10   40.55    4.82
   4  -6  10   45.50    5.48
   4   6  11  194.40   12.46
  -4   6  11  213.63   13.69
   4  -6  11  228.55   11.75
   4  -6  11  210.37   12.12
   4   6  11  200.78   12.47
   4  -6  12   11.81    3.01
   4   6  12   19.33    4.22
  -4   6  12   12.30    3.42
   4   6  12   11.27    3.06
   4  -6  12   19.19    3.52
   4  -6  13    5.44    2.02
   4   6  13   11.40    3.49
  -4   6  13    7.26    2.92
   4   6  13    8.65    2.33
   4   6  14   50.15    6.49
   4   6  14   54.07    6.61
  -4   6  14   48.42    6.66
   4  -6  14   43.79    5.70
   4   6  15  178.72   12.42
  -4   6  15  202.89   13.63
   4   6  15  191.76   12.61
   4   6  16    3.61    2.38
  -4   6  16    2.74    2.28
   4   6  17   36.26    5.65
   4   6  17   18.59    4.49
  -4   6  17   28.86    5.55
   4   6  18    3.72    1.78
  -4   6  18    5.53    1.66
   4   6  19    3.56    1.90
   4   6  19    3.10    2.74
  -4   6  19    0.98    1.05
  -4   6  20   54.54    7.23
   4   6  20   64.17    7.85
   4   6  21   25.15    5.14
  -4   6  21   23.85    4.97
   4   6  22    0.82    1.02
  -4   6  22    4.70    3.39
  -4   6  22    6.84    3.07
  -4   6  23   15.20    5.09
   4   6  23    8.45    2.99
  -4   6  23   12.73    4.39
  -4   6  24    4.71    2.82
   4   6  24    7.53    3.29
   4   6  25    7.35    3.13
   4   6  26    3.47    2.26
   4  -7 -24   -0.67    1.72
  -4  -7 -24   -0.26    1.27
  -4  -7 -23    1.72    2.44
   4  -7 -23   -2.57    3.21
  -4  -7 -22    2.97    2.91
   4  -7 -22    0.78    1.20
   4  -7 -21    2.94    1.44
  -4  -7 -21    1.16    1.01
   4  -7 -20   11.40    3.08
  -4  -7 -20    7.42    2.94
  -4  -7 -19    9.25    3.67
   4  -7 -19   16.08    3.65
  -4  -7 -18    2.57    2.15
   4  -7 -18   12.34    4.27
   4  -7 -18   10.74    3.45
  -4  -7 -17    3.37    2.10
   4  -7 -17    2.06    1.21
   4  -7 -17    5.44    2.17
   4  -7 -16    9.99    2.86
   4  -7 -16    4.67    1.65
  -4  -7 -16    8.44    3.17
  -4  -7 -15    5.68    2.87
   4  -7 -15    4.86    2.81
   4  -7 -15    3.17    2.12
   4   7 -14    5.96    2.97
   4  -7 -14   14.13    4.01
   4  -7 -14    3.94    2.11
  -4  -7 -14    8.01    2.85
   4   7 -13   14.80    3.65
   4  -7 -13   17.92    4.01
  -4  -7 -13   17.68    4.06
   4  -7 -13   19.33    4.48
   4   7 -12    4.56    1.94
  -4  -7 -12    3.38    0.86
   4  -7 -12   -1.46    1.65
   4  -7 -12    6.14    3.11
   4   7 -11   11.26    3.58
  -4  -7 -11   12.36    2.97
   4  -7 -11   17.55    3.78
   4  -7 -11   16.27    3.90
   4  -7 -10   49.77    6.57
  -4   7 -10   33.42    5.39
  -4  -7 -10   37.16    5.40
   4  -7 -10   48.66    6.37
   4   7  -9    3.02    1.99
  -4  -7  -9   -0.30    1.83
  -4   7  -9    0.25    0.80
   4  -7  -9    4.07    2.32
   4  -7  -9    1.63    1.78
   4  -7  -8   37.46    5.50
  -4   7  -8   47.20    6.13
  -4  -7  -8   35.94    5.00
   4   7  -8   34.99    5.45
   4  -7  -8   43.15    5.59
   4  -7  -7    1.88    1.45
  -4   7  -7   -1.48    1.56
   4   7  -7    2.07    2.38
  -4  -7  -7    0.49    1.32
   4  -7  -7   -0.77    1.94
   4   7  -6   14.57    3.18
   4   7  -6   14.09    3.50
  -4  -7  -6    8.90    2.38
  -4   7  -6   12.87    3.17
   4  -7  -6   14.58    2.93
   4  -7  -6   11.24    3.19
   4  -7  -5   16.86    3.61
   4   7  -5   10.17    2.69
  -4  -7  -5    9.31    2.18
   4   7  -5   12.74    2.98
   4  -7  -5    8.12    2.77
  -4   7  -5    9.71    2.91
   4  -7  -4    3.76    1.11
   4   7  -4    2.67    1.96
   4  -7  -4    4.75    2.66
   4   7  -4    3.92    1.78
  -4   7  -4    3.37    1.85
   4   7  -3    7.68    2.01
  -4   7  -3    4.28    1.60
   4  -7  -3    5.43    2.33
   4   7  -3    5.13    1.61
   4  -7  -3    7.00    2.68
  -4   7  -2    5.57    1.90
   4   7  -2    7.67    2.34
   4  -7  -2    6.24    2.13
   4   7  -2    6.47    2.85
   4  -7  -2    7.75    2.63
   4   7  -1    6.58    2.49
   4   7  -1    5.81    1.81
   4  -7  -1    3.78    1.80
  -4   7  -1    5.03    2.11
   4  -7  -1    4.96    2.31
  -4   7   0   10.64    3.03
   4   7   0    9.53    2.87
   4  -7   0    6.82    2.04
   4   7   0    7.94    2.78
   4  -7   0    7.76    2.55
   4   7   1    3.11    1.61
   4   7   1    5.94    2.21
   4  -7   1    1.69    1.28
  -4   7   1    3.61    2.00
   4  -7   1    5.70    2.30
   4   7   2    6.34    2.26
  -4   7   2    5.39    3.18
   4  -7   2    6.54    2.06
   4   7   2    9.43    2.64
   4  -7   2    9.10    3.25
   4   7   3    5.49    2.09
  -4   7   3    3.88    2.50
   4   7   3    6.93    2.45
   4  -7   3    6.16    2.32
   4  -7   3    9.04    2.52
   4  -7   4    6.53    2.04
   4   7   4    1.66    1.33
  -4   7   4    9.47    3.37
   4  -7   4    5.43    1.91
   4   7   4    3.60    1.93
   4   7   5   11.09    2.96
  -4   7   5   15.13    3.59
   4  -7   5   13.27    2.93
   4   7   5    9.52    2.69
   4  -7   5    7.82    2.43
  -4   7   6   21.88    4.28
   4   7   6   17.24    3.93
   4   7   6   14.04    3.76
   4  -7   6   15.84    3.19
   4  -7   6   13.96    3.68
  -4   7   7    1.15    2.11
   4   7   7    0.38    1.59
   4   7   7    0.91    1.12
   4  -7   7    0.84    1.06
   4   7   8   40.78    5.82
   4   7   8   34.88    5.34
  -4   7   8   31.18    5.66
   4  -7   8   42.51    6.01
   4   7   9    1.15    1.34
   4   7   9    1.97    1.18
  -4   7   9    3.49    2.50
   4  -7   9   -0.31    1.13
   4   7  10   48.41    6.74
   4   7  10   36.39    5.30
  -4   7  10   38.56    6.34
   4  -7  10   53.39    6.34
   4   7  11   17.06    4.19
  -4   7  11   13.05    3.76
   4   7  11   20.06    4.00
   4  -7  11   10.99    3.17
   4   7  12    1.62    1.00
   4   7  12    5.63    2.78
  -4   7  12    4.25    1.66
   4  -7  12    1.98    0.80
  -4   7  13   16.59    4.15
   4   7  13   10.84    3.43
   4   7  14    2.81    1.63
  -4   7  14    0.19    1.07
   4   7  14    4.52    2.52
  -4   7  15    1.68    1.88
   4   7  15    2.40    3.29
   4   7  15    3.18    1.32
   4   7  16    9.57    3.00
  -4   7  16    6.35    2.95
   4   7  16   13.61    4.07
   4   7  17    3.59    2.54
   4   7  17    2.27    1.77
  -4   7  17    5.69    1.95
  -4   7  18    6.15    2.26
   4   7  18    7.73    2.44
   4   7  18   11.96    3.84
   4   7  19    9.67    3.39
   4   7  19   18.21    4.62
  -4   7  19    9.36    3.96
   4   7  20    5.52    2.55
  -4   7  20    3.94    2.11
   4   7  21   -1.75    2.23
  -4   7  21    0.79    1.33
   4   7  22    2.33    2.65
  -4   7  22    2.65    3.46
  -4   7  22    1.56    1.64
  -4   7  23    0.98    1.85
  -4   7  23    4.09    2.03
   4   7  23    3.30    1.70
  -4   7  24   -0.98    1.35
   4   7  24    0.27    1.39
   4  -8 -22   10.19    3.91
  -4  -8 -22   -0.72    2.49
  -4  -8 -21    4.80    3.34
   4  -8 -21    6.91    3.03
   4  -8 -20    6.30    3.05
  -4  -8 -20    4.87    3.42
  -4  -8 -19   11.50    3.71
   4  -8 -19   10.76    3.89
  -4  -8 -18    8.90    3.28
   4  -8 -18    3.31    2.18
  -4  -8 -17    0.32    1.19
   4  -8 -17    0.65    2.29
   4  -8 -17    2.06    1.58
  -4  -8 -16    5.59    2.74
   4  -8 -16   11.89    3.84
   4  -8 -16    4.65    1.74
   4  -8 -15    1.10    1.96
  -4  -8 -15   -1.36    1.15
   4  -8 -15    1.23    1.43
   4  -8 -14    2.25    1.85
   4   8 -14    0.22    2.52
  -4  -8 -14    1.71    1.63
   4  -8 -14    0.35    2.10
   4  -8 -13    3.49    2.78
   4  -8 -13   11.05    3.32
   4   8 -13    2.27    1.98
  -4  -8 -13    3.23    2.39
   4  -8 -12    1.81    0.99
  -4  -8 -12   -0.92    1.63
   4  -8 -12    2.22    1.13
   4   8 -12    1.10    0.97
   4  -8 -11    9.52    2.92
   4   8 -11    1.52    1.32
  -4  -8 -11    8.72    3.94
   4  -8 -11    6.11    3.30
   4   8 -10   55.98    7.24
  -4   8 -10   59.07    7.63
  -4  -8 -10   55.46    7.02
   4  -8 -10   44.70    6.62
   4  -8 -10   45.87    6.40
   4   8  -9    9.80    2.99
   4  -8  -9    4.40    1.88
  -4  -8  -9    4.68    2.03
  -4   8  -9    8.53    2.39
   4  -8  -9    5.80    2.38
   4   8  -8    5.51    2.86
  -4   8  -8    7.38    3.07
   4  -8  -8    4.10    1.76
   4  -8  -8    0.60    2.04
   4  -8  -7   29.85    5.00
  -4   8  -7   30.17    5.29
   4  -8  -7   33.70    5.45
   4   8  -7   34.12    5.69
  -4   8  -6   35.67    5.98
   4  -8  -6   40.73    5.95
   4  -8  -6   52.96    6.81
   4   8  -6   43.41    6.15
   4   8  -5   21.28    4.38
   4   8  -5   14.21    3.20
  -4   8  -5   13.35    3.73
   4  -8  -5   15.75    4.01
   4  -8  -5   14.60    3.92
   4  -8  -4    7.36    2.94
   4   8  -4    9.67    3.26
   4  -8  -4    7.65    2.69
  -4   8  -4    7.49    2.76
   4   8  -4    6.55    2.67
   4  -8  -3    3.42    2.01
   4   8  -3    3.36    2.04
   4   8  -3    5.72    2.49
  -4   8  -3    4.99    1.90
   4  -8  -3    3.96    2.34
   4   8  -2    7.06    2.69
   4  -8  -2    4.13    1.97
  -4   8  -2    3.29    1.80
   4   8  -2    4.28    1.31
   4  -8  -2    7.68    2.55
   4   8  -1   62.98    7.24
   4   8  -1   60.48    7.20
  -4   8  -1   56.82    7.42
   4  -8  -1   56.24    7.05
   4  -8   0   72.06    8.09
   4   8   0   68.67    7.76
   4   8   0   61.15    7.13
  -4   8   0   66.90    7.89
   4  -8   0   54.76    6.14
   4   8   1   60.72    7.19
  -4   8   1   42.18    5.98
   4   8   1   59.14    7.06
   4  -8   1   40.09    5.65
   4   8   2    7.35    2.71
   4   8   2    5.80    2.01
  -4   8   2    6.05    2.15
   4  -8   2    2.60    2.09
   4   8   3    2.76    1.90
   4   8   3    2.69    2.04
   4  -8   3    3.46    2.26
  -4   8   3    7.34    2.68
   4   8   4    9.43    2.95
  -4   8   4   11.02    3.21
   4   8   4    7.11    2.74
   4  -8   4    8.17    2.45
  -4   8   5   16.10    4.42
   4   8   5   15.56    3.81
   4   8   5   21.89    4.54
   4  -8   5   15.32    3.38
   4   8   6   40.68    6.08
   4   8   6   49.11    6.47
  -4   8   6   43.93    6.20
   4  -8   6   42.76    6.19
   4  -8   7   31.17    5.10
   4   8   7   34.47    5.58
   4   8   7   27.76    4.73
  -4   8   7   34.47    5.68
   4   8   8    3.68    1.81
   4   8   8   10.78    3.18
   4  -8   8    7.68    2.77
  -4   8   8    3.05    2.13
   4   8   9   11.56    3.21
   4   8   9    5.66    1.78
  -4   8   9    7.70    2.76
   4  -8   9   10.98    3.25
   4   8  10   48.64    7.08
   4   8  10   51.08    7.14
  -4   8  10   53.69    7.13
   4  -8  10   42.65    6.18
   4   8  11    3.56    2.00
   4  -8  11    5.33    2.41
   4   8  11    1.91    1.21
  -4   8  11    5.60    2.03
  -4   8  12    1.09    1.33
   4   8  12    1.00    1.51
   4   8  12    2.50    1.82
   4   8  13    8.38    2.42
   4   8  13    4.58    2.25
  -4   8  13    8.80    3.06
  -4   8  14    2.05    2.11
   4   8  14    1.66    1.38
   4   8  14    4.26    2.77
   4   8  15    4.56    2.41
  -4   8  15    0.06    1.42
   4   8  15   -0.39    2.21
  -4   8  16    9.09    3.75
   4   8  16    3.76    2.16
   4   8  17    1.99    2.28
  -4   8  17    1.71    1.21
   4   8  17   -2.27    2.42
   4   8  18   16.31    4.95
   4   8  18   12.68    3.48
  -4   8  18    6.57    3.10
   4   8  19    9.74    3.66
  -4   8  19    6.01    2.92
   4   8  19   10.26    3.73
   4   8  20    1.26    2.23
   4   8  20    3.94    1.50
  -4   8  20    6.16    3.03
   4   8  21   10.93    3.73
  -4   8  21    7.76    3.49
  -4   8  22    0.62    1.22
   4   8  22    1.12    1.56
  -4   8  22    3.75    1.86
  -4  -9 -19    2.86    2.67
   4  -9 -19    0.96    1.62
  -4  -9 -18    0.49    2.08
   4  -9 -18    1.21    2.51
  -4  -9 -17    0.72    2.42
   4  -9 -17    3.69    2.49
   4  -9 -16    0.18    1.66
   4  -9 -16   -0.94    1.52
   4  -9 -15    0.85    1.58
   4  -9 -15    1.79    2.07
   4  -9 -14   -1.41    1.20
   4  -9 -14    0.65    2.26
   4  -9 -13    1.36    1.10
   4  -9 -13    4.24    2.73
   4   9 -12    9.53    3.12
   4  -9 -12    6.10    1.69
   4  -9 -12    8.45    2.95
   4  -9 -11   -0.16    1.74
   4   9 -11    3.57    2.54
   4  -9 -11    2.95    1.50
   4   9 -10    3.10    2.41
   4  -9 -10    0.47    1.17
   4  -9 -10    1.10    2.26
   4   9  -9    2.07    1.12
  -4   9  -9    3.91    2.27
   4  -9  -9    4.55    2.62
   4  -9  -9    1.39    0.80
   4  -9  -8   11.06    2.92
   4   9  -8   11.97    3.79
  -4   9  -8   10.09    3.37
   4  -9  -8   11.31    3.41
   4   9  -7    2.65    1.28
  -4   9  -7    5.95    2.83
   4  -9  -7    4.90    2.76
   4  -9  -7    3.05    1.74
   4   9  -6   -0.85    0.86
  -4   9  -6   -0.68    1.50
   4  -9  -6    3.13    2.93
   4  -9  -6    2.21    1.79
   4   9  -5   -0.02    0.95
  -4   9  -5    1.00    1.00
   4  -9  -5    0.05    1.64
  -4   9  -4    2.29    1.24
   4   9  -4    3.02    1.71
   4   9  -4    5.37    2.39
   4  -9  -4    8.66    3.52
   4   9  -3    9.69    3.16
   4   9  -3    8.29    2.40
  -4   9  -3    5.62    3.33
   4  -9  -3    5.97    2.53
   4   9  -2    3.49    2.39
  -4   9  -2    3.03    2.24
   4   9  -2    1.75    0.84
   4  -9  -2    5.53    2.44
   4   9  -1    1.42    1.39
   4   9  -1    4.62    1.64
   4  -9  -1    0.98    1.67
  -4   9  -1    6.25    2.17
   4   9   0   12.41    3.40
   4   9   0   11.58    3.50
   4  -9   0   11.62    3.27
  -4   9   0   17.97    3.89
   4   9   1    4.49    1.92
   4   9   1    5.98    2.76
  -4   9   1    6.75    2.82
   4  -9   1    6.62    2.93
   4  -9   2    4.74    3.24
  -4   9   2    3.40    2.44
   4   9   2    1.24    1.69
   4   9   2    1.48    1.61
   4   9   3    2.07    1.64
   4   9   3    2.11    2.07
   4  -9   3    5.25    1.78
   4   9   4    4.80    2.58
   4  -9   4    7.10    2.45
   4   9   4    2.67    2.18
  -4   9   4    6.54    3.20
   4   9   5    0.77    1.52
   4   9   5    1.95    2.32
   4  -9   5    0.40    1.39
  -4   9   5   -1.32    1.71
   4   9   6    3.91    2.31
   4   9   6    0.58    1.02
  -4   9   6   -1.39    1.77
   4  -9   6    4.16    2.72
   4   9   7    3.09    2.06
   4   9   7    5.94    2.08
  -4   9   7    2.77    1.69
   4  -9   7    1.00    1.71
   4   9   8    7.07    2.79
   4   9   8    4.24    1.84
  -4   9   8    6.16    2.72
   4  -9   8    6.19    2.54
   4   9   9    4.35    1.37
   4  -9   9   -2.31    1.08
   4   9   9    4.17    3.05
  -4   9   9    3.85    2.22
   4   9  10    2.78    2.37
   4   9  10    0.37    0.98
  -4   9  10    2.98    1.05
   4   9  11    0.19    1.96
  -4   9  11    2.94    2.16
   4   9  11   -0.35    1.45
   4   9  12    7.40    2.81
  -4   9  12   16.44    4.23
   4   9  12    9.11    3.37
   4   9  13    2.04    2.01
   4   9  13    2.07    2.12
  -4   9  13    6.36    3.58
   4   9  14    1.37    2.39
  -4   9  14    0.35    1.67
   4   9  14   -0.28    1.32
   4   9  15   -0.51    1.81
  -4   9  15    0.24    1.69
   4   9  15   -0.08    1.11
   4   9  16   -0.31    0.93
   4   9  16    1.27    2.04
  -4   9  16   -1.93    1.77
  -4   9  17   -0.71    2.22
   4   9  17   -0.17    2.06
   4   9  17    0.29    1.71
   4   9  18    1.19    1.95
   4   9  18    0.53    1.23
  -4   9  18    3.11    2.69
   4   9  19    4.65    2.34
   4   9  19    2.06    2.28
  -4   9  19   -0.56    1.77
   4 -10 -15    5.19    3.16
   4 -10 -14    4.04    2.56
   4 -10 -14    4.31    3.21
   4 -10 -13    1.12    2.14
   4 -10 -13    1.28    2.14
   4  10 -12    1.85    2.85
   4 -10 -12   -1.61    1.36
   4  10 -11    7.87    3.37
   4 -10 -11    5.12    2.75
   4 -10 -10    9.30    2.80
   4  10 -10    5.98    2.74
   4 -10  -9   17.33    4.89
   4  10  -9   13.90    4.22
   4 -10  -8    4.16    2.55
   4  10  -8    5.12    2.69
  -4  10  -8   -1.07    1.40
   4 -10  -7    1.11    2.29
   4  10  -7    6.49    3.32
  -4  10  -7    3.57    3.01
   4 -10  -6    6.91    3.05
   4  10  -6    7.27    3.16
  -4  10  -6   11.04    3.81
   4 -10  -5   15.59    3.66
   4  10  -5   10.34    3.78
  -4  10  -5   10.63    3.33
   4 -10  -4   10.24    3.61
  -4  10  -4   10.38    3.46
   4  10  -4    3.89    2.13
   4  10  -3    0.03    1.43
  -4  10  -3   -0.05    1.59
   4 -10  -3   -1.05    1.03
   4  10  -2   -1.27    1.64
   4  10  -2    4.73    2.65
  -4  10  -2    2.98    1.91
   4 -10  -2    2.23    1.60
   4  10  -1    4.67    1.68
   4  10  -1   11.94    3.59
  -4  10  -1    6.03    3.46
   4 -10  -1    6.79    2.74
  -4  10   0   16.14    4.35
   4  10   0   13.40    4.33
   4  10   0    9.79    3.20
   4 -10   0   15.44    3.85
   4  10   1    7.90    3.08
   4  10   1    2.53    1.51
  -4  10   1    3.83    2.16
   4 -10   1    1.31    1.85
   4  10   2    1.26    1.36
  -4  10   2    1.40    1.49
   4  10   2    4.56    2.61
   4 -10   2    2.50    2.55
   4  10   3    0.26    1.00
  -4  10   3    4.47    2.52
   4  10   3    1.76    1.34
   4 -10   3   -0.42    2.20
   4  10   4    6.13    2.72
   4  10   4    4.29    2.01
  -4  10   4    3.31    1.73
   4 -10   4    8.47    3.00
   4  10   5    9.50    3.14
   4  10   5    6.60    2.46
  -4  10   5   11.91    3.48
   4 -10   5   16.96    4.74
   4  10   6    6.37    2.90
  -4  10   6    9.24    2.70
   4  10   6    8.36    3.10
   4 -10   6   -0.75    1.09
   4  10   7    1.58    2.46
  -4  10   7    2.37    1.30
   4  10   7    4.67    2.67
   4 -10   7    6.53    3.32
   4  10   8    6.33    3.45
   4  10   8    0.59    1.73
   4 -10   8    6.41    3.28
  -4  10   8    2.21    1.45
   4  10   9   14.25    3.42
  -4  10   9   15.11    4.23
   4  10   9   14.74    3.85
   4  10  10    6.51    3.05
  -4  10  10    3.75    2.38
   4  10  10    8.89    3.30
   4  10  11    4.13    2.63
  -4  10  11    3.49    1.68
   4  10  11    8.45    2.88
   4  10  12    2.18    1.96
  -4  10  12    8.63    3.18
   4  10  12    4.10    2.77
  -4  10  13   -1.61    1.79
   4  10  13   -1.19    2.03
   4  10  13    1.37    2.26
   4  10  14    0.02    2.05
  -4  10  14    1.85    2.39
   4  10  14   -0.05    1.82
  -4  10  15    3.21    1.18
   4  10  15    8.79    3.41
   4  10  15    7.22    3.93
   4  11  -9    0.49    1.34
   4 -11  -9    2.53    2.69
   4  11  -8   -0.44    1.69
   4 -11  -8    2.49    2.21
   4  11  -7   -0.22    1.49
  -4  11  -7   -1.32    3.22
   4  11  -6    1.38    2.82
  -4  11  -6   -2.35    2.23
   4 -11  -6    6.39    3.57
   4  11  -5    2.38    1.28
   4 -11  -5   -2.38    2.33
  -4  11  -5    0.45    2.48
  -4  11  -4   -3.81    3.28
   4 -11  -4    1.99    2.70
   4  11  -4    2.06    2.02
   4  11  -3    3.19    2.61
  -4  11  -3    4.40    3.11
   4 -11  -3    0.96    1.81
   4  11  -2    4.45    2.56
  -4  11  -2   -0.33    1.58
   4 -11  -2   -0.14    2.06
   4  11  -1    7.82    2.80
   4  11  -1   -0.49    1.96
   4 -11  -1    1.05    1.66
  -4  11  -1    7.28    3.97
   4  11   0    2.78    2.30
  -4  11   0    4.09    2.14
   4  11   0    2.14    2.04
   4 -11   0    0.68    2.04
   4  11   1    3.92    1.83
   4  11   1    3.53    2.35
  -4  11   1   -0.30    1.75
   4 -11   1    1.10    1.57
   4  11   2   -2.18    2.25
  -4  11   2   -0.19    1.62
   4 -11   2   -1.24    1.21
   4  11   2    1.41    1.26
   4  11   3    0.06    0.83
   4  11   3   -0.84    1.05
  -4  11   3    1.83    1.74
   4  11   4    4.50    2.86
  -4  11   4    2.43    2.12
   4  11   4    2.86    2.33
   4 -11   4    2.39    2.38
   4  11   5   -2.33    1.87
  -4  11   5    0.98    2.15
   4 -11   5    0.67    1.83
   4  11   5   -1.45    1.36
   4  11   6    6.21    2.56
   4  11   6    6.24    3.22
  -4  11   6    4.13    2.99
   4 -11   6    0.83    1.27
  -4  11   7    1.57    1.56
   4  11   7    2.72    1.59
   4  11   8    2.90    2.53
  -4  11   8    3.61    2.42
   4  11   8    3.91    2.83
   4  11   9    1.44    2.39
  -4  11   9   -0.44    1.37
   4  11   9    0.27    1.14
   5   0 -30   -3.88    3.23
   5   0 -29    1.37    2.88
   5   0 -28   -0.01    1.04
   5   0 -27    0.85    1.90
   5   0 -26    1.90    2.56
   5   0 -25    0.39    1.36
   5   0 -24   -0.57    1.83
   5   0 -23    0.54    1.78
   5   0 -22    1.93    1.67
   5   0 -21   -1.88    1.60
   5   0 -20    0.51    1.83
   5   0 -19   -0.08    0.67
   5   0 -18    0.77    1.18
   5   0 -17    0.31    1.36
   5   0 -16    0.44    1.28
   5   0 -15   -0.70    0.83
   5   0 -14    0.81    1.04
   5   0 -14   -0.19    0.53
   5   0 -13    0.09    0.33
   5   0 -13   -0.30    0.68
   5   0 -12    0.20    0.58
   5   0 -12    0.02    0.54
   5   0 -11    0.33    0.47
   5   0 -11    0.27    0.95
   5   0 -10    0.07    0.56
   5   0 -10   -0.98    1.30
   5   0  -9    0.23    0.37
   5   0  -9   -0.23    0.39
   5   0  -8   -0.25    0.39
   5   0  -8    0.01    0.71
   5   0  -7    0.20    0.42
   5   0  -7   -0.20    0.76
   5   0  -7   -0.37    0.59
   5   0  -6   -0.11    0.48
   5   0  -6    0.30    1.06
   5   0  -6    0.23    0.57
   5   0  -5   -0.23    0.61
   5   0  -5    0.19    0.40
   5   0  -5    0.08    0.53
   5   0  -4   -0.40    0.71
   5   0  -4    0.21    0.73
   5   0  -4    0.52    0.72
   5   0  -3   -0.10    0.32
   5   0  -3   -0.05    0.32
   5   0  -3   -0.60    0.90
   5   0  -2   -0.18    0.48
   5   0  -2    0.43    0.39
   5   0  -2    0.04    0.54
   5   0  -1    0.53    0.78
   5   0  -1    0.85    0.62
   5   0  -1   -0.04    0.26
   5   0   0   -0.05    0.68
   5   0   0   -0.28    0.32
   5   0   1   -0.26    0.64
   5   0   1    0.07    0.54
   5   0   2    0.21    0.66
   5   0   2   -0.12    0.55
   5   0   3    0.59    0.72
   5   0   3   -0.23    0.70
   5   0   4    0.41    0.75
   5   0   4    0.26    0.49
   5   0   5    0.20    0.33
   5   0   5    0.06    0.27
   5   0   6    0.33    0.84
   5   0   6   -0.32    0.52
   5   0   7   -0.06    0.29
   5   0   7   -0.04    0.20
   5   0   8   -0.29    0.58
   5   0   8   -0.06    0.24
   5   0   9    1.07    1.07
   5   0   9    0.14    0.36
   5   0  10    0.61    1.36
   5   0  10    0.18    0.33
   5   0  11   -0.02    0.91
   5   0  11   -0.12    0.26
   5   0  12    0.04    0.26
   5   0  12   -0.37    0.64
   5   0  13   -0.35    0.28
   5   0  13    0.27    0.61
   5   0  14    0.43    1.07
   5   0  15    0.28    0.73
   5   0  16   -0.10    0.71
   5   0  17   -0.91    0.82
   5   0  18    1.97    0.52
   5   0  19   -0.11    1.02
   5   0  20    1.04    1.85
   5   0  21    0.35    1.64
   5   0  22    0.86    1.22
   5  -1 -30   -0.50    1.76
   5  -1 -29    7.52    4.24
   5  -1 -28    9.98    3.13
   5  -1 -27   12.00    4.09
   5   1 -26   25.07    5.24
   5  -1 -26   27.90    5.28
   5   1 -25   28.18    4.94
   5  -1 -25   19.34    4.58
   5  -1 -24    1.00    0.98
   5   1 -24    1.95    1.91
   5   1 -23   -1.00    0.92
   5  -1 -23    1.81    1.71
   5   1 -22    6.93    2.48
   5  -1 -22   10.19    3.00
   5   1 -21   18.70    4.14
   5  -1 -21   19.88    4.19
   5  -1 -20   -0.26    0.90
   5   1 -20   -0.86    0.89
   5   1 -19   24.94    4.07
   5  -1 -19   23.11    4.44
   5  -1 -18   26.34    4.29
   5   1 -18   31.52    4.66
   5   1 -17   24.50    4.16
   5  -1 -17   25.65    4.23
   5  -1 -16  212.60    9.89
   5  -1 -16  244.43   12.81
   5   1 -16  229.30   11.69
   5   1 -15  180.91   10.25
   5  -1 -15  167.81    8.69
   5  -1 -15  191.75   11.22
   5   1 -14  119.25    8.04
   5  -1 -14  126.59    8.79
   5  -1 -14  126.02    7.39
   5  -1 -13   60.98    5.14
   5  -1 -13   52.78    5.70
   5   1 -13   65.61    5.84
   5   1 -13   57.85    5.37
   5   1 -12   76.79    5.91
   5   1 -12   71.58    5.88
   5  -1 -12   77.51    6.57
   5   1 -12   62.33    3.29
   5  -1 -12   67.74    5.18
   5  -1 -11  152.43    9.03
   5  -1 -11  159.21    7.89
   5   1 -11  143.28    8.05
   5   1 -11  136.69    4.92
   5   1 -11  162.31    8.46
   5   1 -10  323.65   11.64
   5  -1 -10  299.27   12.46
   5  -1 -10  320.40   10.98
   5   1 -10  304.21   11.30
   5   1 -10  314.58    7.78
   5   1  -9   23.40    2.14
   5   1  -9   24.55    3.02
   5  -1  -9   18.57    2.90
   5   1  -9   24.97    3.12
   5  -1  -9   22.06    2.91
   5   1  -8   14.49    1.79
   5   1  -8   17.06    2.47
   5  -1  -8   15.22    2.66
   5   1  -8   19.12    2.76
   5  -1  -8   21.70    2.77
   5   1  -7   15.48    2.47
   5  -1  -7   16.43    2.91
   5   1  -7   15.10    1.77
   5   1  -7   16.17    2.64
   5  -1  -7   14.45    2.40
   5   1  -6  736.54   15.14
   5   1  -6  724.29   13.07
   5  -1  -6  724.24   15.81
   5   1  -6  731.68   16.56
   5  -1  -6  699.86   17.12
   5  -1  -5  270.87    9.61
   5   1  -5  259.02    9.73
   5   1  -5  280.73    8.04
   5  -1  -5  267.92   10.33
   5   1  -5  285.47    9.19
   5  -1  -4 1195.05   19.96
   5   1  -4 1183.87   17.17
   5   1  -4 1172.52   18.36
   5  -1  -4 1163.19   21.10
   5   1  -4 1201.90   20.45
   5   1  -3  201.13    7.47
   5  -1  -3  194.13    8.04
   5   1  -3  186.08    6.94
   5  -1  -3  186.59    8.27
   5   1  -3  207.54    8.45
   5  -1  -2   26.37    2.90
   5  -1  -2   30.42    3.38
   5   1  -2   22.88    2.43
   5   1  -2   24.58    2.96
   5   1  -2   28.77    2.84
   5   1  -1   34.81    3.11
   5   1  -1   35.77    3.38
   5  -1  -1   36.34    3.54
   5  -1   0   24.57    2.88
   5  -1   0   28.02    3.16
   5   1   0   20.48    2.45
   5   1   0   28.98    3.04
   5   1   1   32.42    3.13
   5  -1   1   32.12    3.34
   5   1   1   33.85    3.21
   5  -1   2   25.81    3.08
   5   1   2   28.46    3.14
   5   1   2   31.52    3.19
   5   1   3  185.81    7.98
   5  -1   3  201.09    8.46
   5   1   3  201.32    7.80
   5   1   4 1221.12   20.76
   5  -1   4 1176.18   20.74
   5   1   4 1172.73   19.05
   5   1   5  284.66   10.35
   5  -1   5  291.32   10.39
   5   1   5  304.02    9.52
   5   1   6  746.99   17.01
   5  -1   6  702.08   16.32
   5   1   6  734.22   14.62
   5   1   7   11.21    2.32
   5  -1   7   12.78    2.14
   5   1   7   14.82    2.09
   5   1   8   16.47    2.84
   5  -1   8   13.64    2.41
   5   1   8   14.29    1.99
   5   1   9   19.63    2.39
   5   1   9   23.93    3.32
   5  -1   9   16.96    2.66
   5   1  10  320.45   12.38
   5  -1  10  309.02   11.63
   5   1  10  299.15    9.08
   5   1  11  161.52    6.63
   5   1  11  154.57    8.73
   5   1  12   72.85    4.40
   5  -1  12   75.81    6.09
   5   1  12   73.21    6.11
   5   1  13   56.89    5.56
   5  -1  13   47.32    4.92
   5   1  13   60.08    3.96
   5   1  14  126.26    8.58
   5   1  14  124.36    5.68
   5  -1  14  120.54    7.95
   5   1  15  178.53    6.84
   5   1  15  194.83   10.83
   5  -1  15  200.17   10.42
   5  -1  16  216.77   11.12
   5   1  16  230.83   12.01
   5   1  17   23.96    4.00
   5  -1  17   25.32    3.83
   5   1  18   24.05    4.27
   5  -1  18   26.10    4.08
   5   1  19   27.86    4.68
   5  -1  19   21.75    3.83
   5  -1  20   -0.91    1.40
   5   1  20    1.28    1.75
   5  -1  21   18.69    3.56
   5   1  21   17.28    3.41
   5   1  22   14.32    3.93
   5   1  23    1.69    1.99
   5  -2 -30    1.27    1.35
   5  -2 -29    2.43    2.23
   5  -2 -28   -0.85    1.85
   5  -2 -27   -0.03    2.35
   5  -2 -26    3.82    2.20
   5  -2 -25   11.54    3.41
   5  -2 -24    3.90    1.86
   5  -2 -23   22.14    4.84
   5  -2 -22    4.46    2.44
   5  -2 -21    4.95    2.05
   5   2 -21    3.19    1.87
   5   2 -20    8.59    2.61
   5  -2 -20    5.28    2.36
   5  -2 -19   73.71    7.57
   5   2 -19   67.78    7.16
   5  -2 -18   19.49    3.75
   5  -2 -18   18.82    3.76
   5   2 -18   21.46    3.72
   5   2 -17   20.87    3.41
   5  -2 -17   17.83    3.11
   5   2 -17   19.92    3.52
   5  -2 -17   21.67    4.42
   5  -2 -16   51.94    6.03
   5   2 -16   43.36    4.96
   5  -2 -16   38.92    4.93
   5   2 -16   45.24    4.93
   5  -2 -15  324.35   13.41
   5  -2 -15  343.67   15.40
   5   2 -15  308.75   12.87
   5   2 -15  336.54   13.27
   5   2 -14   62.39    5.67
   5  -2 -14   74.45    7.11
   5   2 -14   69.25    5.91
   5  -2 -14   59.45    5.57
   5  -2 -13  138.64    8.59
   5  -2 -13  142.55    9.44
   5   2 -13  157.44    8.74
   5   2 -13  137.18    8.02
   5  -2 -12   14.74    2.96
   5  -2 -12   10.50    2.20
   5   2 -12   15.64    2.54
   5   2 -12   12.77    2.41
   5  -2 -11   45.97    5.13
   5  -2 -11   42.40    4.63
   5   2 -11   52.26    4.98
   5   2 -11   50.29    4.32
   5   2 -10    1.28    0.86
   5   2 -10    1.21    0.49
   5   2 -10    0.50    0.49
   5  -2 -10    0.22    1.31
   5  -2 -10    2.52    1.55
   5   2  -9    3.04    0.83
   5  -2  -9    5.25    1.43
   5   2  -9    7.59    1.63
   5   2  -9    4.41    0.73
   5  -2  -9    4.18    1.63
   5   2  -8   58.21    4.13
   5  -2  -8   48.28    4.86
   5   2  -8   57.65    3.19
   5  -2  -8   48.03    4.73
   5   2  -8   47.31    4.55
   5   2  -7  352.01    8.41
   5   2  -7  326.74   11.77
   5   2  -7  351.53    9.73
   5  -2  -7  311.01   11.88
   5  -2  -7  326.90   12.43
   5  -2  -6  215.50    9.99
   5   2  -6  224.23    7.12
   5   2  -6  229.26    9.90
   5  -2  -6  234.46   10.08
   5   2  -6  244.83    7.93
   5   2  -5   51.57    3.68
   5  -2  -5   52.31    4.79
   5   2  -5   61.86    3.88
   5  -2  -5   55.77    4.87
   5   2  -5   53.96    4.70
   5   2  -4   51.35    3.61
   5   2  -4   54.85    3.59
   5  -2  -4   50.31    4.54
   5   2  -4   49.20    4.45
   5  -2  -4   50.46    4.64
   5  -2  -3  167.48    8.25
   5   2  -3  187.29    7.18
   5   2  -3  176.24    6.50
   5  -2  -3  171.44    8.45
   5   2  -2   87.45    5.85
   5  -2  -2   72.12    5.40
   5   2  -2   87.62    5.08
   5  -2  -2   83.75    5.82
   5   2  -2   86.09    4.54
   5   2  -1   59.43    4.71
   5  -2  -1   54.46    4.63
   5   2  -1   51.02    3.99
   5  -2  -1   55.21    4.68
   5   2   0  258.05    9.91
   5  -2   0  252.02    9.92
   5   2   0  252.64    9.13
   5  -2   0  273.60   10.35
   5   2   1   49.76    4.27
   5  -2   1   51.55    4.49
   5   2   1   47.77    4.07
   5  -2   1   49.10    4.33
   5  -2   2   88.84    5.87
   5  -2   2   91.85    5.94
   5   2   2   83.54    5.57
   5   2   2   81.90    5.56
   5   2   3  177.26    8.12
   5  -2   3  182.10    8.47
   5   2   3  177.19    8.30
   5   2   4   58.53    4.62
   5  -2   4   47.64    4.53
   5   2   4   47.30    4.35
   5   2   5   56.23    4.57
   5  -2   5   55.40    4.83
   5   2   5   57.98    4.92
   5   2   6  218.41    9.06
   5  -2   6  226.03    9.82
   5   2   6  227.60   10.08
   5   2   7  349.39   11.36
   5  -2   7  342.27   12.12
   5   2   7  334.36   12.37
   5  -2   8   58.67    5.09
   5   2   8   52.68    5.00
   5   2   8   59.56    4.69
   5   2   9    7.22    1.76
   5   2   9    4.45    1.57
   5  -2   9    4.59    1.58
   5   2  10    2.15    1.00
   5   2  10    0.60    1.09
   5  -2  10    1.06    0.64
   5   2  11   50.75    4.34
   5   2  11   55.99    5.47
   5  -2  11   49.69    4.93
   5  -2  12   14.28    2.57
   5   2  12   14.14    2.35
   5   2  12   12.65    2.58
   5   2  13  150.26    7.78
   5   2  13  143.95    9.30
   5  -2  13  168.18    9.28
   5   2  14   64.51    5.09
   5   2  14   65.36    6.50
   5  -2  14   55.95    5.55
   5   2  15  324.04   11.44
   5   2  15  328.47   14.63
   5  -2  15  333.54   13.66
   5  -2  16   48.31    5.36
   5   2  16   49.15    4.50
   5   2  16   58.05    6.22
   5   2  17   20.51    3.65
   5  -2  17   16.81    3.15
   5   2  18   16.88    3.06
   5  -2  18   15.20    3.13
   5   2  19   88.98    8.26
   5  -2  19   75.21    7.12
   5   2  20    5.38    2.59
   5   2  21    6.09    2.27
   5   2  22    5.33    2.39
   5   2  23   23.66    4.77
   5   2  24    2.48    1.28
   5  -3 -29    2.92    2.58
   5  -3 -28    3.09    1.56
   5  -3 -27   22.33    5.28
   5  -3 -26   10.25    3.23
   5  -3 -25   42.77    6.48
   5  -3 -24    0.61    2.06
   5  -3 -23    2.02    2.15
   5  -3 -22   46.21    6.59
   5  -3 -21   81.27    8.45
   5  -3 -20   26.34    4.61
   5  -3 -19   63.65    6.64
   5  -3 -19   75.56    7.91
   5  -3 -18   10.85    3.02
   5  -3 -18    7.63    2.74
   5  -3 -17   14.74    2.83
   5  -3 -17   11.92    2.59
   5   3 -17   11.44    2.59
   5  -3 -16   93.68    7.97
   5  -3 -16   84.61    8.08
   5   3 -16   83.21    7.00
   5  -3 -15  268.90   13.23
   5   3 -15  248.97   11.09
   5  -3 -15  286.84   14.55
   5   3 -15  259.88   12.12
   5   3 -14   53.13    4.91
   5   3 -14   77.26    6.65
   5  -3 -14   64.75    6.32
   5  -3 -14   64.17    6.67
   5   3 -13    7.31    2.26
   5   3 -13   12.26    2.37
   5  -3 -13   11.94    2.87
   5  -3 -13    9.98    2.53
   5  -3 -12   43.50    5.51
   5   3 -12   44.64    4.01
   5  -3 -12   42.49    4.97
   5   3 -12   47.15    5.01
  -5   3 -11   65.79    4.37
   5   3 -11   71.38    6.07
   5  -3 -11   61.95    6.29
   5   3 -11   69.65    4.67
   5  -3 -11   65.86    6.26
   5  -3 -10  117.53    8.19
   5  -3 -10  111.32    8.23
  -5   3 -10  122.29    6.14
   5   3 -10  119.57    5.90
   5   3 -10  100.01    3.91
   5   3 -10  104.05    7.64
   5   3  -9   32.62    2.94
   5   3  -9   30.71    2.38
   5  -3  -9   35.87    4.38
   5   3  -9   36.45    4.26
   5  -3  -9   30.30    4.27
   5  -3  -8    9.60    2.38
   5   3  -8    7.72    2.11
   5   3  -8   11.58    1.53
   5  -3  -8    9.62    2.57
   5   3  -8   10.50    1.63
   5  -3  -7   81.93    6.44
   5  -3  -7  100.16    7.23
   5   3  -7   84.75    4.18
   5   3  -7   97.05    6.95
   5   3  -7   89.10    4.59
   5  -3  -6  309.59   12.47
   5   3  -6  292.89    8.89
   5  -3  -6  327.81   12.90
   5   3  -6  297.61    7.64
   5   3  -6  308.30   12.06
   5   3  -5  321.42   12.23
   5  -3  -5  311.07   12.46
   5   3  -5  328.08    7.76
   5  -3  -5  340.37   13.06
   5   3  -4  170.38    8.92
   5   3  -4  160.75    7.14
   5  -3  -4  159.18    8.75
   5   3  -4  169.62    5.68
   5  -3  -4  153.98    8.76
   5   3  -3  114.73    6.21
   5   3  -3  112.99    4.84
   5  -3  -3  112.12    7.21
   5   3  -3  112.90    7.32
   5  -3  -3  123.81    7.83
   5  -3  -2  294.77   11.96
   5   3  -2  291.52   10.08
   5  -3  -2  275.63   11.21
   5   3  -2  276.75   11.44
   5  -3  -1  958.75   20.45
   5   3  -1  890.77   20.25
   5   3  -1  924.49   18.40
   5  -3  -1  886.16   20.59
   5  -3   0  623.34   17.25
   5   3   0  603.70   16.83
   5  -3   0  613.20   16.49
   5   3   0  594.63   15.15
   5   3   1  875.60   20.26
   5  -3   1  927.51   20.06
   5   3   1  886.05   18.98
   5  -3   1  919.72   20.83
   5  -3   2  305.29   11.93
   5   3   2  299.89   11.77
   5   3   2  292.12   11.06
   5  -3   2  272.28   10.79
   5   3   3  119.96    7.48
   5   3   3  106.10    6.84
   5  -3   3  120.14    7.24
   5   3   4  162.85    8.67
   5   3   4  160.52    8.61
   5  -3   4  160.83    8.69
   5  -3   4  167.13    8.44
   5   3   5  316.13   12.24
   5  -3   5  309.42   12.08
   5   3   5  324.37   12.19
   5  -3   6  315.74   12.09
   5   3   6  321.49   12.14
   5   3   6  296.95   12.18
   5   3   7   89.90    6.51
   5  -3   7   89.54    6.54
   5   3   7   91.15    6.77
   5   3   8   13.05    2.58
   5  -3   8   13.39    2.63
   5   3   8   11.03    2.85
   5   3   9   35.20    4.06
   5   3   9   29.56    4.11
   5  -3  10  118.32    7.64
   5   3  10  122.54    7.58
   5   3  10  123.51    8.44
   5   3  11   78.85    6.10
   5  -3  11   71.81    6.00
   5   3  11   68.00    6.39
   5   3  12   49.25    4.78
   5  -3  12   42.28    4.63
   5  -3  13   10.19    2.28
   5   3  13   10.37    3.02
   5   3  13   12.30    2.44
   5   3  14   61.42    5.65
   5  -3  14   68.27    6.10
   5   3  14   64.04    6.54
   5   3  15  310.63   12.75
   5  -3  15  271.66   12.45
   5   3  15  295.71   14.35
   5  -3  16   89.76    7.25
   5   3  16   85.74    7.89
   5   3  16   69.29    6.29
   5   3  17   14.51    3.57
   5  -3  17   10.52    2.49
   5   3  17   16.06    2.97
   5   3  18   13.36    3.30
   5  -3  18    9.61    2.55
   5   3  19   63.88    7.11
   5   3  20   20.79    4.18
   5   3  21   68.54    7.73
   5   3  22   53.97    6.81
   5   3  23    1.74    1.57
   5   3  24    4.73    1.47
   5   3  25   52.82    7.81
   5  -4 -28   -1.27    1.24
   5  -4 -27   -0.76    2.02
   5  -4 -26    1.21    2.42
   5  -4 -25    3.77    2.05
   5  -4 -24   10.03    3.43
   5  -4 -23    6.58    2.64
   5  -4 -22    9.51    3.12
   5  -4 -21   15.93    3.89
   5  -4 -20   25.12    4.73
   5  -4 -20   30.09    5.12
   5  -4 -19    5.97    2.05
   5  -4 -19    4.45    1.92
   5  -4 -18    5.63    2.39
  -5  -4 -18    4.93    1.96
   5  -4 -18    5.79    1.89
   5  -4 -17  119.20    9.62
   5  -4 -17  109.34    9.47
  -5  -4 -17  105.08    9.56
  -5  -4 -16   38.33    5.58
   5  -4 -16   54.50    6.38
   5   4 -16   42.47    5.20
   5  -4 -16   34.95    5.29
   5   4 -15   13.00    3.13
   5  -4 -15   18.98    4.22
   5  -4 -15   14.48    3.12
  -5  -4 -15   12.79    3.28
   5   4 -14   12.05    3.04
   5  -4 -14   10.63    2.86
   5  -4 -14   10.25    3.49
  -5  -4 -14    7.50    2.38
   5  -4 -13   40.72    5.45
   5  -4 -13   44.54    5.79
   5   4 -13   52.14    5.73
  -5  -4 -13   47.78    5.79
   5  -4 -12   57.56    6.28
   5  -4 -12   65.05    6.76
  -5  -4 -12   73.58    7.18
   5   4 -12   72.60    6.49
   5   4 -11   17.57    3.34
  -5   4 -11   23.53    3.07
   5  -4 -11   27.89    4.30
   5  -4 -11   17.43    3.43
  -5   4 -10    2.83    1.53
   5   4 -10    7.31    2.17
   5  -4 -10    8.49    2.38
   5  -4 -10    8.13    2.71
   5   4  -9   80.20    6.76
   5  -4  -9   70.40    6.75
   5   4  -9   74.54    4.49
  -5   4  -9   88.87    6.44
   5  -4  -9   64.96    6.33
   5   4  -8   20.58    3.54
   5   4  -8   13.77    2.03
   5  -4  -8   20.04    3.45
   5  -4  -8   18.86    3.67
  -5   4  -8   19.32    3.04
   5   4  -7   41.05    4.82
   5   4  -7   35.72    3.39
  -5   4  -7   33.62    3.91
   5  -4  -7   38.50    4.66
   5  -4  -7   41.83    5.00
   5   4  -6  136.19    8.80
   5  -4  -6  127.13    8.54
   5  -4  -6  124.70    8.65
   5   4  -6  122.73    6.50
   5   4  -5   39.84    1.92
   5  -4  -5   41.95    4.85
   5   4  -5   45.95    4.19
   5  -4  -5   52.09    5.44
   5   4  -4   47.00    2.40
   5   4  -4   56.64    4.62
   5  -4  -4   51.17    5.32
   5  -4  -4   43.37    4.83
   5   4  -3    6.95    1.65
   5  -4  -3    3.35    0.72
   5   4  -3    4.90    0.83
   5   4  -3    6.65    2.02
   5  -4  -3    4.56    1.75
   5   4  -2   14.12    2.94
   5  -4  -2   12.23    2.59
   5  -4  -2   19.29    3.09
   5   4  -2   19.17    2.91
   5  -4  -1    3.82    2.01
   5   4  -1    5.76    1.99
   5   4  -1    5.66    1.63
   5  -4  -1    9.01    2.00
   5  -4   0   67.76    5.67
   5   4   0   74.78    6.38
   5   4   0   76.20    5.87
   5  -4   0   70.60    6.18
   5  -4   1    4.33    1.22
   5   4   1    5.74    2.11
   5   4   1    4.69    1.48
   5  -4   1    4.34    1.51
   5   4   2   17.42    3.16
   5  -4   2   18.80    3.44
   5  -4   2   21.23    3.17
   5   4   2   15.90    3.01
   5  -4   3    8.71    2.29
   5   4   3    3.02    1.43
   5   4   3    6.49    2.00
   5  -4   3    5.47    1.62
   5   4   4   53.74    5.51
   5   4   4   65.89    5.84
   5  -4   4   63.77    5.44
   5  -4   4   56.77    5.48
   5   4   5   49.22    5.23
   5  -4   5   49.55    4.94
   5  -4   5   49.59    5.14
   5   4   5   52.97    5.48
   5  -4   6  117.64    8.00
   5   4   6  122.54    8.27
   5   4   6  144.55    9.04
   5  -4   6  122.65    7.89
   5  -4   7   40.23    4.75
   5   4   7   32.61    4.25
   5   4   7   36.59    4.75
   5  -4   8   14.74    3.02
   5   4   8   19.25    3.35
   5   4   8   16.08    3.45
   5  -4   9   68.86    6.36
   5   4   9   78.69    6.76
   5   4   9   67.07    6.52
   5   4  10    6.79    2.69
   5   4  10    4.13    1.46
   5  -4  10    5.46    2.01
   5   4  11   20.51    3.45
   5  -4  11   23.77    3.62
   5   4  11   26.99    4.26
   5  -4  12   73.10    6.54
   5   4  12   67.04    6.43
   5   4  12   80.07    7.48
   5  -4  13   45.81    5.29
   5   4  13   43.37    5.17
   5   4  13   50.12    6.11
   5   4  14    6.03    2.24
   5  -4  14    6.21    2.35
   5   4  14    9.11    2.59
   5   4  15   13.73    2.97
   5  -4  15   12.17    2.96
   5   4  15   14.06    3.08
   5  -4  16   45.51    5.49
   5   4  16   41.35    5.14
   5   4  16   44.51    5.70
   5  -4  17  113.19    8.73
   5   4  17  121.34    9.03
   5   4  17  126.96    9.99
   5   4  18    3.31    1.54
   5   4  18    3.17    1.19
   5   4  19    5.90    2.72
   5   4  20   25.96    4.51
   5   4  21   15.51    3.83
   5   4  22    2.89    2.02
   5   4  23   12.14    3.64
   5   4  24   11.51    3.07
   5   4  25    9.36    3.42
   5   4  26    0.42    1.80
   5  -5 -27    4.59    2.37
   5  -5 -26    6.55    2.86
   5  -5 -25    8.40    2.22
   5  -5 -24   19.97    4.66
   5  -5 -23    3.18    2.58
   5  -5 -22    0.83    2.34
   5  -5 -21   17.87    3.58
  -5  -5 -20   32.62    5.20
   5  -5 -20   41.71    6.48
   5  -5 -20   27.70    5.14
  -5  -5 -19    4.84    2.23
   5  -5 -19    2.41    1.41
   5  -5 -19    2.25    2.15
   5  -5 -18    0.43    1.19
   5  -5 -18    2.14    0.93
   5  -5 -17   25.94    4.84
  -5  -5 -17   32.93    5.35
   5  -5 -17   29.45    5.18
   5   5 -16    4.42    2.29
  -5  -5 -16    0.99    1.74
   5  -5 -16    0.52    2.02
   5  -5 -16    1.86    1.31
  -5  -5 -15   68.15    7.46
   5  -5 -15   91.94    8.54
   5  -5 -15   73.26    7.76
   5   5 -15   75.02    7.57
   5  -5 -14   26.20    4.24
   5  -5 -14   18.73    3.89
   5   5 -14   27.73    4.60
   5  -5 -13    1.14    1.30
   5   5 -13    0.25    0.88
   5  -5 -13    2.05    1.21
  -5  -5 -13    1.23    0.75
  -5  -5 -12   13.59    3.51
   5  -5 -12   18.43    4.19
   5  -5 -12   15.94    3.52
   5   5 -12   19.79    3.69
  -5   5 -11   83.55    6.74
  -5  -5 -11   90.56    7.77
   5  -5 -11   98.79    8.50
   5  -5 -11   82.64    7.95
   5   5 -11   99.75    8.27
   5   5 -10   15.91    3.38
   5  -5 -10   19.96    3.75
  -5   5 -10   17.22    3.29
  -5  -5 -10   18.22    3.68
   5  -5 -10   27.05    4.92
   5   5  -9   57.81    6.12
  -5   5  -9   52.17    5.58
   5  -5  -9   65.21    6.74
   5  -5  -9   53.72    6.36
   5   5  -8   10.99    3.06
  -5   5  -8   19.10    3.38
   5   5  -8   11.21    2.09
   5  -5  -8   13.54    3.38
   5  -5  -8   13.79    3.37
   5   5  -7   15.82    3.27
   5  -5  -7   11.68    2.66
   5  -5  -7   15.73    3.60
  -5   5  -7   10.94    2.41
   5   5  -7   11.80    2.23
   5   5  -6  167.69   10.27
  -5   5  -6  175.13   10.09
   5  -5  -6  171.15   10.30
   5  -5  -6  178.18   11.05
   5   5  -6  150.49    8.15
  -5   5  -5  106.70    7.73
   5   5  -5  110.29    8.40
   5  -5  -5   90.85    7.82
   5  -5  -5  110.16    8.12
   5   5  -5   99.89    6.76
   5  -5  -4    8.11    2.28
   5   5  -4    6.64    1.92
   5   5  -4    4.36    1.70
  -5   5  -4    4.06    1.81
   5  -5  -4    6.09    1.99
   5   5  -3   28.49    3.79
   5  -5  -3   24.63    3.81
   5   5  -3   30.43    4.50
  -5   5  -3   23.49    3.75
   5  -5  -3   16.39    3.40
   5  -5  -2   22.97    3.51
   5   5  -2   21.62    3.45
   5  -5  -2   21.62    3.50
   5   5  -2   18.07    2.96
   5   5  -1   42.92    5.07
   5  -5  -1   36.22    4.55
   5  -5  -1   43.70    5.22
   5   5  -1   40.35    4.71
   5   5   0  107.23    7.54
   5   5   0  119.55    8.71
   5  -5   0  116.09    8.02
   5  -5   0  111.00    8.43
   5   5   1   51.56    5.64
   5   5   1   41.81    4.82
   5  -5   1   39.18    4.61
   5  -5   1   44.83    5.21
   5   5   2   18.84    3.63
   5   5   2   21.14    3.46
   5  -5   2   23.13    3.90
   5  -5   2   15.69    2.97
   5   5   3   28.49    4.20
   5   5   3   22.77    3.60
   5  -5   3   32.77    4.07
   5  -5   3   24.93    3.86
   5  -5   4    7.53    2.25
   5  -5   4    7.51    2.08
   5   5   4    4.56    0.73
   5   5   4    5.80    2.08
   5   5   5   88.52    7.62
   5   5   5  101.04    7.90
   5  -5   5  102.14    8.10
   5  -5   5   93.31    7.01
   5   5   6  165.10   10.36
   5  -5   6  167.13    9.51
   5  -5   6  165.53   10.28
   5   5   6  149.93    9.83
   5   5   7   21.29    4.04
   5  -5   7   14.08    3.11
   5   5   7   13.81    3.11
   5  -5   7   17.15    3.10
   5  -5   8    6.98    2.35
   5   5   8   13.12    3.02
   5   5   8   12.01    2.72
   5  -5   8   13.03    2.67
   5  -5   9   60.82    5.86
   5   5   9   58.08    6.14
   5  -5   9   61.29    6.18
   5   5   9   64.87    6.73
   5   5  10   17.22    3.84
   5   5  10   25.47    4.32
   5  -5  10   16.31    3.48
   5   5  11   98.64    8.27
   5   5  11  103.48    8.46
   5  -5  11   86.88    7.78
   5  -5  12   11.65    3.08
   5   5  12   20.82    4.12
   5   5  12   14.47    2.91
   5   5  13    1.05    1.57
   5  -5  13    0.17    0.75
   5   5  13    1.23    1.94
   5   5  14   32.13    4.72
   5   5  14   21.74    4.13
   5  -5  14   26.83    4.33
   5   5  15   71.99    7.80
   5   5  15   78.95    7.68
   5  -5  15   71.68    7.14
   5   5  16    2.70    1.50
   5  -5  16    0.60    0.72
   5   5  16    3.08    1.32
   5   5  17   24.82    4.52
   5   5  17   26.38    4.47
   5   5  18    2.25    1.67
   5   5  18    2.14    1.67
   5   5  19    3.63    1.56
   5   5  20   40.39    6.03
  -5   5  20   30.69    5.54
  -5   5  21   25.76    5.54
   5   5  21   19.03    4.05
   5   5  22    2.84    2.30
  -5   5  22   -0.89    2.58
   5   5  23    4.64    2.79
  -5   5  23    2.41    2.17
  -5   5  23    0.46    1.73
   5   5  24   14.25    4.30
   5   5  25    4.09    2.40
   5   5  26    4.16    1.65
   5   5  27    1.36    2.23
   5  -6 -25    3.30    2.61
   5  -6 -24    2.35    2.98
   5  -6 -23   -1.91    2.19
   5  -6 -22    1.36    1.19
   5  -6 -21    0.67    2.01
   5  -6 -20   -0.25    2.25
  -5  -6 -20   -0.23    1.11
   5  -6 -20    0.72    1.00
  -5  -6 -19    1.30    1.50
   5  -6 -19    2.66    2.82
   5  -6 -19   -0.20    1.06
   5  -6 -18    1.85    2.32
  -5  -6 -18    1.72    1.04
   5  -6 -18   -0.71    2.67
   5  -6 -17    5.78    2.51
   5  -6 -17    1.81    2.02
  -5  -6 -17    4.01    1.91
  -5  -6 -16    7.81    3.60
   5  -6 -16   10.86    2.88
   5  -6 -16    5.19    1.80
   5   6 -15   12.91    3.24
  -5  -6 -15   11.94    3.57
   5  -6 -15   15.23    3.71
   5  -6 -15    6.90    2.73
  -5  -6 -14    1.70    1.79
   5  -6 -14    2.82    1.77
   5  -6 -14    5.01    2.59
   5   6 -14    4.54    1.99
   5  -6 -13   10.24    2.76
   5   6 -13    8.98    3.33
  -5  -6 -13    7.77    3.06
   5  -6 -13    8.29    2.84
   5   6 -12   22.73    4.26
  -5  -6 -12   26.96    5.22
   5  -6 -12   29.27    5.05
   5  -6 -12   25.24    4.80
   5   6 -11    6.51    2.61
  -5   6 -11   -1.56    1.03
   5  -6 -11   -0.21    1.71
   5  -6 -11    3.51    1.79
   5   6 -10    0.64    1.80
  -5  -6 -10    2.54    2.03
  -5   6 -10    4.38    2.21
   5  -6 -10    8.88    3.06
   5  -6 -10    5.18    2.49
   5   6  -9   20.12    4.40
  -5   6  -9   18.78    3.72
   5  -6  -9   15.54    3.62
   5  -6  -9   22.46    4.18
   5   6  -8   19.45    3.82
   5  -6  -8   18.97    4.20
  -5   6  -8   22.63    3.97
   5  -6  -8   13.12    3.26
   5   6  -7   40.37    5.45
  -5   6  -7   38.18    5.28
   5  -6  -7   34.10    4.90
   5   6  -7   31.44    4.20
   5  -6  -7   31.35    5.06
   5   6  -6    1.44    0.72
   5   6  -6    4.73    1.78
  -5   6  -6    5.19    2.40
   5  -6  -6    2.70    2.06
   5  -6  -6    3.78    2.04
   5  -6  -5    5.91    2.85
   5   6  -5    3.33    1.66
   5   6  -5   11.15    2.31
  -5   6  -5    8.14    2.70
   5  -6  -5    4.64    2.44
   5   6  -4   41.81    4.91
   5  -6  -4   56.31    6.41
  -5   6  -4   49.55    5.82
   5  -6  -4   38.34    5.00
   5   6  -4   49.26    6.03
   5   6  -3   11.34    3.04
   5  -6  -3   12.76    2.89
   5   6  -3   13.74    3.01
   5  -6  -3   15.92    3.10
  -5   6  -3   10.42    3.04
   5   6  -2   31.56    4.26
   5  -6  -2   31.97    4.56
  -5   6  -2   32.33    4.77
   5  -6  -2   40.52    5.51
   5   6  -2   35.50    4.84
   5  -6  -1   25.19    3.76
   5   6  -1   32.81    4.33
   5   6  -1   27.72    4.56
  -5   6  -1   35.08    5.17
   5  -6  -1   24.90    4.50
   5   6   0   24.99    4.02
   5   6   0   21.69    3.67
  -5   6   0   32.53    4.99
   5  -6   0   23.68    3.74
   5  -6   0   24.07    4.35
   5   6   1   39.68    5.11
   5   6   1   28.56    4.24
  -5   6   1   28.04    4.45
   5  -6   1   31.89    4.47
   5  -6   1   28.04    4.45
   5   6   2   37.05    4.81
   5   6   2   39.77    5.27
   5  -6   2   35.45    5.16
  -5   6   2   32.94    5.12
   5  -6   2   36.95    4.78
   5  -6   3   10.62    2.57
   5   6   3   12.78    3.04
  -5   6   3   16.40    3.48
   5  -6   3   17.89    3.53
   5   6   3   11.12    2.75
  -5   6   4   49.12    6.04
   5   6   4   42.18    5.47
   5   6   4   57.88    6.66
   5  -6   4   53.16    5.60
   5  -6   4   37.53    5.27
   5  -6   5    5.20    1.67
   5   6   5    7.46    2.13
  -5   6   5    8.35    2.91
   5  -6   5    8.63    2.33
   5   6   5    6.11    1.90
   5   6   6    2.21    2.20
   5  -6   6    2.98    1.84
   5   6   6    6.98    2.23
   5  -6   6    2.93    1.07
   5   6   7   36.76    5.11
   5   6   7   42.73    5.67
   5  -6   7   36.39    4.82
   5  -6   7   39.48    5.53
   5  -6   8   19.56    3.60
   5   6   8   21.58    4.10
   5   6   8   11.56    3.38
   5  -6   8   23.65    4.23
   5   6   9   24.02    4.58
   5   6   9   17.82    3.83
   5  -6   9   15.61    3.22
   5  -6   9   22.53    4.15
   5   6  10    2.99    1.11
   5  -6  10    7.88    2.76
   5   6  10    3.50    2.45
   5  -6  10    2.96    1.53
   5  -6  11    4.29    2.04
  -5   6  11    4.30    1.21
   5  -6  11    6.53    2.66
   5   6  11    6.93    2.49
   5   6  11    8.55    2.38
   5   6  12   32.82    5.29
  -5   6  12   31.14    5.05
   5  -6  12   31.57    4.73
   5  -6  12   28.39    4.50
   5   6  12   21.65    4.68
   5  -6  13    9.71    2.81
   5   6  13    4.54    2.34
   5   6  13    7.92    2.71
  -5   6  13    1.86    1.18
   5  -6  13    8.94    2.46
   5  -6  14    5.74    2.66
   5   6  14    1.08    1.23
   5   6  14    2.34    1.97
  -5   6  14    0.57    0.91
   5   6  15   13.67    3.20
   5   6  15   10.97    3.34
  -5   6  15   13.05    3.51
   5   6  16    2.58    1.39
   5   6  16    5.68    2.74
  -5   6  16    9.99    3.88
   5   6  17    1.54    1.95
   5   6  17    0.99    1.18
   5   6  18    1.35    1.55
   5   6  18    3.89    1.33
  -5   6  18    5.15    2.59
   5   6  19   -0.10    1.16
  -5   6  19    2.62    1.26
   5   6  19    1.55    1.90
  -5   6  20    2.81    3.06
   5   6  20    0.68    2.40
   5   6  21    1.71    1.61
  -5   6  21    2.49    1.98
  -5   6  22    4.71    2.02
   5   6  22    2.50    1.67
  -5   6  23   -2.96    3.09
   5   6  23    1.20    2.01
   5   6  24    2.76    1.99
  -5   6  24    3.71    3.10
   5   6  25   -0.52    1.54
   5  -7 -24    2.86    1.33
   5  -7 -23    0.30    1.72
   5  -7 -22    4.91    2.64
   5  -7 -21   16.20    4.90
   5  -7 -20    4.05    2.45
   5  -7 -19   10.66    2.81
  -5  -7 -19   15.61    4.09
   5  -7 -19   18.23    4.76
  -5  -7 -18    6.82    2.84
   5  -7 -18   15.39    3.97
   5  -7 -18    6.44    3.07
  -5  -7 -17   18.50    4.61
   5  -7 -17   19.32    4.30
   5  -7 -17   18.68    4.84
   5  -7 -16   21.02    4.61
   5  -7 -16   28.21    5.23
  -5  -7 -16   17.03    3.94
   5  -7 -15    3.06    2.06
   5   7 -15    5.03    3.59
  -5  -7 -15    6.93    2.73
   5  -7 -15    8.99    3.51
   5   7 -14    5.30    1.82
  -5  -7 -14    5.07    2.53
   5  -7 -14    2.78    1.10
   5   7 -13    5.16    2.64
  -5  -7 -13   13.65    3.63
   5  -7 -13   13.41    3.74
   5  -7 -13   15.94    4.03
   5   7 -12   10.84    3.13
  -5  -7 -12    7.24    2.24
   5  -7 -12    6.67    2.77
   5  -7 -12    7.62    2.54
   5   7 -11   47.05    6.34
   5  -7 -11   63.09    7.46
  -5  -7 -11   44.99    6.30
   5  -7 -11   47.62    6.64
   5  -7 -10   62.59    7.42
   5   7 -10   75.82    8.17
  -5   7 -10   54.69    6.77
   5  -7 -10   73.76    8.10
   5   7  -9   35.03    5.68
  -5   7  -9   40.84    5.68
   5  -7  -9   45.06    5.68
   5  -7  -9   40.42    6.11
   5   7  -8   49.58    6.55
   5  -7  -8   41.37    5.76
  -5   7  -8   47.50    6.20
   5  -7  -8   50.11    6.67
   5   7  -7   52.51    6.64
  -5   7  -7   43.15    5.86
   5  -7  -7   45.67    5.85
   5  -7  -7   48.98    6.72
   5   7  -6   24.77    4.70
   5  -7  -6   22.86    4.28
  -5   7  -6   25.28    4.37
   5  -7  -6   22.34    4.49
   5   7  -6   23.08    4.01
   5   7  -5   48.16    5.98
   5   7  -5   47.43    6.47
   5  -7  -5   37.99    5.85
  -5   7  -5   52.05    6.37
   5  -7  -5   54.50    6.50
   5   7  -4   17.79    3.66
  -5   7  -4   15.23    3.70
   5  -7  -4   15.99    3.54
   5   7  -4   18.07    3.51
   5  -7  -4   19.76    4.18
   5   7  -3    6.97    2.65
  -5   7  -3    9.00    2.96
   5  -7  -3    2.49    1.86
   5  -7  -3    1.03    0.87
   5   7  -3    4.04    2.10
   5   7  -2   27.24    4.75
  -5   7  -2   23.11    4.29
   5  -7  -2   18.56    4.04
   5   7  -2   16.46    3.56
   5  -7  -2   19.06    4.26
   5   7  -1   58.31    6.97
   5   7  -1   55.67    6.22
  -5   7  -1   42.06    5.88
   5  -7  -1   52.05    5.48
   5  -7  -1   42.56    5.95
  -5   7   0    6.53    2.32
   5   7   0    5.55    2.40
   5  -7   0    6.77    1.71
   5  -7   0    4.10    2.89
   5   7   0    6.46    2.39
   5   7   1   52.27    6.47
   5   7   1   54.30    6.35
  -5   7   1   55.89    6.70
   5  -7   1   47.61    5.62
   5  -7   1   37.52    5.65
   5   7   2   26.39    4.42
   5   7   2   15.30    3.53
  -5   7   2   23.30    4.35
   5  -7   2   19.18    3.46
   5  -7   2   21.76    4.13
   5   7   3    4.79    1.51
   5   7   3    2.65    1.73
  -5   7   3    3.82    2.31
   5  -7   3    2.88    1.21
   5  -7   3    3.66    2.07
   5  -7   4   17.59    3.95
   5  -7   4   19.28    3.71
   5   7   4   20.90    4.41
  -5   7   4   21.28    4.25
   5   7   4   12.38    3.01
   5   7   5   41.96    5.68
   5   7   5   40.95    6.01
  -5   7   5   51.00    6.73
   5  -7   5   39.62    5.26
   5  -7   5   54.10    6.35
   5   7   6   13.55    3.27
  -5   7   6   18.74    4.00
   5  -7   6   11.48    3.03
   5   7   6   19.12    4.03
   5   7   7   33.44    5.10
   5   7   7   49.45    6.37
   5  -7   7   44.21    5.41
  -5   7   7   54.31    7.24
   5  -7   7   42.04    6.10
   5  -7   8   38.80    5.07
   5   7   8   41.64    6.10
  -5   7   8   50.44    6.53
   5   7   8   44.24    5.97
   5  -7   8   39.53    5.62
   5   7   9   42.78    5.84
   5   7   9   42.32    5.99
  -5   7   9   53.70    6.71
   5  -7   9   39.41    5.70
   5   7  10   64.52    7.65
   5   7  10   58.61    7.29
  -5   7  10   79.25    8.46
   5  -7  10   79.83    7.89
   5   7  11   57.85    6.91
   5   7  11   53.22    6.61
  -5   7  11   54.40    7.17
   5  -7  11   47.74    6.35
   5  -7  12    8.79    2.49
  -5   7  12   13.70    3.36
   5   7  12   14.55    3.72
   5   7  12   10.39    2.63
   5  -7  13   15.10    3.70
   5   7  13   13.75    3.66
   5   7  13   10.15    2.37
  -5   7  13    5.47    1.94
  -5   7  14    5.04    2.16
   5   7  14   12.78    3.68
   5   7  14    8.59    2.72
   5   7  15    2.73    1.04
   5   7  15    3.64    2.39
   5   7  16   19.70    4.24
   5   7  16   19.20    4.88
  -5   7  16   21.69    5.08
   5   7  17   20.35    4.54
   5   7  17   20.10    4.16
  -5   7  17   22.24    5.17
   5   7  18   12.90    3.29
  -5   7  18   10.59    3.68
   5   7  18   13.19    3.95
   5   7  19   17.23    4.21
  -5   7  19    5.27    2.06
   5   7  19   15.18    4.51
   5   7  20    6.13    3.05
  -5   7  20   13.95    3.65
  -5   7  21   18.51    4.70
   5   7  21   16.63    4.33
   5   7  22    3.63    2.37
  -5   7  22    9.32    4.04
  -5   7  23    0.56    2.59
   5   7  23    4.74    3.11
  -5   7  23    2.40    2.58
  -5   7  24   -1.70    2.35
   5   7  24    0.74    2.03
   5  -8 -21    1.35    2.27
   5  -8 -20   -3.06    3.06
   5  -8 -19    1.45    2.39
   5  -8 -19    0.96    1.41
   5  -8 -18    0.86    1.73
   5  -8 -18   -0.60    1.26
   5  -8 -17    1.45    2.42
   5  -8 -17    1.43    2.19
   5  -8 -16    1.36    1.87
   5  -8 -16    2.58    1.09
   5  -8 -15   14.30    3.81
   5  -8 -15   12.73    3.61
   5  -8 -14   -0.23    0.98
   5  -8 -14    0.08    1.24
   5   8 -13    3.09    2.03
   5  -8 -13   -0.21    1.85
   5  -8 -13   -0.63    0.96
   5  -8 -12    7.82    2.65
   5  -8 -12    4.06    2.28
   5   8 -12    5.88    2.61
   5  -8 -11   -0.37    1.18
   5   8 -11    0.25    1.26
   5  -8 -11    3.31    2.61
   5   8 -10    1.09    1.95
   5  -8 -10    5.78    3.23
   5  -8 -10    4.70    3.23
   5   8  -9    1.12    2.47
  -5   8  -9   -1.31    1.67
   5  -8  -9   -0.05    1.69
  -5   8  -8    7.07    2.56
   5   8  -8    6.26    2.84
   5  -8  -8    6.71    2.13
   5  -8  -8   10.00    2.97
   5   8  -7    8.41    3.01
  -5   8  -7    9.97    3.26
   5  -8  -7    5.38    1.75
   5  -8  -7    4.93    2.28
   5  -8  -6   15.29    3.45
   5   8  -6    6.19    2.29
  -5   8  -6   15.29    3.87
   5  -8  -6    9.45    3.27
  -5   8  -5    2.75    1.91
   5  -8  -5    3.39    2.47
   5   8  -5    3.84    2.74
   5   8  -5    1.66    0.98
   5  -8  -5    3.14    1.30
   5   8  -4    4.38    2.34
   5  -8  -4    5.23    2.26
   5   8  -4    4.50    1.75
   5  -8  -4   -0.11    1.81
  -5   8  -4    9.57    2.90
   5   8  -3    1.73    1.38
   5  -8  -3    7.35    2.62
  -5   8  -3    7.88    2.87
   5   8  -3    5.93    2.28
   5  -8  -3    4.82    2.06
   5   8  -2   10.24    2.51
  -5   8  -2    3.60    0.77
   5  -8  -2    6.39    2.45
   5  -8  -2    5.18    2.58
   5   8  -2    4.95    1.72
  -5   8  -1    1.41    1.33
   5  -8  -1   -0.61    1.54
   5  -8  -1    3.75    2.41
   5   8  -1   -1.34    0.89
   5   8  -1    1.19    1.58
   5   8   0   36.21    5.97
   5   8   0   31.95    4.99
  -5   8   0   27.55    5.16
   5  -8   0   32.78    5.20
   5  -8   0   34.21    5.50
   5   8   1    0.69    1.14
   5  -8   1    1.71    2.24
   5   8   1    3.15    2.44
   5  -8   1    1.73    2.42
  -5   8   1   -1.56    1.70
  -5   8   2    3.96    2.56
   5   8   2    6.21    2.18
   5   8   2    6.00    2.67
   5  -8   2    1.68    1.72
   5  -8   2    6.55    2.55
   5   8   3    1.92    1.22
   5   8   3    5.38    2.86
  -5   8   3    2.13    2.39
   5  -8   3    3.30    1.50
  -5   8   4    6.42    2.93
   5   8   4   11.24    3.59
   5  -8   4    2.57    2.23
   5   8   4    6.18    2.67
   5   8   5    6.16    2.24
  -5   8   5    3.16    1.99
   5  -8   5    2.88    2.28
   5   8   5    2.72    1.14
   5   8   6    9.47    3.43
   5   8   6    7.81    3.17
   5  -8   6   13.70    3.75
  -5   8   6   14.69    3.56
   5   8   7    6.61    2.29
  -5   8   7    8.62    2.66
   5   8   7    3.35    2.44
   5  -8   7    6.51    2.70
   5   8   8    5.85    2.40
  -5   8   8    4.64    2.52
   5   8   8    9.13    2.59
   5  -8   8    4.92    1.66
   5   8   9    2.34    1.78
  -5   8   9    1.13    0.98
   5   8   9    1.10    1.49
   5  -8   9    1.90    1.36
   5   8  10    1.10    1.14
   5   8  10    2.65    1.94
  -5   8  10    1.22    0.94
   5  -8  10   -1.41    2.01
   5   8  11    2.11    2.00
  -5   8  11    2.34    1.91
   5   8  11    3.12    1.16
   5  -8  11    1.16    1.07
   5   8  12    7.84    2.83
  -5   8  12    1.97    2.67
   5   8  12    9.54    3.24
   5  -8  12    1.99    2.62
   5   8  13    1.83    2.25
   5   8  13    0.40    0.94
  -5   8  13   -0.87    1.95
   5   8  14    1.71    1.42
  -5   8  14    3.63    2.79
   5   8  14    0.84    2.39
   5   8  15   11.23    3.94
   5   8  15    7.00    3.31
  -5   8  15    6.31    2.74
   5   8  16   -0.62    1.78
   5   8  16   -0.44    1.43
  -5   8  16    0.89    1.19
   5   8  17    0.87    1.78
   5   8  17   -0.16    1.24
  -5   8  17    3.75    3.22
   5   8  18   -0.22    1.50
   5   8  18    1.34    1.64
  -5   8  18    4.77    2.71
   5   8  19    0.23    2.13
  -5   8  19   -0.23    2.27
   5   8  19   -1.89    1.34
   5   8  20   -0.41    1.23
  -5   8  20    0.09    1.94
  -5   8  21   -0.75    2.36
   5   8  21    2.13    2.48
   5  -9 -18    3.63    1.62
   5  -9 -17    5.05    1.86
   5  -9 -17    8.35    3.17
   5  -9 -16    8.09    3.85
   5  -9 -16   10.29    3.68
   5  -9 -15    3.94    2.23
   5  -9 -15    8.26    2.56
   5  -9 -14   -0.53    2.18
   5  -9 -14    0.87    1.37
   5   9 -13    1.17    1.90
   5  -9 -13    4.51    2.65
   5  -9 -13    2.65    1.26
   5  -9 -12    5.23    2.39
   5   9 -12    9.47    3.46
   5  -9 -12    7.66    2.83
   5  -9 -11   16.21    4.76
   5   9 -11   14.08    3.64
   5  -9 -11   11.83    3.79
   5   9 -10   12.99    3.77
   5  -9 -10   14.01    3.58
   5  -9 -10   14.46    3.70
   5  -9  -9    8.38    3.95
   5   9  -9    6.92    2.94
  -5   9  -9    1.59    2.18
   5  -9  -9   11.03    3.94
   5   9  -8   12.38    3.56
  -5   9  -8    8.21    3.96
   5  -9  -8   12.79    3.32
   5  -9  -8    9.98    3.22
   5   9  -7   34.00    5.94
  -5   9  -7   19.94    4.30
   5  -9  -7   19.38    4.35
   5  -9  -7   29.17    5.31
   5  -9  -6    7.06    1.64
   5   9  -6    3.24    1.09
  -5   9  -6    6.11    2.79
   5  -9  -6    7.65    2.75
   5   9  -5   47.68    6.78
  -5   9  -5   36.36    6.49
   5  -9  -5   40.90    6.02
   5  -9  -5   44.34    6.73
   5  -9  -4    9.01    3.30
   5   9  -4   14.19    3.78
  -5   9  -4   14.85    3.32
   5  -9  -4   12.49    3.75
   5   9  -3    3.46    2.36
  -5   9  -3   -0.33    1.94
   5   9  -3   -0.63    1.51
   5  -9  -3    0.16    1.19
   5   9  -2   11.02    3.50
  -5   9  -2    7.64    2.81
   5  -9  -2   17.74    4.05
   5   9  -2   10.56    3.20
   5   9  -1   37.91    6.35
   5   9  -1   58.31    7.26
  -5   9  -1   53.01    7.34
   5  -9  -1   49.12    6.72
   5   9   0   14.57    3.46
   5   9   0   14.07    3.56
   5  -9   0    7.53    2.50
   5  -9   1   44.77    6.76
   5   9   1   48.40    6.85
   5   9   1   46.38    6.85
  -5   9   1   38.81    6.21
   5   9   2    9.20    3.14
  -5   9   2   11.80    3.61
   5  -9   2    9.53    3.18
   5   9   2    6.46    3.44
   5   9   3    0.60    2.37
  -5   9   3    0.57    1.49
   5  -9   3    4.17    2.91
   5   9   3   -1.00    1.44
   5   9   4   10.88    4.11
  -5   9   4   17.49    4.42
   5   9   4    9.05    2.69
   5  -9   4   10.08    3.33
   5   9   5   38.86    6.24
   5   9   5   32.82    5.89
  -5   9   5   38.28    6.24
   5  -9   5   37.04    5.76
   5   9   6    7.37    3.28
  -5   9   6    7.10    3.12
   5  -9   6    4.86    1.68
   5   9   6    4.10    1.90
   5   9   7   31.87    5.60
   5   9   7   25.77    4.96
  -5   9   7   26.27    5.21
   5  -9   7   22.26    4.79
   5   9   8   11.66    3.98
  -5   9   8    8.76    3.59
   5   9   8   11.48    3.52
   5  -9   8   13.12    3.77
   5   9   9   11.49    3.23
  -5   9   9   14.38    4.11
   5  -9   9   13.62    3.50
   5   9   9    7.22    2.78
   5   9  10   15.34    4.57
  -5   9  10   14.72    4.12
   5   9  10   11.86    3.20
   5  -9  10   12.58    3.69
  -5   9  11   19.48    4.44
   5   9  11   16.71    4.05
   5   9  11   17.80    4.29
  -5   9  12    8.80    3.22
   5   9  12    8.49    3.29
   5   9  12   14.53    3.88
  -5   9  13    1.57    2.76
   5   9  13    4.51    2.67
   5   9  13    3.57    1.72
   5   9  14   -1.21    2.68
   5   9  14    0.38    1.97
  -5   9  14    6.79    2.40
   5   9  15    0.65    2.45
   5   9  15    5.54    2.54
  -5   9  15    0.97    1.65
   5   9  16   13.70    4.18
   5   9  16    8.90    3.47
  -5   9  16    7.68    3.33
   5   9  17    5.68    2.77
   5   9  17    2.63    3.07
  -5   9  17    7.29    3.48
   5   9  18    4.94    1.63
   5   9  18    4.80    2.11
  -5   9  18    4.97    2.45
   5 -10 -14   -1.38    2.09
   5 -10 -14    1.98    1.44
   5 -10 -13    2.42    1.38
   5 -10 -13    0.87    2.73
   5  10 -12   -1.76    1.47
   5 -10 -12    1.44    2.24
   5  10 -11    0.99    1.01
   5 -10 -11   -0.85    0.96
   5 -10 -10    0.08    1.40
   5  10 -10    4.06    3.32
   5 -10  -9    0.42    1.85
   5  10  -9    3.79    2.80
   5  10  -8   -0.29    1.48
   5 -10  -8    3.88    2.29
   5  10  -7    1.54    1.85
  -5  10  -7    2.01    2.54
   5 -10  -7    0.84    1.97
   5  10  -6   -2.39    2.92
  -5  10  -6    1.87    2.35
   5 -10  -6    3.04    3.01
   5  10  -5    4.35    2.79
  -5  10  -5    7.97    2.93
   5 -10  -5    4.68    2.55
   5  10  -4    0.47    1.46
  -5  10  -4    1.09    1.98
   5 -10  -4    1.77    2.46
   5  10  -3    4.64    2.66
  -5  10  -3    2.13    2.03
   5 -10  -3    2.83    2.02
   5  10  -2    1.60    1.99
  -5  10  -2    3.53    2.67
   5  10  -2   10.11    4.20
   5 -10  -2    5.18    2.05
   5  10  -1   11.56    3.79
  -5  10  -1    7.93    2.47
   5  10  -1    4.03    2.30
   5 -10  -1    5.48    3.09
   5  10   0    2.08    1.87
  -5  10   0    1.74    1.48
   5 -10   0    3.34    3.09
   5  10   0    1.20    2.05
   5  10   1    8.48    2.73
   5  10   1    6.75    2.81
   5 -10   1    4.86    2.25
   5  10   2    1.13    1.21
  -5  10   2    4.28    3.08
   5  10   2    4.02    2.20
   5 -10   2    0.24    1.14
   5  10   3    1.65    1.18
  -5  10   3    5.27    3.10
   5  10   3    1.76    1.91
   5 -10   3    0.54    1.74
  -5  10   4    3.26    3.50
   5  10   4   -0.41    1.94
   5  10   4    0.95    1.45
   5 -10   4    2.89    2.55
   5  10   5    8.89    3.94
  -5  10   5    6.96    2.28
   5  10   5   14.08    4.23
   5 -10   5   10.35    3.33
   5  10   6    3.14    2.22
  -5  10   6    1.73    1.95
   5 -10   6    1.59    1.98
   5  10   6    5.38    2.78
   5  10   7    4.69    2.21
  -5  10   7    0.83    1.57
   5  10   7    2.61    1.85
   5 -10   7    0.89    2.00
   5 -10   8    1.93    1.45
   5  10   8    1.70    2.61
  -5  10   8    1.62    1.85
   5  10   8    0.59    1.12
  -5  10   9   -1.00    1.47
   5  10   9    1.35    1.94
   5  10   9    1.36    1.89
   5  10  10    9.51    3.90
   5  10  10    8.17    2.73
  -5  10  10    3.20    2.70
   5  10  11    1.58    1.22
  -5  10  11    2.97    2.42
   5  10  11    2.92    2.30
   5  10  12    0.26    1.56
  -5  10  12    0.21    2.10
   5  10  12    0.48    1.96
   5  10  13   -3.40    2.00
   5  10  13   -1.07    0.93
  -5  10  13    0.39    2.17
   5  10  14    2.48    2.72
   5  10  14    2.03    1.93
  -5  10  14    1.65    2.07
   5 -11  -7    1.00    1.06
   5  11  -7    1.44    2.14
   5  11  -6   -0.44    1.89
  -5  11  -6    1.94    2.49
   5 -11  -6    3.01    2.07
   5  11  -5    6.34    3.05
  -5  11  -5    5.59    2.79
   5 -11  -5    0.26    1.97
   5  11  -4    4.34    2.98
  -5  11  -4    1.84    1.73
   5 -11  -4    0.69    1.31
   5  11  -3   -1.14    1.93
  -5  11  -3   -0.84    1.02
   5 -11  -3   -0.68    1.97
   5  11  -2    0.08    1.47
  -5  11  -2    0.66    1.60
   5 -11  -1   -0.02    1.52
   5  11  -1    1.29    2.28
  -5  11  -1   -1.18    1.95
  -5  11   0   10.14    3.61
   5  11   0    4.46    2.97
   5  11   0    5.54    3.27
   5 -11   0    3.03    2.08
   5  11   1    3.03    2.71
  -5  11   1   -2.79    1.60
   5  11   1    2.43    2.29
   5 -11   1   -3.11    2.59
   5  11   2   -0.93    1.58
  -5  11   2   -0.99    1.79
   5 -11   2    1.12    2.97
   5  11   2   -3.43    1.83
   5  11   3    0.79    1.28
   5  11   3   -1.67    1.87
  -5  11   3    1.83    1.14
   5  11   4    0.59    0.97
  -5  11   4   -0.34    1.38
   5  11   4   -1.42    2.26
   5 -11   4    3.00    3.85
   5  11   5    0.48    1.55
  -5  11   5    6.20    3.14
   5  11   5    3.05    2.11
   5 -11   5    6.97    3.26
   5  11   6    1.63    1.96
   5  11   6    1.12    1.63
   5 -11   6    0.85    1.61
  -5  11   6    3.09    2.65
   5  11   7    4.35    1.12
   5  11   7    0.47    1.44
  -5  11   7    2.33    2.01
   5 -11   7    0.36    1.92
   6   0 -29    4.70    2.61
   6   0 -28   59.41    7.97
   6   0 -27   18.25    4.24
   6   0 -26   -0.37    2.04
   6   0 -25   12.59    3.98
   6   0 -24   64.05    8.03
   6   0 -23    5.93    2.52
   6   0 -22   71.20    8.15
   6   0 -21   14.37    3.51
   6   0 -20    3.17    2.01
   6   0 -19   11.15    3.17
   6   0 -18    5.66    1.86
   6   0 -17   78.39    7.28
   6   0 -16  795.19   24.31
   6   0 -15  149.16    9.77
   6   0 -14  469.73   12.99
   6   0 -14  472.32   16.85
   6   0 -13   74.08    6.33
   6   0 -13   67.84    5.02
   6   0 -12   62.63    5.79
   6   0 -12   64.34    4.59
   6   0 -11   98.89    7.10
   6   0 -11   93.78    5.68
   6   0 -10  411.84   14.14
   6   0 -10  413.98   11.89
   6   0  -9  256.92   11.02
   6   0  -9  264.75    9.43
   6   0  -8  116.08    6.14
   6   0  -8  103.13    6.80
   6   0  -7  109.99    5.99
   6   0  -7  107.25    6.84
   6   0  -7  107.72    6.96
   6   0  -6  374.62   11.22
   6   0  -6  358.67   12.33
   6   0  -6  373.14   12.57
   6   0  -5 1152.52   19.49
   6   0  -5 1118.92   21.24
   6   0  -5 1096.84   21.16
   6   0  -4  610.48   14.36
   6   0  -4  607.89   15.33
   6   0  -3  691.02   15.50
   6   0  -3  704.69   16.48
   6   0  -3  689.06   16.19
   6   0  -2 3249.93   34.29
   6   0  -2 3146.37   33.53
   6   0  -2 3166.90   34.43
   6   0  -1 1044.38   20.03
   6   0  -1 1072.07   19.51
   6   0  -1 1064.73   19.62
   6   0   0  385.38   11.80
   6   0   0  383.18   11.50
   6   0   1 1007.54   19.32
   6   0   1 1090.55   19.11
   6   0   2 3222.27   34.60
   6   0   2 3208.86   32.52
   6   0   3  690.22   14.73
   6   0   3  676.72   16.29
   6   0   4  618.76   13.79
   6   0   4  589.06   15.56
   6   0   5 1081.58   21.52
   6   0   5 1121.56   18.41
   6   0   6  399.69   13.13
   6   0   6  370.96   10.28
   6   0   7  109.56    7.01
   6   0   7  109.63    5.56
   6   0   8  103.88    7.03
   6   0   8  102.02    5.21
   6   0   9  256.85   11.26
   6   0   9  260.19    8.22
   6   0  10  404.27    9.99
   6   0  10  402.31   14.27
   6   0  11   89.03    6.83
   6   0  11   99.22    4.77
   6   0  12   47.51    3.34
   6   0  12   62.77    5.86
   6   0  13   82.64    4.04
   6   0  13   80.02    6.84
   6   0  14  452.05   16.48
   6   0  15  161.92    9.82
   6   0  16  861.29   23.87
   6   0  17   79.91    7.19
   6   0  18    6.71    2.24
   6   0  19   13.43    3.44
   6   0  20    4.25    2.60
   6   0  21   16.44    4.32
   6   0  22   59.93    7.39
   6   0  23    4.23    2.76
   6  -1 -29    5.73    3.35
   6  -1 -28    3.56    1.66
   6  -1 -27   -0.36    1.30
   6   1 -26   -0.19    2.87
   6  -1 -26    8.51    2.52
   6   1 -25    3.91    2.18
   6  -1 -25    4.90    2.64
   6   1 -24    7.11    2.05
   6  -1 -24    1.98    1.31
   6   1 -23    7.83    2.63
   6  -1 -23    5.58    2.19
   6   1 -22    4.53    1.89
   6  -1 -22    4.63    2.84
   6   1 -21   18.23    3.96
   6  -1 -21   15.87    4.22
   6   1 -20   47.41    6.09
   6  -1 -20   50.97    6.53
   6   1 -19   16.61    3.63
   6  -1 -19   15.32    3.41
   6  -1 -18    7.86    2.68
   6   1 -18    8.05    2.92
   6   1 -17    6.39    2.30
   6  -1 -17    9.89    2.65
   6   1 -16   13.42    2.71
   6  -1 -16   23.70    4.30
   6  -1 -16   19.23    3.66
   6   1 -15   60.37    6.01
   6  -1 -15   58.07    6.16
   6  -1 -15   55.32    5.24
   6   1 -14  176.91    9.99
   6  -1 -14  162.15   10.13
   6  -1 -14  167.30    8.92
   6  -1 -13   29.71    4.14
   6   1 -13   24.75    3.69
   6  -1 -13   19.32    3.11
   6   1 -13   23.74    3.66
   6  -1 -12   44.39    5.32
   6   1 -12   40.67    3.23
   6   1 -12   48.34    4.87
   6   1 -12   41.52    4.55
   6  -1 -12   44.56    4.51
   6   1 -11   31.26    2.94
   6  -1 -11   40.47    4.83
   6  -1 -11   35.28    3.88
   6   1 -11   38.05    4.24
   6   1 -11   41.88    4.54
   6  -1 -10    3.34    1.28
   6   1 -10    4.09    1.13
   6  -1 -10    2.42    1.43
   6   1 -10    4.97    1.62
   6   1 -10    1.50    1.10
   6   1  -9   26.71    3.51
   6   1  -9   26.57    2.67
   6  -1  -9   23.24    3.77
   6   1  -9   24.95    3.26
   6  -1  -9   31.64    3.54
   6   1  -8   20.12    2.40
   6   1  -8   19.78    2.88
   6  -1  -8   20.41    3.26
   6   1  -8   24.73    3.38
   6  -1  -8   22.66    3.10
   6  -1  -7  179.89    8.46
   6   1  -7  182.46    8.87
   6   1  -7  191.64    7.35
   6   1  -7  196.33    8.74
   6  -1  -7  189.42    9.62
   6  -1  -6  286.37   10.65
   6   1  -6  310.16    9.57
   6  -1  -6  286.60   11.37
   6   1  -6  289.40   10.38
   6   1  -6  292.84   11.11
   6  -1  -5  412.05   13.64
   6   1  -5  445.59   12.55
   6  -1  -5  432.16   13.03
   6   1  -5  467.62   11.87
   6   1  -5  407.55   13.18
   6  -1  -4   64.43    5.31
   6  -1  -4   63.45    4.91
   6   1  -4   67.08    5.26
   6   1  -4   60.30    4.58
   6   1  -4   69.64    4.64
   6   1  -3   57.17    4.43
   6  -1  -3   45.98    4.26
   6   1  -3   51.04    4.00
   6  -1  -3   43.69    4.27
   6   1  -3   43.97    4.14
   6   1  -2    0.43    0.43
   6  -1  -2    0.71    0.90
   6   1  -2   -0.14    0.74
   6  -1  -2    0.09    0.98
   6   1  -2    1.25    1.02
   6  -1  -1   10.05    2.09
   6  -1  -1   13.54    2.30
   6   1  -1   10.20    2.12
   6   1  -1   13.69    2.18
   6   1   0    2.75    1.53
   6   1   0    4.14    1.38
   6  -1   0    3.49    1.22
   6  -1   0    5.86    1.56
   6  -1   1   12.46    2.19
   6   1   1    8.50    1.97
   6   1   1   10.64    2.16
   6  -1   1   13.08    2.46
   6   1   2    0.52    0.47
   6  -1   2    0.16    0.51
   6  -1   3   59.74    4.98
   6   1   3   52.32    4.52
   6   1   4   63.56    5.18
   6   1   4   63.85    4.77
   6  -1   4   57.73    4.93
   6   1   5  419.07   13.48
   6  -1   5  424.24   13.60
   6   1   5  452.07   12.58
   6  -1   6  292.57   11.27
   6   1   6  289.36    9.89
   6   1   7  199.36    9.69
   6  -1   7  185.14    9.27
   6   1   7  195.46    8.11
   6   1   8   20.63    3.16
   6  -1   8   15.46    2.62
   6   1   8   18.55    2.57
   6  -1   9   35.08    4.32
   6   1   9   26.34    3.50
   6   1   9   31.09    3.23
   6  -1  10    2.98    0.96
   6   1  10    2.73    0.83
   6   1  10    2.79    1.23
   6   1  11   32.01    4.19
   6  -1  11   31.52    4.07
   6   1  11   40.45    3.61
   6  -1  12   45.37    4.81
   6   1  12   46.68    5.09
   6   1  12   44.64    3.79
   6   1  13   26.46    3.97
   6  -1  13   22.46    3.61
   6   1  13   23.70    2.69
   6  -1  14  164.39    9.75
   6   1  14  155.23    9.75
   6   1  14  143.91    6.77
   6   1  15   45.97    5.25
   6  -1  15   49.63    5.37
   6   1  15   50.65    3.89
   6  -1  16   13.37    3.04
   6   1  16   19.20    3.60
   6  -1  17    4.14    1.94
   6   1  17   10.28    2.98
   6  -1  18    8.08    2.29
   6   1  18    6.94    2.42
   6   1  19   16.70    3.60
   6  -1  19   13.02    3.24
   6   1  20   54.92    6.56
   6  -1  20   50.50    6.23
   6  -1  21   15.36    3.69
   6   1  21   20.79    4.03
   6   1  22    3.67    1.77
   6   1  23   12.52    3.90
   6   1  24    4.64    2.00
   6  -2 -29    0.71    1.48
   6  -2 -28   23.01    5.39
   6  -2 -27    2.74    2.64
   6  -2 -26    1.28    1.82
   6  -2 -25    1.91    1.73
   6  -2 -24   26.36    5.23
   6  -2 -23   -0.41    2.01
   6  -2 -22    6.61    2.41
   6   2 -21   -1.62    1.17
   6  -2 -21    2.75    1.38
   6  -2 -20   14.83    4.12
   6   2 -20   16.06    3.52
   6   2 -19    1.65    1.94
   6  -2 -19    0.57    0.68
   6   2 -18   10.84    2.52
   6  -2 -18   15.66    3.61
   6   2 -17    1.34    0.67
   6   2 -17    1.62    1.39
   6  -2 -17    1.16    1.41
   6  -2 -17    0.84    1.53
   6   2 -16  139.79    9.17
   6  -2 -16  125.73    9.70
   6   2 -16  147.42    9.50
   6  -2 -16  145.78    9.29
   6   2 -15   70.66    6.21
   6  -2 -15   59.55    6.86
   6  -2 -15   67.49    6.48
   6   2 -15   60.49    5.90
   6   2 -14  300.09   12.66
   6  -2 -14  305.39   14.36
   6  -2 -14  324.40   13.60
   6   2 -14  296.79   13.01
   6  -2 -13   22.00    3.69
   6   2 -13   24.27    3.50
   6   2 -13   21.71    3.56
   6  -2 -13   22.15    3.54
   6   2 -12   56.73    5.29
   6  -2 -12   63.99    6.47
   6  -2 -12   62.21    5.71
   6   2 -12   60.82    5.64
   6   2 -11   44.07    4.72
   6   2 -11   35.52    3.90
   6  -2 -11   39.76    5.09
   6  -2 -11   45.22    4.98
   6  -2 -10   39.57    4.79
   6   2 -10   34.08    2.84
   6   2 -10   36.09    3.87
   6  -2 -10   37.33    4.28
   6   2 -10   31.67    4.16
   6   2  -9    1.40    0.83
   6  -2  -9    1.72    0.54
   6  -2  -9    0.97    0.93
   6   2  -9    1.03    0.85
   6   2  -9    2.51    0.76
   6   2  -8    8.68    2.26
   6   2  -8    6.87    1.33
   6  -2  -8    9.88    2.37
   6   2  -8   10.78    2.16
   6  -2  -8    7.29    1.97
   6   2  -7    7.16    1.21
   6  -2  -7    4.17    1.74
   6   2  -7    5.01    1.38
   6   2  -7    9.02    1.91
   6  -2  -7    5.63    1.77
   6   2  -6  158.66    8.69
   6  -2  -6  144.38    8.53
   6   2  -6  138.82    6.70
   6   2  -6  150.26    6.48
   6  -2  -6  150.01    8.54
   6   2  -5   34.16    3.24
   6   2  -5   37.48    3.36
   6  -2  -5   31.48    4.01
   6  -2  -5   36.43    4.11
   6   2  -4    3.41    1.38
   6  -2  -4    0.44    0.87
   6   2  -4    1.85    1.00
   6   2  -4    0.82    0.47
   6  -2  -4    1.40    1.37
   6  -2  -3   26.48    3.40
   6  -2  -3   38.69    4.25
   6   2  -3   26.78    2.78
   6   2  -3   28.62    3.59
   6   2  -3   28.89    3.06
   6   2  -2  277.42    9.73
   6  -2  -2  290.30   11.45
   6  -2  -2  295.44   11.84
   6   2  -2  294.34    9.54
   6   2  -2  294.26   11.39
   6   2  -1   45.86    4.04
   6  -2  -1   37.79    4.04
   6  -2  -1   40.74    4.23
   6   2  -1   50.83    4.74
   6   2   0    1.54    0.86
   6  -2   0   -0.34    0.91
   6  -2   0    0.45    1.42
   6   2   0    0.84    0.42
   6   2   1   50.18    4.59
   6  -2   1   41.36    4.22
   6   2   1   43.41    4.10
   6  -2   1   48.49    4.67
   6   2   2  294.93   11.04
   6  -2   2  298.58   11.51
   6  -2   2  296.51   11.49
   6   2   2  298.40   11.18
   6   2   3   30.13    3.49
   6  -2   3   26.24    3.44
   6   2   3   28.54    3.46
   6   2   4    0.90    1.31
   6   2   4    0.94    0.94
   6  -2   4    1.36    0.90
   6   2   5   30.88    3.52
   6   2   5   32.96    4.00
   6  -2   5   34.67    3.95
   6   2   6  140.54    7.64
   6   2   6  127.05    7.89
   6  -2   6  141.56    8.18
   6   2   7    5.25    1.84
   6  -2   7    4.37    1.37
   6   2   7    5.29    1.87
   6   2   8    5.62    1.99
   6   2   8    7.68    1.91
   6  -2   8    9.94    2.18
   6   2   9    1.00    0.92
   6   2   9    1.64    1.05
   6  -2   9    0.44    0.82
   6   2  10   35.95    3.86
   6   2  10   33.09    4.27
   6  -2  10   37.92    4.50
   6   2  11   42.59    4.25
   6   2  11   44.67    5.17
   6  -2  11   39.71    4.72
   6   2  12   60.06    6.03
   6  -2  12   62.18    5.88
   6   2  12   59.83    5.11
   6   2  13   20.10    3.11
   6   2  13   16.67    2.91
   6  -2  13   16.30    2.95
   6   2  14  276.59   11.17
   6   2  14  294.15   14.05
   6  -2  14  309.06   13.67
   6   2  15   66.00    6.91
   6  -2  15   71.49    6.48
   6   2  15   64.33    5.29
   6   2  16  154.32   10.48
   6  -2  16  145.77    9.58
   6  -2  17    0.04    1.03
   6   2  17    1.31    3.09
   6  -2  18   19.31    3.62
   6   2  18   10.10    2.77
   6  -2  19    1.30    1.61
   6   2  19   -0.36    1.72
   6   2  20   13.19    3.51
   6  -2  20    8.31    2.37
   6   2  21    2.45    2.16
   6   2  22    3.34    1.02
   6   2  23    3.69    2.93
   6   2  24   24.98    5.03
   6   2  25    1.38    2.13
   6  -3 -28    1.81    2.38
   6  -3 -27    2.93    2.22
   6  -3 -26    1.76    1.80
   6  -3 -25   11.66    4.34
   6  -3 -24    2.12    2.02
   6  -3 -23    2.91    2.02
   6  -3 -22    3.05    1.23
   6  -3 -21    4.25    2.53
   6  -3 -20   16.11    3.75
   6  -3 -19   58.08    7.08
   6  -3 -18   16.26    4.21
   6  -3 -18   16.28    3.68
   6  -3 -17   52.62    6.12
   6  -3 -17   62.21    7.08
   6   3 -17   52.03    5.92
   6  -3 -16   25.07    4.89
   6  -3 -16   22.98    4.11
   6   3 -16   26.09    4.04
   6  -3 -15   10.02    2.89
   6  -3 -15    6.74    2.42
   6   3 -15   10.66    2.68
   6  -3 -14   83.25    7.54
   6   3 -14   88.13    6.67
   6  -3 -14   78.15    7.50
   6   3 -14   81.35    7.08
   6  -3 -13   36.67    4.60
   6   3 -13   33.48    3.62
   6  -3 -13   34.69    4.58
   6   3 -13   30.51    4.31
   6   3 -12   44.24    5.05
   6  -3 -12   30.29    4.69
   6  -3 -12   34.46    4.68
  -6   3 -11   84.05    5.21
   6   3 -11   84.51    5.56
   6  -3 -11   79.51    7.26
   6   3 -11   75.95    6.68
   6  -3 -11  101.63    7.86
   6  -3 -10   14.09    2.88
   6   3 -10   17.66    2.11
   6   3 -10   19.19    3.38
   6   3 -10   17.48    2.35
   6  -3 -10   12.34    3.09
   6   3  -9   29.37    3.09
   6  -3  -9   32.30    4.54
   6  -3  -9   31.59    4.48
   6   3  -9   32.55    2.77
   6   3  -9   34.07    4.13
   6   3  -8   25.77    3.79
   6   3  -8   25.63    2.76
   6   3  -8   24.70    2.59
   6  -3  -8   29.20    4.33
   6  -3  -8   27.63    4.05
   6   3  -7  195.69    7.32
   6  -3  -7  201.24   10.65
   6   3  -7  194.88    7.66
   6   3  -7  221.32   10.87
   6  -3  -6  186.86   10.13
   6  -3  -6  170.06    9.74
   6   3  -6  188.77    6.95
   6   3  -6  181.50    7.64
   6   3  -6  173.91    9.65
   6  -3  -5  278.07   12.27
   6   3  -5  265.55    9.46
   6   3  -5  262.87    8.14
   6  -3  -5  280.16   12.46
   6   3  -5  272.84   11.94
   6   3  -4  158.77    9.01
   6   3  -4  160.77    7.61
   6  -3  -4  149.11    8.92
   6  -3  -4  146.85    8.79
   6   3  -4  153.61    6.39
   6   3  -3  387.69   14.04
   6  -3  -3  375.80   14.07
   6   3  -3  391.29   12.32
   6  -3  -3  389.30   14.18
   6   3  -3  379.68   10.25
   6   3  -2   45.58    4.75
   6   3  -2   49.58    4.43
   6  -3  -2   44.33    4.81
   6  -3  -2   51.34    5.17
   6  -3  -1   47.64    4.93
   6   3  -1   50.72    4.97
   6  -3  -1   58.66    5.50
   6   3  -1   52.78    4.62
   6  -3   0   18.59    3.35
   6   3   0   17.62    2.69
   6   3   0   18.44    3.23
   6  -3   0   17.98    3.12
   6   3   1   52.72    4.99
   6  -3   1   50.37    5.09
   6   3   1   52.90    4.92
   6  -3   1   52.68    5.04
   6  -3   2   49.26    5.03
   6   3   2   50.90    4.94
   6   3   2   50.85    4.87
   6  -3   2   53.10    5.14
   6   3   3  382.87   14.07
   6  -3   3  398.87   14.22
   6   3   3  423.65   14.09
   6  -3   3  388.32   13.87
   6   3   4  149.73    8.79
   6  -3   4  149.52    8.77
   6   3   4  154.28    8.78
   6  -3   4  140.44    8.35
   6   3   5  258.94   11.38
   6   3   5  262.01   11.60
   6  -3   5  275.31   11.96
   6   3   6  185.64    9.68
   6  -3   6  183.37    9.77
   6   3   6  192.33   10.02
   6   3   7  198.15    9.95
   6   3   7  201.52   10.37
   6  -3   7  197.14   10.19
   6   3   8   29.02    3.76
   6  -3   8   20.85    3.53
   6   3   8   28.55    4.13
   6   3   9   26.86    4.03
   6   3   9   31.78    4.01
   6  -3   9   23.17    3.47
   6   3  10   19.25    3.13
   6  -3  10   17.82    3.10
   6   3  11   88.88    6.78
   6  -3  11   79.81    6.79
   6  -3  12   34.52    4.37
   6   3  12   41.16    5.26
   6   3  12   39.01    4.53
   6   3  13   31.70    4.10
   6  -3  13   35.50    4.55
   6  -3  14   84.86    7.37
   6   3  14   80.29    7.39
   6   3  14   85.67    6.74
   6   3  15    9.66    2.28
   6   3  15   10.27    3.26
   6  -3  15    5.33    1.87
   6   3  16   23.84    3.79
   6  -3  16   20.83    3.74
   6   3  16   24.39    4.47
   6  -3  17   44.64    5.47
   6   3  17   61.35    6.93
   6   3  18   25.63    4.84
   6  -3  18   17.84    3.57
   6  -3  19   45.68    5.80
   6   3  19   51.77    6.91
   6   3  20   10.64    2.78
   6   3  21    6.74    2.49
   6   3  22    1.59    1.88
   6   3  23   -0.70    1.61
   6   3  24    2.99    1.57
   6   3  25   11.51    3.93
   6   3  26    8.04    3.33
   6  -4 -28    7.04    3.31
   6  -4 -27   -2.85    2.08
   6  -4 -26    4.88    2.32
   6  -4 -25    2.73    2.06
   6  -4 -24   25.62    5.27
   6  -4 -23    2.83    0.98
   6  -4 -22   11.55    3.08
   6  -4 -21   21.67    4.81
   6  -4 -20    7.48    3.25
   6  -4 -20    4.20    2.53
   6  -4 -19    3.27    2.10
   6  -4 -19    2.48    2.23
   6  -4 -18  107.04    9.83
   6  -4 -18   92.26    8.82
   6   4 -17   18.99    3.28
   6  -4 -17   21.00    4.34
   6  -4 -17   25.72    4.64
   6   4 -16   11.85    3.16
   6  -4 -16   11.00    2.82
   6  -4 -16    5.97    2.99
   6  -4 -15   16.63    3.63
   6   4 -15   20.34    3.71
   6  -4 -15   17.41    3.81
   6  -4 -14    2.25    1.63
   6  -4 -14    8.34    2.52
   6   4 -14    6.19    2.39
   6  -4 -13   25.29    4.47
   6   4 -13   25.60    4.28
   6  -4 -12  191.48   11.76
   6  -4 -12  180.30   11.43
   6   4 -12  180.73   10.71
  -6   4 -11   61.40    5.50
   6  -4 -11   72.18    7.12
   6   4 -11   73.78    6.83
   6  -4 -11   74.20    7.21
   6   4 -10   19.43    3.38
   6  -4 -10   15.80    3.75
  -6   4 -10   12.84    2.51
   6  -4 -10   12.12    2.89
  -6   4  -9   42.28    4.46
   6  -4  -9   41.46    5.28
   6  -4  -9   40.40    5.11
   6   4  -9   34.49    3.37
   6   4  -9   46.55    5.56
   6   4  -8  249.18    9.24
   6  -4  -8  247.30   12.59
   6  -4  -8  235.73   12.53
   6   4  -8  236.72   12.26
   6  -4  -7   11.03    2.69
   6   4  -7   17.11    3.15
   6   4  -7   17.14    2.47
   6  -4  -7   12.74    2.97
   6   4  -6   25.52    3.93
   6   4  -6   37.08    3.80
   6  -4  -6   28.52    3.94
   6  -4  -6   42.57    5.08
   6   4  -6   38.72    2.70
   6   4  -5  309.24   13.33
   6   4  -5  298.82   11.16
   6  -4  -5  269.44   12.74
   6  -4  -5  293.65   13.65
   6   4  -5  275.26    7.18
   6  -4  -4    0.88    1.24
   6   4  -4    0.99    0.98
   6   4  -4    0.94    0.81
   6  -4  -4    2.97    1.41
   6   4  -4    0.36    0.79
   6   4  -3  115.91    7.24
   6  -4  -3  121.85    8.46
   6   4  -3  120.70    5.25
   6  -4  -3  109.62    8.20
   6   4  -2   71.98    6.55
   6  -4  -2   70.32    6.27
   6   4  -2   70.28    5.77
   6  -4  -2   87.97    7.27
   6   4  -1   50.96    4.95
   6   4  -1   51.97    5.37
   6  -4  -1   46.22    5.38
   6  -4  -1   44.21    5.06
   6   4   0   59.90    5.84
   6  -4   0   63.25    5.89
   6   4   0   60.54    5.51
   6  -4   0   65.92    6.31
   6   4   1   55.79    5.84
   6   4   1   40.25    4.54
   6  -4   1   52.10    5.28
   6  -4   1   47.73    5.21
   6   4   2   74.71    6.61
   6   4   2   86.28    6.64
   6  -4   2   75.04    6.38
   6  -4   2   78.39    6.90
   6  -4   3  109.55    7.91
   6  -4   3  108.46    7.73
   6   4   3  116.53    8.32
   6   4   3  109.67    7.77
   6   4   4    1.83    1.67
   6  -4   4   -0.14    0.94
   6  -4   4   -0.49    0.65
   6   4   4    2.01    1.26
   6  -4   5  269.82   12.69
   6   4   5  262.16   12.35
   6   4   5  258.98   12.24
   6  -4   5  279.96   12.62
   6  -4   6   44.43    5.15
   6   4   6   46.74    5.30
   6  -4   6   38.25    4.67
   6   4   6   33.73    4.50
   6  -4   7   13.15    2.97
   6   4   7   11.93    2.59
   6   4   7   10.18    2.80
   6  -4   8  257.76   12.47
   6   4   8  258.17   12.45
   6   4   8  252.47   12.40
   6  -4   9   45.46    5.20
   6   4   9   44.53    5.13
   6   4   9   42.17    5.28
   6   4  10   15.78    3.29
   6  -4  10   17.58    3.20
   6   4  10   18.17    3.93
   6  -4  11   64.18    6.38
   6   4  11   71.23    6.65
   6   4  11   69.32    7.07
   6   4  12  191.45   11.00
   6  -4  12  174.23   10.58
   6   4  12  173.45   11.11
   6   4  13   43.07    5.25
   6   4  13   36.76    5.11
   6  -4  13   30.69    4.55
   6   4  14    4.99    1.86
   6  -4  14    3.30    1.87
   6   4  14    6.93    2.75
   6   4  15   16.13    3.02
   6  -4  15   13.19    2.97
   6   4  15   19.76    3.71
   6   4  16    6.64    2.27
   6  -4  16   11.92    3.14
   6   4  16   10.01    2.90
   6   4  17   17.65    3.30
   6  -4  17   17.96    3.57
   6   4  17   11.88    3.06
   6   4  18   89.37    8.82
   6   4  19    4.98    3.01
   6   4  20    6.50    2.95
   6   4  21    7.00    2.51
   6   4  22   14.03    3.78
   6   4  23    5.08    2.73
   6   4  24   19.95    4.53
   6   4  25    4.24    2.57
   6   4  26    2.33    1.20
   6   4  27    1.04    1.37
   6  -5 -26   -0.06    1.60
   6  -5 -25    9.93    3.74
   6  -5 -24   -1.63    1.19
   6  -5 -23    0.56    1.54
   6  -5 -22    0.80    1.21
   6  -5 -21    6.93    2.85
   6  -5 -21    5.65    2.89
   6  -5 -20   -1.62    1.62
   6  -5 -20    2.47    2.13
   6  -5 -19    4.63    2.08
   6  -5 -19    3.12    2.34
   6  -5 -18    3.50    2.57
   6  -5 -18    2.16    2.07
   6  -5 -17   11.04    3.53
   6  -5 -17    6.87    2.53
   6   5 -16    3.74    1.47
   6  -5 -16    5.21    2.81
   6  -5 -16    3.20    2.09
   6   5 -15    9.42    3.20
   6  -5 -15    6.10    1.57
   6  -5 -15    6.74    2.66
   6  -5 -14    3.58    1.93
   6   5 -14    7.26    2.77
   6  -5 -14   11.88    3.65
   6  -5 -13   31.22    5.16
   6  -5 -13   46.75    6.25
   6   5 -13   35.47    5.09
   6   5 -12    1.26    1.33
   6  -5 -12    1.55    1.23
   6   5 -11    3.49    1.51
   6  -5 -11    3.65    1.70
   6  -5 -11    5.39    2.22
   6   5 -10    4.15    2.00
  -6   5 -10    5.24    1.66
   6  -5 -10    3.82    1.85
   6  -5 -10    3.31    2.18
  -6   5  -9   10.33    2.66
   6   5  -9   15.09    3.44
   6  -5  -9   15.03    3.66
   6  -5  -9   12.91    3.20
   6   5  -8    8.57    2.44
   6   5  -8   10.94    2.25
  -6   5  -8   11.92    2.58
   6  -5  -8   12.84    3.07
   6  -5  -8   11.14    3.09
   6   5  -7    5.97    2.33
   6   5  -7    7.45    1.64
   6  -5  -7    7.27    2.20
  -6   5  -7    3.79    1.54
   6  -5  -7    5.04    2.57
   6  -5  -6    3.52    1.12
  -6   5  -6    5.56    2.08
   6   5  -6    3.19    1.79
   6   5  -6    2.03    0.94
   6  -5  -6    5.09    2.07
   6   5  -5   11.55    2.81
   6   5  -5   15.78    2.95
   6  -5  -5   17.62    3.22
   6  -5  -5   20.09    3.91
   6   5  -4   34.73    4.85
   6  -5  -4   32.82    4.46
   6  -5  -4   32.20    4.66
   6   5  -4   32.15    4.10
   6   5  -3   41.38    5.25
   6   5  -3   42.97    4.90
   6  -5  -3   41.82    5.41
   6  -5  -3   33.42    4.82
   6   5  -2   32.60    4.59
   6  -5  -2   21.66    3.75
   6   5  -2   33.64    4.17
   6  -5  -2   36.39    5.10
   6   5  -1    1.16    0.57
   6  -5  -1    9.17    2.60
   6   5  -1    7.99    2.27
   6  -5  -1    6.35    2.33
   6   5   0    7.72    2.26
   6  -5   0    8.56    2.47
   6   5   0    5.30    1.86
   6  -5   0    9.40    2.33
   6  -5   1    9.31    3.08
   6   5   1    7.76    2.28
   6   5   1   10.37    2.44
   6  -5   1    9.38    2.33
   6   5   2   31.74    4.30
   6  -5   2   24.48    3.75
   6   5   2   30.85    4.33
   6  -5   2   37.49    5.01
   6   5   3   52.27    5.75
   6  -5   3   47.54    5.22
   6   5   3   36.06    4.75
   6  -5   3   38.67    4.97
   6   5   4   38.38    5.15
   6  -5   4   43.57    5.31
   6   5   4   46.55    5.35
   6  -5   4   35.68    4.54
   6   5   5   21.25    4.11
   6  -5   5   20.37    3.51
   6  -5   5   19.43    3.71
   6   5   5   23.50    3.86
   6   5   6    8.33    2.51
   6  -5   6    1.56    1.13
   6   5   6    9.10    2.06
   6  -5   6    7.82    2.31
   6   5   7    7.92    2.19
   6  -5   7    8.00    2.59
   6   5   7    5.85    2.33
   6  -5   7    6.76    2.13
   6   5   8   11.12    2.86
   6  -5   8   12.73    3.30
   6   5   8   11.72    2.49
   6  -5   8   13.13    3.08
   6  -5   9   13.98    3.04
   6   5   9   17.27    3.16
   6  -5   9    9.16    2.14
   6   5   9   17.55    3.46
   6   5  10    3.88    2.09
   6  -5  10    5.35    1.00
   6   5  10    1.11    1.76
   6   5  11    5.22    1.62
   6   5  11    3.78    1.58
   6  -5  11    2.70    1.07
   6   5  12    1.03    0.70
   6  -5  12    0.51    1.03
   6  -5  13   41.21    5.54
   6   5  13   30.85    4.50
   6   5  13   25.48    4.56
   6   5  14    7.02    2.62
   6  -5  14   13.08    3.63
   6   5  14    8.19    2.63
   6   5  15   10.49    3.27
   6   5  15   10.61    2.97
   6  -5  15   10.95    3.07
   6   5  16    5.50    1.74
   6  -5  16    8.20    3.27
   6   5  16    0.42    1.43
   6   5  17    8.06    2.71
   6   5  17    8.44    2.55
   6   5  18    5.02    3.11
   6   5  18    6.32    2.79
   6   5  19    1.35    1.68
   6   5  20    0.78    1.45
   6   5  21    5.33    2.16
  -6   5  22    1.51    1.75
   6   5  22    1.72    1.71
  -6   5  23    2.44    2.06
   6   5  23   -0.67    1.78
   6   5  24    0.52    2.14
   6   5  25    1.72    2.15
   6   5  26    0.95    1.97
   6  -6 -25    6.79    3.72
   6  -6 -24   13.92    4.25
   6  -6 -23    1.24    1.28
   6  -6 -22   40.57    6.57
   6  -6 -21   14.28    3.96
   6  -6 -21    7.10    2.88
   6  -6 -20   -0.62    2.10
   6  -6 -20   -0.10    0.92
   6  -6 -19    3.55    2.00
   6  -6 -19    7.48    3.24
   6  -6 -18   59.35    7.94
   6  -6 -18   57.24    7.61
   6  -6 -17    7.73    2.75
   6  -6 -17    4.47    2.39
   6   6 -16    0.84    1.91
   6  -6 -16   -0.59    1.29
   6  -6 -16   -1.17    0.79
   6   6 -15    1.93    2.01
   6  -6 -15    1.98    1.84
   6  -6 -15    4.76    2.43
   6  -6 -14    1.83    1.67
   6  -6 -14   -0.49    1.04
   6   6 -13    1.79    1.77
   6  -6 -13    5.17    2.65
   6  -6 -13    5.65    1.84
   6   6 -12   70.35    7.55
   6  -6 -12   70.11    7.83
   6  -6 -12   77.81    8.39
   6   6 -11   14.98    3.42
   6  -6 -11   13.71    3.65
   6  -6 -11   11.10    3.54
   6   6 -10   -0.27    0.98
  -6   6 -10    1.06    0.97
   6  -6 -10    4.78    2.68
   6  -6 -10    1.20    2.03
   6   6  -9   12.25    3.75
  -6   6  -9   11.53    2.92
   6  -6  -9   15.16    4.00
   6  -6  -9   10.67    3.56
   6   6  -8  183.55   11.78
   6  -6  -8  176.00   11.60
  -6   6  -8  170.50   11.03
   6  -6  -8  183.57   12.17
   6   6  -7   29.55    4.31
   6   6  -7   30.11    4.98
  -6   6  -7   23.02    4.27
   6  -6  -7   25.25    4.41
   6  -6  -7   28.92    4.99
   6   6  -6    2.11    1.18
  -6   6  -6    0.25    0.64
   6  -6  -6    0.56    1.65
   6  -6  -6    0.50    1.27
   6   6  -6    0.28    1.17
   6  -6  -5   17.18    3.60
  -6   6  -5   22.75    3.76
   6   6  -5   22.39    3.65
   6   6  -5   25.71    4.36
   6  -6  -5   17.91    3.98
   6   6  -4   92.85    8.40
  -6   6  -4   87.60    7.90
   6  -6  -4   93.18    7.96
   6  -6  -4   78.98    7.76
   6   6  -4   80.39    6.88
   6  -6  -3    0.06    0.78
   6   6  -3    0.97    1.24
   6   6  -3   -1.13    1.12
   6  -6  -3   -0.56    0.91
  -6   6  -3    1.90    2.10
   6   6  -2  183.40   11.53
   6  -6  -2  138.36    9.72
  -6   6  -2  154.78   10.64
   6   6  -2  148.37    9.64
   6  -6  -2  168.84   11.31
   6   6  -1   34.40    5.12
  -6   6  -1   28.06    4.78
   6  -6  -1   35.65    4.99
   6  -6  -1   31.66    5.07
   6   6  -1   28.33    4.29
   6   6   0    4.42    2.17
   6   6   0    3.11    1.22
   6  -6   0    3.41    2.16
   6  -6   0   -0.35    1.64
   6   6   1   32.79    5.11
   6  -6   1   25.02    3.94
   6  -6   1   32.19    4.88
   6   6   1   27.98    4.39
   6   6   2  159.69   10.81
   6  -6   2  144.72    9.90
   6  -6   2  153.34   10.57
   6   6   2  154.66   10.26
   6  -6   3    0.99    1.56
   6   6   3    1.43    1.52
   6   6   3    2.30    1.31
   6  -6   3    0.97    1.09
   6   6   4   85.99    7.86
   6   6   4   89.26    8.10
   6  -6   4   78.93    7.32
   6  -6   4   93.77    8.39
   6   6   5   20.34    4.10
   6   6   5   15.43    3.21
   6  -6   5   18.48    3.70
   6  -6   5   24.28    4.21
   6  -6   6    0.93    1.08
   6   6   6    0.67    1.30
   6   6   6    2.56    1.74
   6  -6   6    0.32    0.80
   6   6   7   25.89    4.73
   6  -6   7   25.83    4.23
   6  -6   7   25.66    4.29
   6   6   7   24.17    4.39
   6  -6   8  172.91   10.97
   6   6   8  189.32   12.14
   6   6   8  168.85   11.36
   6  -6   8  189.31   12.02
   6  -6   9   17.05    3.78
   6   6   9   15.89    3.58
   6   6   9   19.98    4.12
   6  -6   9   15.85    2.98
   6  -6  10    4.24    2.36
   6   6  10    1.40    1.26
   6   6  10    2.52    2.10
   6  -6  10    1.56    2.02
   6  -6  11   16.53    4.17
   6   6  11   18.40    4.03
   6   6  11   11.50    3.26
   6  -6  11   15.32    3.74
   6   6  12   65.92    7.54
   6   6  12   68.73    7.52
   6  -6  12   66.32    7.53
   6  -6  12   57.77    6.67
   6   6  13    5.60    1.92
   6  -6  13    7.69    2.62
   6   6  13    5.75    2.11
   6  -6  13    8.37    2.87
   6   6  14    0.76    1.17
   6  -6  14   -1.22    1.15
   6   6  14   -0.16    1.28
   6   6  15    3.52    2.48
   6  -6  15    4.39    1.62
   6   6  15    1.61    1.40
   6   6  16   -0.53    1.04
   6   6  16    3.49    2.26
   6   6  17    7.49    1.39
  -6   6  17    9.87    2.93
   6   6  17    4.41    1.82
   6   6  18   62.17    7.88
   6   6  18   78.50    8.74
  -6   6  18   60.82    7.92
  -6   6  19    5.31    2.91
   6   6  19    2.16    1.63
   6   6  20    0.49    1.38
  -6   6  20    1.91    2.63
   6   6  21   11.48    3.89
  -6   6  21   20.15    4.74
  -6   6  22   33.09    6.25
   6   6  22   25.11    5.44
   6   6  23   -1.06    1.53
  -6   6  23    0.85    2.36
   6   6  24    8.97    3.10
   6   6  25    6.23    2.70
   6  -7 -23    1.44    1.06
   6  -7 -22   -1.60    2.76
   6  -7 -21   18.43    4.27
   6  -7 -21   13.45    3.55
   6  -7 -20    4.28    3.05
   6  -7 -20   -0.61    1.84
   6  -7 -19    9.94    3.61
   6  -7 -19    5.08    1.92
   6  -7 -18   13.39    4.51
   6  -7 -18   10.96    3.23
   6  -7 -17    4.87    1.99
   6  -7 -17    1.00    1.00
   6  -7 -16    2.70    1.47
   6  -7 -16    4.81    1.57
   6   7 -15    8.29    2.61
   6  -7 -15    8.59    3.25
   6  -7 -15   11.41    3.89
   6   7 -14    5.57    2.20
   6  -7 -14    7.07    2.74
   6  -7 -14    2.68    2.21
   6   7 -13   10.94    2.92
   6  -7 -13   17.95    4.46
   6  -7 -13   14.18    3.91
   6   7 -12    1.67    1.87
   6  -7 -12    7.35    2.44
   6  -7 -12    3.19    2.71
   6   7 -11    4.52    1.77
   6  -7 -11    2.86    1.35
   6  -7 -11    3.49    2.31
   6  -7 -10   14.30    4.32
   6   7 -10    8.40    3.05
   6  -7 -10   16.57    4.08
   6   7  -9    2.46    1.85
  -6   7  -9    6.68    2.43
   6  -7  -9    1.60    0.70
   6  -7  -9    4.64    2.53
   6   7  -8   34.33    5.57
   6  -7  -8   33.50    5.56
  -6   7  -8   30.92    5.27
   6  -7  -8   29.47    5.06
   6  -7  -7    4.73    2.77
   6   7  -7    7.52    2.78
   6  -7  -7    5.56    2.41
  -6   7  -7    5.38    2.46
   6   7  -6    4.08    2.45
  -6   7  -6    1.57    1.37
   6  -7  -6    3.21    2.12
   6  -7  -6    1.90    1.11
   6  -7  -5   12.07    2.93
   6   7  -5   11.57    3.32
   6   7  -5   12.09    3.08
  -6   7  -5    8.32    2.95
   6  -7  -5    7.87    2.33
   6   7  -4   49.81    6.41
  -6   7  -4   46.69    6.26
   6  -7  -4   47.56    6.42
   6  -7  -4   47.07    6.20
   6   7  -3   24.06    4.72
   6   7  -3   12.80    3.31
   6  -7  -3   23.21    4.36
  -6   7  -3   14.69    3.71
   6  -7  -3   16.74    4.49
   6   7  -2   58.18    7.02
  -6   7  -2   57.44    6.98
   6  -7  -2   58.54    6.78
   6   7  -2   48.17    5.95
   6  -7  -2   60.22    6.82
   6   7  -1    6.10    2.50
   6  -7  -1    7.08    2.46
   6   7  -1    7.08    2.45
  -6   7  -1    4.73    2.66
   6  -7  -1    5.09    2.40
  -6   7   0    1.70    1.98
   6   7   0    3.00    2.53
   6  -7   0   -0.85    1.32
   6   7   0    2.91    1.92
   6  -7   0    4.06    2.04
   6  -7   1    6.62    2.49
  -6   7   1    9.96    3.25
   6   7   1    9.23    3.19
   6   7   1    6.87    2.50
   6  -7   1    5.40    1.51
   6   7   2   64.15    7.22
  -6   7   2   45.71    6.26
   6  -7   2   56.08    6.32
   6  -7   2   51.11    6.71
   6   7   2   62.25    6.79
   6  -7   3   15.23    3.88
   6   7   3   24.48    4.85
  -6   7   3   11.96    3.20
   6  -7   3   16.62    2.91
   6   7   3   25.43    4.46
   6   7   4   40.50    5.97
  -6   7   4   55.45    6.81
   6  -7   4   41.41    5.55
   6  -7   4   30.76    5.18
   6   7   4   46.44    6.01
   6  -7   5    9.62    2.84
  -6   7   5    9.46    2.97
   6   7   5   12.96    3.22
   6   7   5   10.69    2.79
   6  -7   5    8.29    2.26
  -6   7   6    4.68    2.59
   6   7   6    7.79    2.61
   6   7   6    1.28    1.39
   6  -7   6    2.69    1.83
   6  -7   6    2.18    1.25
   6  -7   7    5.92    2.74
   6  -7   7    8.36    2.75
   6   7   7    8.45    3.32
   6   7   7    3.80    1.92
  -6   7   7    1.45    1.09
   6   7   8   34.75    5.77
  -6   7   8   34.60    5.81
   6  -7   8   36.82    5.67
   6  -7   8   32.95    5.24
   6   7   8   28.85    5.02
   6  -7   9    4.68    2.16
   6   7   9    1.26    1.08
   6   7   9    5.58    1.48
  -6   7   9   -0.07    1.65
   6  -7   9    2.08    1.74
   6  -7  10   11.43    3.50
   6   7  10   14.04    3.96
   6   7  10   15.00    3.78
  -6   7  10   13.40    4.31
   6  -7  11    4.52    1.86
   6   7  11    6.49    2.52
   6   7  11   -0.99    1.27
  -6   7  11    6.31    2.22
   6  -7  12    5.72    2.67
   6   7  12    3.84    2.18
   6   7  12    6.57    2.79
  -6   7  12    5.15    2.34
  -6   7  13   12.18    3.41
   6  -7  13   10.47    3.13
   6   7  13   13.22    3.41
   6   7  13   19.38    3.84
   6   7  14    2.57    2.73
   6   7  14    3.02    2.55
  -6   7  14    0.63    2.28
   6   7  15    8.85    3.75
  -6   7  15    1.84    2.37
   6   7  15    3.96    2.17
   6   7  16    4.76    2.17
   6   7  16    5.65    3.54
  -6   7  16    3.89    2.32
   6   7  17    1.53    1.96
  -6   7  17    4.11    1.51
   6   7  17    4.59    2.80
  -6   7  18   14.30    4.07
   6   7  18   12.36    3.80
   6   7  18    4.06    1.62
  -6   7  19    0.04    2.17
   6   7  19    3.47    2.24
  -6   7  20    5.62    2.86
   6   7  20    3.28    1.41
   6   7  21    9.36    3.77
  -6   7  21   11.34    4.16
  -6   7  22   -1.12    1.86
   6   7  22    1.68    2.04
   6   7  23    6.04    3.12
  -6   7  23    4.48    2.70
   6  -8 -21    1.69    2.08
   6  -8 -20   11.65    4.25
   6  -8 -20    2.97    2.22
   6  -8 -19    7.60    3.61
   6  -8 -19    1.37    1.81
   6  -8 -18   21.95    4.64
   6  -8 -18   23.69    5.28
   6  -8 -17    5.03    3.10
   6  -8 -17    7.10    2.68
   6  -8 -16    8.02    3.31
   6  -8 -16    4.54    2.42
   6  -8 -15   12.70    3.98
   6  -8 -15    6.07    2.66
   6   8 -14   10.45    3.30
   6  -8 -14   13.23    4.01
   6  -8 -14   10.23    2.77
   6   8 -13   15.14    4.10
   6  -8 -13   19.39    4.39
   6  -8 -13   15.63    4.01
   6   8 -12   18.99    3.93
   6  -8 -12   22.50    4.67
   6  -8 -12   21.64    4.71
   6   8 -11   13.57    3.70
   6  -8 -11   10.13    3.58
   6  -8 -11   17.45    4.43
   6   8 -10    5.75    2.48
   6  -8 -10    5.54    2.60
   6  -8 -10    7.51    2.40
   6   8  -9    3.86    2.31
   6  -8  -9    3.87    1.64
  -6   8  -9   11.15    3.88
   6  -8  -9    7.22    2.59
  -6   8  -8   26.84    5.35
   6  -8  -8   44.16    6.64
   6   8  -8   30.70    6.17
   6  -8  -8   54.39    7.27
   6   8  -7   16.55    4.08
   6  -8  -7   16.54    4.18
  -6   8  -7   17.26    4.44
   6  -8  -7   14.66    4.27
  -6   8  -6   10.10    3.09
   6   8  -6    5.40    2.77
   6  -8  -6    2.53    2.00
   6  -8  -6    3.12    1.32
   6   8  -5   13.85    3.78
   6  -8  -5   15.33    4.03
  -6   8  -5   13.70    3.93
   6  -8  -5   18.37    4.18
  -6   8  -4   19.60    4.43
   6  -8  -4   19.07    4.12
   6   8  -4   15.04    3.83
   6   8  -4   12.28    3.86
   6  -8  -4   20.64    4.49
   6   8  -3    1.35    0.85
  -6   8  -3    1.37    1.04
   6   8  -3   -0.03    0.82
   6  -8  -3   -2.03    1.92
   6  -8  -3    0.64    1.43
   6   8  -2   27.54    4.98
  -6   8  -2   44.74    6.15
   6  -8  -2   30.64    5.15
   6  -8  -2   26.65    4.99
   6   8  -2   27.52    4.89
   6   8  -1    6.53    2.65
   6   8  -1    8.09    2.83
  -6   8  -1    3.48    2.17
   6  -8  -1    9.99    3.10
   6  -8  -1    7.64    3.23
   6   8   0    0.88    1.03
   6   8   0    2.51    2.18
   6  -8   0    2.03    2.49
   6  -8   0   -0.91    2.16
  -6   8   0    0.91    1.68
   6   8   1    9.52    2.41
   6   8   1    6.46    2.19
  -6   8   1    5.91    2.62
   6  -8   1    9.65    3.28
   6  -8   1    3.68    2.13
   6   8   2   31.77    5.12
  -6   8   2   34.05    5.56
   6  -8   2   27.95    5.02
   6  -8   2   30.47    5.60
   6   8   2   28.37    4.91
  -6   8   3    1.02    0.99
   6   8   3   -0.77    2.33
   6   8   3   -0.40    1.47
   6  -8   3    1.47    0.94
   6  -8   3   -2.29    2.10
   6   8   4   22.59    4.71
  -6   8   4   18.60    4.01
   6   8   4   15.47    3.48
   6  -8   4   18.86    4.10
   6   8   5   17.83    4.06
  -6   8   5   12.11    3.95
   6   8   5   14.19    3.75
   6  -8   5   10.31    3.29
   6   8   6    7.31    2.70
   6   8   6    9.18    3.22
  -6   8   6    7.64    2.92
   6  -8   6    6.24    2.90
   6   8   7   18.92    4.43
  -6   8   7   17.57    4.56
   6   8   7   16.77    4.39
   6  -8   7   18.64    4.26
   6   8   8   53.86    7.09
  -6   8   8   48.31    7.05
   6  -8   8   43.34    6.40
   6   8   8   35.70    5.97
   6   8   9    2.32    1.49
   6   8   9    7.84    3.14
  -6   8   9    6.02    3.79
   6  -8   9    6.45    3.21
   6  -8  10    6.14    2.59
   6   8  10    5.94    2.82
   6   8  10    5.92    2.44
  -6   8  10   12.05    3.97
   6  -8  11   13.23    3.57
   6   8  11    6.05    2.52
   6   8  11   20.14    4.47
  -6   8  11   14.03    3.94
   6  -8  12   20.95    4.83
   6   8  12   16.41    4.48
   6   8  12   17.01    3.73
  -6   8  12   25.34    5.07
   6   8  13   14.11    4.09
   6   8  13   12.65    3.40
  -6   8  13   19.75    4.70
   6   8  14   13.43    3.25
   6   8  14   16.28    4.32
  -6   8  14   13.80    4.24
  -6   8  15    5.82    2.71
   6   8  15   12.05    3.68
   6   8  15    3.52    2.26
   6   8  16    3.87    2.20
   6   8  16    3.88    2.91
  -6   8  16    1.02    1.61
   6   8  17   -0.56    1.17
   6   8  17    5.40    3.00
  -6   8  17    6.35    2.54
   6   8  18   19.90    4.83
  -6   8  18   10.00    3.28
   6   8  18   12.12    3.86
   6   8  19    5.36    1.81
  -6   8  19    5.70    2.56
   6   8  19    5.33    3.09
   6   8  20    8.48    2.70
  -6   8  20    5.73    1.58
  -6   8  21    4.67    3.38
   6   8  21    3.13    2.12
   6  -9 -18    1.37    2.18
   6  -9 -18   -0.70    2.24
   6  -9 -17    0.46    1.51
   6  -9 -17    1.22    2.11
   6  -9 -16    0.16    2.35
   6  -9 -16    1.07    2.12
   6  -9 -15    3.10    2.43
   6  -9 -15   -1.76    1.27
   6  -9 -14    0.76    2.35
   6   9 -14   -3.71    2.37
   6  -9 -14    2.85    2.10
   6   9 -13   -2.48    2.06
   6  -9 -13    2.54    3.22
   6  -9 -13    1.28    2.13
   6   9 -12    0.82    2.34
   6  -9 -12    2.46    2.58
   6  -9 -12    4.21    1.65
   6  -9 -11    1.76    2.31
   6   9 -11    0.61    1.04
   6  -9 -11    1.66    1.38
   6   9 -10    4.09    2.91
   6  -9 -10    0.46    1.68
   6  -9 -10    2.24    2.10
   6   9  -9    3.71    2.09
   6  -9  -9    0.01    1.61
   6  -9  -9    1.27    1.33
   6   9  -8    3.22    1.87
  -6   9  -8    4.44    2.50
   6  -9  -8    2.08    1.94
   6  -9  -8    4.34    2.21
   6   9  -7    1.96    2.53
   6  -9  -7    6.97    3.33
  -6   9  -7    3.06    1.93
   6  -9  -7    9.80    3.94
   6  -9  -6    7.57    3.63
   6   9  -6    7.23    3.30
  -6   9  -6   -1.47    2.28
   6  -9  -6   10.74    3.10
   6   9  -5    5.34    3.22
  -6   9  -5    7.92    3.15
   6  -9  -5    4.80    2.61
   6  -9  -5    6.01    2.81
   6   9  -4    0.92    1.25
  -6   9  -4    0.88    2.26
   6  -9  -4    0.78    1.21
   6  -9  -4   -0.11    1.81
   6   9  -3    1.52    0.89
  -6   9  -3    0.19    1.44
   6  -9  -3    0.77    2.45
   6  -9  -3    1.08    1.30
   6   9  -2    1.15    2.07
   6   9  -2   -0.20    1.30
  -6   9  -2    1.39    1.21
   6  -9  -2   -1.55    1.38
   6   9  -1    6.35    2.84
   6   9  -1    7.66    2.88
  -6   9  -1    5.09    2.30
   6  -9  -1    9.42    3.16
   6   9   0   -0.72    0.81
   6   9   0    0.06    1.58
   6  -9   0    2.62    1.24
   6   9   1   14.35    3.45
  -6   9   1    3.38    2.28
   6   9   1    9.71    3.50
   6  -9   1   10.29    3.19
   6   9   2   -1.21    1.43
   6   9   2   -0.18    2.02
  -6   9   2    2.14    2.27
   6  -9   2    2.87    3.05
   6   9   3    1.87    1.86
  -6   9   3    2.13    2.14
   6  -9   3   -0.86    2.10
   6   9   3    3.79    1.59
   6   9   4    2.02    2.17
  -6   9   4   -1.97    1.14
   6   9   4    0.81    0.96
   6  -9   4   -1.02    0.93
   6   9   5    5.05    2.31
  -6   9   5    1.46    0.98
   6  -9   5    1.87    1.25
   6   9   6    4.09    2.37
   6   9   6    6.34    2.89
  -6   9   6    0.69    0.96
   6   9   7    6.66    3.28
   6   9   7    5.05    2.25
  -6   9   7    2.59    1.22
   6  -9   7    4.60    2.78
   6   9   8    0.24    1.76
   6   9   8    2.07    2.23
  -6   9   8    2.09    2.28
   6  -9   8    2.94    1.82
   6   9   9    1.97    2.56
   6   9   9    0.42    0.90
  -6   9   9    0.60    1.31
   6  -9   9   -0.35    2.05
   6   9  10   -1.05    1.07
   6   9  10    0.37    0.95
  -6   9  10    1.44    1.98
   6  -9  10    2.20    2.40
   6   9  11    1.96    1.64
   6   9  11    0.33    0.96
  -6   9  11    1.69    2.26
  -6   9  12    9.54    3.28
   6   9  12    4.55    2.64
   6   9  12    2.40    2.15
   6   9  13    1.33    2.74
   6   9  13   -2.57    2.23
  -6   9  13    2.21    1.93
  -6   9  14    3.47    2.57
   6   9  14    4.17    2.34
   6   9  14   -0.72    1.70
   6   9  15    0.55    1.58
   6   9  15   -0.48    1.22
  -6   9  15    1.18    2.02
   6   9  16   -1.43    2.22
   6   9  16   -3.60    2.97
  -6   9  16   -0.13    1.85
   6   9  17   -1.08    2.34
   6   9  17   -2.79    2.80
  -6   9  17    1.33    2.22
   6   9  18    6.24    3.34
   6   9  18    1.67    3.35
   6 -10 -13   -0.43    2.68
   6 -10 -13   -0.44    1.01
   6  10 -12    0.32    2.76
   6 -10 -12   -0.24    2.41
   6 -10 -12    6.00    3.26
   6  10 -11    1.89    2.22
   6 -10 -11    5.35    3.43
   6 -10 -11    3.60    2.78
   6  10 -10    2.59    2.51
   6 -10 -10   -0.39    1.78
   6  10  -9    4.27    2.26
   6 -10  -9   -0.67    1.53
   6  10  -8   14.39    4.49
   6 -10  -8   14.21    4.10
  -6  10  -7   -0.09    1.59
   6 -10  -7    2.17    1.78
   6  10  -6    0.87    1.10
  -6  10  -6    1.69    1.33
   6 -10  -6    4.87    2.91
   6  10  -5    1.61    1.35
   6 -10  -5    3.86    2.22
   6  10  -4   11.93    4.07
  -6  10  -4    9.81    3.93
   6 -10  -4    5.79    2.26
  -6  10  -3    0.54    1.38
   6  10  -3    4.57    2.52
   6 -10  -3    3.43    2.84
   6  10  -2    9.60    3.36
  -6  10  -2   14.28    4.20
   6 -10  -2   14.02    4.29
   6 -10  -1    3.83    1.53
   6  10  -1    2.58    1.47
   6  10  -1    2.39    2.69
  -6  10  -1    4.50    2.84
   6  10   0   -0.20    1.73
   6  10   0   -0.97    1.11
  -6  10   0   -0.51    1.37
   6 -10   0    2.54    2.90
   6  10   1    2.28    1.82
  -6  10   1    5.78    2.92
   6  10   1    3.96    2.97
   6 -10   1    1.09    1.77
   6  10   2   10.92    2.97
   6  10   2   17.20    4.57
  -6  10   2   17.76    4.38
   6 -10   2   12.86    3.87
   6  10   3    1.52    1.57
   6  10   3    6.19    3.27
  -6  10   3    3.84    1.74
   6 -10   3    1.52    1.49
   6  10   4    8.75    3.97
   6  10   4    9.77    3.57
  -6  10   4    9.41    3.53
   6 -10   4    7.91    2.87
   6 -10   5    2.47    1.94
   6  10   5    7.48    2.82
   6  10   5    0.75    2.06
  -6  10   5    2.77    2.12
   6  10   6    4.46    2.33
   6  10   6    0.12    1.46
  -6  10   6    0.09    1.53
   6 -10   6    2.21    2.47
   6  10   7    5.44    3.34
   6  10   7    1.42    1.73
  -6  10   7    5.52    3.21
   6 -10   7    2.95    2.22
   6  10   8    9.30    3.83
   6  10   8    5.50    2.94
  -6  10   8   18.30    4.76
   6 -10   8   10.00    3.53
   6  10   9   -0.76    1.81
   6  10   9   -0.45    1.16
  -6  10   9    3.98    2.26
   6 -10   9   -0.94    2.28
   6  10  10   -1.23    1.98
   6  10  10    0.68    1.51
  -6  10  10    1.99    1.91
   6  10  11    2.07    2.14
   6  10  11    0.38    1.12
  -6  10  11    3.63    2.95
  -6  10  12    5.94    3.29
   6  10  12    0.51    2.18
   6  10  12    4.40    2.98
   6  10  13    0.18    1.19
   6  10  13   -0.62    1.60
  -6  10  13   -0.37    2.04
   6  11  -6    3.16    2.82
  -6  11  -6    0.24    2.31
   6 -11  -6    1.37    1.16
   6  11  -5    4.81    2.86
  -6  11  -5    3.13    2.29
   6 -11  -5    5.77    3.02
   6  11  -4    2.63    2.30
  -6  11  -4   -0.05    1.86
   6 -11  -4   -0.37    1.75
   6  11  -3   -1.79    2.15
  -6  11  -3    3.26    3.44
   6 -11  -3    1.97    1.79
   6  11  -2    1.47    1.37
  -6  11  -2    0.85    2.02
   6 -11  -2    1.72    1.62
   6  11  -1    2.78    2.65
  -6  11  -1    1.28    1.93
   6 -11  -1   -0.33    2.50
  -6  11   0   -0.13    1.02
   6 -11   0   -1.76    2.14
   6  11   0    0.31    2.12
   6  11   1    0.55    1.37
   6  11   1    4.11    2.53
  -6  11   1    5.17    2.83
   6 -11   1    4.92    3.19
   6  11   2    2.48    2.69
   6  11   2   -0.84    0.97
   6 -11   2   -1.36    2.47
   6  11   3    1.83    1.29
   6  11   3   -0.86    1.47
  -6  11   3   -0.17    1.06
   6 -11   3    2.05    2.16
   6  11   4    0.11    1.30
   6  11   4    0.70    2.13
  -6  11   4   -1.07    2.24
   6 -11   4    0.87    1.56
   6 -11   5    4.95    3.12
   6  11   5   -0.16    2.21
   6  11   5    2.92    2.10
  -6  11   5    0.02    2.41
   6  11   6    3.54    2.10
   6  11   6   -0.78    2.49
  -6  11   6    2.40    2.26
   6 -11   6    6.04    3.51
   7   0 -28   -3.56    2.93
   7   0 -27   -2.85    2.37
   7   0 -26   -1.93    2.51
   7   0 -25   -0.10    1.12
   7   0 -24   -0.17    1.11
   7   0 -23   -2.48    2.52
   7   0 -22   -0.33    1.24
   7   0 -21    0.02    0.81
   7   0 -20    0.68    1.03
   7   0 -19   -0.13    1.07
   7   0 -18    0.56    1.68
   7   0 -17    0.31    1.22
   7   0 -16   -0.62    1.05
   7   0 -15   -0.53    1.44
   7   0 -14    1.15    1.43
   7   0 -14    3.76    2.09
   7   0 -13    0.38    0.62
   7   0 -13   -0.62    0.90
   7   0 -12    1.28    0.97
   7   0 -12    0.12    0.61
   7   0 -11    0.82    0.60
   7   0 -11    0.12    1.05
   7   0 -10    0.63    0.93
   7   0 -10    1.00    1.44
   7   0  -9   -0.75    0.83
   7   0  -9   -0.55    0.93
   7   0  -8   -0.45    0.65
   7   0  -8    0.13    0.95
   7   0  -8   -0.73    1.43
   7   0  -7   -0.15    0.79
   7   0  -7    0.50    0.58
   7   0  -7    0.72    1.62
   7   0  -6   -0.18    0.67
   7   0  -6   -0.25    0.59
   7   0  -6   -0.18    0.65
   7   0  -5    0.91    0.86
   7   0  -5   -0.56    1.12
   7   0  -5    0.35    0.70
   7   0  -4   -0.19    0.81
   7   0  -4    0.09    0.39
   7   0  -4    0.39    0.37
   7   0  -3    1.34    0.82
   7   0  -3    0.49    0.83
   7   0  -3    0.23    0.84
   7   0  -2   -0.09    0.55
   7   0  -2   -0.60    0.94
   7   0  -2   -0.25    0.86
   7   0  -1    0.35    1.31
   7   0  -1   -0.24    0.57
   7   0  -1    0.26    0.50
   7   0   0    1.12    0.82
   7   0   0   -0.13    0.50
   7   0   0    0.24    0.89
   7   0   1    0.05    0.88
   7   0   1    0.22    1.01
   7   0   2   -0.01    0.63
   7   0   2    0.44    0.65
   7   0   3    0.26    0.55
   7   0   3    0.07    0.80
   7   0   4    0.26    0.41
   7   0   4   -0.14    0.45
   7   0   5   -0.20    0.60
   7   0   5    0.27    0.46
   7   0   6   -0.14    0.98
   7   0   6    0.82    0.86
   7   0   7   -0.62    1.06
   7   0   7   -0.24    0.60
   7   0   8   -0.05    0.58
   7   0   8    0.17    0.31
   7   0   9    1.14    1.00
   7   0   9    1.09    1.14
   7   0  10    0.07    0.59
   7   0  10    0.61    0.54
   7   0  11    0.33    1.12
   7   0  11    0.64    0.91
   7   0  12    0.50    0.86
   7   0  12   -0.09    0.65
   7   0  13    0.69    1.21
   7   0  13    0.04    0.50
   7   0  14   -0.10    1.20
   7   0  15    0.58    1.94
   7   0  16    0.85    1.69
   7   0  17   -0.50    0.79
   7   0  18    0.02    1.36
   7   0  19   -0.42    1.24
   7   0  20    0.10    1.01
   7   0  21    1.31    2.07
   7   0  22   -1.97    1.81
   7   0  23   -0.30    2.15
   7  -1 -29   -0.10    1.53
   7  -1 -28   29.37    5.73
   7  -1 -27    5.84    3.08
   7  -1 -26    1.05    1.39
   7   1 -25   -1.35    2.19
   7  -1 -25    3.08    1.70
   7   1 -24   58.99    7.33
   7  -1 -24   53.60    7.18
   7   1 -23   -0.29    0.96
   7  -1 -23   -0.92    0.97
   7  -1 -22   30.78    5.24
   7   1 -22   33.82    5.53
   7   1 -21   24.91    4.90
   7  -1 -21   23.77    4.98
   7   1 -20   27.15    4.63
   7  -1 -20   35.28    5.67
   7   1 -19   23.59    4.71
   7  -1 -19   23.97    4.47
   7   1 -18   24.39    4.33
   7  -1 -18   26.78    4.73
   7  -1 -17   31.47    4.58
   7   1 -17   19.80    3.88
   7   1 -16  301.05   14.19
   7  -1 -16  312.37   15.34
   7  -1 -15   66.36    6.13
   7   1 -15   73.37    6.88
   7  -1 -15   66.92    6.89
   7   1 -14  406.60   15.86
   7  -1 -14  442.30   17.28
   7  -1 -14  389.34   14.18
   7   1 -13   55.57    5.70
   7   1 -13   70.97    6.32
   7  -1 -13   59.67    6.26
   7  -1 -13   62.09    5.62
   7   1 -12   95.82    7.22
   7   1 -12  106.03    7.65
   7  -1 -12   90.51    6.81
   7   1 -12   85.65    5.21
   7  -1 -12  104.06    8.20
   7   1 -11   84.70    6.66
   7  -1 -11   88.64    7.24
   7  -1 -11   76.97    6.13
   7   1 -11  100.96    7.45
   7   1 -11   91.79    5.44
   7   1 -10   26.95    3.00
   7   1 -10   23.79    3.57
   7  -1 -10   19.73    3.39
   7  -1 -10   28.55    3.66
   7   1 -10   24.97    3.63
   7   1  -9   25.58    3.79
   7   1  -9   20.57    2.77
   7   1  -9   22.76    3.39
   7  -1  -9   19.24    3.27
   7  -1  -9   23.75    3.41
   7  -1  -8   81.37    6.12
   7   1  -8   88.68    5.47
   7   1  -8   79.52    6.04
   7  -1  -8   80.18    6.72
   7   1  -8   88.19    6.72
   7  -1  -7   74.21    5.76
   7   1  -7   71.15    4.95
   7  -1  -7   65.67    5.85
   7   1  -7   73.78    5.78
   7   1  -7   70.50    5.85
   7  -1  -6  224.13   10.13
   7   1  -6  230.52    9.14
   7  -1  -6  220.62   10.61
   7   1  -6  225.30    9.81
   7   1  -6  251.85   10.97
   7  -1  -5  281.55   11.88
   7   1  -5  286.25   10.91
   7  -1  -5  294.40   11.41
   7   1  -5  291.72   10.37
   7   1  -5  286.96   11.49
   7  -1  -4  162.13    8.50
   7   1  -4  159.79    7.84
   7  -1  -4  175.96    9.32
   7   1  -4  149.66    7.89
   7   1  -4  166.83    8.88
   7  -1  -3  355.48   12.55
   7   1  -3  366.95   11.81
   7  -1  -3  396.49   13.87
   7   1  -3  373.39   12.42
   7   1  -3  373.30   12.96
   7  -1  -2  621.86   16.58
   7   1  -2  618.50   15.42
   7  -1  -2  594.68   16.83
   7   1  -2  588.56   15.56
   7   1  -2  609.76   16.52
   7  -1  -1   28.21    3.43
   7   1  -1   29.85    3.46
   7  -1  -1   25.55    3.46
   7   1  -1   31.68    3.48
   7   1  -1   39.53    4.19
   7   1   0    3.57    1.01
   7   1   0    3.49    1.40
   7  -1   0    3.45    1.33
   7  -1   0    3.92    1.25
   7   1   1   29.08    3.57
   7  -1   1   26.24    3.65
   7  -1   1   31.96    3.87
   7   1   1   29.93    3.55
   7  -1   2  610.21   16.85
   7   1   2  624.64   16.56
   7   1   2  596.13   15.71
   7   1   3  372.17   12.40
   7  -1   3  373.79   13.40
   7   1   3  345.26   12.63
   7   1   4  174.66    8.36
   7   1   4  165.95    8.71
   7  -1   5  293.12   11.97
   7   1   5  268.18   10.50
   7   1   5  282.39   11.68
   7  -1   6  232.91   10.69
   7   1   6  238.20    9.74
   7   1   6  224.73   10.63
   7   1   7   69.91    5.98
   7   1   7   74.05    5.47
   7  -1   7   65.45    5.80
   7   1   8   82.24    6.57
   7  -1   8   84.41    6.75
   7   1   8   72.73    5.44
   7   1   9   21.37    3.46
   7  -1   9   18.61    3.43
   7   1   9   20.90    2.92
   7   1  10   28.43    4.01
   7  -1  10   26.77    3.78
   7   1  10   26.74    3.16
   7   1  11   90.87    7.22
   7  -1  11   88.89    7.17
   7   1  11   93.10    5.99
   7   1  12  107.37    8.17
   7  -1  12   96.73    7.53
   7   1  12   95.95    5.96
   7   1  13   42.93    5.16
   7  -1  13   60.76    6.26
   7   1  13   58.84    4.65
   7   1  14  402.57   16.35
   7  -1  14  420.84   16.32
   7   1  14  430.81   12.32
   7   1  15   67.50    6.87
   7  -1  15   56.91    6.08
   7   1  16  311.74   14.92
   7  -1  16  313.81   14.81
   7  -1  17   28.76    4.81
   7   1  17   19.71    3.60
   7  -1  18   25.12    4.28
   7   1  18   25.85    4.32
   7  -1  19   22.40    4.27
   7   1  19   28.20    4.48
   7  -1  20   26.44    4.75
   7   1  20   26.21    4.94
   7  -1  21   20.56    4.53
   7   1  21   21.36    4.26
   7  -1  22   34.04    5.73
   7   1  22   36.87    5.86
   7   1  23    3.04    2.05
   7   1  24   53.15    7.16
   7  -2 -29    2.22    1.12
   7  -2 -28   -4.31    2.30
   7  -2 -27   -2.69    2.31
   7  -2 -26    2.40    2.37
   7  -2 -25    6.39    2.86
   7  -2 -24    5.12    2.48
   7  -2 -23    7.50    2.25
   7  -2 -22    4.33    2.32
   7  -2 -21   18.82    4.22
   7  -2 -20    5.72    2.21
   7   2 -20   -3.71    1.69
   7   2 -19    0.24    1.46
   7  -2 -19   -0.58    1.84
   7   2 -18   38.63    5.54
   7  -2 -18   39.38    6.22
   7  -2 -17   13.59    3.84
   7   2 -17   17.69    3.53
   7   2 -17   16.41    3.38
   7  -2 -17   22.55    4.39
   7   2 -16  203.45   11.19
   7  -2 -16  211.05   12.72
   7  -2 -16  193.92   11.43
   7   2 -16  179.68   10.92
   7  -2 -15   64.80    7.19
   7   2 -15   71.75    6.64
   7  -2 -15   58.63    6.16
   7   2 -15   63.17    6.17
   7   2 -14   54.77    5.64
   7  -2 -14   54.21    6.48
   7  -2 -14   52.56    5.69
   7   2 -14   56.85    6.08
   7   2 -13   39.41    4.61
   7  -2 -13   43.88    5.64
   7  -2 -13   41.92    4.83
   7   2 -13   42.19    4.92
   7  -2 -12   89.28    7.63
   7   2 -12   88.05    6.65
   7   2 -12   97.08    7.49
   7  -2 -12   79.21    6.93
   7  -2 -11    8.24    2.19
   7   2 -11    8.34    1.88
   7  -2 -11   11.27    2.57
   7   2 -11    9.26    2.39
   7   2 -11    9.75    2.34
   7   2 -10   57.63    4.05
   7   2 -10   59.19    5.13
   7  -2 -10   62.65    6.25
   7  -2 -10   64.70    6.03
   7   2 -10   58.85    5.58
   7   2  -9   97.51    5.40
   7  -2  -9   97.72    7.80
   7   2  -9   99.49    6.41
   7  -2  -9   99.52    7.39
   7   2  -9   99.73    7.28
   7  -2  -8  227.58   11.19
   7   2  -8  217.61    8.37
   7  -2  -8  214.86   11.20
   7   2  -8  212.84    9.23
   7   2  -8  215.35   10.59
   7  -2  -7    6.88    1.67
   7  -2  -7   11.14    2.71
   7   2  -7   10.10    1.91
   7   2  -7    8.50    2.08
   7   2  -7   11.84    1.97
   7   2  -6   26.86    3.13
   7  -2  -6   22.92    3.89
   7   2  -6   30.29    3.14
   7   2  -6   22.94    3.38
   7  -2  -6   27.02    3.54
   7  -2  -5  158.16    9.05
   7  -2  -5  129.98    8.40
   7   2  -5  153.15    7.63
   7   2  -5  154.92    7.49
   7   2  -5  148.16    8.66
   7  -2  -4   28.74    3.84
   7  -2  -4   26.80    3.77
   7   2  -4   34.31    3.52
   7   2  -4   32.33    3.48
   7   2  -4   29.26    4.06
   7  -2  -3  133.48    8.21
   7   2  -3  151.46    7.53
   7  -2  -3  120.25    7.93
   7   2  -3  146.61    7.49
   7   2  -3  133.77    8.00
   7  -2  -2   87.67    6.64
   7   2  -2   80.04    5.58
   7  -2  -2   82.94    6.62
   7   2  -2   83.58    5.71
   7   2  -2   76.42    6.10
   7   2  -1    3.39    1.46
   7  -2  -1    1.99    1.47
   7   2  -1    2.31    1.15
   7  -2  -1   -0.48    0.78
   7   2   0    1.08    1.29
   7  -2   0   -0.05    0.58
   7  -2   0   -0.48    0.86
   7   2   0    0.61    0.80
   7   2   1    1.09    0.67
   7   2   1    1.45    0.84
   7  -2   1    1.92    0.76
   7  -2   1    2.46    1.34
   7   2   2   74.13    5.81
   7  -2   2   80.02    6.34
   7  -2   2   65.58    5.78
   7   2   2   77.17    6.07
   7   2   3  150.43    8.43
   7  -2   3  142.01    8.42
   7   2   3  145.52    8.29
   7   2   4   37.68    4.35
   7  -2   4   29.16    3.94
   7   2   4   32.62    3.92
   7   2   5  142.68    8.18
   7  -2   5  158.27    9.17
   7   2   6   28.49    3.61
   7   2   6   28.76    3.99
   7  -2   6   24.47    3.71
   7  -2   7    6.83    2.02
   7   2   7   10.55    2.17
   7   2   7    7.68    2.12
   7   2   8  217.85    9.99
   7   2   8  214.15   11.08
   7  -2   8  212.07   10.91
   7   2   9  108.11    7.05
   7   2   9  106.16    7.96
   7  -2   9  101.03    7.52
   7   2  10   58.51    5.22
   7   2  10   68.73    6.52
   7  -2  10   64.42    6.15
   7   2  11    7.59    2.08
   7  -2  11    6.99    2.14
   7   2  11    9.76    2.62
   7   2  12   93.13    6.68
   7   2  12   94.69    7.84
   7  -2  12   86.16    7.43
   7   2  13   40.78    4.32
   7   2  13   51.85    5.78
   7  -2  13   46.33    5.58
   7   2  14   48.86    5.92
   7  -2  14   63.73    6.41
   7   2  14   55.45    5.09
   7   2  15   60.39    6.87
   7  -2  15   62.55    6.60
   7   2  15   67.78    5.63
   7   2  16  193.46   12.00
   7  -2  16  169.34   11.05
   7   2  17   18.81    4.33
   7  -2  17   21.50    3.99
   7   2  18   34.07    5.41
   7  -2  18   40.00    5.61
   7   2  19   -0.11    1.52
   7  -2  19   -0.62    1.35
   7   2  20    7.68    2.86
   7  -2  20   10.29    2.91
   7  -2  21   19.08    4.01
   7   2  21   25.21    4.67
   7   2  22    3.04    1.07
   7   2  23   14.24    3.44
   7   2  24    2.76    2.52
   7   2  25    9.29    3.16
   7  -3 -28   11.99    4.28
   7  -3 -27    0.25    1.06
   7  -3 -26    3.18    1.49
   7  -3 -25    4.48    1.68
   7  -3 -24   49.06    7.25
   7  -3 -23    3.39    1.97
   7  -3 -22    0.72    1.21
   7  -3 -21    1.35    2.30
   7  -3 -20   64.77    8.06
   7  -3 -19    7.05    3.59
   7  -3 -18  215.71   12.78
   7  -3 -18  252.81   14.82
   7   3 -18  215.34   12.52
   7  -3 -17   23.15    4.35
   7  -3 -17   15.45    3.76
   7   3 -17   20.51    4.16
   7  -3 -16    9.99    2.84
   7  -3 -16    9.57    2.93
   7   3 -16   10.74    2.80
   7  -3 -15   22.04    4.49
   7  -3 -15   19.64    3.84
   7   3 -15   12.06    3.14
   7  -3 -14  477.63   19.20
   7   3 -14  481.38   17.84
   7   3 -13    5.32    1.88
   7  -3 -13    9.96    2.76
   7   3 -13   10.10    3.00
   7  -3 -13    8.49    3.24
   7   3 -12  591.79   19.24
   7  -3 -12  620.76   20.31
   7   3 -12  577.05   16.35
   7  -3 -12  618.21   20.90
   7  -3 -11   71.79    6.93
   7  -3 -11   74.88    6.86
   7   3 -11   74.67    5.57
   7   3 -11   59.47    6.08
   7   3 -10   14.23    3.18
   7  -3 -10   13.96    3.01
   7   3 -10   19.70    2.79
   7  -3 -10   13.79    3.07
   7  -3  -9   27.54    4.44
   7   3  -9   30.20    3.16
   7   3  -9   27.99    3.15
   7  -3  -9   19.34    3.37
   7   3  -9   31.31    4.20
   7  -3  -8  571.82   18.93
   7   3  -8  521.89   13.19
   7  -3  -8  544.81   18.16
   7   3  -8  559.85   18.23
   7   3  -7   11.51    2.75
   7  -3  -7   13.63    2.99
   7   3  -7   16.14    2.38
   7  -3  -7    8.23    2.80
   7   3  -7   14.31    2.18
   7   3  -6  339.14   10.86
   7   3  -6  341.75   11.50
   7  -3  -6  344.81   14.21
   7   3  -6  340.67   14.04
   7  -3  -5   45.28    5.21
   7   3  -5   37.26    3.55
   7  -3  -5   39.17    5.02
   7   3  -5   39.48    4.69
   7   3  -5   43.70    4.26
   7   3  -4    1.78    1.02
   7  -3  -4    2.13    1.45
   7   3  -4    0.87    0.81
   7   3  -4    1.91    0.78
   7  -3  -4    1.24    1.17
   7  -3  -3   29.41    4.11
   7   3  -3   13.70    2.71
   7   3  -3   22.57    3.06
   7   3  -3   25.79    2.89
   7  -3  -3   17.52    3.23
   7  -3  -2  615.86   18.63
   7   3  -2  629.45   16.95
   7  -3  -2  594.52   18.37
   7   3  -2  647.03   15.02
   7   3  -2  591.68   18.02
   7   3  -1   19.79    3.44
   7  -3  -1   23.69    3.66
   7   3  -1   25.55    3.40
   7  -3  -1   28.43    4.07
   7   3   0    2.01    1.05
   7   3   0    1.01    1.02
   7  -3   0    0.49    1.09
   7  -3   0    0.19    1.02
   7   3   1   28.04    3.95
   7  -3   1   20.56    3.49
   7   3   1   29.59    3.79
   7  -3   1   24.13    3.68
   7   3   2  652.44   18.40
   7  -3   2  609.97   18.57
   7  -3   2  622.01   18.41
   7   3   3   19.86    3.28
   7  -3   3   25.20    3.77
   7   3   3   22.67    3.46
   7  -3   3   19.49    3.29
   7   3   4    0.96    0.65
   7   3   4    0.60    0.82
   7  -3   4    1.94    1.00
   7  -3   4    2.37    1.58
   7  -3   5   36.27    4.53
   7   3   5   31.50    4.30
   7   3   6  347.71   13.76
   7  -3   6  321.99   13.61
   7   3   6  343.48   14.15
   7   3   7   10.95    2.72
   7   3   7   12.18    2.69
   7  -3   7   12.55    2.81
   7   3   8  544.92   17.42
   7  -3   8  548.02   17.89
   7   3   8  556.09   18.55
   7   3   9   22.48    3.44
   7   3   9   23.26    3.82
   7  -3   9   21.59    3.82
   7   3  10   18.24    2.95
   7  -3  10   19.89    3.53
   7   3  10   20.70    3.89
   7   3  11   66.85    5.99
   7  -3  11   78.93    7.03
   7   3  11   81.50    7.21
   7   3  12  607.08   18.45
   7  -3  12  585.96   19.41
   7   3  12  570.72   19.98
   7   3  13    4.64    1.99
   7   3  13    7.29    2.21
   7  -3  13    7.39    2.22
   7  -3  14  478.75   18.13
   7   3  14  497.49   19.33
   7   3  14  481.44   16.79
   7   3  15   17.36    3.24
   7   3  15   26.90    4.56
   7  -3  15   20.47    3.71
   7   3  16    7.85    2.08
   7   3  16   11.23    2.90
   7  -3  16    8.25    2.72
   7   3  17   19.84    4.00
   7  -3  17   22.09    4.39
   7   3  18  201.98   13.17
   7  -3  18  204.05   12.73
   7  -3  19   13.52    3.43
   7   3  19   13.43    3.73
   7   3  20   76.02    8.33
   7   3  21    0.85    1.93
   7   3  22    1.81    2.14
   7   3  23    3.81    2.06
   7   3  24   45.58    6.70
   7   3  25    2.57    1.88
   7   3  26    3.24    1.44
   7  -4 -27    5.13    2.93
   7  -4 -26    3.22    2.38
   7  -4 -25    1.12    2.32
   7  -4 -24   -0.73    2.31
   7  -4 -23   -0.22    1.64
   7  -4 -22   15.27    3.81
   7  -4 -21    5.88    2.04
   7  -4 -20   -2.30    2.50
   7  -4 -19   86.58    8.92
   7  -4 -19   76.67    8.27
   7  -4 -18   31.55    5.53
   7  -4 -18   24.82    4.69
   7  -4 -17    0.91    1.79
   7   4 -17    3.75    1.76
   7  -4 -17    3.17    1.58
   7  -4 -16    3.27    2.11
   7  -4 -16    3.03    1.74
   7   4 -16    8.74    2.25
   7  -4 -15   18.91    4.14
   7   4 -15   32.27    4.87
   7  -4 -15   24.38    4.52
   7  -4 -14   51.78    6.61
   7  -4 -14   57.24    6.59
   7   4 -14   47.43    5.82
   7  -4 -13   60.31    6.75
   7  -4 -13   55.63    6.68
   7   4 -13   41.80    5.40
   7   4 -12   13.89    3.40
   7  -4 -12   11.38    2.98
   7  -4 -12    7.76    2.53
   7  -4 -11  116.58    9.38
   7  -4 -11  104.42    8.85
   7   4 -11   97.26    8.19
   7  -4 -10   20.44    3.64
   7  -4 -10   22.01    4.23
   7   4 -10   28.49    4.50
   7  -4  -9    3.92    1.69
   7   4  -9    4.79    1.79
   7  -4  -9    4.69    1.60
   7  -4  -8   44.62    5.55
   7  -4  -8   47.39    5.66
   7   4  -8   38.17    3.77
   7   4  -8   43.87    5.52
   7   4  -7  275.71   13.25
   7   4  -7  256.60   10.21
   7  -4  -7  254.63   13.22
   7  -4  -7  281.24   13.69
   7   4  -6   23.57    3.90
   7   4  -6   25.80    3.45
   7  -4  -6   25.50    4.42
   7  -4  -6   26.99    4.36
   7  -4  -5    3.01    1.26
   7   4  -5    3.95    1.99
   7  -4  -5    2.58    0.81
   7   4  -5    1.19    0.62
   7   4  -5    2.21    1.20
   7   4  -4    2.33    1.23
   7   4  -4    2.55    0.55
   7  -4  -4    3.52    1.55
   7  -4  -4    2.92    1.43
   7   4  -4    2.35    0.91
   7   4  -3   32.07    4.60
   7   4  -3   40.49    4.52
   7  -4  -3   33.06    4.38
   7   4  -3   28.89    3.05
   7  -4  -3   39.83    5.07
   7   4  -2    2.70    0.90
   7  -4  -2    1.45    1.14
   7   4  -2    1.96    0.94
   7  -4  -2    3.09    1.78
   7   4  -1    5.87    2.00
   7  -4  -1    6.53    1.83
   7   4  -1    8.73    2.00
   7  -4  -1    4.99    1.99
   7   4   0   -0.24    1.23
   7  -4   0    0.92    1.36
   7   4   0   -0.13    0.82
   7  -4   0   -0.42    1.16
   7   4   1    3.67    1.83
   7  -4   1    4.90    1.66
   7   4   1   11.37    2.60
   7  -4   1   10.34    2.73
   7   4   2   -0.37    0.77
   7   4   2    0.03    0.80
   7  -4   3   29.82    4.57
   7   4   3   39.67    5.11
   7  -4   3   38.13    4.94
   7   4   4    4.69    1.77
   7  -4   4    3.18    1.41
   7   4   4    4.60    1.76
   7  -4   4    1.44    1.11
   7   4   5    0.88    0.59
   7  -4   5    7.09    2.36
   7  -4   5    3.56    1.41
   7   4   5    6.39    2.32
   7   4   6   26.68    4.01
   7  -4   6   24.52    3.90
   7  -4   6   29.53    4.24
   7   4   6   24.68    3.73
   7   4   7  274.08   13.26
   7  -4   7  265.69   13.10
   7   4   7  270.49   13.33
   7  -4   7  281.30   13.23
   7   4   8   45.38    5.33
   7  -4   8   48.85    5.78
   7   4   8   38.00    4.86
   7   4   9    2.19    0.64
   7  -4   9    5.33    1.92
   7   4   9    2.42    1.50
   7   4  10   27.55    4.02
   7  -4  10   22.68    3.96
   7   4  10   25.15    4.21
   7   4  11  107.59    8.26
   7  -4  11  122.00    9.00
   7   4  11   96.72    8.31
   7   4  12   15.85    3.35
   7  -4  12   17.80    3.92
   7   4  12   14.81    3.60
   7   4  13   64.83    6.54
   7  -4  13   55.12    6.45
   7   4  13   60.62    6.85
   7   4  14   54.09    6.06
   7  -4  14   51.13    6.22
   7   4  15   21.68    4.01
   7  -4  15   18.30    3.41
   7   4  15   23.74    4.61
   7   4  16    5.00    1.38
   7  -4  16    5.41    1.51
   7   4  17    2.33    1.51
   7   4  17    4.06    2.18
   7  -4  17    6.14    2.23
   7  -4  18   31.71    5.60
   7   4  18   20.55    4.51
   7   4  19   74.60    8.14
   7   4  20    0.68    1.24
   7   4  21    7.17    2.89
   7   4  22   15.22    4.17
   7   4  23   -0.47    1.31
   7   4  24   -0.60    1.66
   7   4  25    2.58    2.41
   7   4  26    2.83    2.84
   7   4  27    9.57    4.27
   7  -5 -26   -1.20    1.46
   7  -5 -25    6.22    2.83
   7  -5 -24   20.92    5.41
   7  -5 -23    1.09    1.11
   7  -5 -22   28.84    5.47
   7  -5 -21    9.09    3.11
   7  -5 -20   -0.65    1.28
   7  -5 -20    1.31    1.96
   7  -5 -19   23.02    4.94
   7  -5 -19   16.26    4.25
   7  -5 -18   74.38    8.33
   7  -5 -18   78.11    8.77
   7   5 -17   19.92    4.23
   7  -5 -17   10.95    3.64
   7  -5 -17   21.99    4.41
   7   5 -16    8.07    2.85
   7  -5 -16    8.05    2.46
   7  -5 -16    4.81    2.36
   7   5 -15    6.03    1.97
   7  -5 -15    7.75    3.03
   7  -5 -15    5.98    2.83
   7  -5 -14    2.67    2.00
   7  -5 -14   -0.73    1.80
   7   5 -13    1.91    1.33
   7  -5 -13   -0.20    1.15
   7  -5 -13    0.61    1.56
   7  -5 -12   99.83    9.12
   7  -5 -12   99.06    9.16
   7   5 -12  102.22    8.89
   7   5 -11   19.07    3.64
   7  -5 -11   23.09    4.27
   7  -5 -11   23.66    4.48
   7   5 -10    1.34    0.63
  -7   5 -10    5.03    1.49
   7  -5 -10    5.61    2.72
   7  -5 -10    5.41    2.04
   7   5  -9    5.97    2.40
  -7   5  -9    6.31    1.84
   7  -5  -9    6.71    2.40
   7   5  -8  123.10    9.51
  -7   5  -8  127.67    8.99
   7  -5  -8  124.01    9.47
   7  -5  -8  104.39    9.08
   7   5  -7   31.85    4.92
   7   5  -7   32.48    4.06
   7  -5  -7   39.22    5.08
   7  -5  -7   28.58    4.66
   7  -5  -6    8.83    2.51
   7   5  -6    8.01    2.69
   7   5  -6    8.48    2.16
   7  -5  -6    8.94    3.06
   7   5  -5   24.71    4.20
   7  -5  -5   20.54    3.84
   7  -5  -5   21.76    4.13
   7   5  -5   20.20    3.23
   7   5  -4   23.71    4.14
   7   5  -4   23.42    3.80
   7  -5  -4   26.64    4.61
   7  -5  -4   23.40    3.99
   7   5  -3   24.35    3.82
   7   5  -3   22.98    3.77
   7  -5  -3   27.82    4.46
   7  -5  -3   25.97    4.27
   7   5  -2  142.97    9.99
   7   5  -2  142.20    9.15
   7  -5  -2  135.55    9.44
   7  -5  -2  155.40   10.62
   7  -5  -1    9.67    2.96
   7   5  -1   10.42    2.41
   7   5  -1    6.60    1.85
   7  -5  -1    7.41    2.36
   7  -5   0    0.85    0.66
   7   5   0    1.19    1.90
   7  -5   0   -0.39    1.32
   7   5   0   -0.02    0.97
   7  -5   1    9.15    2.53
   7   5   1    9.76    2.95
   7   5   1    7.35    2.27
   7  -5   1    6.17    2.12
   7   5   2  141.60   10.03
   7  -5   2  143.38   10.22
   7   5   2  154.73    9.85
   7  -5   2  143.13    9.83
   7   5   3   25.24    4.00
   7   5   3   27.22    4.41
   7  -5   3   17.73    3.44
   7  -5   3   27.86    4.57
   7   5   4   17.76    3.39
   7  -5   4   20.32    3.85
   7   5   4   23.31    3.83
   7  -5   4   17.76    3.33
   7   5   5   15.11    3.13
   7  -5   5   16.76    3.48
   7  -5   5   21.71    3.84
   7   5   5   17.31    3.29
   7   5   6   10.50    2.90
   7  -5   6    6.34    2.42
   7  -5   6   11.11    2.85
   7   5   6   10.60    2.57
   7  -5   7   27.42    4.47
   7   5   7   32.05    4.64
   7   5   7   29.84    4.53
   7  -5   7   32.73    4.65
   7  -5   8  119.13    9.38
   7   5   8  122.07    9.41
   7   5   8  126.12    9.45
   7  -5   8  113.00    8.79
   7   5   9   13.36    3.01
   7  -5   9   10.82    3.11
   7   5   9    9.10    2.86
   7  -5   9   10.27    2.25
   7   5  10    6.63    2.51
   7  -5  10    3.19    2.19
   7   5  10    3.05    1.93
   7  -5  10    7.29    2.53
   7  -5  11   24.49    4.59
   7   5  11   24.20    4.39
   7   5  11   24.51    4.33
   7  -5  12   99.45    8.77
   7   5  12   84.79    7.86
   7   5  12  110.81    9.28
   7   5  13   -0.12    1.12
   7  -5  13    2.22    1.83
   7   5  13    3.13    2.09
   7   5  14    6.77    2.97
   7  -5  14    5.39    2.70
   7   5  14    5.20    2.65
   7   5  15   11.81    3.48
   7  -5  15    6.66    2.70
   7   5  15    4.42    1.64
   7   5  16    6.01    2.57
   7  -5  16    4.51    1.90
   7   5  16    3.79    2.08
   7   5  17   18.26    4.28
   7  -5  17    6.47    2.81
   7   5  17   16.77    3.54
   7   5  18   79.25    8.37
   7   5  19   21.92    4.21
   7   5  20    2.04    2.29
   7   5  21    6.72    3.04
   7   5  22   20.40    4.96
   7   5  23    3.50    1.92
   7   5  24   30.24    5.51
   7   5  25    5.74    2.91
   7   5  26   -0.16    1.10
   7  -6 -24    2.00    2.95
   7  -6 -23   -2.40    1.50
   7  -6 -22    0.33    1.45
   7  -6 -21    7.74    2.72
   7  -6 -21    8.11    3.59
   7  -6 -20    0.91    1.20
   7  -6 -20    0.91    0.95
   7  -6 -19   -0.51    1.17
   7  -6 -19    0.58    0.94
   7  -6 -18   -0.04    1.33
   7  -6 -18   -0.26    1.48
   7  -6 -17   -1.19    1.84
   7  -6 -17    0.49    1.50
   7   6 -16    0.52    2.17
   7  -6 -16   -0.12    0.92
   7  -6 -16    1.06    2.04
   7   6 -15    2.40    1.72
   7  -6 -15   -1.59    2.08
   7  -6 -15    6.16    2.72
   7   6 -14    2.95    1.87
   7  -6 -14    1.74    1.82
   7  -6 -14    0.61    1.71
   7   6 -13   11.35    3.80
   7  -6 -13   13.48    3.94
   7  -6 -13   14.06    3.81
   7   6 -12   11.16    2.79
   7  -6 -12    2.78    2.05
   7  -6 -12    7.33    2.76
   7   6 -11   16.68    3.72
   7  -6 -11   12.62    3.27
   7  -6 -11   13.77    3.32
   7   6 -10    7.14    2.89
  -7   6 -10   -0.35    1.49
   7  -6 -10    4.44    1.68
   7  -6 -10    2.45    1.62
   7   6  -9   -0.04    0.76
  -7   6  -9    1.03    1.71
   7  -6  -9    0.91    1.15
   7  -6  -9    1.57    1.05
   7   6  -8    0.88    1.22
   7  -6  -8    3.03    1.62
  -7   6  -8    2.60    1.02
   7  -6  -8    3.01    2.39
  -7   6  -7    5.65    1.80
   7   6  -7    1.76    1.75
   7  -6  -7    6.07    2.55
   7  -6  -7    8.73    3.09
   7   6  -6    4.67    2.14
  -7   6  -6    1.02    1.09
   7   6  -6    3.23    1.92
   7  -6  -6    1.71    1.88
   7  -6  -6    2.71    2.17
   7  -6  -5   14.50    3.64
  -7   6  -5   14.82    3.19
   7   6  -5   13.26    2.79
   7   6  -5   17.32    3.57
   7  -6  -5   12.30    3.68
   7  -6  -4    9.70    2.88
   7   6  -4    7.60    2.29
  -7   6  -4    6.27    2.26
   7  -6  -4    6.91    2.37
   7   6  -4    5.19    1.51
   7  -6  -3   -1.47    1.50
   7   6  -3   -0.10    1.07
   7  -6  -3    2.05    1.40
   7   6  -3    0.34    0.88
   7  -6  -2    4.54    2.80
   7   6  -2    1.23    1.92
   7   6  -2    5.83    2.01
   7  -6  -2    7.84    2.46
   7  -6  -1   10.03    3.09
   7   6  -1    8.65    2.48
   7  -6  -1    8.80    2.50
   7   6  -1    9.73    2.66
   7  -6   0    0.28    1.00
   7  -6   0    1.82    2.05
   7   6   0    2.64    2.00
   7   6   0    4.56    2.09
   7   6   1    7.95    2.57
   7  -6   1   13.07    3.22
   7   6   1   11.25    3.28
   7  -6   1   10.15    2.85
   7   6   2    5.61    1.94
   7  -6   2    4.50    2.28
   7   6   2    4.22    1.98
   7  -6   2    3.77    1.69
   7   6   3    2.04    2.01
   7  -6   3    0.73    1.06
   7   6   3   -1.18    1.61
   7  -6   3    1.42    1.76
   7   6   4    6.29    2.50
   7  -6   4    7.41    2.20
   7   6   4   10.79    3.06
   7  -6   4    7.33    2.79
   7   6   5   15.44    3.46
   7  -6   5   20.32    4.10
   7   6   5   13.92    3.05
   7  -6   5   20.40    3.78
   7   6   6    2.58    1.64
   7  -6   6    2.64    1.57
   7   6   6    1.13    1.56
   7  -6   6    5.38    2.75
   7   6   7    6.56    2.14
   7  -6   7    6.30    1.88
   7   6   7    5.72    2.48
   7  -6   7    5.35    2.62
   7   6   8    0.49    1.57
   7  -6   8    0.15    1.43
   7   6   8    1.49    1.32
   7  -6   8    2.54    2.35
   7   6   9    0.08    1.29
   7  -6   9    1.58    1.01
   7   6   9    2.41    1.93
   7  -6   9    1.32    1.24
   7  -6  10    4.45    2.71
   7   6  10    3.21    2.17
   7  -6  10    5.56    2.51
   7   6  10    6.13    1.25
   7  -6  11    4.65    2.44
   7   6  11    8.56    2.76
   7  -6  11   14.28    3.66
   7   6  11    8.66    2.74
   7  -6  12    5.43    2.60
   7   6  12    9.20    3.19
   7  -6  12    2.75    1.55
   7   6  12    3.56    1.58
   7  -6  13    9.42    3.03
   7   6  13   13.62    3.40
   7   6  13    6.48    2.73
   7  -6  13   15.57    4.04
   7  -6  14    2.13    2.48
   7   6  14    0.08    1.04
   7   6  14    1.01    0.86
   7  -6  14    1.53    1.06
   7  -6  15    2.55    2.26
   7   6  15    0.92    1.64
   7   6  15    2.35    1.93
   7   6  16   -1.28    1.08
   7   6  16    1.98    1.69
   7   6  17    0.68    1.51
   7   6  17    0.84    1.38
   7   6  18    1.24    1.74
   7   6  18    0.60    1.54
   7   6  19    1.53    1.85
   7   6  20    1.19    1.97
  -7   6  20    1.01    1.64
   7   6  21    6.82    2.16
  -7   6  21    3.77    2.92
   7   6  22    1.00    1.04
  -7   6  22    0.63    1.75
   7   6  23    2.44    1.43
  -7   6  23    2.47    2.21
   7   6  24   -1.12    2.53
  -7   6  24   -1.09    3.13
   7  -7 -22    4.97    2.62
   7  -7 -22    0.18    1.24
   7  -7 -21    3.79    2.82
   7  -7 -21    0.71    1.09
   7  -7 -20    8.77    3.39
   7  -7 -20   14.47    3.71
   7  -7 -19    0.32    1.97
   7  -7 -19   -0.60    1.25
   7  -7 -18   46.31    6.69
   7  -7 -18   42.14    6.98
   7  -7 -17    0.76    1.54
   7  -7 -17   10.02    3.28
   7   7 -16    0.01    2.53
   7  -7 -16   -0.91    1.47
   7  -7 -16    0.10    1.63
   7   7 -15    0.28    1.12
   7  -7 -15    2.50    1.35
   7  -7 -15    1.59    1.09
   7   7 -14   13.36    3.97
   7  -7 -14   18.32    3.99
   7  -7 -14   14.63    4.47
   7  -7 -13    3.43    1.36
   7   7 -13    0.90    1.14
   7  -7 -13    3.06    1.70
   7  -7 -12   77.76    8.58
   7  -7 -12   62.23    7.90
   7   7 -12   64.53    7.83
   7   7 -11    3.86    2.16
   7  -7 -11    4.12    1.99
   7  -7 -11    4.14    2.18
   7   7 -10    0.47    1.89
   7  -7 -10   -0.66    1.47
   7  -7 -10    3.13    1.51
   7   7  -9    8.49    2.75
   7  -7  -9    5.22    1.78
  -7   7  -9    1.73    1.19
   7  -7  -9    7.31    2.34
   7   7  -8  106.69    9.27
  -7   7  -8  103.60    9.50
   7  -7  -8   92.93    9.03
   7  -7  -8   90.70    9.18
   7   7  -7    2.89    1.83
  -7   7  -7    6.95    2.88
   7  -7  -7    9.76    3.29
   7  -7  -7    7.63    2.72
   7  -7  -6   21.90    4.61
   7   7  -6   22.85    4.42
  -7   7  -6   18.67    3.92
   7  -7  -6   21.79    4.24
   7   7  -5   12.01    3.47
  -7   7  -5    8.29    2.68
   7  -7  -5    9.75    3.36
   7   7  -5    6.61    2.11
   7  -7  -5    9.24    2.90
   7   7  -4   35.06    5.52
  -7   7  -4   41.53    6.08
   7  -7  -4   36.45    5.57
   7   7  -4   32.91    4.74
   7  -7  -4   28.31    5.23
  -7   7  -3    2.65    1.95
   7   7  -3   -0.13    1.12
   7  -7  -3    0.69    1.39
   7   7  -3   -0.58    1.63
   7  -7  -3    2.37    2.73
   7   7  -2   70.76    7.59
  -7   7  -2   56.99    7.11
   7  -7  -2   67.31    7.61
   7   7  -2   61.94    6.87
   7  -7  -2   54.59    7.05
   7  -7  -1    7.31    2.36
   7   7  -1    9.08    3.18
   7   7  -1   14.11    3.98
  -7   7  -1   10.32    3.11
   7  -7  -1   12.07    3.50
   7  -7   0    1.11    2.20
   7   7   0    0.28    0.69
   7  -7   0    0.33    1.30
   7   7   0    1.14    1.58
  -7   7   0    2.37    2.52
   7  -7   1   13.52    3.46
   7   7   1   10.77    2.95
   7   7   1    8.27    2.62
  -7   7   1    6.84    2.26
   7  -7   1    9.96    3.09
   7   7   2   66.86    7.62
  -7   7   2   54.36    6.73
   7  -7   2   61.87    7.13
   7   7   2   59.27    6.81
   7  -7   2   50.52    6.68
   7  -7   3    2.49    2.11
   7   7   3    4.53    2.33
   7   7   3   -0.52    0.95
  -7   7   3    0.86    1.91
   7  -7   3    0.20    0.82
   7   7   4   39.04    5.52
  -7   7   4   34.57    5.52
   7  -7   4   35.70    5.23
   7   7   4   41.32    5.81
   7  -7   4   40.53    5.98
   7  -7   5   11.63    3.25
   7   7   5   15.46    3.24
   7   7   5    4.62    0.88
  -7   7   5   12.04    3.12
   7  -7   5   10.20    3.09
   7  -7   6   18.90    3.67
   7   7   6   13.49    3.52
   7   7   6   18.18    3.71
   7  -7   6   24.53    4.57
   7  -7   7    3.56    0.93
   7   7   7    6.05    2.52
   7   7   7    4.14    2.29
   7  -7   7    7.14    2.60
   7   7   8  105.35    9.67
   7   7   8  108.22    9.79
   7  -7   8  105.84    9.59
   7  -7   8  100.77    9.36
   7   7   9    5.21    1.72
   7  -7   9    6.52    3.50
   7   7   9    6.01    2.44
   7  -7   9    5.56    2.74
   7  -7  10   -0.53    1.00
   7   7  10    0.09    1.65
   7   7  10    1.67    2.43
   7  -7  10   -0.39    2.38
   7   7  11    8.90    3.52
   7  -7  11    7.14    2.66
   7   7  11    5.43    2.34
  -7   7  11    2.78    2.02
   7   7  12   60.35    7.46
  -7   7  12   65.35    7.65
   7   7  12   64.36    7.60
   7  -7  12   56.07    7.44
  -7   7  13    0.99    1.50
   7  -7  13    1.15    1.97
   7   7  13   -0.10    2.12
   7   7  13    5.91    2.73
   7  -7  14   12.87    4.14
   7   7  14   14.10    3.72
  -7   7  14   11.88    3.85
   7   7  14   13.25    3.29
   7   7  15    4.22    3.12
  -7   7  15    2.10    1.62
   7   7  15   -0.08    1.41
   7   7  16    1.55    1.58
  -7   7  16    0.87    2.29
   7   7  16   -0.29    2.03
   7   7  17    5.31    2.27
   7   7  17    4.50    2.62
   7   7  18   26.53    5.12
  -7   7  18   37.19    6.48
   7   7  18   32.81    5.98
  -7   7  19   -0.66    1.34
   7   7  19    0.02    1.12
  -7   7  20    9.35    4.35
   7   7  20    9.31    3.32
  -7   7  21    5.84    2.86
   7   7  21    6.48    2.31
   7   7  22   11.45    4.24
  -7   7  22    7.79    3.74
   7  -8 -20   -0.67    1.84
   7  -8 -20   -2.13    2.54
   7  -8 -19   -1.45    2.92
   7  -8 -19   -2.04    1.59
   7  -8 -18    2.43    2.29
   7  -8 -18    1.59    1.33
   7  -8 -17    6.36    3.44
   7  -8 -17    4.87    3.18
   7  -8 -16   -1.91    1.42
   7  -8 -16   -1.02    1.01
   7  -8 -15    0.99    1.91
   7   8 -15    5.03    3.26
   7  -8 -15    2.83    2.60
   7   8 -14    0.99    2.27
   7  -8 -14    0.52    1.70
   7  -8 -14    0.09    1.56
   7   8 -13    0.49    1.20
   7  -8 -13   -2.29    2.53
   7  -8 -13    1.26    1.41
   7  -8 -12   -1.06    1.93
   7   8 -12   -1.55    1.27
   7  -8 -12    0.70    1.46
   7   8 -11    6.05    1.39
   7  -8 -11    5.60    3.12
   7  -8 -10   -0.06    1.60
   7   8 -10    2.03    2.23
   7  -8 -10    2.46    1.27
   7   8  -9    5.38    2.61
   7  -8  -9    4.21    2.60
   7  -8  -9    2.63    1.78
   7   8  -8    0.33    1.71
  -7   8  -8    4.19    2.71
   7  -8  -8   -1.36    1.73
   7   8  -7    0.05    1.79
  -7   8  -7    1.85    1.03
   7  -8  -7   -0.13    1.24
   7  -8  -7   -0.46    1.35
   7   8  -6    2.80    1.94
  -7   8  -6    1.28    2.04
   7  -8  -6   -1.11    1.75
   7  -8  -6    1.60    2.01
   7   8  -5    1.86    1.97
  -7   8  -5   -0.54    1.43
   7  -8  -5    0.97    1.58
   7  -8  -5    1.32    1.06
   7   8  -4    2.29    1.70
  -7   8  -4    3.68    1.72
   7  -8  -4   -1.80    1.94
   7  -8  -4    3.24    1.87
   7   8  -4    6.68    3.82
   7   8  -3    1.33    1.26
   7   8  -3    3.13    1.91
   7  -8  -3    1.47    2.29
  -7   8  -3    3.43    2.33
   7  -8  -3    0.89    1.74
   7   8  -2    6.35    2.52
   7   8  -2    6.70    2.79
  -7   8  -2    0.92    1.13
   7  -8  -2    2.10    1.58
   7  -8  -2    0.19    1.68
   7   8  -1    2.17    1.95
   7   8  -1    4.42    2.48
   7  -8  -1    1.98    1.89
  -7   8  -1   -0.24    1.44
   7  -8  -1    1.66    1.64
  -7   8   0    1.15    1.32
   7   8   0    0.01    1.75
   7  -8   0   -1.08    1.23
   7   8   0   -0.15    1.35
   7  -8   0   -1.90    1.38
   7   8   1   -0.36    1.47
   7   8   1    2.40    2.06
   7  -8   1    3.57    1.28
  -7   8   1   -1.06    0.79
   7  -8   1    1.74    1.71
   7   8   2    4.05    1.60
   7   8   2    5.08    2.79
   7  -8   2    6.58    2.32
  -7   8   2    1.80    2.09
   7  -8   2    5.94    1.88
  -7   8   3    1.13    1.76
   7   8   3   -0.87    1.55
   7   8   3    1.31    1.28
   7  -8   3    0.34    2.03
   7  -8   3   -1.51    1.81
   7  -8   4    0.88    1.76
   7   8   4    1.19    2.23
   7   8   4    2.28    2.14
   7  -8   4    0.34    1.73
  -7   8   4    0.99    2.00
   7  -8   5    4.67    2.48
   7   8   5    5.85    2.77
   7   8   5    2.46    1.61
  -7   8   5    2.26    2.58
   7  -8   6    3.14    2.89
   7   8   6    3.39    1.54
   7   8   6    4.64    2.39
  -7   8   6    1.64    1.05
   7  -8   7    0.38    1.85
   7   8   7    1.37    2.00
   7   8   7   -0.08    1.37
  -7   8   7    1.11    2.48
   7  -8   8    1.69    1.11
   7   8   8   -0.06    1.07
   7   8   8    1.47    1.74
   7   8   9    5.12    2.24
   7  -8   9    6.00    2.55
   7   8   9    3.10    1.82
  -7   8   9    5.29    1.98
  -7   8  10   -0.82    0.98
   7  -8  10   -2.70    2.58
   7   8  10    1.27    1.73
   7   8  10   -0.31    1.00
   7  -8  11    5.27    1.78
  -7   8  11    6.53    3.05
   7   8  11    5.16    2.18
   7   8  11    5.67    3.19
   7  -8  12   -1.83    1.63
   7   8  12   -1.51    1.55
   7   8  12   -0.75    1.38
  -7   8  12   -2.73    2.95
   7   8  13   -0.78    1.28
   7   8  13    1.91    1.88
  -7   8  13    1.95    2.52
   7   8  14    1.03    1.31
  -7   8  14    1.22    1.55
   7   8  14    3.15    1.85
   7   8  15    3.14    2.15
  -7   8  15    3.54    2.88
   7   8  15    1.29    1.28
   7   8  16   -0.34    2.08
  -7   8  16    0.99    3.10
   7   8  16   -1.51    1.49
  -7   8  17   -3.33    2.71
   7   8  17    0.76    1.43
   7   8  18   -2.04    1.40
  -7   8  18    0.39    2.29
   7   8  18   -0.51    1.21
  -7   8  19   -4.64    2.70
   7   8  19    0.21    1.86
  -7   8  20   -3.38    2.48
   7   8  20    0.78    1.58
   7  -9 -17   -1.96    1.92
   7  -9 -17   -0.20    2.59
   7  -9 -16   -0.46    1.52
   7  -9 -16    4.53    2.80
   7  -9 -15    3.83    2.36
   7  -9 -15    0.50    1.24
   7   9 -14   14.43    4.23
   7  -9 -14   15.78    4.34
   7  -9 -14   18.61    4.55
   7   9 -13   -2.41    2.20
   7  -9 -13    0.53    1.27
   7   9 -12   32.03    5.88
   7  -9 -12   29.27    5.87
   7  -9 -12   31.24    5.75
   7  -9 -11    3.94    2.73
   7   9 -11    7.52    3.80
   7  -9 -11    3.16    2.35
   7  -9 -10    1.70    1.91
   7   9 -10   -1.75    2.38
   7  -9 -10    3.26    2.54
   7   9  -9    5.64    2.75
   7  -9  -9    2.88    1.72
   7  -9  -9   -0.62    1.70
   7   9  -8   58.97    7.98
   7  -9  -8   62.39    8.29
   7  -9  -8   64.25    8.15
   7   9  -7   -2.05    1.33
  -7   9  -7    0.79    1.99
   7  -9  -7   -2.50    1.42
   7  -9  -7   -0.22    1.49
   7   9  -6   18.28    4.73
  -7   9  -6   10.04    3.68
   7  -9  -6    9.87    3.68
   7  -9  -6   15.47    4.17
   7  -9  -5    5.28    2.76
  -7   9  -5    0.93    0.95
   7  -9  -5    4.44    2.44
   7   9  -4   13.25    3.91
  -7   9  -4   19.96    4.51
   7  -9  -4   18.61    4.84
   7  -9  -4   14.09    3.98
   7   9  -3   -0.98    0.83
  -7   9  -3    0.72    1.64
   7  -9  -3    0.17    1.70
   7  -9  -3    2.12    1.39
   7   9  -2   29.23    5.16
  -7   9  -2   31.06    6.00
   7  -9  -2   38.28    6.08
   7  -9  -2   38.39    6.38
   7   9  -2   32.24    5.64
   7   9  -1    3.84    2.14
   7   9  -1   -0.69    1.11
  -7   9  -1   -0.05    1.70
   7  -9  -1   -0.42    1.03
   7   9   0    1.94    2.10
   7   9   0    6.37    3.27
  -7   9   0    3.68    1.64
   7  -9   0    2.26    1.70
   7   9   1    2.81    2.76
   7   9   1    1.76    2.32
  -7   9   1   -1.59    2.48
   7  -9   1    0.15    1.80
   7   9   2   40.55    6.14
  -7   9   2   40.21    6.82
   7  -9   2   47.30    7.19
   7   9   2   30.43    5.53
   7   9   3   -0.20    0.94
   7   9   3    3.13    2.09
  -7   9   3    5.27    2.83
   7  -9   3   -0.77    1.90
   7   9   4   24.17    4.90
   7   9   4   16.49    4.37
  -7   9   4   19.74    4.50
   7  -9   4   26.58    5.05
   7   9   5    1.11    1.30
   7   9   5    2.63    1.65
  -7   9   5    9.65    3.79
   7  -9   5    7.82    3.42
  -7   9   6   14.90    4.40
   7   9   6   11.73    3.81
   7   9   6   22.04    5.30
   7  -9   6   23.32    5.64
  -7   9   7   -0.67    1.35
   7   9   7   -1.75    1.86
   7   9   7    0.04    1.65
   7  -9   7    3.36    3.10
   7   9   8   46.02    6.78
  -7   9   8   54.13    7.68
   7  -9   8   59.01    8.06
   7   9   8   44.36    6.71
   7   9   9    7.17    2.96
   7   9   9    4.58    1.23
  -7   9   9    7.57    3.20
   7  -9   9    1.59    1.58
   7   9  10    0.04    1.58
   7   9  10    3.15    3.30
  -7   9  10    2.21    2.32
   7  -9  10   -0.90    1.65
   7   9  11    2.32    1.06
   7   9  11    3.48    1.94
  -7   9  11    1.86    2.08
   7   9  12   17.28    4.45
   7   9  12   36.14    6.37
  -7   9  12   32.37    5.93
   7   9  13   -0.22    0.85
   7   9  13    1.48    2.49
  -7   9  13    2.88    2.61
   7   9  14   22.07    4.91
   7   9  14   23.81    5.64
  -7   9  14   17.53    4.30
   7   9  15   -1.15    2.21
  -7   9  15    0.94    1.27
   7   9  16   -2.13    2.02
  -7   9  16    1.76    3.32
   7   9  16    2.15    1.77
   7   9  17    7.11    3.77
  -7   9  17    0.14    1.74
   7   9  17    1.68    2.34
   7  10 -12   -1.09    1.45
   7 -10 -12    0.45    1.83
   7  10 -11    5.70    2.77
   7 -10 -11   -0.05    2.87
   7 -10 -11    1.96    0.99
   7  10 -10    1.12    1.30
   7 -10 -10    0.42    1.07
   7  10  -9    0.58    1.90
   7 -10  -9   -0.38    1.47
   7 -10  -8    3.12    1.91
   7  10  -8    7.39    3.14
   7  10  -7    6.35    2.91
  -7  10  -7    1.39    3.02
   7 -10  -7    6.55    2.90
   7  10  -6   -4.83    2.98
  -7  10  -6    0.92    2.26
   7 -10  -6    0.45    1.24
   7  10  -5    6.00    2.15
  -7  10  -5    5.83    2.80
   7 -10  -5    9.58    3.91
   7  10  -4    0.05    1.75
  -7  10  -4    1.87    1.15
   7 -10  -4   -0.14    1.74
   7  10  -3    0.17    1.42
  -7  10  -3    0.09    1.40
   7 -10  -3    1.43    1.21
   7  10  -2    0.51    1.36
  -7  10  -2   -0.63    1.68
   7  10  -1   -2.73    1.62
   7  10  -1   -2.66    2.86
  -7  10  -1    0.11    1.38
   7 -10  -1   -2.39    2.95
   7  10   0    1.85    1.07
   7  10   0   -0.97    1.90
  -7  10   0   -3.39    2.80
   7 -10   0   -3.59    2.65
   7  10   1    1.87    2.17
   7  10   1   -2.85    1.63
  -7  10   1    1.20    1.73
   7 -10   1    1.31    2.19
   7  10   2   -1.80    1.82
   7  10   2   -0.79    1.38
  -7  10   2    0.31    1.10
   7 -10   2    1.11    1.97
   7  10   3   -1.14    2.34
   7  10   3    1.43    1.79
  -7  10   3    0.66    1.71
   7 -10   3   -1.42    1.62
   7  10   4    1.66    2.35
   7  10   4   -1.66    1.57
  -7  10   4    0.77    1.65
   7 -10   4   -1.52    2.04
   7  10   5    7.47    3.10
   7  10   5    8.63    3.04
  -7  10   5    4.33    2.93
   7 -10   5    8.74    4.12
   7  10   6   -0.13    1.61
   7  10   6   -1.48    1.89
  -7  10   6    0.40    1.93
   7 -10   6    3.10    2.76
   7 -10   7   12.34    3.34
   7  10   7    6.72    3.20
   7  10   7   14.83    4.22
  -7  10   7    8.97    2.97
   7  10   8    0.15    1.44
   7  10   8    2.95    2.88
  -7  10   8    2.41    2.62
   7 -10   8    1.27    2.18
   7  10   9    3.37    1.78
   7  10   9    0.77    2.20
  -7  10   9    2.73    1.78
   7 -10   9   -1.51    2.58
   7  10  10    4.18    2.42
   7  10  10   -1.43    2.16
  -7  10  10    1.63    1.66
   7  10  11    7.58    3.13
   7  10  11    7.82    3.21
  -7  10  11    2.54    1.85
   7  10  12   -1.32    2.21
   7  10  12    0.96    2.00
  -7  10  12   -1.21    1.70
   7  11  -2    5.32    2.78
  -7  11  -2   11.20    4.52
   7 -11  -2    8.76    2.83
   7  11  -1   -0.49    0.92
  -7  11  -1    1.93    2.57
   7 -11  -1   -0.61    1.64
   7  11   0    0.70    1.26
  -7  11   0   -1.16    1.46
   7  11   1    1.15    1.53
  -7  11   1    0.05    2.28
   7 -11   1    1.14    2.64
   7  11   2    4.63    2.57
   7  11   2    9.64    3.47
  -7  11   2    5.84    2.63
   7 -11   2    4.90    1.73
   8   0 -28   16.16    5.14
   8   0 -27    4.02    1.66
   8   0 -26   26.59    5.71
   8   0 -25   16.16    4.07
   8   0 -24   13.83    4.05
   8   0 -23    0.45    1.14
   8   0 -22    9.56    3.33
   8   0 -21   21.90    4.47
   8   0 -20    1.19    1.45
   8   0 -19   29.73    5.06
   8   0 -18   76.48    7.68
   8   0 -17   97.27    8.95
   8   0 -16   16.37    3.35
   8   0 -15  134.68    9.73
   8   0 -14   40.93    5.34
   8   0 -13   51.11    5.83
   8   0 -13   65.47    5.58
   8   0 -12  302.31   13.78
   8   0 -12  283.88   11.71
   8   0 -11  256.07   12.43
   8   0 -11  269.08   11.27
   8   0 -10   67.99    6.63
   8   0 -10   76.97    5.98
   8   0  -9  667.63   17.60
   8   0  -9  722.37   20.23
   8   0  -8  390.89   13.45
   8   0  -8  388.85   14.66
   8   0  -7    7.71    1.95
   8   0  -7   11.58    2.74
   8   0  -7    9.67    2.51
   8   0  -6  246.40   10.48
   8   0  -6  267.22   11.85
   8   0  -6  242.65   11.40
   8   0  -5   18.05    2.92
   8   0  -5   20.01    3.23
   8   0  -5   19.35    3.13
   8   0  -4  525.96   15.60
   8   0  -4  568.58   17.19
   8   0  -4  544.72   16.70
   8   0  -3  840.89   19.76
   8   0  -3  842.52   20.61
   8   0  -3  830.80   20.42
   8   0  -2  443.38   14.64
   8   0  -2  445.54   14.81
   8   0  -2  455.05   15.00
   8   0  -1   62.50    5.46
   8   0  -1   55.95    5.24
   8   0  -1   56.98    5.29
   8   0   0  726.47   18.61
   8   0   0  744.68   19.55
   8   0   0  703.61   18.07
   8   0   1   69.79    5.81
   8   0   1   60.55    5.19
   8   0   2  462.99   15.10
   8   0   2  453.29   14.24
   8   0   3  808.57   20.22
   8   0   3  794.66   18.49
   8   0   4  522.27   16.37
   8   0   4  524.43   14.93
   8   0   5   10.94    2.48
   8   0   5   18.45    2.70
   8   0   6  255.73   11.89
   8   0   6  239.10   10.01
   8   0   7   10.76    2.52
   8   0   7    8.56    1.79
   8   0   8  401.57   15.24
   8   0   8  408.99   12.70
   8   0   9  687.08   20.05
   8   0   9  649.82   16.02
   8   0  10   65.37    5.15
   8   0  10   75.26    6.77
   8   0  11  242.53   12.32
   8   0  11  244.02    9.61
   8   0  12  303.32   14.13
   8   0  12  289.15   10.27
   8   0  13   63.43    6.58
   8   0  13   68.13    4.91
   8   0  14   43.01    5.78
   8   0  15  140.82   10.11
   8   0  16   24.52    4.42
   8   0  17   88.75    8.35
   8   0  18   76.03    7.95
   8   0  19   33.42    5.58
   8   0  20    3.61    1.39
   8   0  21   26.22    4.85
   8   0  22   10.89    3.34
   8   0  23    1.24    1.98
   8  -1 -28    1.76    2.59
   8  -1 -27    4.98    1.37
   8  -1 -26    6.54    3.21
   8  -1 -25    2.22    2.34
   8   1 -24   -3.01    1.75
   8  -1 -24    4.01    2.13
   8   1 -23    0.49    1.64
   8  -1 -23    1.44    2.55
   8  -1 -22    2.47    1.82
   8   1 -22    1.66    1.83
   8   1 -21    1.47    1.79
   8  -1 -21   -0.18    0.93
   8   1 -20    5.26    2.04
   8  -1 -20    6.01    2.31
   8   1 -19    9.93    3.04
   8  -1 -19   11.93    3.38
   8  -1 -18   15.84    3.62
   8   1 -18   11.89    2.90
   8  -1 -17   18.82    4.02
   8   1 -17   21.31    3.89
   8   1 -16   14.91    3.55
   8  -1 -16    8.57    2.73
   8   1 -15    9.43    3.04
   8  -1 -15    8.21    2.58
   8  -1 -15   10.78    3.07
   8  -1 -14    4.78    2.08
   8   1 -14    3.75    2.18
   8  -1 -14    4.78    2.19
   8  -1 -13    1.10    0.77
   8   1 -13    3.14    1.01
   8  -1 -13    3.42    1.79
   8   1 -13    1.28    0.66
   8  -1 -12    1.48    1.16
   8  -1 -12    1.45    1.51
   8   1 -12    5.09    2.00
   8   1 -12    1.69    0.81
   8   1 -12    0.71    0.76
   8   1 -11   24.01    3.05
   8  -1 -11   21.15    3.43
   8   1 -11   27.80    3.97
   8  -1 -11   23.30    3.89
   8   1 -11   22.32    3.73
   8   1 -10   17.15    2.68
   8  -1 -10   12.62    2.85
   8   1 -10   14.14    3.07
   8  -1 -10   13.34    3.06
   8   1 -10   15.45    3.01
   8  -1  -9   12.26    2.49
   8   1  -9   12.27    2.30
   8  -1  -9   10.99    2.67
   8   1  -9   11.89    2.42
   8   1  -9   11.48    2.64
   8   1  -8   16.05    2.85
   8  -1  -8   19.02    2.91
   8   1  -8   17.64    2.67
   8  -1  -8   19.05    3.35
   8   1  -8   13.15    2.64
   8  -1  -7   37.81    4.44
   8   1  -7   39.67    4.01
   8  -1  -7   38.03    4.75
   8   1  -7   41.92    4.46
   8   1  -7   35.23    4.43
   8  -1  -6   11.18    2.59
   8  -1  -6   12.56    2.69
   8   1  -6    8.77    2.03
   8   1  -6   10.72    2.35
   8   1  -6   11.88    2.46
   8  -1  -5    4.40    1.59
   8  -1  -5    5.31    1.90
   8   1  -5    6.78    1.64
   8   1  -5    6.71    1.63
   8   1  -5    6.54    1.72
   8  -1  -4    9.97    2.10
   8  -1  -4    9.74    2.49
   8   1  -4   12.08    2.57
   8   1  -4    8.88    1.96
   8   1  -4   10.15    2.32
   8  -1  -3   31.05    4.00
   8   1  -3   28.82    3.67
   8  -1  -3   25.94    3.66
   8   1  -3   29.33    3.70
   8   1  -3   30.44    3.97
   8  -1  -2   48.99    4.99
   8   1  -2   53.62    4.96
   8  -1  -2   43.38    4.90
   8   1  -2   45.69    4.74
   8   1  -2   37.87    4.44
   8  -1  -1   56.05    5.44
   8   1  -1   63.61    5.50
   8  -1  -1   69.16    5.92
   8   1  -1   66.01    5.59
   8   1  -1   62.45    5.40
   8   1   0    2.07    0.80
   8  -1   0    3.86    1.22
   8   1   0    3.72    1.39
   8  -1   0    3.00    1.44
   8  -1   1   68.37    5.81
   8   1   1   67.09    5.62
   8  -1   1   58.10    5.47
   8   1   1   53.85    5.02
   8  -1   2   42.83    4.74
   8   1   2   44.34    4.65
   8   1   2   38.87    4.16
   8  -1   3   30.80    4.12
   8   1   3   30.52    3.75
   8   1   3   28.96    3.51
   8   1   4   10.32    2.15
   8   1   4   10.14    2.55
   8  -1   4   11.72    2.70
   8   1   5    5.75    1.73
   8   1   5    7.42    1.86
   8  -1   5   11.79    2.58
   8   1   6    8.85    2.14
   8   1   6   12.57    2.69
   8  -1   6   12.37    2.60
   8   1   7   38.90    4.20
   8  -1   7   37.19    4.54
   8   1   7   41.04    4.92
   8  -1   8   19.75    3.30
   8   1   8   14.21    2.69
   8   1   8   15.78    3.07
   8  -1   9    9.71    2.55
   8   1   9   10.71    2.18
   8   1   9   10.61    2.53
   8  -1  10   13.48    2.96
   8   1  10   10.51    2.22
   8   1  10   10.41    2.26
   8  -1  11   26.81    4.21
   8   1  11   24.40    3.27
   8   1  11   30.27    4.53
   8   1  12    0.68    0.51
   8  -1  12    2.46    1.38
   8   1  13    2.80    1.30
   8  -1  13    5.96    2.18
   8   1  13    3.84    1.67
   8   1  14    2.45    1.18
   8  -1  14    3.12    1.02
   8  -1  15    9.98    2.64
   8   1  15    9.16    2.86
   8  -1  16    9.54    2.41
   8   1  16   16.82    3.82
   8  -1  17   19.07    3.74
   8   1  17   25.38    4.36
   8  -1  18   15.04    3.72
   8   1  18   12.64    3.30
   8  -1  19    7.25    2.67
   8   1  19    9.73    3.73
   8  -1  20    6.26    2.30
   8   1  20    3.92    1.13
   8  -1  21    1.91    2.57
   8   1  21    0.53    1.49
   8   1  22    2.52    1.28
   8  -1  22    5.19    3.32
   8   1  23    1.75    1.84
   8   1  24    5.12    1.47
   8   1  25   -1.28    1.54
   8  -2 -28    9.80    2.94
   8  -2 -27    8.12    3.81
   8  -2 -26    3.38    2.07
   8  -2 -25    7.36    2.94
   8  -2 -24   15.84    4.03
   8  -2 -23    2.51    0.99
   8  -2 -22   13.93    4.01
   8  -2 -21   36.07    5.98
   8  -2 -20   -0.48    0.80
   8  -2 -19   11.61    3.09
   8   2 -18   31.83    5.32
   8  -2 -18   42.67    6.20
   8   2 -17   30.20    4.70
   8  -2 -17   23.37    4.61
   8   2 -17   25.70    4.35
   8   2 -16   44.44    5.30
   8  -2 -16   42.00    6.05
   8  -2 -16   44.42    5.57
   8   2 -16   50.58    6.39
   8   2 -15   93.03    7.83
   8  -2 -15   99.64    8.94
   8  -2 -15   84.49    7.75
   8   2 -15   99.33    8.22
   8   2 -14   26.84    4.09
   8  -2 -14   27.69    4.65
   8  -2 -14   27.21    4.42
   8   2 -14   30.27    4.65
   8  -2 -13   14.98    3.16
   8   2 -13   10.24    2.58
   8  -2 -13    7.93    2.52
   8   2 -13   13.61    3.05
   8   2 -12   90.49    7.13
   8   2 -12  100.35    7.91
   8  -2 -12   97.35    8.39
   8  -2 -12  110.98    8.31
   8   2 -11  133.94    8.47
   8  -2 -11  145.19    9.97
   8  -2 -11  140.14    9.38
   8   2 -11  128.25    8.91
   8  -2 -10   24.10    3.79
   8  -2 -10   15.63    3.08
   8   2 -10   14.95    2.53
   8   2 -10   16.02    3.00
   8   2 -10   16.85    3.14
   8   2  -9   79.48    5.40
   8   2  -9   80.50    6.31
   8  -2  -9   74.02    7.06
   8   2  -9   82.85    6.85
   8  -2  -9   85.50    7.21
   8   2  -8   87.64    5.90
   8  -2  -8   71.09    6.88
   8   2  -8   83.16    6.21
   8   2  -8   95.47    7.42
   8  -2  -8   90.43    7.23
   8   2  -7   75.78    5.55
   8  -2  -7   55.06    6.06
   8   2  -7   66.72    5.65
   8   2  -7   69.51    6.37
   8  -2  -7   80.54    6.72
   8   2  -6    8.65    2.35
   8   2  -6    7.07    1.59
   8  -2  -6   12.11    2.71
   8  -2  -6    9.43    2.25
   8   2  -6   12.83    2.29
   8  -2  -5  130.09    8.68
   8  -2  -5  142.90    9.25
   8   2  -5  133.87    7.44
   8   2  -5  133.77    7.78
   8   2  -5  133.63    8.65
   8  -2  -4  160.58    9.56
   8  -2  -4  161.61    9.87
   8   2  -4  183.57    9.07
   8   2  -4  181.05    8.76
   8   2  -4  171.39    9.74
   8  -2  -3  146.16    8.95
   8  -2  -3  135.24    8.89
   8   2  -3  150.24    8.15
   8   2  -3  158.02    8.27
   8   2  -3  150.65    9.05
   8  -2  -2  261.64   12.15
   8  -2  -2  250.28   12.15
   8   2  -2  257.44   10.73
   8   2  -2  246.79   10.59
   8   2  -2  262.14   11.78
   8  -2  -1  253.52   11.90
   8  -2  -1  251.73   12.02
   8   2  -1  267.42   11.25
   8   2  -1  265.33   12.06
   8  -2   0  130.41    8.44
   8  -2   0  130.56    8.59
   8   2   0  132.24    7.98
   8   2   0  124.01    8.15
   8   2   1  255.45   11.40
   8  -2   1  250.30   11.85
   8  -2   1  258.17   11.97
   8   2   1  265.54   11.75
   8   2   2  238.31   11.30
   8  -2   2  258.31   12.02
   8  -2   2  232.82   11.65
   8   2   2  249.05   11.46
   8   2   3  145.26    8.72
   8  -2   3  157.98    9.64
   8  -2   3  147.64    9.11
   8   2   3  138.27    8.38
   8   2   4  164.78    9.44
   8  -2   4  167.81    9.73
   8   2   4  171.33    9.46
   8   2   5  131.29    8.59
   8  -2   5  129.27    8.60
   8   2   5  142.31    8.58
   8   2   6    8.22    2.13
   8  -2   6    7.75    2.18
   8   2   6   10.57    2.53
   8   2   7   57.07    5.68
   8  -2   7   68.99    6.27
   8   2   7   70.76    6.08
   8   2   8   86.05    7.11
   8  -2   8   81.55    7.15
   8   2   8   89.15    6.71
   8   2   9   63.81    6.36
   8  -2   9   73.90    6.86
   8   2   9   77.39    6.31
   8  -2  10   18.77    3.55
   8   2  10   15.53    3.11
   8   2  10   16.87    3.23
   8   2  11  145.19    9.94
   8  -2  11  129.93    9.33
   8   2  11  142.31    8.60
   8   2  12   88.86    7.85
   8  -2  12   91.55    7.99
   8   2  12   91.74    6.98
   8   2  13    9.18    2.21
   8   2  13   15.03    3.08
   8  -2  13   13.91    3.26
   8   2  14   29.51    4.63
   8  -2  14   30.04    4.66
   8   2  14   30.19    3.86
   8   2  15   85.16    8.21
   8  -2  15   78.57    7.61
   8   2  15   92.20    6.85
   8   2  16   36.19    5.48
   8  -2  16   37.70    5.47
   8   2  17   41.50    5.89
   8  -2  17   20.91    4.06
   8   2  18   39.12    5.61
   8  -2  18   37.21    5.35
   8   2  19   11.32    3.14
   8  -2  19   15.20    3.56
   8   2  20    2.38    2.42
   8  -2  20    3.47    1.77
   8   2  21   35.49    6.07
   8  -2  21   25.81    5.03
   8   2  22   17.71    4.21
   8   2  23    5.33    2.70
   8   2  24   19.35    4.95
   8   2  25   10.08    3.36
   8   2  26    1.78    2.39
   8  -3 -27    0.57    0.95
   8  -3 -26    0.37    0.89
   8  -3 -25    0.06    1.46
   8  -3 -24   -0.92    1.66
   8  -3 -23   -0.88    1.47
   8  -3 -22    5.06    2.50
   8  -3 -21    3.96    2.09
   8  -3 -20    1.22    1.45
   8  -3 -19    2.99    1.84
   8  -3 -18    5.92    2.57
   8  -3 -18    0.42    1.35
   8   3 -18    6.79    2.59
   8  -3 -17   65.17    7.51
   8  -3 -17   55.69    6.91
   8   3 -17   65.74    7.14
   8  -3 -16   23.22    4.28
   8  -3 -16   35.56    5.23
   8   3 -16   36.42    5.14
   8  -3 -15   22.16    4.30
   8  -3 -15   33.07    5.52
   8   3 -15   30.95    4.69
   8  -3 -14   24.29    4.56
   8   3 -14   24.50    4.48
   8  -3 -14   16.62    3.48
   8  -3 -13   15.44    4.00
   8  -3 -13   23.91    4.25
   8   3 -13   21.20    4.03
   8   3 -12    3.18    1.06
   8  -3 -12   -0.54    0.73
   8  -3 -12    1.46    1.71
   8  -3 -11   21.68    3.92
   8  -3 -11   21.19    3.66
   8   3 -11   18.07    2.89
   8   3 -11   22.64    3.72
   8   3 -10   19.59    2.86
   8  -3 -10   30.87    4.44
   8  -3 -10   27.88    4.22
   8   3 -10   21.26    3.63
   8   3  -9   31.39    3.65
   8  -3  -9   40.91    5.46
   8  -3  -9   34.98    4.79
   8   3  -9   38.57    5.01
   8   3  -9   31.23    3.43
   8   3  -8   23.37    3.16
   8  -3  -8   22.33    3.97
   8   3  -8   24.07    3.17
   8  -3  -8   23.26    3.88
   8   3  -8   23.54    3.78
   8  -3  -7   57.97    6.43
   8   3  -7   53.08    4.63
   8   3  -7   45.74    4.28
   8  -3  -7   40.70    5.19
   8   3  -7   38.85    5.03
   8   3  -6   17.95    2.79
   8  -3  -6   16.04    3.19
   8   3  -6   24.11    3.39
   8   3  -6   17.34    3.73
   8  -3  -6   21.75    3.77
   8   3  -5    3.25    1.72
   8  -3  -5    6.67    2.05
   8  -3  -5    3.50    1.53
   8   3  -5    5.77    1.57
   8   3  -5    3.44    1.34
   8   3  -4    1.93    0.82
   8  -3  -4   -0.19    1.20
   8   3  -4    2.09    1.19
   8  -3  -4   -0.05    1.15
   8   3  -4   -0.07    0.49
   8  -3  -3   21.95    3.70
   8  -3  -3   23.62    4.14
   8   3  -3   24.49    3.22
   8   3  -3   24.95    3.97
   8   3  -3   29.95    3.76
   8  -3  -2   27.98    4.09
   8   3  -2   34.85    3.99
   8  -3  -2   28.67    4.29
   8   3  -2   22.65    3.11
   8   3  -2   30.45    4.37
   8  -3  -1   16.46    3.16
   8  -3  -1   17.30    3.31
   8   3  -1   14.26    2.61
   8   3  -1   15.12    3.25
   8   3   0    6.28    2.19
   8  -3   0   10.07    2.67
   8  -3   0   10.19    2.60
   8   3   0    9.99    2.19
   8   3   1   12.57    2.95
   8  -3   1   14.00    2.69
   8  -3   1   12.53    2.75
   8   3   1    8.80    2.20
   8   3   2   26.71    4.03
   8  -3   2   24.81    4.03
   8   3   2   28.51    4.21
   8  -3   2   26.00    4.09
   8   3   3   28.72    4.03
   8  -3   3   20.61    3.59
   8   3   3   28.65    4.06
   8  -3   3   22.55    3.90
   8   3   4    0.70    0.88
   8  -3   4    1.27    0.76
   8  -3   4    1.53    0.92
   8   3   4    2.28    1.04
   8   3   5    6.12    2.20
   8   3   5    2.59    1.47
   8  -3   5    4.44    1.88
   8  -3   5    3.39    1.94
   8   3   6   19.95    3.32
   8   3   6   17.85    3.25
   8  -3   6   18.21    3.38
   8   3   7   46.40    5.08
   8  -3   7   49.75    5.67
   8   3   7   40.95    5.12
   8   3   8   21.46    3.42
   8  -3   8   20.65    3.66
   8   3   8   24.69    4.18
   8   3   9   28.31    4.11
   8  -3   9   30.13    4.02
   8   3   9   33.21    4.71
   8   3  10   26.69    4.07
   8   3  10   20.52    3.77
   8   3  11   17.54    3.55
   8  -3  11   14.56    3.08
   8   3  11   21.35    3.81
   8   3  12    4.32    2.01
   8  -3  12    0.74    0.88
   8   3  12    3.32    2.13
   8   3  13   14.97    3.21
   8  -3  13   13.70    3.14
   8   3  13   20.19    3.84
   8   3  14   25.20    4.13
   8   3  14   28.44    4.81
   8  -3  14   21.53    3.87
   8   3  15   26.66    4.16
   8   3  15   29.86    4.62
   8  -3  15   26.54    4.54
   8   3  16   40.57    5.06
   8   3  16   38.05    5.31
   8  -3  16   44.48    5.99
   8   3  17   65.94    7.72
   8  -3  17   64.99    7.34
   8  -3  18    8.40    2.76
   8   3  18    2.13    1.16
   8  -3  19    5.18    2.51
   8   3  19    0.56    1.65
   8  -3  20    3.55    2.16
   8   3  20    0.91    1.98
   8   3  21    0.80    2.27
   8   3  22    1.80    1.54
   8   3  23    5.67    2.60
   8   3  24    3.62    1.95
   8   3  25   -0.44    1.53
   8   3  26    1.23    1.89
   8   3  27    1.87    1.91
   8  -4 -26    0.32    1.65
   8  -4 -25   18.80    4.82
   8  -4 -24   13.13    4.11
   8  -4 -23   -0.30    1.13
   8  -4 -22    9.41    3.15
   8  -4 -21   23.34    5.34
   8  -4 -20   -2.27    1.92
   8  -4 -19    8.57    3.54
   8  -4 -19    9.93    4.17
   8  -4 -18   19.31    4.14
   8  -4 -18   16.31    4.46
   8   4 -18   15.04    3.54
   8  -4 -17   -0.53    1.18
   8  -4 -17    4.07    2.01
   8   4 -17    3.58    1.28
   8  -4 -16   43.93    6.31
   8  -4 -16   46.98    6.46
   8   4 -16   49.24    6.17
   8  -4 -15   84.56    8.35
   8  -4 -15   79.53    8.29
   8   4 -15   78.29    7.79
   8  -4 -14   20.60    4.45
   8   4 -14   23.42    4.23
   8  -4 -14   15.25    3.34
   8   4 -13   12.50    3.22
   8  -4 -13   15.21    3.86
   8  -4 -13   13.18    3.23
   8   4 -12   16.21    3.67
   8  -4 -12   16.93    4.00
   8  -4 -12   18.36    3.87
   8  -4 -11   58.38    6.73
   8  -4 -11   62.01    7.16
   8   4 -11   60.72    6.68
   8  -4 -10    6.25    2.01
   8   4 -10   13.67    3.00
   8  -4 -10   11.36    3.25
   8  -4  -9   13.65    3.20
   8   4  -9   12.25    3.21
   8  -4  -9   15.32    3.54
   8   4  -8    3.99    1.51
   8  -4  -8    1.44    1.15
   8   4  -8    4.19    1.75
   8  -4  -8    5.98    1.94
   8  -4  -7   53.50    6.57
   8  -4  -7   44.67    5.59
   8   4  -7   53.81    5.01
   8   4  -7   56.02    6.15
   8   4  -6   17.92    3.01
   8  -4  -6   11.47    3.24
   8  -4  -6   14.58    3.72
   8   4  -6   18.27    3.85
   8   4  -5  185.86    9.81
   8  -4  -5  175.89   10.99
   8   4  -5  174.82    8.00
   8  -4  -5  185.61   11.54
   8   4  -5  199.91   11.61
   8   4  -4   88.46    6.70
   8  -4  -4   78.86    7.29
   8   4  -4   70.63    5.13
   8  -4  -4   79.54    7.52
   8   4  -4   83.12    7.37
   8   4  -3   44.36    5.56
   8   4  -3   37.90    4.63
   8  -4  -3   31.61    4.81
   8   4  -3   29.49    3.39
   8  -4  -3   34.83    5.04
   8   4  -2  152.62   10.18
   8   4  -2  152.35    9.12
   8  -4  -2  137.61    9.56
   8   4  -2  136.91    7.50
   8  -4  -2  170.88   10.88
   8   4  -1  322.36   14.61
   8   4  -1  318.00   13.43
   8  -4  -1  319.05   14.58
   8  -4  -1  320.95   14.81
   8  -4   0   41.85    5.53
   8   4   0   59.14    6.49
   8   4   0   44.49    5.24
   8  -4   0   52.29    5.81
   8   4   1  324.55   14.28
   8  -4   1  325.38   14.81
   8   4   1  307.56   13.71
   8  -4   1  301.83   14.23
   8   4   2  160.75   10.16
   8  -4   2  161.21   10.31
   8   4   2  160.26    9.77
   8  -4   2  151.89    9.89
   8  -4   3   28.94    4.48
   8   4   3   33.32    4.50
   8  -4   3   30.97    4.63
   8   4   4   77.49    7.44
   8  -4   4   77.94    7.24
   8   4   4   82.78    7.30
   8  -4   4   85.20    7.34
   8   4   5  179.48   10.97
   8  -4   5  208.11   12.01
   8   4   5  188.00   11.08
   8  -4   5  204.16   11.63
   8   4   6   23.21    4.22
   8  -4   6   11.29    3.03
   8   4   6   15.76    3.48
   8  -4   6   13.47    2.79
   8   4   7   52.61    6.01
   8  -4   7   51.93    6.10
   8   4   7   42.19    5.22
   8  -4   7   55.99    6.13
   8   4   8    4.30    2.17
   8   4   8    3.22    1.90
   8  -4   8    6.59    2.63
   8   4   9   15.77    3.42
   8   4   9   11.34    3.04
   8  -4   9    8.01    1.93
   8   4  10   11.28    2.83
   8   4  10   14.82    3.19
   8  -4  10   14.93    3.51
   8   4  11   66.18    6.90
   8  -4  11   70.08    7.19
   8   4  11   49.99    6.11
   8   4  12   23.76    4.13
   8  -4  12   20.99    4.29
   8   4  12   20.69    3.85
   8   4  13   12.32    2.86
   8   4  13   11.68    2.54
   8  -4  13    8.05    2.45
   8   4  14   25.38    3.93
   8   4  14   16.04    3.87
   8  -4  14   22.62    4.08
   8   4  15   90.12    8.11
   8  -4  15   86.50    8.36
   8   4  15   79.97    7.98
   8   4  16   42.61    5.94
   8  -4  16   51.20    6.26
   8   4  16   54.11    7.21
   8   4  17    0.42    1.19
   8  -4  17    1.66    1.00
   8   4  18   16.22    4.43
   8  -4  18   11.12    3.23
   8   4  19    9.62    2.36
   8   4  20    0.21    1.37
   8   4  21   18.14    4.09
   8   4  22    9.28    3.36
   8   4  23   -1.06    2.12
   8   4  24   14.23    4.91
   8   4  25   16.70    4.01
   8   4  26   -1.75    2.19
   8  -5 -25    1.18    1.06
   8  -5 -24    1.84    2.61
   8  -5 -23   -0.43    0.92
   8  -5 -22    0.55    1.39
   8  -5 -21    2.35    1.80
   8  -5 -20    0.40    2.09
   8  -5 -20    0.45    2.32
   8  -5 -19    1.42    2.31
   8  -5 -19    4.91    2.13
   8  -5 -18    2.20    1.88
   8  -5 -18    0.26    1.90
   8   5 -17    3.67    2.30
   8  -5 -17    0.81    1.88
   8  -5 -17    2.83    1.85
   8   5 -16   12.35    3.30
   8  -5 -16   17.21    4.62
   8  -5 -16   15.35    3.62
   8  -5 -15   13.50    3.95
   8   5 -15   13.60    3.29
   8  -5 -15    7.90    2.89
   8   5 -14   11.51    3.33
   8  -5 -14   12.71    3.58
   8  -5 -14    9.71    2.98
   8   5 -13    1.70    0.81
   8  -5 -13    1.67    1.04
   8  -5 -13    3.13    2.35
   8   5 -12    9.18    2.59
   8  -5 -12   11.34    2.53
   8  -5 -12    9.01    3.16
   8   5 -11   12.15    3.12
   8  -5 -11    5.59    2.53
   8  -5 -11    8.03    2.53
   8   5 -10   -0.53    1.52
  -8   5 -10    1.05    1.68
   8  -5 -10    0.68    1.02
   8  -5 -10    0.60    2.09
   8  -5  -9    2.39    1.68
   8   5  -9    2.45    1.59
   8  -5  -9    4.77    2.34
   8  -5  -8   10.25    2.76
   8   5  -8   11.48    2.88
   8  -5  -8    6.42    2.14
   8   5  -7   23.83    3.72
   8  -5  -7   39.82    5.67
   8  -5  -7   27.10    4.62
   8   5  -7   28.79    4.62
   8  -5  -6    6.70    2.46
   8   5  -6    7.94    2.22
   8  -5  -6   11.49    3.57
   8   5  -6   17.03    3.02
   8  -5  -5    6.67    2.75
   8  -5  -5    9.62    2.92
   8   5  -5   10.65    2.45
   8   5  -4   15.49    3.49
   8   5  -4   23.57    3.78
   8  -5  -4   21.85    4.24
   8  -5  -4   27.85    4.91
   8   5  -3   21.32    4.04
   8   5  -3   19.58    3.52
   8  -5  -3   22.68    4.36
   8  -5  -3   25.24    4.17
   8   5  -2   11.50    3.41
   8   5  -2   19.42    3.57
   8  -5  -2   11.94    2.98
   8  -5  -2   21.35    4.08
   8   5  -1    1.95    1.61
   8  -5  -1    6.62    1.15
   8   5  -1    9.24    2.32
   8  -5  -1   13.31    3.05
   8   5   0    6.91    1.86
   8  -5   0    8.82    2.58
   8   5   0    7.63    2.17
   8  -5   0   11.56    3.25
   8   5   1    6.88    2.33
   8  -5   1   11.83    3.59
   8   5   1   13.85    3.40
   8  -5   1    8.32    2.64
   8   5   2   22.01    4.09
   8  -5   2   13.68    3.27
   8   5   2   16.69    3.21
   8  -5   2   14.10    3.47
   8   5   3   19.59    3.64
   8   5   3   19.07    3.41
   8  -5   3   22.08    4.23
   8  -5   3   22.19    4.28
   8   5   4   23.38    4.22
   8  -5   4   17.69    3.56
   8   5   4   27.13    4.55
   8  -5   4   26.51    3.99
   8   5   5    9.61    2.65
   8  -5   5    9.95    2.94
   8   5   5    9.31    2.56
   8  -5   5   10.80    3.18
   8   5   6   15.37    3.42
   8  -5   6    9.61    2.60
   8   5   6    8.06    2.41
   8  -5   6   11.57    3.05
   8  -5   7   33.86    5.07
   8   5   7   35.32    5.53
   8   5   7   32.71    5.10
   8  -5   7   27.99    4.72
   8   5   8    6.52    2.26
   8   5   8    9.20    2.63
   8  -5   8    8.19    2.50
   8  -5   8    6.83    2.45
   8   5   9    3.67    2.01
   8  -5   9    1.06    1.18
   8   5   9    3.41    2.21
   8  -5   9    6.25    2.41
   8   5  10    0.19    1.29
   8  -5  10    0.59    1.65
   8   5  10    0.80    1.40
   8  -5  10    0.04    1.01
   8   5  11    7.18    2.82
   8  -5  11   12.33    3.22
   8   5  11    8.34    1.86
   8   5  12   11.57    3.24
   8  -5  12    5.86    2.98
   8   5  12    7.19    1.74
   8   5  13    4.71    2.33
   8  -5  13    2.69    1.96
   8   5  13    4.75    2.61
   8   5  14    9.80    2.67
   8  -5  14    8.31    3.01
   8   5  14   12.67    3.46
   8   5  15   13.28    3.78
   8  -5  15   11.41    3.15
   8   5  15   10.83    3.07
   8   5  16    8.41    3.09
   8  -5  16   10.58    3.62
   8   5  17    3.58    2.04
   8  -5  17    3.69    2.26
   8   5  18    1.96    2.16
   8   5  19    2.28    2.60
   8   5  20    2.88    2.48
   8   5  21    3.50    2.18
   8   5  22    3.08    2.08
   8   5  23    1.31    2.87
   8   5  24    1.29    2.67
   8   5  25    2.05    2.47
   8  -6 -24   17.38    4.56
   8  -6 -23   -1.50    1.11
   8  -6 -22    2.21    1.98
   8  -6 -21    7.52    2.75
   8  -6 -21   11.38    4.68
   8  -6 -20    3.50    2.67
   8  -6 -20    0.10    1.06
   8  -6 -19   14.23    4.13
   8  -6 -19    7.39    3.20
   8  -6 -18    8.87    3.87
   8  -6 -18   16.65    4.33
   8  -6 -17   12.41    3.69
   8  -6 -17    9.64    3.69
   8   6 -17   16.15    5.03
   8   6 -16    9.83    2.88
   8  -6 -16    5.13    2.77
   8  -6 -16    5.89    2.78
   8  -6 -15   43.41    6.60
   8  -6 -15   33.52    6.04
   8   6 -15   45.67    6.75
   8   6 -14   10.64    3.32
   8  -6 -14   18.44    4.04
   8  -6 -14   12.38    3.40
   8   6 -13    1.38    1.91
   8  -6 -13    0.40    1.12
   8  -6 -13   -0.69    0.82
   8  -6 -12   27.97    5.40
   8  -6 -12   23.20    4.77
   8   6 -12   32.26    5.48
   8  -6 -11   53.02    6.88
   8  -6 -11   56.81    7.31
   8   6 -11   41.74    6.28
   8   6 -10   11.98    3.50
   8  -6 -10   11.64    3.10
   8  -6 -10    7.32    2.22
  -8   6  -9   33.89    5.06
   8  -6  -9   35.15    5.53
   8  -6  -9   31.63    5.25
   8   6  -9   30.99    5.11
   8   6  -8   18.36    3.76
  -8   6  -8   20.67    3.89
   8  -6  -8    9.82    2.84
   8  -6  -8   14.62    3.88
   8  -6  -7   12.21    3.29
   8   6  -7    8.64    1.95
  -8   6  -7    6.89    2.82
   8  -6  -7   13.35    3.93
   8   6  -6   80.51    8.07
   8   6  -6   63.57    6.70
   8  -6  -6   73.07    7.82
  -8   6  -6   68.38    7.35
   8  -6  -6   79.30    8.27
   8   6  -5   96.11    8.92
   8   6  -5   89.03    7.81
   8  -6  -5  104.02    9.23
   8  -6  -5   91.27    8.63
   8  -6  -4    6.62    2.29
   8   6  -4   10.27    3.14
   8   6  -4   11.00    2.89
   8  -6  -4    7.25    2.92
   8   6  -3   29.02    5.28
   8  -6  -3   28.22    4.53
   8   6  -3   18.55    3.95
   8  -6  -3   25.37    4.67
   8   6  -2   15.44    4.34
   8   6  -2   27.67    4.40
   8  -6  -2   33.28    4.90
   8  -6  -2   29.32    4.71
   8   6  -1   37.09    5.04
   8  -6  -1   34.89    5.62
   8  -6  -1   39.85    5.53
   8   6   0   53.33    6.79
   8   6   0   42.13    5.59
   8  -6   0   56.09    6.71
   8  -6   0   47.12    6.30
   8   6   1   41.38    5.55
   8  -6   1   44.56    5.84
   8  -6   1   39.54    5.72
   8  -6   2   29.43    4.95
   8   6   2   31.12    4.54
   8  -6   2   37.35    5.07
   8   6   3   20.34    3.99
   8   6   3   37.82    5.59
   8  -6   3   30.42    5.15
   8  -6   3   26.41    4.61
   8  -6   4    4.42    1.72
   8   6   4    6.40    2.59
   8   6   4    7.18    2.37
   8  -6   4   11.29    2.94
   8   6   5   89.95    8.49
   8  -6   5   82.94    8.11
   8   6   5   88.75    8.25
   8  -6   5   73.42    7.79
   8   6   6   74.51    7.90
   8   6   6   67.08    7.28
   8  -6   6   82.42    8.07
   8  -6   6   66.21    7.48
   8  -6   7    9.15    3.47
   8   6   7    6.16    2.51
   8   6   7   12.15    3.73
   8  -6   7   13.67    3.77
   8  -6   8   22.46    4.79
   8   6   8   12.37    3.50
   8   6   8   12.57    3.27
   8  -6   8   14.69    3.63
   8   6   9   40.00    5.80
   8   6   9   38.23    5.59
   8  -6   9   34.76    5.10
   8  -6   9   32.31    5.49
   8   6  10   10.14    3.33
   8  -6  10   12.93    3.29
   8   6  10    7.23    2.86
   8  -6  10   12.13    3.14
   8   6  11   62.69    7.21
   8   6  11   62.10    7.42
   8  -6  11   62.77    7.43
   8  -6  11   62.09    7.49
   8   6  12   34.60    5.01
   8  -6  12   26.17    4.98
   8   6  12   23.45    4.42
   8  -6  12   37.03    5.44
   8   6  13    1.58    1.10
   8  -6  13    0.24    1.01
   8   6  13    1.15    0.72
   8   6  14   13.12    3.70
   8  -6  14   18.15    4.20
   8   6  14   20.80    4.32
   8  -6  14   22.65    4.79
   8   6  15   44.45    6.19
   8   6  15   43.22    6.26
   8  -6  15   32.70    5.68
   8   6  16    3.87    2.49
   8   6  16   -0.16    0.96
   8   6  17    6.52    2.28
   8   6  17    9.84    4.06
   8   6  18    5.20    2.49
   8   6  19   10.16    3.19
   8   6  20    2.03    2.11
   8   6  21    4.72    2.35
   8   6  22    2.02    1.35
  -8   6  22    1.70    2.43
   8   6  23   -0.88    1.66
  -8   6  23   -0.67    1.35
   8   6  24    5.82    1.82
  -8   6  24   11.25    5.01
   8  -7 -22    1.22    1.47
   8  -7 -22   -3.42    2.41
   8  -7 -21    2.98    2.94
   8  -7 -21    3.90    3.40
   8  -7 -20    3.75    2.62
   8  -7 -20    0.83    1.80
   8  -7 -19    5.93    2.67
   8  -7 -19    0.75    2.14
   8  -7 -18    2.77    1.91
   8  -7 -18   -0.92    1.47
   8  -7 -17    0.91    1.39
   8  -7 -17    0.17    1.63
   8   7 -16    1.95    2.31
   8  -7 -16    6.92    2.84
   8  -7 -16    1.18    1.26
   8   7 -15    2.71    1.60
   8  -7 -15    1.47    2.46
   8  -7 -15   -0.26    0.91
   8   7 -14    3.56    1.41
   8  -7 -14    3.62    2.23
   8  -7 -14    3.87    3.42
   8   7 -13    1.30    1.95
   8  -7 -13    2.71    1.27
   8  -7 -13    2.33    2.30
   8   7 -12   12.55    3.33
   8  -7 -12   10.15    3.61
   8  -7 -11   18.78    3.93
   8   7 -11   11.02    3.47
   8  -7 -11   14.91    3.91
   8   7 -10   11.62    3.31
   8  -7 -10    6.97    2.66
   8  -7 -10    9.63    3.78
   8   7  -9   -1.39    1.84
  -8   7  -9   -4.08    1.86
   8  -7  -9    0.09    1.36
   8  -7  -9    1.23    1.79
   8   7  -8    8.19    3.32
  -8   7  -8   17.77    4.10
   8  -7  -8   17.39    4.40
   8  -7  -8   16.76    4.21
   8   7  -7   13.47    3.13
  -8   7  -7   18.26    3.96
   8  -7  -7   19.58    4.51
   8  -7  -7   19.57    4.10
   8  -7  -6    6.67    2.88
   8   7  -6    2.61    1.86
  -8   7  -6    9.99    3.01
   8  -7  -6    7.65    3.18
   8   7  -5   34.08    5.68
   8  -7  -5   34.67    5.81
  -8   7  -5   25.73    4.72
   8  -7  -5   34.73    5.89
   8   7  -4   13.63    3.79
  -8   7  -4   10.28    3.06
   8   7  -4    2.48    2.41
   8  -7  -4    6.35    1.97
   8  -7  -4    7.11    2.07
   8  -7  -3   15.48    3.82
   8   7  -3   18.21    4.26
   8   7  -3   17.18    3.89
   8  -7  -3   16.19    3.66
  -8   7  -3   21.02    4.54
   8  -7  -2   12.47    3.48
   8   7  -2   19.10    4.31
  -8   7  -2   11.06    3.42
   8   7  -2   15.56    3.23
   8  -7  -2   11.77    3.04
   8   7  -1   28.80    5.39
   8   7  -1   26.49    4.62
  -8   7  -1   31.12    4.93
   8  -7  -1   29.83    4.97
   8  -7  -1   31.79    5.43
  -8   7   0   43.63    5.97
   8   7   0   27.97    5.34
   8  -7   0   37.20    5.71
   8   7   0   27.88    4.63
   8  -7   0   48.30    6.77
   8   7   1   35.15    5.58
   8  -7   1   32.63    5.22
   8   7   1   22.58    4.42
   8  -7   1   29.08    5.17
   8  -7   2   17.14    4.23
   8   7   2   16.17    4.36
   8  -7   2   14.97    4.02
   8   7   2   11.96    2.94
   8  -7   3    7.35    2.44
   8   7   3   11.05    2.98
   8   7   3   16.00    4.06
   8  -7   3   11.00    3.28
   8  -7   4   10.33    3.31
   8   7   4    8.67    3.01
   8  -7   4    8.97    2.76
   8   7   4    8.31    2.65
   8   7   5   23.81    4.58
   8   7   5   26.02    4.50
   8  -7   5   28.72    5.30
   8  -7   5   29.58    5.21
   8  -7   6   12.15    3.75
   8   7   6   14.06    3.32
   8  -7   6    6.79    3.00
   8   7   6    7.70    2.71
   8  -7   7   16.05    3.61
   8   7   7   22.44    4.74
   8  -7   7   23.41    4.68
   8   7   7   20.68    4.31
   8  -7   8   20.12    4.66
   8  -7   8   19.76    3.89
   8   7   8   10.27    3.06
   8   7   9   -0.01    0.89
   8  -7   9   -2.36    1.90
   8   7   9    0.33    1.43
   8  -7  10    3.43    1.74
   8   7  10   10.96    2.71
   8   7  10    9.75    3.41
   8  -7  10    7.23    3.07
   8  -7  11   19.89    3.82
   8   7  11   24.93    4.42
   8   7  11   13.71    3.51
   8  -7  11   16.43    4.16
   8  -7  12   13.16    3.63
   8   7  12   21.30    4.13
   8   7  12   17.32    4.24
   8  -7  13    0.11    1.93
   8   7  13    4.79    1.97
   8   7  13   -0.82    1.55
   8  -7  14   -0.19    1.52
   8   7  14    1.50    1.41
   8   7  14    2.57    1.63
   8   7  15    1.21    2.13
   8   7  15    0.02    1.47
   8   7  16   -1.33    2.78
   8   7  16    0.06    1.68
   8   7  17   -1.70    2.67
   8   7  17    0.67    1.84
  -8   7  17   -2.85    1.55
   8   7  18    2.24    2.83
  -8   7  18    1.98    2.46
   8   7  19    0.50    2.21
  -8   7  19    0.18    1.76
   8   7  20    2.88    1.45
  -8   7  20    3.78    2.72
   8   7  21    2.65    2.00
  -8   7  21   -1.23    3.34
   8   7  22   -0.32    1.73
  -8   7  22   -0.66    2.84
   8  -8 -19    0.55    1.46
   8  -8 -19    1.11    1.38
   8  -8 -18    3.20    1.87
   8  -8 -18   10.74    3.08
   8  -8 -17    6.49    2.98
   8  -8 -17   11.46    3.60
   8  -8 -16    3.03    2.49
   8  -8 -16    1.60    1.76
   8   8 -15    7.22    3.41
   8  -8 -15   10.03    3.21
   8  -8 -15   13.53    3.99
   8  -8 -14    4.41    2.01
   8   8 -14    1.98    2.59
   8   8 -13   -1.22    2.73
   8  -8 -13    0.30    2.69
   8  -8 -13    1.08    1.77
   8   8 -12   15.27    4.21
   8  -8 -12   13.26    4.02
   8  -8 -12   11.45    3.32
   8   8 -11   36.53    6.08
   8  -8 -11   27.69    5.22
   8  -8 -11   23.45    4.98
   8   8 -10   -0.08    0.85
   8  -8 -10    1.80    2.17
   8   8  -9   14.22    3.79
   8  -8  -9   20.79    4.50
   8  -8  -9   17.86    4.38
   8   8  -8   13.67    4.21
  -8   8  -8   18.32    5.24
   8  -8  -8   24.78    5.01
   8  -8  -8   15.51    3.72
   8   8  -7    6.50    2.94
  -8   8  -7    4.94    2.45
   8  -8  -7    4.15    2.15
   8  -8  -7    5.92    3.02
   8   8  -6    5.75    2.35
  -8   8  -6    4.74    2.67
   8  -8  -6    7.60    3.42
   8  -8  -6    5.71    2.46
   8   8  -5   33.92    5.84
  -8   8  -5   35.06    6.19
   8  -8  -5   23.12    5.03
   8  -8  -5   33.38    5.83
   8   8  -4    3.64    1.46
  -8   8  -4    1.48    1.17
   8  -8  -4    4.93    2.35
   8  -8  -4    7.80    2.94
  -8   8  -3    1.04    1.08
   8   8  -3    1.42    1.55
   8  -8  -3    1.92    1.09
   8   8  -3    3.69    1.65
   8  -8  -3    4.75    0.99
   8   8  -2   19.01    4.98
  -8   8  -2   12.37    3.68
   8  -8  -2   16.70    3.86
   8   8  -2   20.98    4.32
   8  -8  -2   17.05    3.65
   8   8  -1   14.57    4.52
   8  -8  -1   16.21    3.74
   8   8  -1   15.23    3.42
  -8   8  -1   10.99    3.69
   8  -8  -1   16.20    3.66
  -8   8   0    0.61    1.68
   8   8   0    1.69    1.22
   8  -8   0    0.39    1.28
   8   8   0    2.91    1.46
   8  -8   0    3.60    2.75
   8  -8   1   15.22    3.69
   8   8   1   20.47    4.14
  -8   8   1   22.05    4.53
   8  -8   1   15.66    4.04
   8   8   1   13.07    3.31
   8  -8   2   16.84    4.07
   8  -8   2   23.12    4.87
   8   8   2   13.23    3.89
  -8   8   2   17.53    4.44
   8   8   2   21.02    4.43
   8  -8   3   -0.62    2.28
   8   8   3    4.44    1.86
  -8   8   3    4.80    1.59
   8  -8   3    6.64    2.57
   8   8   3    0.61    1.19
   8  -8   4    5.66    1.88
   8  -8   4    2.30    1.87
   8   8   4    5.07    2.26
  -8   8   4    0.82    2.35
   8  -8   5   27.16    4.83
   8   8   5   32.85    5.74
  -8   8   5   29.04    5.40
   8   8   5   31.39    5.52
   8  -8   5   22.47    4.19
   8  -8   6    3.25    1.54
  -8   8   6    9.81    3.28
   8   8   6    4.35    1.34
   8   8   6    5.75    2.73
   8  -8   7    4.31    2.22
   8   8   7   14.14    3.54
  -8   8   7   10.15    3.26
   8   8   7    6.91    1.97
  -8   8   8   23.61    5.19
   8  -8   8   17.27    4.57
   8   8   8   15.98    3.67
   8   8   8   16.61    4.23
   8  -8   9   14.79    4.69
   8   8   9   17.53    4.81
  -8   8   9   17.48    4.36
   8   8   9   22.81    4.29
   8   8  10    2.87    1.39
   8  -8  10   -1.20    1.09
   8   8  10    0.92    1.14
  -8   8  10    2.30    1.93
   8  -8  11   33.20    5.81
   8   8  11   24.68    4.92
  -8   8  11   32.82    6.21
   8   8  11   33.44    5.68
   8  -8  12   14.62    4.18
   8   8  12   15.88    4.19
  -8   8  12   21.72    4.20
   8   8  12   19.11    4.53
   8  -8  13    0.29    2.33
   8   8  13    0.01    1.24
  -8   8  13   -2.32    2.79
   8   8  13   -0.50    1.99
   8   8  14    7.06    3.33
  -8   8  14    5.77    3.05
   8   8  14    4.91    2.31
   8   8  15   14.19    4.35
  -8   8  15   14.60    3.68
   8   8  15   10.61    3.35
   8   8  16   -0.45    2.00
  -8   8  16    1.37    2.22
   8   8  16    2.34    3.06
   8   8  17    9.61    3.11
   8   8  17   17.59    5.19
  -8   8  17    9.09    2.95
  -8   8  18    7.81    3.27
   8   8  18    3.66    3.13
   8   8  18    7.07    3.17
   8   8  19   -0.67    0.96
  -8   8  19   -0.53    1.40
   8  -9 -16    1.08    1.30
   8  -9 -16    0.81    1.41
   8  -9 -15   -0.08    1.68
   8  -9 -15    3.94    2.54
   8   9 -14    5.31    3.38
   8  -9 -14    2.09    2.08
   8  -9 -14   -1.33    1.37
   8   9 -13   -0.46    1.47
   8  -9 -13    3.10    1.73
   8  -9 -13    2.01    1.54
   8   9 -12    0.67    1.65
   8  -9 -12    1.10    1.40
   8   9 -11    7.65    3.77
   8  -9 -11   -0.09    1.72
   8  -9 -11    3.98    2.77
   8   9 -10   -0.27    1.38
   8  -9 -10   -0.44    2.49
   8  -9 -10   -0.28    1.39
   8   9  -9    3.76    2.71
   8  -9  -9    4.21    2.65
   8  -9  -9   -1.04    1.59
   8   9  -8    1.72    1.83
   8  -9  -8    8.51    3.66
   8  -9  -8    4.23    2.43
   8   9  -7    0.77    1.48
  -8   9  -7    1.33    1.73
   8  -9  -7   -2.14    2.16
   8  -9  -7    0.35    2.27
   8   9  -6   -0.29    1.45
  -8   9  -6    1.29    2.27
   8  -9  -6   -1.36    2.39
   8  -9  -6    4.74    3.04
   8   9  -5    2.09    2.06
  -8   9  -5    3.00    1.88
   8  -9  -5    2.68    1.36
   8  -9  -5    5.41    2.88
   8   9  -4    1.43    1.76
  -8   9  -4    2.95    2.60
   8  -9  -4    0.09    1.94
   8  -9  -4   -1.25    1.33
   8   9  -3    3.81    1.94
  -8   9  -3    1.53    1.43
   8  -9  -3    0.73    1.10
   8  -9  -3    5.47    2.71
   8   9  -2    5.51    3.34
  -8   9  -2    1.51    1.91
   8  -9  -2    9.28    3.49
   8   9  -2    5.56    3.15
   8  -9  -2    3.23    1.56
   8  -9  -1    1.38    1.27
   8   9  -1    4.41    1.79
  -8   9  -1    4.91    2.78
   8   9  -1    1.15    1.39
   8  -9  -1    0.23    1.31
   8   9   0    0.73    2.48
  -8   9   0    3.38    2.49
   8   9   0   -0.40    1.74
   8  -9   0   -0.90    0.91
   8   9   1   -1.04    1.39
  -8   9   1    1.46    1.06
   8   9   1    0.73    1.55
   8  -9   1    1.25    1.36
   8   9   2    7.22    2.03
  -8   9   2    4.30    2.89
   8   9   2    2.77    2.32
   8  -9   2    6.33    2.72
   8   9   3    2.08    2.10
  -8   9   3    6.07    2.53
   8  -9   3    2.49    1.72
   8   9   3    3.71    2.26
   8   9   4    2.74    2.72
  -8   9   4   -0.65    1.13
   8  -9   4    2.64    2.40
   8   9   4    0.37    0.90
   8   9   5    8.08    3.87
  -8   9   5    1.60    1.19
   8   9   5    3.29    2.21
   8  -9   5    4.51    2.22
   8   9   6    1.76    1.78
  -8   9   6    0.02    2.21
   8  -9   6   -3.12    2.25
   8   9   6    5.45    2.75
   8   9   7   -0.84    1.86
  -8   9   7   -1.58    0.94
   8   9   7   -1.38    1.72
   8  -9   7    0.35    2.35
   8   9   8    1.88    1.56
   8   9   8    1.12    1.62
   8  -9   8    1.16    2.03
   8   9   9    2.89    0.91
  -8   9   9    2.33    2.56
   8   9   9   -1.14    1.14
   8  -9   9   -1.29    2.36
   8   9  10   -0.13    1.41
  -8   9  10    1.15    1.62
   8   9  10    1.64    2.01
   8  -9  10    1.85    1.38
   8   9  11    0.71    1.51
  -8   9  11    2.13    1.28
   8   9  11    1.70    1.94
   8  -9  11    2.39    1.24
   8   9  12    7.55    3.61
  -8   9  12    3.96    2.01
   8   9  12    1.62    1.62
   8   9  13    2.64    2.95
  -8   9  13    0.64    2.28
   8   9  13    1.46    1.20
  -8   9  14   -0.72    1.20
   8   9  14    1.69    0.89
  -8   9  15   -2.15    2.39
   8   9  15   -0.05    0.96
   8   9  16    1.33    3.17
  -8   9  16    2.45    2.34
   8   9  16    2.70    2.38
   8  10 -11    4.58    3.13
   8 -10 -11    3.99    3.00
   8 -10 -11    0.80    2.24
   8  10 -10   -2.53    2.27
   8 -10 -10   -0.29    1.57
   8 -10 -10    0.20    0.98
   8  10  -9   10.93    3.76
   8 -10  -9    8.80    2.98
   8 -10  -9    6.72    2.87
   8  10  -8    6.30    2.47
   8 -10  -8    2.72    2.94
   8  10  -7   -0.86    2.13
   8 -10  -7    4.55    2.29
   8  10  -6   -0.75    1.48
  -8  10  -6   -1.91    2.83
   8 -10  -6    0.39    1.30
   8  10  -5    7.19    3.35
  -8  10  -5   15.07    3.98
   8 -10  -5    7.16    2.40
   8  10  -4    2.42    2.70
  -8  10  -4    3.93    2.98
   8 -10  -4    4.56    2.31
   8  10  -3    0.41    1.15
  -8  10  -3    1.19    2.31
   8 -10  -3    0.42    1.11
   8  10  -2    7.54    2.67
  -8  10  -2    3.03    2.32
   8 -10  -2    0.07    2.11
   8  10  -1    5.93    3.27
  -8  10  -1    5.93    2.33
   8 -10  -1   -0.37    2.11
   8  10   0    1.01    1.27
  -8  10   0   -2.22    2.22
   8  10   0    4.07    1.99
   8 -10   0   -0.01    1.34
   8  10   1    2.80    1.80
  -8  10   1    1.12    1.47
   8  10   1    0.56    1.89
   8  10   2    2.10    1.50
  -8  10   2    9.14    3.45
   8 -10   2    3.65    2.49
   8  10   2    5.76    3.09
   8  10   3    5.88    4.11
  -8  10   3    1.95    2.58
   8 -10   3    0.83    1.86
   8  10   3    1.78    2.71
   8  10   4    1.03    2.12
  -8  10   4    1.00    1.53
   8 -10   4    3.00    2.04
   8  10   4   -0.51    1.87
   8  10   5   10.86    3.59
  -8  10   5    5.77    2.53
   8 -10   5   15.67    4.76
   8  10   5   15.37    4.00
   8  10   6   -0.04    1.31
  -8  10   6    5.09    2.38
   8 -10   6    3.62    2.00
   8  10   6    3.70    2.50
   8  10   7   -2.54    2.82
  -8  10   7    0.79    1.83
   8 -10   7   -1.14    1.99
   8  10   7    0.99    1.72
   8  10   8    3.94    2.29
  -8  10   8    4.51    2.54
   8 -10   8    3.14    2.65
   8  10   8    1.69    2.77
   8  10   9    7.91    3.35
  -8  10   9    7.64    2.92
   8 -10   9    7.17    2.68
   8  10   9    9.67    3.19
   8  10  10   -1.64    2.48
  -8  10  10   -0.71    1.63
   8  10  10   -0.59    1.01
   8 -10  10   -2.07    1.42
   8  10  11    1.57    1.90
  -8  10  11    2.55    1.89
   8  10  11    2.75    2.21
   9   0 -26    0.30    2.06
   9   0 -25    0.25    1.20
   9   0 -24    4.31    2.94
   9   0 -23    3.06    3.02
   9   0 -22   -1.53    1.30
   9   0 -21   -1.72    1.35
   9   0 -20   -1.62    1.69
   9   0 -19    0.41    1.26
   9   0 -18   -0.30    1.67
   9   0 -17   -1.85    2.07
   9   0 -16   -0.66    0.94
   9   0 -15    0.95    2.00
   9   0 -14   -0.93    1.19
   9   0 -13   -0.11    0.59
   9   0 -13    0.16    1.27
   9   0 -12   -0.72    0.79
   9   0 -12   -0.64    1.31
   9   0 -11   -0.55    1.27
   9   0 -11    0.64    1.41
   9   0 -10    0.76    0.91
   9   0 -10    0.44    1.12
   9   0  -9   -0.75    0.91
   9   0  -9    0.38    0.65
   9   0  -8   -0.20    0.74
   9   0  -8   -0.55    1.69
   9   0  -7   -0.19    0.73
   9   0  -7    0.08    1.15
   9   0  -7    0.15    0.90
   9   0  -6   -0.05    0.53
   9   0  -6    0.92    1.33
   9   0  -6    0.38    0.64
   9   0  -5    0.78    0.66
   9   0  -5   -0.97    1.20
   9   0  -5    0.54    0.89
   9   0  -4    0.00    0.42
   9   0  -4    0.44    1.21
   9   0  -4   -1.24    0.92
   9   0  -3    0.11    0.64
   9   0  -3    1.16    1.57
   9   0  -3    0.17    0.84
   9   0  -2   -0.34    0.63
   9   0  -2    0.08    0.61
   9   0  -2    0.50    1.06
   9   0  -1   -0.37    1.17
   9   0  -1    0.40    0.81
   9   0  -1   -0.26    0.54
   9   0   0    1.95    1.85
   9   0   0   -0.36    1.17
   9   0   0   -0.44    0.68
   9   0   1   -0.54    0.90
   9   0   1    0.18    0.58
   9   0   2   -0.05    0.84
   9   0   2    0.04    1.15
   9   0   3    1.47    1.18
   9   0   3   -0.51    0.62
   9   0   4   -0.84    1.03
   9   0   4    0.32    0.44
   9   0   5    0.00    0.45
   9   0   5   -0.01    0.70
   9   0   6   -0.62    0.53
   9   0   6   -0.42    1.05
   9   0   7   -0.50    1.08
   9   0   7    0.13    0.67
   9   0   8   -0.81    1.77
   9   0   8   -0.79    1.02
   9   0   9   -0.15    1.05
   9   0   9   -0.26    0.91
   9   0  10   -0.71    1.01
   9   0  10   -0.22    0.52
   9   0  11   -0.66    1.22
   9   0  11    0.48    1.06
   9   0  12   -0.24    1.36
   9   0  12    0.10    0.94
   9   0  13    0.71    1.31
   9   0  13    0.76    1.28
   9   0  14   -1.18    0.96
   9   0  15    0.45    1.72
   9   0  16   -0.20    1.04
   9   0  17   -0.75    2.08
   9   0  18    0.01    1.43
   9   0  19    1.18    1.49
   9   0  20    0.85    1.91
   9   0  21   -0.25    1.54
   9   0  22   -0.45    1.58
   9   0  23    1.48    2.38
   9   0  24   -2.07    2.49
   9  -1 -28   -0.56    2.57
   9  -1 -27   17.09    4.90
   9  -1 -26   14.43    4.32
   9  -1 -25    7.72    3.39
   9  -1 -24    2.86    2.20
   9  -1 -23    4.55    3.02
   9   1 -22   38.90    6.36
   9  -1 -22   14.76    4.27
   9   1 -21   37.05    5.91
   9  -1 -21   28.74    6.00
   9   1 -20    3.63    1.52
   9  -1 -20    7.90    2.76
   9   1 -19   31.36    5.34
   9  -1 -19   39.24    6.02
   9   1 -18    1.39    1.34
   9  -1 -18    2.45    2.04
   9   1 -17  149.21   10.83
   9  -1 -17  182.93   12.31
   9   1 -16   44.42    5.76
   9  -1 -16   36.33    5.44
   9  -1 -15  135.03   10.25
   9   1 -15  112.37    9.02
   9  -1 -14    3.90    1.69
   9   1 -14    2.04    0.90
   9  -1 -14    4.85    2.19
   9  -1 -13    6.14    2.26
   9   1 -13    3.16    1.13
   9  -1 -13    5.93    2.58
   9   1 -13    5.32    2.33
   9   1 -12   48.57    5.74
   9  -1 -12   55.65    6.16
   9   1 -12   51.55    5.90
   9  -1 -12   48.32    5.43
   9   1 -11  376.40   13.54
   9   1 -11  367.33   15.36
   9  -1 -11  398.04   16.62
   9   1 -11  391.92   16.15
   9  -1 -11  372.20   15.16
   9   1 -10   45.62    4.68
   9   1 -10   35.82    4.72
   9  -1 -10   43.58    5.57
   9   1 -10   40.96    5.22
   9  -1 -10   40.15    5.02
   9  -1  -9  285.99   12.83
   9   1  -9  299.24   11.92
   9  -1  -9  304.49   14.24
   9   1  -9  287.85   13.05
   9   1  -9  297.29   13.52
   9  -1  -8   87.65    7.15
   9   1  -8   95.26    6.72
   9  -1  -8   85.64    7.49
   9   1  -8   94.73    7.45
   9   1  -8   77.03    6.71
   9  -1  -7   91.81    7.15
   9   1  -7   82.64    6.33
   9  -1  -7   83.05    7.32
   9   1  -7   82.42    6.79
   9   1  -7   75.44    6.54
   9  -1  -6  114.36    8.04
   9   1  -6  116.31    7.58
   9  -1  -6  105.56    8.22
   9   1  -6  120.37    8.15
   9   1  -6  107.15    8.01
   9  -1  -5  236.18   11.51
   9   1  -5  253.86   11.21
   9  -1  -5  226.95   11.84
   9   1  -5  226.60   11.29
   9   1  -5  227.36   11.42
   9  -1  -4  194.41   10.43
   9   1  -4  210.73   10.35
   9  -1  -4  208.10   11.24
   9   1  -4  198.85   10.43
   9   1  -4  231.05   11.35
   9  -1  -3  241.07   11.63
   9   1  -3  233.92   10.98
   9   1  -3  238.33   11.52
   9  -1  -3  260.48   12.39
   9   1  -3  280.10   12.12
   9  -1  -2  136.77    8.63
   9   1  -2  145.04    8.53
   9  -1  -2  133.70    8.89
   9   1  -2  135.90    8.63
   9   1  -2  136.63    8.73
   9  -1  -1  371.27   14.49
   9   1  -1  358.16   13.55
   9  -1  -1  380.44   14.86
   9   1  -1  335.87   13.45
   9   1  -1  352.42   13.96
   9  -1   0  656.16   19.21
   9   1   0  663.90   18.91
   9  -1   0  620.21   19.36
   9   1   0  664.94   18.92
   9  -1   1  365.32   14.42
   9   1   1  363.75   13.96
   9  -1   1  356.62   14.74
   9   1   1  360.29   13.78
   9  -1   2  138.64    8.99
   9   1   2  130.66    8.48
   9  -1   2  151.89    9.44
   9   1   2  127.12    8.25
   9  -1   3  245.94   12.11
   9   1   3  244.30   11.88
   9   1   3  234.99   11.20
   9  -1   4  215.56   11.30
   9   1   4  205.50   10.83
   9   1   4  204.93   10.30
   9   1   5  212.70   11.25
   9   1   5  214.94   10.63
   9  -1   6  127.58    9.00
   9   1   6  125.29    8.61
   9   1   6  112.04    7.50
   9  -1   7   85.85    7.22
   9   1   7   81.97    6.97
   9   1   7   68.94    5.85
   9  -1   8   76.03    6.87
   9   1   8   86.23    7.47
   9   1   8   93.43    6.75
   9  -1   9  305.58   14.14
   9   1   9  302.28   14.04
   9   1   9  295.84   12.15
   9  -1  10   47.87    5.76
   9   1  10   38.94    5.15
   9   1  10   45.35    4.83
   9  -1  11  364.31   15.82
   9   1  11  404.60   14.09
   9   1  11  368.16   16.18
   9  -1  12   65.47    6.85
   9   1  12   46.26    4.73
   9  -1  13    3.57    1.99
   9   1  13    6.00    2.13
   9   1  13    5.14    1.56
   9  -1  14    5.11    2.82
   9   1  14    6.23    2.64
   9   1  14    2.44    1.13
   9  -1  15  121.79    9.78
   9   1  15  127.79    9.99
   9  -1  16   46.40    5.99
   9   1  16   39.35    5.63
   9  -1  17  160.13   11.62
   9   1  17  165.18   11.84
   9  -1  18    0.19    1.02
   9   1  18    6.44    1.90
   9  -1  19   37.02    5.68
   9   1  19   37.49    5.92
   9   1  20   12.36    3.34
   9  -1  20    7.93    2.97
   9  -1  21   44.39    6.14
   9   1  21   38.60    6.08
   9   1  22   20.13    4.95
   9  -1  22   25.93    5.07
   9   1  23    0.90    1.97
   9  -1  23    1.82    1.53
   9   1  24    3.05    1.92
   9   1  25   12.29    4.32
   9  -2 -27   -1.10    1.56
   9  -2 -26    6.86    3.29
   9  -2 -25    7.44    3.64
   9  -2 -24   -1.81    2.58
   9  -2 -23    0.47    2.32
   9  -2 -22   -0.91    1.91
   9  -2 -21   -0.16    1.61
   9  -2 -20    0.02    1.47
   9  -2 -19   -0.12    0.92
   9  -2 -18    9.13    2.58
   9   2 -17    5.06    3.38
   9  -2 -17    2.32    1.09
   9   2 -17    2.96    1.94
   9   2 -16    1.47    1.36
   9  -2 -16    0.63    1.39
   9   2 -16    5.13    2.38
   9   2 -15    0.23    1.64
   9  -2 -15    2.34    2.15
   9   2 -15    0.81    1.37
   9  -2 -15    1.42    1.56
   9  -2 -14    2.94    1.63
   9   2 -14    1.96    1.70
   9  -2 -14    2.15    1.49
   9   2 -14    2.45    2.04
   9  -2 -13    4.31    2.41
   9   2 -13    3.34    1.66
   9  -2 -13    4.21    1.91
   9   2 -13    2.29    1.56
   9  -2 -12    6.35    2.17
   9   2 -12   12.18    2.91
   9  -2 -12    6.30    2.22
   9   2 -12    5.59    1.79
   9  -2 -11    7.85    2.61
   9   2 -11    8.87    2.44
   9  -2 -11    9.24    2.24
   9   2 -11    7.82    2.21
   9  -2 -10    0.36    1.77
   9   2 -10   -0.81    0.90
   9   2 -10   -0.37    0.92
   9  -2 -10   -1.09    1.79
   9   2 -10   -1.13    1.51
   9  -2  -9    1.71    0.96
   9  -2  -9    1.00    0.88
   9   2  -9    2.10    1.40
   9   2  -9    0.10    1.15
   9   2  -9    0.76    0.80
   9  -2  -8   12.36    3.18
   9   2  -8   20.22    3.14
   9  -2  -8   25.84    4.43
   9   2  -8   16.93    3.37
   9   2  -8   16.35    3.59
   9   2  -7    8.91    2.18
   9  -2  -7    4.18    1.59
   9  -2  -7    9.06    2.50
   9   2  -7    8.40    2.06
   9   2  -7   10.78    2.12
   9   2  -6    7.24    2.56
   9  -2  -6    6.29    2.09
   9  -2  -6    7.56    2.34
   9   2  -6    8.44    2.42
   9   2  -6    4.53    1.54
   9   2  -5    1.91    1.09
   9   2  -5    1.91    0.89
   9  -2  -5    2.13    0.83
   9  -2  -5    1.24    0.96
   9   2  -5    2.46    1.15
   9   2  -4    0.39    0.89
   9   2  -4    0.35    0.53
   9  -2  -4    2.45    1.02
   9  -2  -4    0.56    1.52
   9   2  -4   -0.08    1.01
   9   2  -3    5.18    2.03
   9   2  -3    5.72    1.60
   9  -2  -3    8.34    2.35
   9  -2  -3    5.72    1.92
   9   2  -3    6.59    1.95
   9   2  -2    8.14    2.44
   9   2  -2    8.34    2.27
   9  -2  -2    7.99    2.27
   9  -2  -2    7.94    2.12
   9   2  -2    6.67    2.14
   9  -2  -1   27.77    4.08
   9  -2  -1   22.26    3.91
   9   2  -1   25.70    3.85
   9   2  -1   20.07    3.08
   9   2  -1   26.60    3.81
   9  -2   0   15.85    2.96
   9  -2   0   20.62    3.74
   9   2   0   17.05    3.08
   9   2   0   15.72    3.17
   9  -2   1   27.44    4.08
   9  -2   1   21.16    3.92
   9   2   1   18.56    3.44
   9   2   2    8.32    2.30
   9  -2   2   13.29    3.21
   9   2   2    5.31    1.98
   9  -2   2    6.30    2.18
   9   2   3    4.70    1.50
   9   2   3    5.19    1.42
   9  -2   3    4.53    2.22
   9  -2   3    9.06    2.39
   9   2   4    2.50    1.20
   9   2   4    3.01    1.48
   9  -2   4   -0.11    0.80
   9   2   5    0.26    1.08
   9   2   5    3.48    1.86
   9  -2   5    2.04    1.66
   9   2   6    5.63    1.51
   9   2   6    5.54    1.62
   9  -2   6    2.50    0.92
   9   2   7   10.03    2.28
   9   2   7   10.35    2.61
   9  -2   7   12.80    2.99
   9   2   8   22.61    3.89
   9  -2   8   21.75    4.00
   9   2   8   14.59    3.01
   9   2   9    1.11    1.46
   9   2   9    0.40    1.10
   9  -2   9    0.78    1.56
   9   2  10    0.65    1.24
   9   2  10    0.37    0.85
   9  -2  10    0.09    0.66
   9   2  11    6.93    2.11
   9   2  11    5.75    2.16
   9  -2  11    6.37    2.43
   9   2  12    3.19    1.48
   9   2  12    5.28    2.32
   9  -2  12    7.86    2.03
   9   2  13    2.23    1.12
   9   2  13    2.20    0.92
   9  -2  13    3.13    2.11
   9   2  14    0.60    1.00
   9   2  14    0.71    1.72
   9  -2  14    0.32    1.39
   9   2  15   -0.71    1.04
   9  -2  15   -0.01    1.29
   9   2  16    2.90    2.29
   9  -2  16    3.03    1.55
   9   2  17    1.86    1.46
   9  -2  17    1.51    1.57
   9   2  18    6.05    2.21
   9  -2  18   10.85    3.68
   9   2  19    2.09    2.65
   9  -2  19   -0.96    2.12
   9   2  20    1.01    1.64
   9  -2  20   -1.11    1.81
   9   2  21    4.37    2.75
   9  -2  21   -1.03    1.54
   9   2  22    1.19    1.81
   9   2  23   -0.10    1.76
   9   2  24    2.95    2.16
   9   2  25    1.18    1.58
   9   2  26    3.44    2.30
   9  -3 -27   18.40    5.09
   9  -3 -26    5.69    2.07
   9  -3 -25   20.17    5.15
   9  -3 -24    3.46    2.70
   9  -3 -23    1.30    1.24
   9  -3 -22   33.31    6.20
   9  -3 -21   39.89    6.50
   9  -3 -20    2.17    2.17
   9  -3 -19   15.53    4.33
   9   3 -19   12.27    3.10
   9  -3 -18   37.92    5.67
   9   3 -18   29.97    5.25
   9  -3 -17   15.13    4.32
   9  -3 -17   16.17    3.89
   9   3 -17   12.54    3.44
   9  -3 -16  193.77   13.15
   9  -3 -16  222.99   13.66
   9   3 -16  210.44   12.79
   9  -3 -15   16.99    3.88
   9  -3 -15   25.23    4.60
   9   3 -15   30.79    4.86
   9  -3 -14   53.00    6.78
   9  -3 -14   47.42    6.23
   9   3 -14   50.00    6.47
   9  -3 -13   46.08    6.32
   9  -3 -13   41.69    5.38
   9   3 -13   40.33    5.24
   9  -3 -12  233.74   13.50
   9  -3 -12  225.32   12.76
   9   3 -12  243.15   13.26
   9  -3 -11  258.51   14.07
   9  -3 -11  254.69   13.72
   9   3 -11  248.05   13.29
   9   3 -10  367.99   13.88
   9  -3 -10  356.84   16.51
   9  -3 -10  328.91   15.44
   9   3 -10  371.07   16.09
   9   3  -9    3.87    1.70
   9  -3  -9    0.57    1.02
   9   3  -9    2.08    1.10
   9  -3  -9    4.82    2.26
   9   3  -9    1.50    1.16
   9   3  -8   64.96    5.58
   9  -3  -8   61.53    6.66
   9   3  -8   58.11    5.26
   9   3  -8   58.54    6.23
   9  -3  -8   71.66    7.00
   9  -3  -7  627.60   21.08
   9   3  -7  574.78   16.60
   9   3  -7  594.70   16.85
   9   3  -7  563.59   19.54
   9  -3  -7  618.08   21.05
   9  -3  -6   60.23    6.56
   9   3  -6   55.96    5.23
   9   3  -6   59.72    5.38
   9   3  -6   62.93    6.48
   9  -3  -6   66.73    6.85
   9  -3  -5  815.49   23.92
   9   3  -5  796.85   19.86
   9   3  -5  851.28   20.77
   9   3  -5  862.32   23.67
   9  -3  -5  830.99   23.93
   9  -3  -4  416.04   16.55
   9  -3  -4  405.58   16.54
   9   3  -4  418.17   14.43
   9   3  -4  424.29   14.80
   9   3  -4  427.97   16.58
   9   3  -3    1.46    1.10
   9  -3  -3    2.37    1.17
   9   3  -3    3.62    1.71
   9  -3  -3    0.24    1.38
   9   3  -3    2.52    1.46
   9  -3  -2   32.13    4.47
   9  -3  -2   37.22    5.24
   9   3  -2   34.80    4.26
   9   3  -2   33.47    4.55
   9   3  -2   28.58    4.14
   9  -3  -1 1236.86   28.55
   9   3  -1 1209.62   27.75
   9   3  -1 1277.38   26.72
   9   3   0   25.63    3.86
   9   3   0   20.29    3.37
   9  -3   0   16.96    3.27
   9  -3   0   19.66    3.39
   9   3   1 1249.19   26.97
   9  -3   1 1230.18   28.54
   9  -3   1 1205.85   28.40
   9   3   1 1182.61   27.33
   9   3   2   41.51    4.94
   9  -3   2   43.60    5.43
   9  -3   2   29.94    4.44
   9   3   2   31.86    4.28
   9   3   3    1.27    1.50
   9  -3   3    2.63    0.96
   9   3   3    1.22    0.81
   9  -3   3    0.97    1.11
   9   3   4  402.77   16.04
   9  -3   4  446.33   17.19
   9  -3   4  432.84   17.18
   9   3   4  414.64   16.09
   9   3   5  801.47   22.67
   9  -3   5  840.84   23.74
   9  -3   5  789.95   23.28
   9   3   5  807.20   22.71
   9   3   6   61.10    6.39
   9  -3   6   54.75    6.31
   9   3   6   59.05    6.41
   9   3   7  600.37   20.14
   9  -3   7  627.74   20.88
   9   3   7  570.81   19.02
   9   3   8   58.78    6.32
   9  -3   8   58.66    6.27
   9   3   8   55.64    6.11
   9   3   9    0.97    1.08
   9  -3   9    0.71    1.87
   9   3   9    3.21    1.68
   9   3  10  339.05   15.99
   9  -3  10  382.32   16.66
   9   3  10  374.51   15.45
   9   3  11  266.41   14.11
   9  -3  11  253.70   13.81
   9   3  11  268.43   13.22
   9   3  12  231.51   13.03
   9  -3  12  241.11   13.62
   9   3  12  213.00   11.90
   9   3  13   40.62    5.60
   9  -3  13   41.25    5.68
   9   3  13   37.32    5.23
   9   3  14   51.34    6.43
   9  -3  14   50.62    6.40
   9   3  14   48.91    5.75
   9   3  15   28.03    4.87
   9  -3  15   18.32    3.64
   9   3  15   22.01    3.99
   9   3  16  206.98   13.24
   9  -3  16  193.69   12.72
   9  -3  17   14.98    3.88
   9   3  17   20.28    4.35
   9   3  18   36.01    5.87
   9  -3  18   27.54    4.88
   9  -3  19   23.83    4.45
   9   3  19    9.64    3.74
   9  -3  20   -0.30    1.60
   9   3  20    1.22    1.61
   9   3  21   42.40    6.44
   9   3  22   37.79    6.22
   9   3  23    1.07    2.16
   9   3  24    5.67    2.94
   9   3  25   25.77    5.41
   9   3  26    3.06    2.36
   9   3  27   14.07    4.90
   9  -4 -26    3.37    3.35
   9  -4 -25    0.05    2.08
   9  -4 -24   -0.33    1.95
   9  -4 -23    3.33    2.19
   9  -4 -22    0.34    1.96
   9  -4 -21    2.93    1.87
   9  -4 -20   -0.74    2.14
   9  -4 -19   -0.50    1.83
   9  -4 -18    4.67    2.62
   9  -4 -18    1.29    1.90
   9   4 -18    0.63    0.94
   9  -4 -17   56.99    7.31
   9  -4 -17   72.42    8.15
   9   4 -17   63.40    7.22
   9  -4 -16    1.39    1.09
   9  -4 -16   -0.27    1.05
   9   4 -16    2.28    1.35
   9  -4 -15    3.46    2.53
   9  -4 -15    3.55    1.58
   9   4 -14    3.46    2.30
   9  -4 -14   11.59    3.42
   9  -4 -14    7.39    2.55
   9   4 -13    3.67    2.40
   9  -4 -13    1.65    2.11
   9  -4 -13    2.30    1.01
   9  -4 -12   30.75    4.89
   9  -4 -12   23.20    4.46
   9   4 -12   36.13    5.25
   9  -4 -11  118.35    9.84
   9  -4 -11  122.59    9.81
   9   4 -11   97.70    8.50
   9   4 -10    0.29    1.05
   9  -4 -10    0.52    1.13
   9  -4 -10    1.00    1.67
   9  -4  -9   68.22    7.38
   9  -4  -9   85.59    8.17
   9   4  -9   75.81    7.48
   9  -4  -8   54.31    6.72
   9   4  -8   63.53    5.82
   9  -4  -8   61.45    6.94
   9   4  -8   48.70    5.85
   9   4  -7    0.65    1.69
   9  -4  -7    0.46    0.90
   9   4  -7   -0.60    0.91
   9  -4  -7   -0.30    1.23
   9  -4  -6  110.58    9.22
   9  -4  -6  114.42    9.39
   9   4  -6  126.40    8.23
   9   4  -6  109.70    8.78
   9  -4  -5   57.18    6.81
   9  -4  -5   50.40    6.14
   9   4  -5   53.12    5.34
   9   4  -5   52.94    6.18
   9   4  -4   41.02    4.74
   9  -4  -4   35.37    5.24
   9   4  -4   29.20    3.65
   9  -4  -4   36.59    5.32
   9   4  -3   14.01    3.17
   9   4  -3   14.12    3.28
   9  -4  -3   11.03    2.58
   9  -4  -3   13.14    3.28
   9   4  -3    9.41    2.12
   9   4  -2   79.80    6.82
   9  -4  -2   63.89    6.93
   9   4  -2   81.08    6.24
   9   4  -2   80.68    7.71
   9  -4  -2   84.08    7.83
   9   4  -1    0.30    1.41
   9  -4  -1    2.60    2.16
   9  -4  -1   -0.02    1.03
   9   4  -1   -0.12    0.65
   9   4   0  258.05   13.31
   9  -4   0  244.76   13.32
   9   4   0  268.98   12.82
   9  -4   0  264.04   13.81
   9   4   1    1.43    0.85
   9  -4   1   -0.47    1.51
   9  -4   1    2.27    1.55
   9   4   1    0.82    0.72
   9   4   2   96.67    8.06
   9  -4   2   86.67    7.89
   9   4   2   78.79    7.21
   9  -4   2   84.99    7.91
   9   4   3   15.51    3.39
   9   4   3   15.03    3.13
   9  -4   3   13.98    3.58
   9  -4   3   10.45    2.81
   9   4   4   31.55    4.57
   9  -4   4   33.82    4.92
   9   4   4   32.41    4.49
   9  -4   4   38.45    5.27
   9   4   5   58.13    6.21
   9  -4   5   51.44    6.15
   9   4   5   50.06    5.91
   9  -4   5   50.79    6.06
   9   4   6  120.95    9.23
   9  -4   6   99.99    8.43
   9   4   6  111.15    9.02
   9  -4   6  129.67    9.94
   9   4   7    0.21    0.71
   9   4   7    0.58    1.40
   9  -4   7    2.26    2.33
   9  -4   7    0.26    1.63
   9   4   8   55.66    6.28
   9  -4   8   64.92    7.08
   9   4   8   57.70    6.66
   9  -4   8   60.21    6.86
   9   4   9   74.56    7.45
   9  -4   9   94.98    8.63
   9   4   9   95.02    8.59
   9   4  10    0.62    1.19
   9   4  10    1.33    1.47
   9  -4  10    1.94    1.57
   9   4  11  108.54    9.09
   9  -4  11  115.00    9.51
   9   4  11  117.39    9.56
   9   4  12   37.11    5.25
   9  -4  12   28.38    4.93
   9   4  12   34.95    5.40
   9   4  13    3.09    2.14
   9   4  13    3.62    1.78
   9  -4  13    2.69    2.02
   9   4  14   10.13    2.79
   9   4  14   13.97    3.78
   9  -4  14    8.95    2.98
   9   4  15    3.32    1.73
   9   4  15    7.66    2.96
   9  -4  15    8.74    2.99
   9   4  16   -0.20    1.32
   9  -4  16    1.04    1.04
   9   4  16    1.05    0.93
   9  -4  17   58.35    7.00
   9   4  17   66.53    7.80
   9  -4  18    3.60    2.30
   9   4  18    4.33    2.13
   9  -4  19   -0.21    1.41
   9   4  19    0.63    1.54
   9   4  20    1.78    2.11
   9   4  21    1.74    1.78
   9   4  22   -0.06    1.91
   9   4  23    4.53    1.91
   9   4  24    0.60    1.58
   9   4  25   -1.28    1.81
   9   4  26    2.50    2.94
   9  -5 -24    0.73    1.04
   9  -5 -23    3.32    2.16
   9  -5 -22    5.51    2.15
   9  -5 -21   14.48    3.31
   9  -5 -20    3.38    2.11
   9  -5 -19    7.66    3.56
   9  -5 -19    1.29    1.33
   9  -5 -18   -1.33    1.58
   9  -5 -18   -0.72    1.50
   9  -5 -17    3.24    2.49
   9  -5 -17    5.11    2.57
   9   5 -17    1.32    1.14
   9   5 -16    7.33    2.99
   9  -5 -16    6.10    2.17
   9  -5 -16    3.80    2.18
   9  -5 -15   71.59    8.54
   9  -5 -15   70.46    7.91
   9   5 -15   72.73    8.12
   9   5 -14   14.75    3.83
   9  -5 -14   10.90    3.42
   9  -5 -14    7.33    3.36
   9   5 -13    0.35    0.78
   9  -5 -13    2.22    1.28
   9  -5 -13   -0.28    1.51
   9   5 -12   22.54    4.33
   9  -5 -12   17.10    4.14
   9  -5 -12   16.46    3.96
   9  -5 -11   94.84    8.93
   9  -5 -11   82.11    8.41
   9   5 -11   88.42    8.58
   9  -5 -10    5.24    2.47
   9   5 -10    6.70    2.36
   9  -5 -10    4.56    1.50
   9  -5  -9    5.53    2.32
   9   5  -9    7.38    2.86
   9  -5  -9    3.93    1.51
   9  -5  -8    1.58    2.06
   9   5  -8   -0.09    1.23
   9  -5  -8    1.00    1.43
   9  -5  -7   14.76    3.73
   9  -5  -7   26.82    4.60
   9   5  -7   25.09    4.55
   9  -5  -6   10.14    3.05
   9   5  -6   15.60    3.47
   9   5  -6   12.00    2.88
   9  -5  -6   14.65    3.81
   9   5  -5  180.13   10.50
   9  -5  -5  175.20   11.78
   9  -5  -5  179.81   12.12
   9   5  -5  168.15   11.26
   9   5  -4   26.87    4.59
   9   5  -4   25.26    4.03
   9  -5  -4   23.15    4.38
   9  -5  -4   24.65    4.82
   9   5  -3    9.03    2.48
   9  -5  -3   13.47    3.59
   9  -5  -3   10.29    3.03
   9   5  -3    6.77    1.77
   9   5  -2    6.54    2.41
   9   5  -2    4.61    2.30
   9  -5  -2    4.52    2.68
   9  -5  -2    8.37    2.50
   9   5  -1  185.76   11.77
   9   5  -1  174.37   10.91
   9  -5  -1  163.79   11.49
   9  -5  -1  177.56   12.09
   9   5   0   33.21    5.24
   9   5   0   27.74    4.33
   9  -5   0   31.05    5.04
   9  -5   0   22.60    4.68
   9   5   1  185.68   11.86
   9   5   1  185.68   11.39
   9  -5   1  189.94   12.18
   9  -5   1  158.24   11.25
   9   5   2    3.17    1.92
   9   5   2    9.60    2.19
   9  -5   2   13.75    3.96
   9  -5   2    2.93    1.21
   9   5   3   11.73    2.44
   9   5   3    9.67    2.82
   9  -5   3    6.59    2.36
   9  -5   3    5.38    2.39
   9  -5   4   23.01    4.57
   9   5   4   25.68    4.52
   9   5   4   15.26    3.17
   9  -5   4   19.27    4.01
   9  -5   5  175.61   11.94
   9   5   5  151.99   10.67
   9  -5   5  163.94   11.41
   9   5   6   13.45    3.31
   9   5   6   18.45    3.71
   9  -5   6    7.14    2.72
   9  -5   6   15.31    3.62
   9   5   7   19.58    3.96
   9  -5   7   20.61    4.17
   9   5   7   23.34    4.17
   9  -5   7   20.24    4.35
   9   5   8   -1.26    1.42
   9   5   8    1.03    0.92
   9  -5   8    0.13    1.50
   9  -5   8    0.09    1.68
   9   5   9    3.05    1.16
   9   5   9    6.62    2.28
   9  -5   9    0.97    0.95
   9  -5   9    3.23    2.85
   9   5  10    8.09    2.60
   9   5  10    6.41    2.53
   9  -5  10    1.40    1.54
   9  -5  10    3.91    1.98
   9   5  11   99.78    9.06
   9  -5  11   73.29    7.81
   9   5  11   99.09    8.91
   9  -5  11   87.52    8.85
   9   5  12   10.83    3.13
   9   5  12   20.88    4.25
   9  -5  12   21.10    4.34
   9   5  13   -0.11    2.12
   9   5  13    1.23    1.91
   9  -5  13   -0.63    1.41
   9   5  14    9.84    3.15
   9   5  14    5.14    2.55
   9  -5  14    7.15    2.54
   9   5  15   67.26    7.76
   9  -5  15   74.92    8.27
   9   5  15   91.85    9.21
   9   5  16    4.13    2.08
   9   5  16    3.39    1.38
   9   5  17    5.26    2.72
   9  -5  17    1.23    1.83
   9   5  18   -1.89    1.13
   9  -5  18    2.88    1.61
   9   5  19    9.07    3.03
   9   5  20    5.53    2.56
   9   5  21    9.49    3.24
   9   5  22    5.37    2.67
   9   5  23   -1.68    2.98
   9   5  24    0.55    1.09
   9  -6 -23    0.89    2.00
   9  -6 -22    1.15    2.31
   9  -6 -21    0.12    2.21
   9  -6 -20   -0.88    2.23
   9  -6 -20    2.38    1.60
   9  -6 -19    4.96    3.24
   9  -6 -19    8.11    3.83
   9  -6 -18    5.05    2.55
   9  -6 -18    1.53    1.48
   9   6 -17    3.65    1.99
   9  -6 -17    0.43    0.96
   9   6 -16   10.23    3.55
   9  -6 -16    5.93    2.40
   9  -6 -16   10.62    3.90
   9   6 -15    8.57    2.82
   9  -6 -15   10.17    3.26
   9  -6 -15    8.89    3.20
   9   6 -14    1.91    1.92
   9  -6 -14    1.54    1.95
   9   6 -13    6.17    2.68
   9  -6 -13    3.05    2.03
   9  -6 -13    5.66    2.99
   9   6 -12    3.29    1.82
   9  -6 -12    2.71    2.13
   9  -6 -12    5.13    2.33
   9   6 -11    1.60    2.13
   9  -6 -11   -0.05    0.99
   9  -6 -11   -0.45    1.58
   9   6 -10   15.30    3.67
   9  -6 -10   10.13    3.06
   9  -6 -10   13.19    3.52
   9   6  -9    1.67    1.35
  -9   6  -9    1.68    2.29
   9  -6  -9    3.06    1.65
   9  -6  -9    3.12    2.32
  -9   6  -8   29.74    4.95
   9  -6  -8   20.15    4.31
   9  -6  -8   24.05    4.95
   9   6  -8   29.75    5.04
   9  -6  -7   20.95    4.54
   9   6  -7   19.65    4.26
   9  -6  -7   23.69    4.80
   9  -6  -6    0.29    1.59
   9   6  -6    1.21    0.99
   9  -6  -6   -0.78    1.03
   9  -6  -5    1.20    2.19
   9   6  -5    1.54    2.42
   9  -6  -5    0.63    1.62
   9   6  -5    4.59    1.90
   9   6  -4    6.39    2.51
   9  -6  -4    6.41    2.38
   9   6  -4    8.58    2.37
   9  -6  -4    7.74    3.10
   9  -6  -3    1.90    1.85
   9   6  -3    2.83    1.71
   9   6  -3    2.77    1.97
   9  -6  -3    2.65    2.15
   9  -6  -2    4.86    2.34
   9   6  -2   -0.07    1.73
   9   6  -2    2.40    1.75
   9  -6  -2    3.93    1.02
   9   6  -1   27.13    4.73
   9   6  -1   19.25    3.58
   9  -6  -1   24.05    4.37
   9  -6  -1   26.47    4.95
   9   6   0   31.44    5.11
   9   6   0   34.60    4.97
   9  -6   0   26.95    4.71
   9  -6   0   23.32    4.78
   9   6   1   20.91    4.51
   9   6   1   26.02    4.89
   9  -6   1   20.64    4.12
   9  -6   1   25.24    4.87
   9  -6   2    5.51    2.32
   9   6   2    6.28    2.71
   9   6   2    0.67    0.92
   9  -6   2    2.50    1.34
   9  -6   3    0.88    1.70
   9   6   3    1.28    2.10
   9   6   3    1.27    0.89
   9  -6   3   -1.57    1.48
   9  -6   4    9.22    3.00
   9   6   4    6.65    2.42
   9  -6   4    7.22    2.67
   9   6   5    0.11    1.05
   9  -6   5    4.08    1.75
   9   6   5    2.85    2.03
   9  -6   5    1.40    1.11
   9   6   6   -0.23    1.45
   9  -6   6    1.71    2.38
   9   6   6    1.37    1.72
   9  -6   6   -0.21    1.93
   9   6   7   24.40    4.90
   9  -6   7   21.64    4.23
   9   6   7   15.71    3.82
   9  -6   7   21.49    4.47
   9   6   8   22.09    5.15
   9  -6   8   25.40    4.52
   9   6   8   23.15    4.44
   9  -6   8   31.42    5.22
   9   6   9    4.13    2.53
   9  -6   9    2.56    1.91
   9   6   9    5.76    2.82
   9  -6   9    1.15    1.03
   9   6  10   11.25    3.10
   9  -6  10    9.59    3.62
   9   6  10   14.81    3.52
   9  -6  10   10.75    3.32
   9   6  11   -1.51    1.63
   9  -6  11    1.00    1.96
   9   6  11   -2.09    2.08
   9  -6  11    0.33    1.38
   9   6  12    0.68    1.39
   9   6  12    5.02    2.92
   9  -6  12    2.70    1.79
   9   6  13   11.94    3.38
   9  -6  13    8.61    2.69
   9   6  13    6.51    2.92
   9  -6  13    3.84    1.53
   9   6  14    1.71    1.58
   9  -6  14    5.03    2.73
   9   6  14    5.89    2.77
   9  -6  14    9.21    3.02
   9   6  15   16.61    4.57
   9  -6  15   11.88    3.56
   9   6  15   13.56    3.27
   9  -6  15   13.67    2.76
   9   6  16    8.46    3.53
   9  -6  16   12.44    3.54
   9   6  16    8.33    2.49
   9   6  17    2.77    1.22
   9   6  17    3.92    2.76
   9   6  18    4.51    1.99
   9   6  19    4.03    1.98
   9   6  20    1.04    2.46
   9   6  21    2.69    1.62
   9   6  22    6.03    3.13
   9   6  23   -1.91    3.09
   9  -7 -21    3.25    1.25
   9  -7 -21    5.86    2.65
   9  -7 -20    1.15    1.81
   9  -7 -20    3.65    2.50
   9  -7 -19    4.08    3.30
   9  -7 -19    0.86    1.82
   9  -7 -18    2.89    2.39
   9  -7 -18    1.01    2.02
   9  -7 -17    4.89    1.51
   9  -7 -17    5.87    2.32
   9  -7 -16    3.30    2.24
   9   7 -16   -0.11    1.02
   9  -7 -16    0.42    2.29
   9  -7 -15   50.96    7.46
   9   7 -15   47.78    6.81
   9   7 -14    0.79    2.03
   9  -7 -14    1.55    2.46
   9  -7 -14    2.10    2.08
   9   7 -13   -0.03    1.57
   9  -7 -13    1.76    1.35
   9  -7 -13    1.63    2.26
   9   7 -12    3.55    2.46
   9  -7 -12   -0.74    2.09
   9  -7 -12    1.81    1.80
   9  -7 -11   55.68    7.14
   9  -7 -11   58.10    7.89
   9   7 -11   51.67    7.60
   9   7 -10   15.00    4.27
   9  -7 -10    8.90    3.21
   9  -7 -10    5.83    2.72
   9   7  -9    9.84    3.22
   9  -7  -9   14.11    3.58
   9   7  -8    5.06    2.46
  -9   7  -8    2.12    1.92
   9  -7  -8    5.28    2.35
   9  -7  -8    5.49    2.71
   9   7  -7    2.35    2.30
  -9   7  -7    2.64    2.44
   9  -7  -7    3.27    1.80
   9  -7  -7    2.45    1.63
   9   7  -6   18.77    3.96
  -9   7  -6   21.19    4.58
   9  -7  -6   21.54    4.86
   9  -7  -6   20.38    4.60
   9  -7  -5   72.69    7.96
   9   7  -5   72.47    8.08
  -9   7  -5   69.21    7.97
   9  -7  -5   79.69    8.97
   9  -7  -4    3.74    2.15
  -9   7  -4    2.66    2.05
   9   7  -4    1.70    2.11
   9   7  -4    2.43    1.33
   9  -7  -4    3.86    2.56
   9  -7  -3    4.69    1.79
   9   7  -3    7.36    2.09
   9   7  -3    9.98    3.47
  -9   7  -3   11.51    2.93
   9  -7  -3    7.04    2.12
   9  -7  -2    2.79    1.73
   9   7  -2    2.97    2.32
   9   7  -2    1.28    1.57
   9  -7  -2    1.56    1.21
   9   7  -1   56.30    6.89
   9   7  -1   43.07    6.27
   9  -7  -1   46.36    6.75
   9  -7  -1   58.05    7.09
   9   7   0   93.94    9.22
   9   7   0   81.70    8.19
   9  -7   0   88.29    8.59
   9  -7   0  109.54   10.14
   9   7   1   54.64    6.87
   9  -7   1   52.31    6.97
   9  -7   1   58.89    7.62
   9  -7   2    4.16    3.13
   9   7   2    1.14    0.81
   9   7   2    5.55    3.20
   9  -7   2    1.07    1.64
   9  -7   3   11.06    3.39
   9   7   3   10.27    3.63
   9   7   3    9.84    2.89
   9  -7   3   13.11    2.92
   9  -7   4    0.45    0.87
   9   7   4    0.58    1.68
   9   7   4   -0.48    1.25
   9  -7   4   -0.58    1.65
   9   7   5   78.12    8.54
   9   7   5   74.06    8.02
   9  -7   5   62.91    7.88
   9  -7   5   67.19    7.84
   9  -7   6   22.11    4.42
   9   7   6   16.47    4.16
   9   7   6   16.54    4.13
   9  -7   6   20.62    4.45
   9  -7   7   -2.30    1.34
   9   7   7    4.20    2.14
   9   7   7    4.87    2.27
   9  -7   7    6.20    2.96
   9  -7   8    4.30    3.05
   9   7   8    2.59    2.31
   9   7   8    7.93    2.82
   9  -7   8    3.35    2.06
   9  -7   9   16.57    4.24
   9   7   9   24.69    4.38
   9   7   9   19.21    4.32
   9  -7   9    9.65    3.39
   9  -7  10    9.25    3.76
   9   7  10    3.34    1.63
   9   7  10   17.02    4.29
   9  -7  10   14.26    4.83
   9   7  11   62.67    7.51
   9   7  11   51.01    7.52
   9  -7  11   58.52    7.58
   9  -7  11   66.82    8.11
   9  -7  12    2.47    2.38
   9   7  12    0.20    2.09
   9   7  12    3.72    1.83
   9  -7  12    1.27    2.16
   9  -7  13    2.29    2.07
   9   7  13   -0.08    1.01
   9   7  13    4.47    2.94
   9  -7  14    2.12    2.24
   9   7  14    1.15    1.65
   9   7  14    1.11    1.82
   9   7  15   47.10    6.96
   9  -7  15   38.76    6.54
   9   7  15   43.82    6.62
   9   7  16    2.12    2.71
   9   7  16    1.55    2.01
   9   7  17    5.87    2.34
   9   7  17    8.66    2.80
   9   7  18    3.75    3.94
   9   7  19    2.83    2.69
  -9   7  19    1.07    2.19
   9   7  20    1.78    2.33
  -9   7  20    1.31    2.04
   9   7  21   16.93    4.45
  -9   7  21   -0.64    2.04
   9  -8 -18    0.75    1.70
   9  -8 -18   -3.02    2.71
   9  -8 -17    0.35    2.15
   9  -8 -17    2.57    2.46
   9   8 -16   -6.38    2.67
   9  -8 -16   -2.74    1.64
   9   8 -15    4.62    2.32
   9  -8 -15   -0.25    1.53
   9  -8 -15    1.25    1.32
   9   8 -14    1.48    1.87
   9  -8 -14    2.24    1.07
   9  -8 -14   -0.53    2.02
   9  -8 -13    1.46    1.44
   9   8 -13    4.56    2.80
   9  -8 -13   -2.32    1.39
   9   8 -12    1.26    2.09
   9  -8 -12    2.79    2.69
   9  -8 -12   -1.55    0.99
   9   8 -11    2.72    2.48
   9  -8 -11    2.88    2.28
   9  -8 -11   -0.43    1.97
   9   8 -10    3.72    2.52
   9  -8 -10    4.10    1.60
   9  -8 -10    7.29    3.01
   9   8  -9    1.40    2.59
   9  -8  -9   -0.80    1.30
   9  -8  -9    1.48    1.84
   9   8  -8    2.03    2.70
   9  -8  -8    3.66    2.34
   9  -8  -8    5.57    2.53
   9   8  -7   -0.02    0.92
  -9   8  -7    8.66    3.45
   9  -8  -7    5.67    2.26
   9  -8  -7    2.70    2.15
   9   8  -6   14.32    3.83
  -9   8  -6    8.47    2.58
   9  -8  -6   16.67    4.09
   9  -8  -6    8.65    3.10
   9   8  -5   -0.62    1.75
  -9   8  -5    0.70    1.96
   9  -8  -5    1.36    2.21
   9  -8  -5    1.28    0.87
   9   8  -4    5.34    1.59
  -9   8  -4    6.30    3.17
   9  -8  -4    3.19    1.46
   9  -8  -4    4.24    2.97
   9   8  -3    2.94    2.19
   9   8  -3   -2.56    0.96
  -9   8  -3    3.43    2.03
   9  -8  -3    6.10    2.33
   9  -8  -3    2.22    1.37
   9   8  -2    5.93    3.12
  -9   8  -2    3.71    2.44
   9   8  -2    7.16    2.85
   9  -8  -2    6.20    3.19
   9  -8  -2    6.87    3.13
   9  -8  -1    1.92    2.15
   9   8  -1    4.33    1.95
  -9   8  -1    4.65    3.51
   9   8  -1   -0.91    1.60
   9  -8  -1   -0.78    2.33
   9  -8   0    1.27    1.26
   9   8   0    2.06    1.89
   9   8   0    1.89    1.37
  -9   8   0    0.57    2.06
   9  -8   0    2.20    2.08
   9  -8   1    2.34    1.29
   9   8   1   -1.41    1.47
   9   8   1    1.17    1.06
  -9   8   1    3.44    2.53
   9  -8   1    2.50    1.53
   9  -8   2    9.99    3.40
   9   8   2   13.41    3.57
  -9   8   2    8.70    3.00
   9   8   2    5.98    2.36
   9  -8   2    9.61    3.21
   9  -8   3    3.79    2.11
   9   8   3    5.37    1.83
  -9   8   3    3.57    2.49
   9   8   3    1.79    1.49
   9  -8   3    6.63    3.16
  -9   8   4    3.53    2.57
   9  -8   4    1.72    1.42
   9   8   4    2.29    1.70
   9   8   4    0.41    1.02
   9  -8   4    6.25    2.12
   9  -8   5    0.83    2.03
   9   8   5   -0.47    1.81
  -9   8   5    0.71    1.85
   9   8   5    2.49    1.95
   9  -8   5    1.68    2.07
   9  -8   6   11.14    4.01
   9   8   6   13.89    3.64
  -9   8   6    8.49    2.36
   9   8   6   10.44    3.00
   9  -8   6   11.93    3.65
   9  -8   7    3.92    2.13
   9   8   7    2.44    2.26
   9   8   7    1.99    1.10
  -9   8   7    0.56    1.70
   9  -8   8    1.75    1.80
   9   8   8   -1.17    1.76
   9   8   8    4.77    2.16
  -9   8   8    2.72    1.58
   9  -8   9   -0.41    1.52
   9   8   9    0.55    1.64
  -9   8   9    1.25    1.88
   9   8   9    1.55    1.07
   9  -8  10    2.53    1.13
   9   8  10    1.63    1.04
   9   8  10    2.41    0.97
   9  -8  11    1.07    2.23
   9   8  11    1.92    2.17
  -9   8  11    4.64    1.89
   9   8  11    0.36    1.82
   9  -8  12    0.87    1.55
   9   8  12   -0.80    2.05
   9   8  12    3.08    1.94
  -9   8  12    0.44    1.67
   9  -8  13    3.63    2.68
   9   8  13   -0.06    1.30
   9   8  13    0.70    1.41
  -9   8  13   -2.61    2.70
   9   8  14    2.49    2.81
   9   8  14    0.81    1.68
  -9   8  14    0.93    2.65
   9   8  15   -0.23    1.63
   9   8  15    1.42    1.89
  -9   8  15   -4.40    3.22
   9   8  16    0.27    2.08
   9   8  16    1.06    1.18
  -9   8  16    1.56    1.28
   9   8  17    1.38    2.28
   9   8  17   -4.15    2.49
  -9   8  17    1.01    1.78
   9   8  18    1.48    2.33
  -9   8  18   -2.37    3.03
   9   9 -14    0.90    2.08
   9  -9 -14    0.39    1.61
   9   9 -13    2.60    2.21
   9  -9 -13   -3.46    2.69
   9  -9 -13    5.32    2.92
   9  -9 -12    4.49    3.19
   9   9 -12    0.84    1.54
   9  -9 -12   -0.98    2.34
   9   9 -11   15.25    4.53
   9  -9 -11   14.39    3.67
   9  -9 -11   16.07    4.28
   9   9 -10   27.66    5.31
   9  -9 -10   22.43    5.91
   9  -9 -10   14.61    4.25
   9   9  -9    9.05    3.06
   9  -9  -9   11.84    4.21
   9  -9  -9   11.09    3.38
   9   9  -8    0.14    1.00
   9  -9  -8    1.11    1.40
   9  -9  -8    1.45    1.21
   9   9  -7    6.71    3.87
   9  -9  -7    8.94    3.24
   9  -9  -7    7.98    3.05
   9   9  -6   17.39    4.32
  -9   9  -6   14.45    4.69
   9  -9  -6   13.38    3.76
   9  -9  -6    7.90    3.04
   9   9  -5   37.41    6.20
  -9   9  -5   39.26    6.82
   9  -9  -5   31.61    6.17
   9  -9  -5   31.06    6.01
   9   9  -4    3.62    2.69
   9  -9  -4    0.86    1.42
   9  -9  -4    1.48    1.62
   9   9  -3   -0.06    2.23
  -9   9  -3    0.12    1.09
   9  -9  -3    3.08    2.15
   9  -9  -3    0.64    1.69
   9   9  -2    1.27    1.78
  -9   9  -2    1.18    2.26
   9  -9  -2    0.79    2.43
   9  -9  -2    0.19    1.24
   9   9  -1   16.88    4.70
  -9   9  -1   22.23    5.14
   9   9  -1   20.60    4.66
   9  -9  -1   16.82    4.46
   9  -9  -1    9.98    4.12
   9   9   0   22.33    4.69
  -9   9   0   20.66    4.82
   9   9   0    7.02    3.44
   9  -9   0   17.11    4.61
   9  -9   0    8.77    2.91
   9   9   1   19.54    4.52
  -9   9   1   15.52    3.60
   9   9   1   16.50    4.28
   9  -9   1   16.46    3.93
   9   9   2    6.67    3.40
  -9   9   2    1.22    2.38
   9   9   2   -0.60    1.37
   9  -9   2   -1.88    2.84
   9   9   3    0.10    1.11
  -9   9   3    3.89    2.39
   9   9   3   -0.10    1.64
   9  -9   3   -0.90    1.67
   9   9   4    3.71    2.52
  -9   9   4    1.62    1.92
   9   9   4   -0.46    1.37
   9  -9   4    3.71    2.23
  -9   9   5   34.63    6.19
   9   9   5   28.52    5.15
   9  -9   5   43.49    7.04
   9  -9   6   11.54    4.06
   9   9   6    9.61    2.24
  -9   9   6   10.88    3.58
   9   9   6   11.97    3.27
   9  -9   7    5.31    3.27
   9   9   7    3.14    1.39
  -9   9   7   10.63    3.52
   9   9   7   12.15    3.80
   9  -9   8   -2.03    1.35
   9   9   8    0.75    1.98
  -9   9   8    2.57    3.31
   9   9   8    1.24    1.42
   9  -9   9   11.14    4.41
   9   9   9    3.76    2.85
  -9   9   9   15.15    4.28
   9   9   9    5.10    3.00
   9  -9  10   11.11    2.61
   9   9  10   16.81    4.57
  -9   9  10   26.20    5.28
   9   9  10   15.10    4.24
   9  -9  11    6.53    2.28
   9   9  11   11.33    2.92
  -9   9  11   14.77    4.48
   9   9  11   13.13    3.89
   9  -9  12   -1.95    1.90
   9   9  12    1.93    1.73
  -9   9  12    2.47    3.18
   9   9  12    1.64    2.08
   9   9  13    0.53    1.59
  -9   9  13    3.61    2.54
   9   9  13    3.65    3.48
   9   9  14   -1.82    2.29
  -9   9  14    0.68    1.68
   9   9  14    1.15    1.46
   9  10  -9   10.21    3.24
   9 -10  -9   11.29    3.46
   9 -10  -9   10.40    4.10
   9  10  -8    8.45    3.25
   9 -10  -8    6.11    2.32
   9 -10  -8    7.55    3.20
   9  10  -7    7.19    3.05
   9 -10  -7    0.31    1.55
   9  10  -6   22.41    4.92
   9 -10  -6   19.63    5.00
   9  10  -5    3.44    1.75
  -9  10  -5    4.63    1.92
   9 -10  -5    5.63    2.97
   9  10  -4   -1.54    2.01
  -9  10  -4    2.94    1.39
   9 -10  -4    3.40    2.40
   9  10  -3   -0.57    1.99
  -9  10  -3    0.41    1.09
   9 -10  -3    3.24    3.20
   9  10  -2   14.89    3.69
  -9  10  -2   14.40    4.35
   9 -10  -2   19.49    4.91
   9  10  -1    0.12    1.29
  -9  10  -1   -0.64    2.08
   9 -10  -1    0.33    1.30
   9  10   0   34.69    5.83
  -9  10   0   35.80    6.36
   9 -10   0   32.78    6.26
   9  10   1    4.14    1.87
  -9  10   1    3.68    2.92
   9  10   1    1.57    1.85
   9 -10   1    0.59    1.70
   9  10   2   10.30    3.78
  -9  10   2   16.06    4.40
   9  10   2   14.82    4.32
   9 -10   2    7.99    2.78
   9  10   3    2.37    2.56
  -9  10   3   -0.45    1.74
   9  10   3    1.19    2.40
   9 -10   3   -4.24    3.42
   9  10   4    2.05    1.97
  -9  10   4    2.94    2.03
   9  10   4    1.73    2.00
   9 -10   4    5.55    3.34
   9  10   5    4.05    2.84
  -9  10   5    0.99    1.76
   9  10   5    5.12    3.19
   9  10   6   17.99    4.61
  -9  10   6   27.39    5.92
   9  10   6   23.34    5.25
   9 -10   6   23.10    5.59
   9  10   7    0.29    1.32
  -9  10   7    0.65    1.88
   9  10   7    0.92    1.29
   9 -10   7    4.79    2.65
   9  10   8   11.10    3.59
  -9  10   8    8.46    3.61
   9  10   8   12.94    3.72
   9 -10   8   18.39    4.76
   9  10   9   14.01    4.19
  -9  10   9   12.75    3.89
   9  10   9   13.77    3.88
   9 -10   9    7.30    3.77
  10   0 -26    4.67    3.53
  10   0 -25    4.54    1.74
  10   0 -24   12.16    3.08
  10   0 -23   35.00    6.39
  10   0 -22   19.17    4.61
  10   0 -21   60.57    7.92
  10   0 -20   20.39    4.73
  10   0 -19   35.37    5.67
  10   0 -18   88.26    8.85
  10   0 -17  110.85    9.69
  10   0 -16   39.63    6.25
  10   0 -15   95.65    8.67
  10   0 -14   65.39    7.03
  10   0 -13  120.51    9.58
  10   0 -12  147.36   10.37
  10   0 -12  137.28    9.43
  10   0 -11  101.47    7.73
  10   0 -11  120.11    9.14
  10   0 -10   50.83    5.55
  10   0 -10   49.57    5.83
  10   0  -9  101.63    7.93
  10   0  -9   99.32    8.29
  10   0  -8  107.04    7.89
  10   0  -8  108.45    8.50
  10   0  -7   80.81    6.91
  10   0  -7   77.69    7.20
  10   0  -7   76.06    7.15
  10   0  -6   34.02    4.40
  10   0  -6   33.07    4.80
  10   0  -5  126.72    8.52
  10   0  -5  116.44    8.57
  10   0  -4  142.61    9.13
  10   0  -4  169.00   10.21
  10   0  -4  144.64    9.47
  10   0  -3  156.78    9.71
  10   0  -3  160.51    9.94
  10   0  -3  141.38    9.24
  10   0  -2   96.43    7.51
  10   0  -2  104.06    7.95
  10   0  -2  104.62    7.95
  10   0  -1   47.70    5.52
  10   0  -1   59.60    6.13
  10   0  -1   44.18    5.00
  10   0   0    0.75    0.54
  10   0   0   -0.11    1.36
  10   0   0    1.77    1.44
  10   0   1   37.31    4.89
  10   0   1   43.89    5.05
  10   0   2  100.06    7.97
  10   0   2  104.95    7.65
  10   0   3  137.33    9.47
  10   0   3  138.89    8.81
  10   0   4  153.61    9.82
  10   0   5  118.44    8.68
  10   0   5  111.63    7.95
  10   0   6   38.91    5.06
  10   0   6   21.88    3.34
  10   0   7   73.36    7.03
  10   0   7   93.28    7.01
  10   0   8  117.80    8.89
  10   0   8  120.17    8.21
  10   0   9   96.38    8.08
  10   0   9  105.42    7.40
  10   0  10   55.15    6.10
  10   0  10   53.72    5.34
  10   0  11  115.56    9.30
  10   0  11  119.90    7.87
  10   0  12  146.17   10.38
  10   0  12  129.55    8.16
  10   0  13  112.10    9.51
  10   0  14   60.78    7.17
  10   0  15  117.58    9.80
  10   0  16   46.09    5.95
  10   0  17   95.29    8.96
  10   0  18   85.85    8.52
  10   0  19   32.18    5.71
  10   0  20   22.77    4.61
  10   0  21   51.93    7.18
  10   0  22   19.29    4.31
  10   0  23   30.87    6.04
  10   0  24   17.29    4.41
  10  -1 -27    5.40    3.16
  10  -1 -26   -0.27    1.91
  10  -1 -25   -0.81    1.35
  10  -1 -24    1.82    2.52
  10  -1 -23    4.52    3.08
  10  -1 -22    4.95    2.06
  10   1 -21    2.14    1.26
  10  -1 -21   -1.31    1.64
  10   1 -20    1.39    1.93
  10  -1 -20    2.07    1.84
  10   1 -19   -0.92    2.08
  10  -1 -19    3.09    2.39
  10   1 -18    2.06    1.92
  10  -1 -18    3.70    1.84
  10   1 -17    4.34    2.24
  10  -1 -17    3.49    2.75
  10   1 -16    3.84    2.22
  10  -1 -16    5.78    2.48
  10   1 -15    5.01    2.09
  10  -1 -15    6.35    2.70
  10  -1 -14    1.44    2.30
  10   1 -14    0.92    1.23
  10  -1 -14    0.48    1.45
  10  -1 -13   13.68    3.15
  10   1 -13   17.26    3.78
  10  -1 -13   18.11    3.44
  10  -1 -12   13.29    3.38
  10   1 -12   13.21    3.40
  10  -1 -12   18.48    3.67
  10   1 -12   16.49    3.50
  10  -1 -11    0.74    1.14
  10   1 -11   -0.40    1.08
  10   1 -11   -0.51    1.12
  10  -1 -11   -0.37    1.72
  10   1 -11    1.14    1.50
  10  -1 -10    2.04    1.66
  10   1 -10    2.47    1.69
  10  -1 -10    2.22    1.25
  10   1 -10    2.18    1.66
  10   1 -10    6.26    2.32
  10  -1  -9    4.68    1.69
  10   1  -9    1.14    0.84
  10  -1  -9    1.98    1.73
  10   1  -9    3.20    1.61
  10   1  -9    2.81    1.07
  10  -1  -8    3.37    1.66
  10   1  -8    1.10    0.51
  10  -1  -8    0.16    1.03
  10   1  -8    2.25    1.72
  10   1  -8    1.12    1.57
  10   1  -7   15.85    3.48
  10  -1  -7   11.12    2.46
  10   1  -7   13.20    2.46
  10  -1  -7   15.87    3.41
  10   1  -7   19.54    3.71
  10  -1  -6    7.08    2.20
  10  -1  -6    8.06    2.47
  10   1  -6   11.95    2.53
  10   1  -6    9.33    2.51
  10   1  -6    9.54    2.55
  10  -1  -5    0.96    1.05
  10  -1  -5   -0.13    1.03
  10   1  -5    0.17    0.73
  10   1  -5    1.96    1.19
  10   1  -5    1.02    0.70
  10  -1  -4    2.64    1.55
  10  -1  -4    1.22    1.10
  10   1  -4    4.11    1.55
  10   1  -4    3.17    1.05
  10   1  -4    0.43    1.21
  10  -1  -3    5.88    2.07
  10  -1  -3    4.01    1.84
  10   1  -3    6.23    2.17
  10   1  -3    1.25    0.69
  10   1  -3    4.01    1.54
  10  -1  -2    2.02    1.04
  10  -1  -2    2.39    1.32
  10   1  -2    2.32    1.28
  10   1  -2    2.65    1.34
  10   1  -2    6.23    1.80
  10  -1  -1   19.14    3.71
  10   1  -1   17.06    3.26
  10   1  -1   20.63    3.50
  10  -1  -1   18.54    3.44
  10   1  -1   18.29    3.17
  10   1   0   15.14    3.07
  10  -1   0   16.80    3.42
  10  -1   0   14.50    3.38
  10   1   0   10.61    2.31
  10   1   0    8.07    2.28
  10   1   1   17.03    3.00
  10  -1   1   18.56    3.43
  10  -1   1   16.35    3.50
  10   1   1   16.95    3.08
  10   1   2    2.15    1.02
  10  -1   2    6.47    2.24
  10  -1   2    1.19    0.97
  10   1   2    7.69    2.32
  10   1   3    5.37    1.91
  10  -1   3    1.93    1.76
  10   1   3    2.81    1.82
  10   1   4    1.79    1.50
  10  -1   4    1.20    0.82
  10   1   4    2.92    1.46
  10   1   5    0.67    1.02
  10  -1   5   -0.12    0.97
  10   1   5   -0.12    0.86
  10   1   6    7.33    2.10
  10  -1   6   13.77    3.00
  10   1   6    7.84    2.42
  10   1   7   17.88    3.60
  10   1   7   21.22    3.58
  10  -1   7   15.77    3.42
  10   1   8   -0.67    1.09
  10  -1   8    1.87    1.10
  10   1   8    0.78    0.86
  10   1   9    2.10    1.81
  10  -1   9    4.20    1.97
  10   1   9    3.17    1.22
  10   1  10    2.31    1.70
  10  -1  10    0.02    1.18
  10   1  10    0.46    1.49
  10   1  11    1.29    1.50
  10  -1  11    1.45    1.09
  10   1  11    0.67    1.73
  10   1  12   12.20    2.52
  10  -1  12    8.98    2.58
  10   1  13   14.93    3.22
  10   1  13   14.93    2.83
  10  -1  13   18.19    3.98
  10   1  14   -0.06    1.78
  10  -1  14   -0.43    0.85
  10   1  15    5.76    2.13
  10  -1  15    3.78    1.49
  10   1  16    4.51    2.48
  10  -1  16    2.68    1.66
  10   1  17    5.74    2.51
  10  -1  17    5.95    2.21
  10   1  18    0.61    0.94
  10  -1  18    0.57    1.54
  10   1  19    1.29    1.43
  10  -1  19    1.72    1.19
  10   1  20    2.20    2.11
  10  -1  20    2.73    2.24
  10   1  21    0.50    1.61
  10  -1  21    1.42    1.43
  10   1  22    2.40    2.37
  10  -1  22    3.81    2.14
  10   1  23    2.62    1.60
  10  -1  23    0.37    1.72
  10   1  24   -2.39    2.66
  10   1  25    3.57    2.52
  10  -2 -26    1.83    2.29
  10  -2 -25   14.39    4.21
  10  -2 -24   17.24    4.06
  10  -2 -23    5.62    2.59
  10  -2 -22    5.99    2.94
  10  -2 -21   12.55    4.01
  10  -2 -20    4.16    2.40
  10  -2 -19   23.80    4.79
  10  -2 -18   50.62    6.80
  10  -2 -17   43.99    6.22
  10   2 -16   28.24    5.08
  10  -2 -16   24.46    4.64
  10   2 -16   29.62    5.17
  10   2 -15   57.88    6.45
  10  -2 -15   61.94    7.30
  10  -2 -15   64.58    7.18
  10   2 -15   66.28    7.27
  10   2 -14   40.05    5.46
  10  -2 -14   33.61    5.44
  10  -2 -14   37.65    5.68
  10   2 -14   34.17    4.86
  10   2 -13   39.95    5.25
  10  -2 -13   50.54    6.38
  10  -2 -13   44.87    6.00
  10   2 -13   60.98    6.73
  10   2 -12  118.59    8.88
  10  -2 -12  108.22    9.27
  10  -2 -12  100.97    8.45
  10   2 -12   91.33    8.15
  10   2 -11  143.46    9.59
  10  -2 -11  145.79   10.64
  10   2 -11  153.99   10.49
  10  -2 -11  163.71   10.85
  10   2 -10   44.88    4.96
  10   2 -10   46.34    5.42
  10  -2 -10   47.19    6.04
  10   2 -10   54.10    6.09
  10  -2 -10   44.50    5.83
  10   2  -9   87.95    6.82
  10  -2  -9   87.89    8.19
  10   2  -9  107.21    8.03
  10   2  -9   96.73    8.15
  10  -2  -9   88.47    8.09
  10  -2  -8   90.08    7.95
  10   2  -8  110.75    7.64
  10  -2  -8  107.00    8.85
  10   2  -8  102.45    7.93
  10   2  -8  103.03    8.36
  10  -2  -7   30.91    4.74
  10   2  -7   48.77    5.09
  10  -2  -7   46.57    6.11
  10   2  -7   42.94    5.08
  10   2  -7   37.89    5.06
  10  -2  -6   40.63    5.34
  10   2  -6   45.35    5.13
  10  -2  -6   43.68    5.55
  10   2  -6   56.04    5.83
  10   2  -6   58.98    6.27
  10  -2  -5  102.73    8.23
  10   2  -5  111.15    7.82
  10  -2  -5  112.84    9.08
  10   2  -5  106.24    7.91
  10   2  -5  115.72    8.68
  10  -2  -4   71.71    6.85
  10   2  -4   78.53    6.61
  10  -2  -4   80.79    7.60
  10   2  -4   88.38    7.21
  10   2  -4   89.20    7.72
  10  -2  -3  127.26    9.25
  10   2  -3  150.27    9.19
  10  -2  -3  142.05   10.09
  10   2  -3  159.69    9.62
  10   2  -3  165.93   10.30
  10  -2  -2  215.71   11.88
  10  -2  -2  220.62   12.46
  10   2  -2  210.45   11.07
  10   2  -2  212.38   11.08
  10   2  -2  233.34   11.94
  10  -2  -1  128.16    9.11
  10  -2  -1  128.29    9.35
  10   2  -1  122.38    8.63
  10   2  -1  129.46    8.63
  10   2  -1  125.58    8.91
  10  -2   0   38.93    5.08
  10  -2   0   47.28    5.74
  10   2   0   37.19    4.76
  10   2   0   39.04    5.01
  10  -2   1  127.07    9.17
  10  -2   1  140.29    9.85
  10   2   1  124.79    8.74
  10   2   1  125.82    8.75
  10  -2   2  206.23   11.83
  10  -2   2  230.85   12.74
  10   2   2  214.30   11.53
  10   2   2  208.87   11.40
  10  -2   3  141.68    9.91
  10  -2   3  158.58   10.33
  10   2   3  167.73   10.21
  10   2   3  144.65    9.50
  10  -2   4   82.75    7.60
  10  -2   4   80.42    7.52
  10   2   4   85.34    7.39
  10   2   4   78.91    6.84
  10  -2   5  114.57    8.97
  10   2   5  113.59    8.59
  10   2   5  100.85    8.01
  10  -2   6   51.61    6.28
  10   2   6   54.15    6.03
  10   2   6   46.00    5.42
  10  -2   7   44.32    5.70
  10   2   7   39.00    5.33
  10   2   7   39.76    4.97
  10  -2   8  110.71    8.89
  10   2   8  102.25    8.10
  10   2   8  106.79    8.67
  10  -2   9   99.12    8.55
  10   2   9  100.03    7.96
  10   2   9  104.89    8.74
  10  -2  10   45.09    5.61
  10   2  10   50.63    5.72
  10   2  10   51.56    6.45
  10  -2  11  143.13   10.72
  10   2  11  146.13    9.63
  10   2  11  151.07   10.73
  10  -2  12  108.75    9.15
  10   2  12  115.94    8.47
  10   2  12  112.89    9.39
  10  -2  13   43.21    6.03
  10   2  13   46.77    5.44
  10   2  13   48.90    6.48
  10  -2  14   37.37    5.57
  10   2  14   43.92    5.35
  10   2  14   45.06    5.95
  10  -2  15   67.52    7.62
  10   2  15   66.83    7.56
  10  -2  16   22.82    4.52
  10   2  16   25.70    4.89
  10  -2  17   36.95    5.68
  10   2  17   50.13    7.04
  10  -2  18   53.18    7.24
  10   2  18   57.24    7.42
  10   2  19   26.39    5.02
  10  -2  19   24.60    4.79
  10   2  20    2.32    2.26
  10  -2  20    2.84    1.75
  10   2  21   16.13    3.66
  10  -2  21   18.56    4.42
  10   2  22    4.56    2.41
  10  -2  22   18.26    4.44
  10   2  23    5.77    2.75
  10   2  24   13.88    3.86
  10   2  25    4.73    2.10
  10   2  26    4.77    3.39
  10  -3 -26    1.50    2.02
  10  -3 -25   -2.01    1.19
  10  -3 -24    0.36    1.79
  10  -3 -23   -0.02    1.15
  10  -3 -22    1.98    1.90
  10  -3 -21   -1.63    2.96
  10  -3 -20    4.56    2.91
  10  -3 -19    0.77    1.91
  10   3 -19   -1.63    2.08
  10  -3 -18    1.97    1.19
  10   3 -18   -1.36    1.10
  10  -3 -17    0.72    2.25
  10   3 -17    1.10    1.13
  10  -3 -16    5.45    2.64
  10   3 -16    3.06    0.87
  10  -3 -16    4.84    1.74
  10  -3 -15   -0.07    1.20
  10   3 -15   -0.55    1.29
  10  -3 -15    1.34    1.37
  10  -3 -14    2.38    2.10
  10  -3 -14    0.59    2.43
  10   3 -14    1.47    1.01
  10  -3 -13    8.03    2.72
  10  -3 -13   10.44    3.17
  10   3 -13    6.96    1.78
  10  -3 -12    6.64    2.70
  10  -3 -12    2.68    1.42
  10   3 -12    3.43    1.81
  10  -3 -11    0.96    1.45
  10  -3 -11    0.03    1.59
  10   3 -11    0.47    2.04
  10   3 -10   17.43    3.88
  10  -3 -10   14.61    3.29
  10   3 -10   11.66    3.18
  10  -3 -10   18.27    4.11
  10   3  -9    2.54    1.05
  10  -3  -9    4.76    2.32
  10  -3  -9   -0.17    1.92
  10   3  -9    0.74    1.11
  10   3  -8    1.87    1.49
  10  -3  -8    0.74    1.09
  10  -3  -8   -0.69    1.01
  10   3  -8   -0.17    1.02
  10   3  -8    1.23    1.41
  10   3  -7    7.92    2.31
  10   3  -7   11.26    2.56
  10  -3  -7   11.21    2.97
  10  -3  -7   17.37    2.98
  10   3  -7   10.54    2.27
  10   3  -6    4.81    2.29
  10   3  -6   11.05    2.47
  10  -3  -6    8.70    2.41
  10  -3  -6    9.75    2.67
  10   3  -6    7.25    2.37
  10   3  -5    0.44    1.66
  10   3  -5   -0.29    1.50
  10  -3  -5    2.98    1.01
  10  -3  -5    0.22    1.01
  10   3  -5    1.24    1.23
  10   3  -4   14.82    3.03
  10   3  -4   15.19    2.94
  10  -3  -4   14.57    3.13
  10  -3  -4   16.60    4.13
  10   3  -4   13.22    3.06
  10   3  -3    5.90    2.18
  10   3  -3    3.61    1.76
  10  -3  -3    0.59    1.11
  10  -3  -3    0.46    1.22
  10   3  -3    2.27    1.57
  10   3  -2    5.66    1.73
  10  -3  -2    4.88    2.55
  10   3  -2    4.59    1.93
  10  -3  -2    7.31    2.77
  10   3  -2    5.30    1.88
  10   3  -1    4.26    2.24
  10  -3  -1    6.81    2.29
  10   3  -1    6.11    2.34
  10  -3  -1    8.10    3.03
  10   3  -1    8.22    2.33
  10   3   0    9.64    3.20
  10  -3   0    6.50    1.35
  10   3   0    8.50    2.18
  10  -3   0   12.15    2.89
  10   3   1    3.07    1.87
  10  -3   1    7.61    2.05
  10   3   1   10.20    2.66
  10  -3   1    8.29    2.64
  10   3   2    6.30    1.81
  10  -3   2    5.12    1.73
  10   3   2    5.33    2.04
  10  -3   2    6.08    2.32
  10   3   3    2.61    1.72
  10  -3   3    3.66    1.65
  10   3   3    2.26    1.98
  10  -3   3   -1.14    2.27
  10   3   4   15.04    3.19
  10  -3   4   12.91    3.33
  10   3   4   13.97    3.20
  10  -3   4   15.18    3.19
  10   3   5    1.53    0.72
  10  -3   5    1.09    1.12
  10   3   5    0.17    1.48
  10   3   6    7.08    2.23
  10  -3   6    4.79    1.86
  10   3   6    7.93    2.41
  10  -3   6    7.94    2.17
  10   3   7    9.83    2.67
  10  -3   7   10.06    2.52
  10   3   7    9.52    3.14
  10   3   8    0.50    1.30
  10  -3   8   -0.10    1.31
  10   3   8   -0.10    1.15
  10   3   9    5.53    2.63
  10  -3   9    1.02    0.81
  10   3   9    5.79    2.73
  10   3  10   20.20    4.30
  10   3  10   11.41    2.70
  10  -3  10   16.06    3.05
  10  -3  11    0.29    1.51
  10   3  11    0.15    0.96
  10   3  12    8.62    2.69
  10  -3  12    5.38    2.76
  10   3  12    7.13    2.62
  10   3  13    9.99    3.05
  10  -3  13   10.05    2.21
  10   3  13    7.12    2.83
  10   3  14   -0.95    1.87
  10  -3  14   -0.69    1.28
  10   3  14    1.81    2.50
  10   3  15   -2.41    2.34
  10  -3  15    1.27    1.77
  10   3  15    0.45    1.51
  10  -3  16    4.79    2.41
  10   3  16    6.87    2.78
  10  -3  17   -0.77    1.59
  10   3  17    0.95    1.22
  10  -3  18    0.19    1.84
  10   3  18    0.52    1.50
  10   3  19    1.60    1.30
  10  -3  19   -0.52    1.99
  10   3  20   -2.07    2.44
  10  -3  20   -0.45    2.06
  10   3  21   -2.49    2.74
  10  -3  21   -0.44    1.52
  10   3  22    0.94    2.00
  10   3  23    2.17    1.33
  10   3  24    0.62    1.28
  10   3  25    0.44    1.11
  10   3  26   -0.41    2.11
  10  -4 -25    8.95    4.05
  10  -4 -24    5.79    2.73
  10  -4 -23    2.45    2.41
  10  -4 -22   13.90    4.12
  10  -4 -21    7.64    3.11
  10  -4 -20    5.11    2.48
  10  -4 -19   12.87    3.85
  10   4 -19   20.64    5.10
  10  -4 -18   23.15    5.17
  10   4 -18   26.58    4.98
  10  -4 -17   23.90    4.93
  10  -4 -17   28.69    4.95
  10   4 -17   17.12    3.64
  10  -4 -16   17.41    4.17
  10  -4 -16   22.30    4.22
  10   4 -16   19.79    4.26
  10  -4 -15   43.26    6.30
  10  -4 -15   43.68    6.43
  10   4 -15   38.21    5.45
  10  -4 -14   27.51    5.04
  10  -4 -14   34.13    5.92
  10   4 -14   33.63    5.38
  10  -4 -13   32.91    5.47
  10  -4 -13   33.47    5.56
  10   4 -13   31.64    5.18
  10  -4 -12   52.96    6.86
  10  -4 -12   46.79    6.32
  10   4 -12   55.92    6.62
  10  -4 -11   98.68    8.97
  10  -4 -11   83.08    8.50
  10   4 -11   71.66    7.93
  10  -4 -10   45.76    6.05
  10  -4 -10   37.70    5.91
  10   4 -10   35.75    5.42
  10  -4  -9   43.93    5.96
  10  -4  -9   41.65    5.86
  10   4  -9   43.21    5.88
  10  -4  -8   68.86    7.72
  10  -4  -8   62.92    7.34
  10   4  -8   55.47    6.50
  10   4  -7   10.74    2.69
  10  -4  -7   13.30    3.56
  10  -4  -7   12.38    3.33
  10   4  -7   21.45    3.58
  10   4  -6   19.04    3.73
  10  -4  -6   24.77    4.62
  10   4  -6   21.84    3.69
  10  -4  -6   20.98    4.73
  10  -4  -5   53.00    6.57
  10   4  -5   58.64    5.87
  10   4  -5   62.89    6.88
  10  -4  -5   57.52    7.09
  10  -4  -4   30.17    4.84
  10   4  -4   35.23    4.51
  10   4  -4   33.91    5.04
  10  -4  -4   28.63    4.86
  10  -4  -3   32.07    5.14
  10   4  -3   38.04    4.58
  10   4  -3   33.88    5.16
  10   4  -3   33.73    4.75
  10  -4  -3   32.18    5.08
  10  -4  -2  121.06    9.76
  10   4  -2  116.91    8.73
  10  -4  -2  116.84    9.77
  10   4  -2  104.76    7.61
  10   4  -2  118.79    9.34
  10  -4  -1  106.89    9.31
  10   4  -1  107.74    8.39
  10  -4  -1  103.57    9.11
  10   4  -1  103.00    8.95
  10  -4   0   70.49    7.25
  10   4   0   57.79    6.23
  10  -4   0   70.37    7.23
  10   4   0   72.59    7.17
  10  -4   1   95.74    8.70
  10   4   1  110.23    8.71
  10  -4   1   88.30    8.29
  10   4   1   97.51    8.70
  10  -4   2  126.48   10.05
  10   4   2  110.92    8.81
  10  -4   2  116.19    9.52
  10   4   2  112.46    9.18
  10  -4   3   33.78    5.37
  10   4   3   26.95    4.28
  10  -4   3   28.22    4.69
  10   4   3   37.26    5.47
  10  -4   4   36.77    5.20
  10   4   4   34.01    4.74
  10  -4   4   32.86    4.87
  10   4   4   33.05    4.82
  10   4   5   63.59    6.75
  10  -4   5   55.33    6.59
  10   4   5   69.07    7.22
  10  -4   5   71.00    7.56
  10   4   6   22.10    4.04
  10   4   6   23.47    4.13
  10  -4   6   23.49    4.30
  10  -4   6   17.93    3.71
  10   4   7   14.16    3.34
  10  -4   7   16.63    3.90
  10  -4   7   13.79    3.41
  10   4   7   12.20    3.20
  10   4   8   63.03    6.90
  10  -4   8   65.74    7.22
  10   4   8   54.63    6.57
  10  -4   8   56.25    6.81
  10   4   9   53.01    6.40
  10  -4   9   36.62    5.30
  10   4   9   50.37    6.56
  10   4  10   31.95    5.05
  10  -4  10   30.63    5.13
  10   4  10   36.26    5.23
  10   4  11   80.01    8.02
  10  -4  11   83.28    8.40
  10   4  11   90.34    8.76
  10   4  12   55.85    6.69
  10  -4  12   51.17    6.91
  10   4  12   53.88    6.80
  10   4  13   41.60    6.06
  10  -4  13   34.37    5.37
  10   4  13   38.34    5.73
  10   4  14   38.09    5.60
  10   4  14   38.79    5.85
  10  -4  14   36.84    5.97
  10   4  15   27.16    4.68
  10   4  15   39.97    5.85
  10  -4  15   34.82    5.63
  10  -4  16   11.29    3.88
  10   4  16   14.18    3.75
  10  -4  17   27.90    5.17
  10   4  17   19.34    4.15
  10   4  18   34.63    5.92
  10  -4  18   26.12    5.54
  10  -4  19   12.16    3.98
  10   4  19   14.82    4.21
  10   4  20    3.26    1.46
  10   4  21    4.30    2.95
  10   4  22    6.26    3.46
  10   4  23   -0.67    1.03
  10   4  24    7.43    3.11
  10   4  25   11.44    4.14
  10  -5 -24    5.05    3.37
  10  -5 -23    1.90    2.12
  10  -5 -22    1.91    2.75
  10  -5 -21    3.58    2.93
  10  -5 -20    1.10    1.16
  10  -5 -19    1.41    1.44
  10  -5 -19    7.95    3.91
  10  -5 -18   -2.88    2.61
  10  -5 -18    2.09    1.53
  10   5 -18   -1.58    2.10
  10  -5 -17    1.70    1.42
  10  -5 -17    1.25    1.23
  10   5 -17    0.16    1.05
  10  -5 -16    9.21    3.10
  10  -5 -16   12.26    3.50
  10   5 -16    2.50    2.28
  10   5 -15    3.78    1.16
  10  -5 -15    5.92    2.28
  10  -5 -15    2.41    1.42
  10   5 -14    2.55    2.42
  10  -5 -14    7.58    3.70
  10  -5 -14    3.89    2.12
  10   5 -13    0.79    1.48
  10  -5 -13    2.45    2.90
  10  -5 -13    0.80    1.25
  10   5 -12    2.39    1.75
  10  -5 -12   -1.00    0.84
  10  -5 -12    1.89    1.87
  10  -5 -11    4.21    1.70
  10   5 -11   -0.09    0.82
  10  -5 -11    3.55    2.13
  10  -5 -10   10.95    3.12
  10   5 -10   14.89    3.30
  10  -5 -10   15.39    3.63
  10  -5  -9    0.44    0.69
  10   5  -9    2.92    1.88
  10  -5  -9    5.18    2.21
  10   5  -8    9.37    3.00
  10  -5  -8   16.12    3.74
  10  -5  -8   12.15    3.58
  10   5  -7   10.33    3.57
  10  -5  -7   10.60    3.12
  10  -5  -7    9.05    3.22
  10   5  -6    1.69    1.78
  10  -5  -6    6.34    2.98
  10   5  -6    5.72    2.24
  10  -5  -6    4.89    2.05
  10   5  -5    6.62    2.27
  10  -5  -5    3.50    1.06
  10   5  -5    3.52    1.94
  10  -5  -5    7.46    2.66
  10   5  -4   22.75    4.13
  10   5  -4   18.30    4.30
  10  -5  -4   16.00    4.13
  10  -5  -4   27.01    5.08
  10   5  -3    8.56    3.08
  10  -5  -3    8.23    3.22
  10  -5  -3   10.27    2.85
  10   5  -3   12.86    2.92
  10   5  -2   22.30    4.29
  10  -5  -2   15.91    3.95
  10  -5  -2   13.03    3.43
  10   5  -2   18.79    3.56
  10   5  -1   64.74    7.37
  10   5  -1   52.13    5.88
  10  -5  -1   57.64    6.93
  10  -5  -1   67.75    7.53
  10   5   0   35.17    5.46
  10   5   0   35.99    5.04
  10  -5   0   27.48    4.72
  10  -5   0   31.95    5.01
  10   5   1   44.93    5.93
  10   5   1   61.10    6.84
  10  -5   1   65.13    7.32
  10  -5   1   55.02    6.83
  10   5   2   18.23    3.54
  10  -5   2   16.72    3.84
  10  -5   2    8.27    2.66
  10   5   3   10.31    2.77
  10   5   3    6.96    2.35
  10  -5   3    6.13    2.11
  10  -5   3   12.27    3.48
  10   5   4   18.00    3.84
  10   5   4   19.51    4.02
  10  -5   4   21.07    4.48
  10  -5   4   15.55    3.88
  10   5   5    5.05    2.28
  10   5   5    6.70    2.77
  10  -5   5    7.37    3.03
  10  -5   5    9.55    3.14
  10   5   6    6.07    2.77
  10   5   6    8.95    3.06
  10  -5   6    4.93    2.15
  10  -5   6    6.02    2.82
  10   5   7    8.41    2.86
  10   5   7   13.89    3.48
  10  -5   7    9.94    3.33
  10  -5   7   10.66    2.85
  10   5   8   11.34    3.02
  10   5   8   10.20    2.87
  10  -5   8   12.09    3.27
  10  -5   8   16.38    3.79
  10   5   9    2.35    1.44
  10   5   9    0.58    1.50
  10  -5   9    1.77    1.63
  10  -5   9    1.51    1.65
  10   5  10    4.68    2.07
  10   5  10   13.60    3.32
  10  -5  10   11.58    3.16
  10  -5  10    9.68    3.64
  10   5  11    0.56    1.88
  10   5  11    4.99    2.73
  10  -5  11    2.30    1.50
  10  -5  11    2.22    2.54
  10   5  12    2.63    1.78
  10   5  12    4.52    1.89
  10  -5  12    4.75    2.28
  10  -5  12    1.00    1.87
  10   5  13    0.51    0.88
  10   5  13    1.76    1.97
  10  -5  13    2.14    2.50
  10   5  14    3.29    1.67
  10   5  14    2.29    1.48
  10  -5  14    3.23    2.64
  10   5  15   11.68    3.36
  10   5  15    4.80    3.14
  10  -5  15    2.72    2.40
  10   5  16    3.42    2.00
  10  -5  16    0.60    1.40
  10  -5  17   -1.22    1.42
  10   5  17   -0.69    1.85
  10  -5  18    0.37    1.46
  10   5  18    0.12    0.87
  10   5  19   -0.52    1.56
  10   5  20   -0.06    1.39
  10   5  21    2.27    1.43
  10   5  22   -0.26    1.44
  10   5  23   -0.71    2.15
  10   5  24   -0.30    1.70
  10  -6 -22    3.78    1.58
  10  -6 -21   19.96    4.37
  10  -6 -20    5.07    3.17
  10  -6 -20    0.02    1.77
  10  -6 -19    9.43    3.73
  10  -6 -19    2.64    1.58
  10  -6 -18   12.82    3.27
  10  -6 -18   14.62    4.14
  10   6 -17   15.68    4.17
  10  -6 -17   16.06    4.06
  10  -6 -17   12.59    3.90
  10   6 -16   20.57    4.62
  10  -6 -16   14.19    3.01
  10  -6 -16   15.25    4.22
  10  -6 -15   29.09    5.62
  10  -6 -15   32.87    5.71
  10   6 -15   33.57    5.79
  10  -6 -14   29.36    5.77
  10   6 -14   30.72    5.57
  10  -6 -14   26.57    5.13
  10   6 -13   18.60    4.28
  10  -6 -13   18.21    4.43
  10  -6 -13   14.45    3.83
  10   6 -12   19.35    4.64
  10  -6 -12   11.39    3.49
  10  -6 -12   15.80    4.30
  10   6 -11   16.50    4.10
  10  -6 -11   18.07    4.13
  10  -6 -11   16.58    4.11
  10   6 -10   22.11    4.84
  10  -6 -10   16.80    4.04
  10  -6 -10   18.25    4.49
  10  -6  -9   21.72    4.49
  10   6  -9   24.79    4.46
  10  -6  -9   18.82    4.53
  10  -6  -8   26.56    5.38
  10  -6  -8   30.79    5.13
  10   6  -8   24.91    5.08
  10  -6  -7    6.97    2.25
  10   6  -7   11.08    3.47
  10  -6  -7    8.18    3.40
  10  -6  -6   19.19    4.49
  10   6  -6   15.25    3.77
  10  -6  -6   15.26    3.34
  10   6  -5   38.84    5.54
  10  -6  -5   32.71    5.73
  10  -6  -5   27.83    4.83
  10   6  -5   35.73    5.31
  10   6  -4   24.35    4.49
  10   6  -4   21.91    4.31
  10  -6  -4   35.99    5.80
  10  -6  -4   25.63    5.48
  10  -6  -3    1.85    1.36
  10   6  -3    0.27    1.23
  10  -6  -3    1.94    0.91
  10   6  -3    2.87    1.18
  10  -6  -2   21.60    4.24
  10   6  -2   18.75    4.34
  10  -6  -2   16.73    4.19
  10   6  -2   17.35    3.86
  10   6  -1   48.36    6.65
  10   6  -1   68.24    7.36
  10  -6  -1   56.69    6.89
  10  -6  -1   38.05    5.72
  10   6   0   52.48    6.98
  10   6   0   51.76    6.65
  10  -6   0   39.61    5.89
  10  -6   0   47.51    6.65
  10   6   1   41.32    6.46
  10   6   1   43.98    5.91
  10  -6   1   42.02    5.81
  10  -6   1   52.31    6.58
  10   6   2   19.02    4.33
  10   6   2   16.82    3.82
  10  -6   2   24.66    4.44
  10  -6   2   20.35    5.00
  10   6   3    2.94    0.76
  10   6   3    2.65    1.87
  10  -6   3    4.07    2.65
  10  -6   3    2.32    1.46
  10   6   4   33.42    4.97
  10   6   4   17.56    3.45
  10  -6   4   21.11    4.86
  10  -6   4   28.10    5.20
  10   6   5   28.52    5.10
  10   6   5   22.98    4.16
  10  -6   5   29.23    5.09
  10  -6   5   32.60    5.53
  10   6   6   14.30    3.88
  10   6   6    7.14    2.42
  10  -6   6   16.69    4.26
  10  -6   6   13.41    3.42
  10   6   7    4.08    2.23
  10   6   7    6.87    1.91
  10  -6   7    5.42    2.86
  10  -6   7    6.65    3.16
  10   6   8   40.25    6.08
  10  -6   8   19.25    4.47
  10   6   8   38.14    5.59
  10  -6   8   26.61    5.23
  10   6   9   27.27    5.68
  10   6   9   22.50    4.45
  10  -6   9   22.00    4.89
  10  -6   9   21.43    4.59
  10   6  10   18.00    4.35
  10   6  10   22.92    4.27
  10  -6  10   19.64    4.55
  10  -6  10    9.95    3.05
  10   6  11    9.85    3.62
  10   6  11   10.57    2.95
  10  -6  11   15.40    4.06
  10  -6  11   16.98    4.38
  10   6  12   15.74    4.33
  10   6  12   20.28    3.96
  10  -6  12   13.35    3.82
  10  -6  12   15.23    3.64
  10   6  13   26.13    5.29
  10   6  13   18.66    4.07
  10  -6  13   28.97    5.23
  10  -6  13   24.33    5.08
  10   6  14   17.69    4.48
  10  -6  14   17.55    4.19
  10  -6  14   27.03    5.29
  10  -6  15   36.49    6.27
  10   6  15   26.25    5.53
  10  -6  15   24.73    5.22
  10   6  16   21.75    5.05
  10   6  16   12.17    3.92
  10  -6  16   17.58    4.63
  10  -6  16   22.49    5.02
  10   6  17   16.20    4.48
  10  -6  17   12.94    4.53
  10   6  18   12.78    3.75
  10   6  19    6.19    2.35
  10   6  20   11.09    3.52
  10   6  21   11.93    2.12
  10   6  22   11.88    4.42
  10  -7 -20    3.66    3.15
  10  -7 -20    5.20    3.14
  10  -7 -19   -0.64    1.70
  10  -7 -19    1.68    2.49
  10  -7 -18    7.70    4.06
  10  -7 -18    2.92    2.71
  10   7 -17    5.55    3.90
  10  -7 -17   -0.12    1.38
  10  -7 -17    3.15    2.27
  10   7 -16    7.17    3.50
  10  -7 -16    2.61    1.28
  10  -7 -16    7.37    3.16
  10   7 -15    1.91    2.14
  10  -7 -15    3.42    2.41
  10  -7 -15    8.42    3.70
  10   7 -14    8.10    3.45
  10  -7 -14    4.07    3.09
  10  -7 -14    7.34    3.65
  10   7 -13    1.95    1.16
  10  -7 -13    0.49    1.82
  10  -7 -13    0.53    2.04
  10   7 -12    0.50    1.18
  10  -7 -12    2.76    2.07
  10  -7 -12   -0.52    1.52
  10   7 -11    9.07    2.95
  10  -7 -11    4.57    1.57
  10  -7 -11    9.00    3.11
  10   7 -10   11.43    3.25
  10  -7 -10    8.48    2.91
  10   7  -9    6.68    3.18
  10  -7  -9    8.18    3.05
  10  -7  -9    8.27    2.47
  10   7  -8   10.75    3.52
  10  -7  -8    5.49    2.47
  10  -7  -8    5.67    3.08
  10   7  -7    5.01    2.93
 -10   7  -7    1.22    1.11
  10  -7  -7    0.19    1.62
  10  -7  -7    0.28    1.63
  10  -7  -6    3.75    2.33
  10   7  -6    5.41    3.08
 -10   7  -6    3.70    2.55
  10  -7  -6    5.32    3.01
  10  -7  -5    1.84    2.53
 -10   7  -5    2.15    1.26
  10  -7  -5    0.18    1.10
  10  -7  -4    2.86    2.45
  10   7  -4    2.44    2.39
  10  -7  -4    4.87    2.63
  10   7  -3    4.93    1.46
  10  -7  -3    0.21    1.60
  10   7  -3    4.22    1.97
  10  -7  -3    3.02    0.87
  10  -7  -2    9.38    3.35
  10   7  -2    7.22    1.91
  10   7  -2    4.19    1.66
  10  -7  -2    8.92    3.38
  10  -7  -1   16.22    4.01
  10   7  -1   20.52    4.54
  10   7  -1   15.62    3.61
  10  -7  -1   15.64    3.26
  10  -7   0    1.73    2.29
  10   7   0    5.05    2.49
  10   7   0    2.13    1.80
  10  -7   0   -2.41    2.18
  10  -7   1   17.57    4.29
  10   7   1   14.67    3.49
  10   7   1   13.84    3.55
  10  -7   1   20.48    4.36
  10  -7   2    6.50    2.68
  10   7   2    5.75    3.15
  10   7   2    7.80    2.95
  10  -7   2    4.28    2.87
  10  -7   3    2.31    1.60
  10   7   3    3.71    2.41
  10   7   3    3.96    2.36
  10  -7   3    4.88    1.37
  10  -7   4    3.08    1.92
  10   7   4    7.31    2.51
  10   7   4    3.01    0.82
  10  -7   4    3.67    3.04
  10  -7   5    2.54    2.13
  10   7   5    4.97    1.66
  10   7   5    1.51    2.25
  10  -7   5    1.40    2.55
  10  -7   6    2.90    2.42
  10   7   6    4.34    2.11
  10   7   6    3.87    1.74
  10  -7   6    3.59    2.63
  10  -7   7    2.90    2.10
  10   7   7    0.80    1.29
  10   7   7    0.32    0.91
  10  -7   7    1.42    2.58
  10  -7   8    7.11    2.40
  10   7   8    6.70    2.38
  10   7   8   14.15    3.63
  10  -7   8   10.30    2.95
  10  -7   9   11.19    3.86
  10   7   9    8.30    3.13
  10   7   9   12.62    3.48
  10  -7   9    5.70    3.01
  10  -7  10   10.82    3.25
  10   7  10    5.38    1.92
  10   7  10    7.88    3.47
  10  -7  10   10.95    3.32
  10  -7  11    9.62    3.01
  10   7  11    6.13    3.01
  10   7  11   11.04    3.28
  10  -7  11   11.57    4.06
  10   7  12   -0.50    1.41
  10  -7  12    1.83    2.43
  10   7  12    1.45    1.73
  10  -7  12    0.25    2.13
  10   7  13    3.18    1.47
  10  -7  13    4.56    2.18
  10   7  13    7.42    3.22
  10  -7  13    1.61    2.03
  10   7  14    4.78    2.22
  10  -7  14    6.24    3.59
  10   7  14    5.06    2.33
  10   7  15   -1.23    2.16
  10  -7  15    1.43    1.66
  10   7  15    0.64    1.17
  10   7  16    4.88    2.76
  10   7  16    0.93    1.58
  10   7  17    1.34    2.15
  10   7  18    4.12    2.25
  10   7  19   -1.20    1.95
  10   7  20    5.17    2.69
  10  -8 -17   -0.43    1.15
  10  -8 -17    0.25    1.10
  10  -8 -16    1.46    1.36
  10  -8 -16   -0.81    0.98
  10   8 -15    6.60    3.18
  10  -8 -15   15.38    4.38
  10  -8 -15   16.27    4.59
  10   8 -14   12.14    3.82
  10  -8 -14    8.64    3.25
  10  -8 -14   17.53    4.80
  10   8 -13    0.39    1.94
  10  -8 -13   -0.16    1.66
  10  -8 -13    3.47    2.82
  10   8 -12    7.64    2.61
  10  -8 -12    8.41    3.60
  10  -8 -12    7.03    2.63
  10   8 -11    3.99    2.11
  10  -8 -11    7.47    3.64
  10  -8 -11    6.29    2.85
  10   8 -10    7.12    4.02
  10  -8 -10    5.12    2.14
  10  -8 -10    2.82    1.66
  10   8  -9   10.23    3.77
  10  -8  -9    9.97    3.32
  10  -8  -9   11.63    3.61
  10   8  -8   10.68    3.70
  10  -8  -8   15.74    4.57
  10  -8  -8   18.59    4.48
 -10   8  -7    2.94    3.18
  10  -8  -7    2.44    1.78
  10  -8  -7    4.32    1.31
  10   8  -6   24.54    5.02
 -10   8  -6   20.65    4.91
  10  -8  -6   17.36    4.27
  10  -8  -6   20.90    4.87
  10   8  -5   20.50    4.91
  10  -8  -5   28.09    5.95
 -10   8  -5   28.28    5.53
  10  -8  -5   17.53    4.48
  10   8  -4   21.83    4.31
 -10   8  -4   17.57    4.63
  10  -8  -4   25.44    5.31
  10  -8  -4   25.21    4.57
  10  -8  -3    7.51    3.14
  10   8  -3    9.83    3.19
 -10   8  -3    5.17    2.69
  10  -8  -3    5.84    2.50
  10  -8  -2    2.62    1.24
  10   8  -2    7.11    3.47
  10   8  -2    6.61    1.81
 -10   8  -2    2.81    2.15
  10  -8  -2    9.53    3.39
  10  -8  -1    8.07    2.86
  10   8  -1    7.25    2.83
  10   8  -1    6.44    2.70
 -10   8  -1    0.74    1.08
  10  -8  -1    4.25    3.55
  10  -8   0   16.28    4.38
  10   8   0   11.11    4.04
  10   8   0   10.85    3.64
 -10   8   0   14.44    4.32
  10  -8   0    7.20    2.39
  10  -8   1   10.33    3.92
  10   8   1    4.94    2.45
  10   8   1    5.51    2.67
 -10   8   1    7.21    3.53
  10  -8   1    9.16    3.30
  10  -8   2    8.89    3.28
  10   8   2    8.63    3.22
  10   8   2    9.59    3.75
 -10   8   2    4.91    1.87
  10  -8   2    6.06    3.19
  10  -8   3    7.64    3.16
  10   8   3    5.77    2.34
 -10   8   3   10.28    3.11
  10   8   3    3.20    2.39
  10  -8   3    7.50    1.83
  10   8   4   32.10    5.73
  10  -8   4   14.94    4.06
  10   8   4   27.65    5.32
  10  -8   4   17.69    4.52
  10  -8   5   15.01    4.64
  10   8   5   26.71    5.44
  10   8   5   23.39    5.01
  10  -8   5   24.65    4.63
  10  -8   6   25.41    5.54
  10   8   6   22.43    4.45
  10   8   6   27.70    5.27
  10  -8   6   22.32    4.94
  10  -8   7   -1.44    2.30
  10   8   7    6.02    2.43
  10   8   7    5.39    2.83
  10  -8   7    4.33    2.96
  10  -8   8   13.93    4.19
  10   8   8   15.38    3.73
  10   8   8   16.03    4.24
  10  -8   9    9.41    2.32
  10   8   9    7.52    3.39
  10   8   9    8.89    3.25
  10  -8  10    4.93    2.11
  10   8  10    6.28    2.95
  10   8  10    6.00    3.27
  10  -8  11    6.74    2.96
  10   8  11    4.24    1.79
  10   8  11    3.46    1.99
  10  -8  12    8.13    3.68
  10   8  12    5.78    3.45
  10   8  12    5.06    1.90
  10  -8  13    4.02    2.95
  10   8  13    6.52    4.04
  10   8  13    0.45    0.99
 -10   8  13    2.16    1.46
  10  -8  14   11.50    4.74
  10   8  14   14.65    4.80
  10   8  14   10.35    3.90
 -10   8  14   10.24    4.02
  10   8  15   10.11    4.27
  10   8  15   21.40    4.81
 -10   8  15   12.14    3.80
  10   8  16    0.60    2.38
  10   8  16   -0.89    2.25
 -10   8  16    3.63    2.87
  10   8  17    2.94    2.22
 -10   8  17    0.99    2.24
  10   9 -13    2.09    2.41
  10  -9 -13    0.95    2.11
  10  -9 -13    0.57    1.75
  10  -9 -12    3.11    1.87
  10   9 -12    0.62    1.82
  10  -9 -12    2.46    2.38
  10   9 -11   -0.31    1.08
  10  -9 -11    0.46    2.14
  10  -9 -11    4.37    4.02
  10   9 -10    6.58    3.38
  10  -9 -10    2.69    2.15
  10  -9 -10    0.33    1.34
  10   9  -9    1.11    1.74
  10  -9  -9    2.13    2.18
  10  -9  -9    1.20    1.64
  10   9  -8    4.46    2.99
  10  -9  -8    3.02    3.27
  10  -9  -8    0.61    1.18
  10   9  -7   -1.74    1.68
  10  -9  -7   -0.56    1.58
  10  -9  -7   -0.51    1.66
  10   9  -6    3.25    1.20
  10  -9  -6    0.32    2.10
  10  -9  -6    1.92    1.90
  10   9  -5   -2.71    2.67
 -10   9  -5    3.76    2.77
  10  -9  -5    1.26    1.47
  10  -9  -5    2.12    2.69
 -10   9  -4    2.77    1.80
  10  -9  -4    0.37    2.13
  10  -9  -4    6.26    3.07
  10   9  -3   -1.08    1.77
 -10   9  -3    4.44    2.25
  10  -9  -3    5.80    3.78
  10  -9  -3    3.37    1.69
  10   9  -2   -1.34    1.57
 -10   9  -2   -0.69    2.22
  10  -9  -2   -1.24    1.35
  10  -9  -2    2.12    2.35
  10   9  -1    4.44    2.00
 -10   9  -1    1.11    1.59
  10  -9  -1    3.41    2.74
  10  -9  -1   -0.34    1.97
  10   9   0    5.83    3.42
  10   9   0   10.79    3.40
 -10   9   0    4.83    2.48
  10  -9   0    5.65    2.99
  10  -9   0    8.39    3.61
  10   9   1    5.44    2.14
  10   9   1    4.59    3.70
 -10   9   1    2.16    1.75
  10  -9   1    2.60    1.71
  10  -9   1    2.20    2.01
  10   9   2   -0.30    1.19
  10   9   2    0.67    2.36
 -10   9   2   -3.24    2.29
  10  -9   2    2.01    2.05
  10  -9   3    1.89    2.82
  10   9   3    3.09    2.76
  10   9   3   -0.83    1.57
 -10   9   3   -2.09    2.41
  10  -9   4    1.74    1.31
 -10   9   4    3.98    2.31
  10  -9   5   -0.33    1.45
  10   9   5    0.67    1.25
  10   9   5   -1.05    1.76
 -10   9   5   -2.26    2.25
  10  -9   6    4.73    2.78
  10   9   6    1.93    1.67
  10   9   6   -0.32    1.82
 -10   9   6    4.45    2.92
  10  -9   7   -1.00    2.40
  10   9   7   -2.31    2.48
  10   9   7   -0.01    2.04
 -10   9   7    2.09    2.11
  10  -9   8   -0.89    1.30
  10   9   8    1.92    2.26
 -10   9   8    0.99    1.41
  10   9   8    5.88    3.64
  10  -9   9    4.87    3.32
  10   9   9    0.28    2.70
  10   9   9    2.33    1.73
 -10   9   9    2.36    1.32
  10  -9  10    3.91    2.51
 -10   9  10    5.86    3.57
  10   9  10    5.96    2.97
  10   9  10    3.97    2.28
  10  -9  11    3.75    3.01
  10   9  11    0.33    2.02
  10   9  11   -1.32    1.38
 -10   9  11    0.55    1.31
  10  -9  12    4.46    3.74
  10   9  12   -3.69    2.90
  10   9  12   -2.04    2.17
 -10   9  12    3.09    2.78
  10   9  13   -2.29    2.38
  10   9  13    0.96    2.08
 -10   9  13    1.77    3.22
  10  10  -6    5.98    3.29
  10 -10  -6    6.77    3.63
  10  10  -5    5.10    3.61
 -10  10  -5   15.74    5.63
  10 -10  -5    7.38    3.78
 -10  10  -4    5.68    3.37
  10 -10  -4    2.18    1.67
  10  10  -3   -0.27    1.97
 -10  10  -3   -0.99    1.68
  10 -10  -3    2.03    1.93
  10  10  -2    3.78    2.12
 -10  10  -2    5.11    2.95
  10 -10  -2    9.46    3.35
  10  10  -1    3.04    2.75
 -10  10  -1    0.36    1.38
  10 -10  -1    1.44    2.39
  10  10   0    0.10    1.31
 -10  10   0    1.28    1.90
  10 -10   0    4.69    3.25
  10  10   1    3.59    1.26
  10  10   1   -2.07    1.62
 -10  10   1   -0.06    1.08
  10 -10   1    4.47    2.86
  10  10   2    7.47    3.95
  10  10   2    8.31    3.43
 -10  10   2    6.59    2.76
  10 -10   2    7.23    3.03
  10  10   3   -2.67    3.22
  10  10   3   -0.24    1.40
 -10  10   3   -1.67    1.87
  10 -10   3    0.18    1.77
  10  10   4    2.68    2.39
 -10  10   4    0.84    2.37
  10 -10   4   -0.03    1.23
  10  10   5   -1.65    2.18
  10  10   5    2.11    1.93
 -10  10   5    1.86    2.57
  10 -10   5    0.88    1.46
  10  10   6    7.12    2.34
  10  10   6   13.74    4.66
 -10  10   6    4.58    3.51
  10 -10   6    3.62    2.83
  11   0 -25    2.26    1.66
  11   0 -24   -1.05    2.16
  11   0 -23   -1.59    2.73
  11   0 -22    0.38    1.89
  11   0 -21   -0.33    1.60
  11   0 -20   -1.03    1.18
  11   0 -19    1.72    0.91
  11   0 -18   -0.15    1.21
  11   0 -17    0.83    1.59
  11   0 -16   -1.01    1.58
  11   0 -15   -0.08    1.18
  11   0 -14   -0.85    1.05
  11   0 -13    0.02    1.03
  11   0 -12    0.77    1.49
  11   0 -12    1.49    1.75
  11   0 -11    1.32    1.64
  11   0 -11   -0.43    1.25
  11   0 -10    0.30    1.03
  11   0 -10   -0.30    1.27
  11   0  -9   -0.31    1.17
  11   0  -9    1.00    1.79
  11   0  -8    0.56    1.16
  11   0  -8   -1.13    1.24
  11   0  -7    0.42    1.18
  11   0  -7    1.28    0.90
  11   0  -6   -0.26    0.66
  11   0  -6    0.55    1.17
  11   0  -6    0.56    1.55
  11   0  -5   -0.70    0.99
  11   0  -5   -0.04    1.00
  11   0  -5    0.52    1.05
  11   0  -4    0.54    1.40
  11   0  -4    0.15    0.65
  11   0  -4    1.29    1.11
  11   0  -3    0.94    1.09
  11   0  -3   -0.42    1.01
  11   0  -3    0.20    1.82
  11   0  -2   -0.15    1.01
  11   0  -2   -0.10    1.15
  11   0  -2    0.25    1.31
  11   0  -1    0.38    0.80
  11   0  -1    1.19    1.57
  11   0  -1    0.75    1.48
  11   0   0    0.32    1.04
  11   0   0    0.42    0.58
  11   0   0    0.18    1.10
  11   0   1    0.74    1.09
  11   0   1   -0.55    0.64
  11   0   1    0.34    1.23
  11   0   2   -1.13    1.58
  11   0   2   -0.61    1.16
  11   0   3   -0.25    0.56
  11   0   3    0.94    1.06
  11   0   4   -0.36    0.62
  11   0   4   -0.57    0.87
  11   0   5    0.17    1.62
  11   0   5    0.52    0.58
  11   0   6   -0.36    0.90
  11   0   6   -1.01    0.85
  11   0   7   -1.71    1.57
  11   0   7   -0.75    1.43
  11   0   8    0.43    1.34
  11   0   8    0.57    0.95
  11   0   9    0.36    0.68
  11   0   9   -0.60    1.06
  11   0  10    1.96    1.77
  11   0  10    0.22    1.45
  11   0  11    0.41    1.72
  11   0  11    0.42    0.98
  11   0  12   -0.45    0.96
  11   0  12    0.03    1.25
  11   0  13    0.04    2.10
  11   0  14   -1.32    1.63
  11   0  15    0.62    1.45
  11   0  16   -0.17    0.97
  11   0  17    0.76    1.55
  11   0  18    0.56    1.41
  11   0  19    0.08    1.83
  11   0  20   -0.76    2.26
  11   0  21    1.41    1.40
  11   0  22    0.39    1.24
  11   0  23    3.29    2.46
  11   0  24    0.07    2.21
  11  -1 -26    6.50    3.50
  11  -1 -25    1.09    1.12
  11  -1 -24    9.74    4.55
  11  -1 -23    3.65    1.82
  11  -1 -22    2.08    2.78
  11  -1 -21    3.62    2.77
  11   1 -20    6.45    4.32
  11  -1 -20   -0.08    1.40
  11   1 -19   27.42    5.38
  11  -1 -19   31.67    5.27
  11   1 -18   87.66    9.21
  11  -1 -18   84.12    8.72
  11   1 -17   12.99    3.73
  11  -1 -17   13.43    3.72
  11   1 -16   -1.43    1.28
  11  -1 -16   -0.59    1.29
  11   1 -15   23.68    4.65
  11  -1 -15   31.25    5.19
  11   1 -14   60.78    6.92
  11  -1 -14   62.36    7.41
  11   1 -13  206.76   12.64
  11  -1 -13  229.78   13.64
  11  -1 -13  200.87   12.28
  11   1 -12  228.96   13.25
  11  -1 -12  216.56   13.50
  11   1 -12  198.61   12.44
  11  -1 -12  197.72   12.30
  11  -1 -11    8.15    2.46
  11   1 -11    9.82    3.05
  11  -1 -11    7.96    2.84
  11   1 -11    7.01    2.13
  11  -1 -10   77.28    7.47
  11   1 -10   90.35    7.41
  11  -1 -10   70.53    7.68
  11   1 -10   83.97    7.79
  11   1 -10   84.16    8.09
  11  -1  -9  107.23    8.90
  11   1  -9  120.76    8.71
  11  -1  -9  121.34    9.67
  11   1  -9  116.27    9.00
  11   1  -9  107.12    8.92
  11  -1  -8   92.23    8.10
  11   1  -8   94.71    7.69
  11  -1  -8   96.74    8.43
  11   1  -8   91.01    7.89
  11   1  -8  110.72    8.93
  11  -1  -7  117.58    9.12
  11   1  -7  152.81    9.76
  11  -1  -7  138.06   10.19
  11   1  -7  131.03    9.41
  11   1  -7  126.58    9.26
  11  -1  -6   68.07    6.76
  11   1  -6   72.93    6.69
  11  -1  -6   65.90    6.95
  11   1  -6   62.97    6.58
  11   1  -6   61.63    6.25
  11  -1  -5   24.50    4.16
  11   1  -5   26.43    4.13
  11  -1  -5   25.90    4.40
  11   1  -5   23.29    4.16
  11   1  -5   15.24    3.23
  11  -1  -4   13.06    2.88
  11  -1  -4    9.47    3.03
  11   1  -4   10.77    2.40
  11   1  -4   12.20    3.10
  11   1  -4   16.17    2.97
  11  -1  -3  172.06   10.80
  11   1  -3  167.81   10.34
  11  -1  -3  174.92   11.16
  11   1  -3  172.84   10.72
  11   1  -3  194.05   11.49
  11  -1  -2  387.58   16.15
  11   1  -2  384.54   15.77
  11  -1  -2  380.34   16.64
  11   1  -2  392.52   16.33
  11   1  -2  372.19   15.75
  11  -1  -1   34.88    4.89
  11   1  -1   33.17    4.64
  11  -1  -1   28.00    4.43
  11   1  -1   29.09    4.43
  11   1  -1   36.70    5.01
  11   1   0    0.53    0.77
  11  -1   0    0.13    1.58
  11  -1   0    0.14    1.08
  11   1   0    0.23    1.24
  11   1   0    2.40    1.71
  11  -1   1   28.08    4.44
  11   1   1   34.30    4.60
  11  -1   1   28.40    4.80
  11   1   1   29.24    4.38
  11  -1   2  405.66   16.87
  11   1   2  395.31   15.98
  11  -1   2  398.20   16.90
  11   1   2  386.44   15.74
  11  -1   3  176.90   11.26
  11   1   3  184.94   11.14
  11  -1   3  177.74   11.28
  11   1   3  150.80    9.84
  11   1   4    6.42    2.18
  11  -1   4   14.38    3.32
  11   1   4   12.13    2.43
  11   1   5   19.21    3.49
  11  -1   5   20.65    3.79
  11   1   5   20.03    3.39
  11  -1   6   60.43    6.68
  11   1   6   71.03    7.14
  11   1   6   64.34    6.25
  11  -1   7  159.34   10.81
  11   1   7  127.09    9.63
  11   1   7  135.64    9.17
  11  -1   8  106.12    8.73
  11   1   8  110.52    8.85
  11   1   8   93.05    7.45
  11  -1   9  121.36    9.62
  11   1   9  120.29    9.84
  11   1   9  117.38    8.52
  11  -1  10   85.11    8.03
  11   1  10   78.68    7.92
  11   1  10   78.14    6.91
  11   1  11   10.30    3.23
  11  -1  11   11.20    3.41
  11   1  11    7.91    2.38
  11  -1  12  209.11   12.89
  11   1  12  206.63   12.99
  11   1  12  191.22   10.82
  11  -1  13  224.78   13.55
  11   1  13  220.05   13.59
  11   1  13  214.87   11.50
  11  -1  14   71.10    7.76
  11   1  14   63.17    7.56
  11   1  15   20.44    4.26
  11  -1  15   22.73    4.56
  11   1  16    0.88    1.57
  11  -1  16   -0.12    1.10
  11   1  17   15.70    4.13
  11  -1  17    9.79    3.11
  11  -1  18   85.23    8.86
  11   1  18   79.07    8.64
  11   1  19   28.38    4.80
  11  -1  19   27.98    5.65
  11   1  20    1.57    1.30
  11  -1  20    2.59    1.47
  11   1  21    2.61    1.67
  11  -1  21    2.94    2.05
  11   1  22   -2.46    2.72
  11  -1  22   -1.29    2.01
  11   1  23    8.93    3.65
  11  -1  23    4.23    2.71
  11   1  24   21.69    5.01
  11   1  25    6.79    3.00
  11  -2 -26    5.79    3.70
  11  -2 -25    1.91    1.73
  11  -2 -24   -2.13    2.36
  11  -2 -23   15.78    3.87
  11  -2 -22    1.12    1.35
  11  -2 -21    0.36    2.03
  11  -2 -20    4.82    2.68
  11  -2 -19   -0.63    2.04
  11  -2 -18    0.47    2.32
  11  -2 -17   -0.57    1.13
  11  -2 -16    1.70    1.53
  11   2 -16    0.64    1.70
  11   2 -15    0.40    2.31
  11  -2 -15    1.16    2.23
  11   2 -15   -0.16    1.40
  11  -2 -14    5.25    2.19
  11   2 -14    5.20    2.73
  11  -2 -14    0.46    1.42
  11   2 -14    4.39    1.59
  11  -2 -13    4.34    2.50
  11   2 -13    3.87    1.42
  11  -2 -13    4.31    2.33
  11   2 -13    7.72    2.69
  11  -2 -12    1.78    1.44
  11   2 -12    1.12    1.58
  11  -2 -12   -0.08    0.90
  11   2 -12    0.99    1.11
  11  -2 -11    0.85    0.72
  11   2 -11    2.75    1.40
  11  -2 -11    2.90    2.17
  11   2 -11    4.19    1.56
  11  -2 -10    2.90    1.19
  11  -2 -10    0.83    1.71
  11   2 -10    2.88    1.08
  11   2 -10   -0.77    0.87
  11  -2  -9    3.46    1.38
  11   2  -9    4.07    1.77
  11  -2  -9    1.14    1.40
  11   2  -9    2.57    1.71
  11   2  -9    4.05    2.31
  11  -2  -8   32.43    4.79
  11   2  -8   27.38    3.97
  11  -2  -8   24.38    4.63
  11   2  -8   26.03    4.37
  11   2  -8   35.24    5.27
  11  -2  -7   18.44    3.95
  11  -2  -7   16.06    3.89
  11   2  -7   12.54    2.98
  11   2  -7   15.06    3.12
  11   2  -7   14.52    2.99
  11  -2  -6    2.36    2.21
  11  -2  -6    2.54    1.62
  11   2  -6    2.23    1.43
  11   2  -6    4.30    2.15
  11   2  -6    1.23    1.06
  11  -2  -5   10.97    2.65
  11  -2  -5   13.43    3.37
  11   2  -5    7.62    2.03
  11   2  -5   10.84    2.53
  11   2  -4    1.89    1.61
  11  -2  -4   -0.35    1.20
  11  -2  -4    2.49    1.22
  11   2  -4    0.58    0.85
  11   2  -4    2.36    1.08
  11  -2  -3  189.74   11.61
  11   2  -3  183.43   10.82
  11  -2  -3  191.07   12.15
  11   2  -3  193.67   11.23
  11   2  -3  175.94   11.09
  11   2  -2    5.25    1.96
  11   2  -2    5.51    1.71
  11  -2  -2    2.16    1.24
  11  -2  -2    5.47    2.24
  11   2  -2    5.94    2.07
  11  -2  -1  120.51    9.30
  11   2  -1  102.68    8.20
  11  -2  -1  128.09    9.72
  11   2  -1  116.90    8.82
  11   2  -1  122.39    9.00
  11   2   0   -0.15    1.40
  11   2   0   -0.40    1.55
  11  -2   0   -0.38    1.04
  11  -2   0    3.88    2.69
  11   2   0    0.43    1.74
  11  -2   1   99.20    8.34
  11  -2   1  125.36    9.50
  11   2   1  111.82    8.61
  11   2   1  116.07    8.96
  11   2   2    4.83    1.82
  11   2   2    2.36    1.62
  11  -2   2    4.35    2.15
  11  -2   2    9.13    2.80
  11  -2   3  216.05   12.50
  11  -2   3  184.75   11.94
  11   2   3  196.76   11.54
  11   2   3  180.22   11.02
  11   2   4    4.49    2.11
  11   2   4    2.82    1.81
  11  -2   4    1.32    1.00
  11  -2   4   -0.97    1.96
  11   2   5   11.01    2.90
  11   2   5   16.10    3.25
  11  -2   5   14.90    3.68
  11   2   6    1.45    1.48
  11   2   6    3.45    1.12
  11  -2   6    4.56    1.80
  11   2   7   13.58    3.18
  11   2   7   14.27    3.44
  11  -2   7   16.81    3.46
  11  -2   8   31.38    4.64
  11   2   8   28.39    4.53
  11   2   8   28.45    4.64
  11   2   9    3.61    2.21
  11   2   9    4.49    2.36
  11  -2   9    2.59    1.27
  11   2  10    1.03    2.07
  11   2  10    0.87    1.39
  11  -2  10    1.91    1.09
  11   2  11    2.79    1.09
  11   2  11    2.02    2.54
  11  -2  11    2.19    0.94
  11   2  12   -0.31    1.32
  11   2  12    1.15    1.04
  11  -2  12   -0.77    0.86
  11   2  13    6.62    2.04
  11   2  13    7.92    2.92
  11  -2  13    6.42    2.77
  11   2  14    4.22    1.84
  11   2  14    3.07    1.80
  11  -2  14    4.44    1.93
  11   2  15    0.18    1.35
  11  -2  15    1.12    1.23
  11   2  16    1.58    1.09
  11  -2  16    2.49    2.06
  11   2  17    0.35    1.71
  11  -2  17    0.56    1.52
  11   2  18    6.13    3.21
  11  -2  18    0.21    1.45
  11   2  19    0.71    1.42
  11  -2  19    0.48    2.46
  11   2  20    6.64    2.66
  11  -2  20    2.45    2.13
  11   2  21   -1.12    1.87
  11  -2  21    0.14    1.89
  11   2  22   -0.93    2.53
  11  -2  22    1.87    3.28
  11   2  23   13.69    4.15
  11   2  24   -0.39    1.12
  11   2  25    2.37    2.45
  11   2  26    2.00    2.55
  11  -3 -25   21.74    5.13
  11  -3 -24   13.32    3.71
  11  -3 -23   18.34    4.73
  11  -3 -22    3.32    1.95
  11  -3 -21    7.57    3.23
  11  -3 -20    1.89    2.11
  11  -3 -19    9.99    3.38
  11   3 -19    5.00    2.16
  11  -3 -18   45.13    6.52
  11   3 -18   49.64    7.13
  11  -3 -17   26.19    5.47
  11   3 -17   15.25    3.95
  11  -3 -16    1.52    1.62
  11   3 -16    1.40    1.79
  11  -3 -16    0.65    1.99
  11  -3 -15   12.37    4.05
  11  -3 -15    8.23    3.40
  11   3 -15    8.01    3.28
  11  -3 -14   22.41    4.45
  11  -3 -14   32.10    5.15
  11   3 -14   30.52    4.97
  11  -3 -13   47.60    6.85
  11  -3 -13   56.65    6.81
  11   3 -13   54.27    6.68
  11  -3 -12   54.63    7.04
  11  -3 -12   38.49    5.83
  11   3 -12   48.63    6.45
  11  -3 -11   59.27    7.50
  11  -3 -11   61.41    7.23
  11   3 -11   49.92    6.23
  11  -3 -10   11.36    3.16
  11  -3 -10   10.83    3.50
  11   3 -10   10.50    2.99
  11  -3  -9  326.89   16.57
  11   3  -9  351.12   16.48
  11  -3  -9  336.42   16.79
  11   3  -8   73.52    6.61
  11  -3  -8   67.75    7.60
  11   3  -8   68.69    6.56
  11   3  -8   72.29    7.42
  11  -3  -8   78.38    8.13
  11   3  -7   43.82    5.27
  11  -3  -7   48.03    6.09
  11   3  -7   52.40    5.75
  11   3  -7   49.71    6.01
  11  -3  -7   54.13    6.51
  11  -3  -6   24.36    4.37
  11   3  -6   17.51    3.69
  11   3  -6   19.41    3.53
  11  -3  -6   22.21    4.55
  11   3  -6   16.39    3.17
  11  -3  -5  227.01   13.28
  11  -3  -5  212.74   13.07
  11   3  -5  219.71   11.74
  11   3  -5  194.47   10.99
  11   3  -5  196.65   12.25
  11  -3  -4   70.53    7.35
  11  -3  -4   83.03    8.14
  11   3  -4   85.13    7.23
  11   3  -4   80.38    7.07
  11   3  -4   74.07    7.44
  11  -3  -3  823.72   25.56
  11  -3  -3  826.18   25.74
  11   3  -3  824.39   23.06
  11   3  -3  842.33   23.47
  11   3  -3  877.64   25.23
  11  -3  -2  109.44    9.24
  11  -3  -2  123.04    9.83
  11   3  -2  102.88    8.18
  11   3  -2  102.72    8.38
  11   3  -2  111.27    8.94
  11  -3  -1  776.84   24.38
  11  -3  -1  767.61   24.45
  11   3  -1  746.82   22.20
  11   3  -1  780.78   22.78
  11   3  -1  737.77   23.05
  11   3   0    3.54    1.90
  11   3   0    6.32    2.30
  11  -3   0    8.46    2.80
  11  -3   0    3.77    2.62
  11  -3   1  734.94   23.93
  11  -3   1  742.38   24.23
  11   3   1  761.06   23.37
  11  -3   2   98.98    8.68
  11  -3   2  106.64    9.17
  11   3   2  115.52    8.85
  11   3   2  110.83    8.93
  11  -3   3  831.03   25.17
  11  -3   3  830.98   25.38
  11   3   3  818.80   24.18
  11   3   3  777.62   23.83
  11  -3   4   76.68    8.03
  11  -3   4   85.45    8.05
  11   3   4   79.46    7.58
  11   3   4   88.21    8.00
  11  -3   5  216.66   12.91
  11  -3   5  223.89   13.30
  11   3   5  207.58   12.49
  11   3   5  217.32   12.61
  11  -3   6   23.55    4.47
  11  -3   6   18.22    4.05
  11   3   6   12.52    4.35
  11   3   6   26.07    4.48
  11  -3   7   50.64    6.41
  11   3   7   43.64    5.69
  11   3   7   52.15    6.10
  11   3   8   77.43    7.87
  11  -3   8   65.85    7.36
  11   3   8   72.03    7.01
  11   3   9  367.09   16.90
  11  -3   9  332.07   16.68
  11   3   9  368.70   16.28
  11   3  10   11.02    2.75
  11  -3  10    6.70    2.54
  11   3  10   11.07    2.80
  11   3  11   61.43    6.92
  11  -3  11   46.81    6.28
  11   3  11   45.66    6.52
  11   3  12   51.37    6.73
  11  -3  12   40.49    5.84
  11   3  12   51.35    6.35
  11   3  13   44.25    6.03
  11  -3  13   47.80    6.71
  11   3  13   48.49    6.10
  11   3  14   28.22    4.55
  11  -3  14   32.80    5.19
  11   3  14   22.63    4.68
  11   3  15   13.00    3.90
  11  -3  15   10.92    3.14
  11   3  16    2.25    1.77
  11  -3  16    0.11    1.36
  11  -3  17   20.86    4.64
  11   3  17   29.26    5.26
  11  -3  18   27.42    5.19
  11   3  18   39.75    6.29
  11   3  19   17.26    4.07
  11  -3  19    6.84    2.94
  11   3  20    4.71    2.21
  11  -3  20   11.56    4.23
  11   3  21    7.39    2.88
  11  -3  21    2.33    1.67
  11   3  22    3.39    2.54
  11   3  23   18.77    4.59
  11   3  24   14.81    4.34
  11   3  25   22.39    5.50
  11  -4 -24    2.18    1.73
  11  -4 -23    0.78    1.59
  11  -4 -22    7.73    3.35
  11  -4 -21    8.78    3.41
  11  -4 -20   -0.24    0.89
  11  -4 -19    1.41    1.43
  11   4 -19    2.66    2.04
  11  -4 -18   -0.97    1.00
  11   4 -18   -3.04    2.13
  11  -4 -17   -0.22    0.81
  11  -4 -17    1.44    1.69
  11   4 -17    2.76    1.34
  11  -4 -16    0.81    2.55
  11  -4 -16    0.78    1.56
  11   4 -16    1.56    1.43
  11  -4 -15    4.37    1.96
  11  -4 -15    0.02    1.77
  11   4 -15    2.97    2.00
  11  -4 -14    0.57    1.83
  11   4 -14   -0.30    0.83
  11  -4 -14   -0.30    1.18
  11  -4 -13   -0.36    1.37
  11  -4 -13    0.45    1.21
  11   4 -13   -0.66    0.99
  11   4 -12   14.09    3.47
  11  -4 -12   19.72    4.24
  11  -4 -12   10.60    3.01
  11  -4 -11    5.81    2.22
  11  -4 -11    5.20    2.14
  11  -4 -10   15.40    3.99
  11  -4 -10   27.92    5.11
  11   4 -10   27.53    4.86
  11   4  -9    5.59    1.70
  11  -4  -9    1.54    1.23
  11  -4  -9    8.01    2.95
  11  -4  -8   49.65    6.57
  11  -4  -8   50.34    6.59
  11   4  -8   43.98    6.01
  11   4  -7    8.01    2.42
  11   4  -7    6.19    2.66
  11  -4  -7    5.99    2.16
  11  -4  -7    8.77    3.74
  11   4  -6    1.43    0.75
  11  -4  -6    2.95    1.16
  11   4  -6    2.06    1.65
  11   4  -5    3.86    1.93
  11  -4  -5    4.79    2.45
  11   4  -5    2.63    1.45
  11  -4  -5   -0.32    1.32
  11  -4  -4  310.49   16.30
  11   4  -4  316.05   14.68
  11   4  -4  332.80   16.08
  11  -4  -4  327.54   16.58
  11  -4  -3   29.86    4.87
  11  -4  -3   41.07    6.06
  11   4  -3   11.04    3.09
  11   4  -3   21.61    4.36
  11   4  -3   28.37    4.83
  11  -4  -2   93.86    8.88
  11  -4  -2   80.69    8.40
  11   4  -2   77.44    7.36
  11   4  -2   75.85    7.30
  11   4  -2   98.45    8.61
  11  -4  -1  118.58    9.75
  11  -4  -1  107.41    9.40
  11   4  -1  117.37    8.60
  11   4  -1  113.11    9.36
  11   4  -1  120.28    9.20
  11   4   0   -1.35    1.77
  11  -4   0   -0.77    2.04
  11  -4   0   -0.71    2.17
  11   4   0   -0.51    1.49
  11   4   1  104.62    8.64
  11  -4   1  122.52    9.85
  11  -4   1  118.69    9.76
  11   4   1  125.85   10.07
  11   4   2   79.64    7.50
  11  -4   2   81.60    8.02
  11  -4   2   64.14    7.57
  11   4   2   87.73    8.21
  11   4   3   38.99    5.38
  11  -4   3   32.69    5.24
  11  -4   3   27.30    4.41
  11   4   3   33.61    5.32
  11   4   4  302.83   15.09
  11  -4   4  322.25   16.39
  11  -4   4  299.28   16.00
  11   4   4  310.53   15.56
  11   4   5    1.11    1.17
  11  -4   5    3.00    1.55
  11  -4   5    0.06    1.54
  11   4   6    2.17    1.17
  11  -4   6    1.29    1.58
  11   4   6    2.12    1.58
  11  -4   6    2.02    1.99
  11   4   7   12.04    2.97
  11  -4   7    8.64    2.84
  11   4   7    4.99    2.11
  11  -4   7    8.02    3.21
  11   4   8   42.97    5.74
  11  -4   8   45.42    6.10
  11  -4   8   56.33    6.95
  11   4   8   47.29    6.12
  11   4   9    3.66    1.97
  11  -4   9    1.86    2.51
  11   4   9    3.00    2.05
  11  -4   9    3.38    2.34
  11  -4  10   18.94    3.85
  11   4  10   17.82    4.13
  11   4  10   29.11    4.81
  11   4  11    4.34    2.27
  11  -4  11    4.34    1.90
  11   4  11    6.67    3.01
  11   4  12   14.61    3.38
  11  -4  12   20.66    4.64
  11   4  12   15.47    4.03
  11   4  13    0.29    1.81
  11  -4  13    1.51    0.89
  11   4  13   -0.70    0.88
  11   4  14    1.23    2.03
  11  -4  14    1.06    1.84
  11   4  14   -0.05    1.43
  11   4  15    3.19    2.17
  11  -4  15    3.51    2.22
  11   4  15    2.52    1.32
  11  -4  16    0.48    1.72
  11   4  16    2.28    2.26
  11  -4  17   -1.29    1.97
  11   4  17    3.78    2.80
  11  -4  18    1.19    2.55
  11   4  18    0.30    0.97
  11  -4  19    3.17    2.44
  11   4  19   -1.73    1.70
  11  -4  20    4.39    3.04
  11   4  20    0.99    1.38
  11   4  21    2.91    1.73
  11   4  22    3.78    2.55
  11   4  23    0.52    1.51
  11   4  24    2.08    1.48
  11  -5 -23    1.51    2.04
  11  -5 -22   16.01    4.53
  11  -5 -21   -0.97    1.20
  11  -5 -20    3.33    2.33
  11  -5 -19    8.41    3.34
  11  -5 -18   13.10    3.64
  11  -5 -18    9.03    3.40
  11   5 -18    5.96    2.10
  11  -5 -17    9.21    3.47
  11  -5 -17    9.59    3.64
  11   5 -17   11.27    3.83
  11  -5 -16    1.49    1.61
  11  -5 -16    4.47    2.80
  11   5 -16    5.57    2.04
  11  -5 -15   10.12    3.37
  11  -5 -15    5.77    2.10
  11   5 -15    7.04    3.27
  11   5 -14   19.92    4.24
  11  -5 -14   21.61    4.86
  11  -5 -14   20.33    4.81
  11  -5 -13   33.90    5.71
  11  -5 -13   29.76    5.31
  11   5 -13   43.56    6.39
  11  -5 -12    5.18    1.93
  11   5 -12    0.78    0.82
  11  -5 -12    3.67    0.94
  11  -5 -11    1.03    0.99
  11   5 -11    4.98    2.22
  11  -5 -11    2.06    1.24
  11   5 -10   -1.54    1.01
  11  -5 -10    1.83    2.50
  11  -5 -10    2.08    1.71
  11  -5  -9   32.42    5.62
  11  -5  -9   28.78    5.11
  11   5  -9   38.97    5.87
  11  -5  -8   98.54    9.56
  11  -5  -8   97.01    9.42
  11   5  -8  102.33    9.51
  11  -5  -7   19.42    4.58
  11  -5  -7   22.27    4.85
  11   5  -7   23.13    4.88
  11   5  -6   15.47    3.47
  11  -5  -6   10.77    3.35
  11  -5  -6   14.72    3.91
  11   5  -5    0.90    1.69
  11  -5  -5    1.48    1.31
  11   5  -5    0.66    1.43
  11  -5  -5    1.19    0.90
  11  -5  -4  123.02   10.30
  11  -5  -4   99.27    9.62
  11   5  -4  125.53    9.55
  11   5  -4  109.12    9.69
  11  -5  -3   24.92    5.21
  11  -5  -3   31.75    5.74
  11   5  -3   29.86    4.93
  11   5  -3   25.21    4.27
  11   5  -2   35.66    5.36
  11  -5  -2   44.60    6.40
  11  -5  -2   45.54    6.39
  11   5  -2   44.71    5.91
  11   5  -1   90.09    8.17
  11  -5  -1   87.65    8.60
  11  -5  -1   71.64    8.11
  11   5  -1   86.82    8.52
  11   5   0    2.26    1.44
  11  -5   0   -0.79    0.86
  11   5   0    0.06    0.82
  11  -5   0    1.32    1.62
  11   5   1   74.97    7.68
  11  -5   1   64.58    7.36
  11   5   1   86.67    8.53
  11  -5   1   77.11    8.18
  11  -5   2   33.16    5.33
  11   5   2   33.32    4.95
  11  -5   2   30.50    5.36
  11   5   2   38.95    5.81
  11  -5   3   26.06    4.84
  11   5   3   25.55    4.66
  11   5   3   25.02    4.36
  11  -5   3   28.67    5.38
  11   5   4  114.69    9.87
  11  -5   4  107.84    9.55
  11   5   4  123.53    9.97
  11  -5   4  122.08   10.40
  11   5   5   -1.29    1.48
  11  -5   5    0.83    1.04
  11  -5   5    3.05    2.53
  11   5   5    0.80    1.82
  11   5   6   13.18    3.06
  11   5   6   21.14    4.49
  11  -5   6   10.22    3.19
  11  -5   6   10.15    3.57
  11   5   7   25.24    4.83
  11  -5   7   23.16    4.66
  11  -5   7   18.90    4.68
  11   5   7   15.56    3.73
  11   5   8  119.36   10.06
  11  -5   8   93.14    9.18
  11   5   8   90.41    8.89
  11  -5   8   92.23    9.06
  11   5   9   40.35    5.62
  11  -5   9   34.38    5.98
  11   5   9   36.91    5.28
  11  -5   9   36.36    5.97
  11   5  10    2.11    2.30
  11  -5  10    1.54    1.77
  11  -5  10    1.19    1.12
  11   5  10    2.24    0.86
  11   5  11    3.17    2.06
  11  -5  11    2.28    2.59
  11  -5  11    2.01    1.28
  11   5  11    1.34    1.44
  11   5  12    3.62    1.30
  11  -5  12    6.27    3.05
  11  -5  12    5.69    2.57
  11   5  12    4.43    2.32
  11   5  13   34.84    5.57
  11  -5  13   38.40    5.90
  11   5  13   34.74    5.60
  11  -5  13   29.09    5.42
  11   5  14   23.33    5.34
  11  -5  14    8.23    3.47
  11   5  14   22.36    5.03
  11   5  15    7.78    3.18
  11  -5  15    5.34    2.41
  11   5  15    4.43    1.64
  11  -5  16    5.87    3.24
  11   5  16    1.69    1.39
  11  -5  17    7.67    2.37
  11   5  17   18.43    4.19
  11  -5  18   11.37    4.51
  11   5  18   17.45    4.23
  11   5  19    5.75    2.66
  11   5  20    5.11    2.88
  11   5  21   -1.53    1.89
  11   5  22   11.11    4.38
  11   5  23    0.40    1.55
  11  -6 -21    0.55    1.83
  11  -6 -20    5.48    3.26
  11  -6 -19   -0.72    1.23
  11  -6 -19    3.19    2.69
  11  -6 -18    0.18    2.58
  11  -6 -18   -0.78    1.60
  11  -6 -17    1.76    1.83
  11  -6 -17   -3.75    2.61
  11   6 -17   -0.67    1.77
  11   6 -16    1.37    2.80
  11  -6 -16    3.58    3.07
  11  -6 -16   -2.27    2.40
  11   6 -15    2.68    1.90
  11  -6 -15    2.12    1.19
  11  -6 -15    4.02    1.68
  11   6 -14    7.27    3.51
  11  -6 -14    3.96    1.74
  11  -6 -14    6.69    2.87
  11   6 -13    6.77    2.89
  11  -6 -13    4.98    3.14
  11  -6 -13    1.58    1.76
  11   6 -12    3.87    1.67
  11  -6 -12    2.92    1.78
  11  -6 -12    2.00    2.28
  11   6 -11    3.63    2.50
  11  -6 -11    0.61    1.79
  11  -6 -11    0.40    1.18
  11  -6 -10   16.82    4.24
  11   6 -10   13.55    3.99
  11  -6 -10   16.36    4.13
  11  -6  -9    4.78    2.89
  11   6  -9    0.76    1.60
  11  -6  -9    2.15    1.59
  11  -6  -8   17.07    3.75
  11   6  -8   10.11    3.44
  11  -6  -8   11.60    3.72
  11  -6  -7    5.85    2.52
  11   6  -7    5.59    2.08
  11  -6  -7    3.07    1.84
  11  -6  -6   15.46    3.95
  11   6  -6   16.81    4.02
  11  -6  -6   18.04    4.27
  11  -6  -5    5.50    2.06
  11   6  -5    7.35    2.95
  11  -6  -5    4.08    2.33
  11   6  -4    2.71    2.82
  11  -6  -4    4.03    3.15
  11   6  -4    4.54    2.42
  11  -6  -4    3.11    1.93
  11   6  -3    0.79    1.87
  11  -6  -3    6.32    2.60
  11  -6  -3    2.23    2.39
  11   6  -3    1.80    2.37
  11   6  -2   26.72    4.86
  11  -6  -2   36.29    5.87
  11  -6  -2   28.42    5.07
  11   6  -2   29.04    5.43
  11   6  -1    5.24    2.82
  11  -6  -1    2.97    2.39
  11  -6  -1    0.43    1.69
  11   6  -1    6.42    2.03
  11   6   0    3.69    2.04
  11  -6   0    1.62    1.03
  11  -6   0    6.05    2.79
  11   6   0    1.81    1.04
  11   6   1    4.07    1.86
  11  -6   1    2.85    2.38
  11  -6   1    1.27    2.16
  11   6   1   -0.01    1.11
  11   6   2   19.90    4.38
  11   6   2   31.52    5.29
  11  -6   2   27.17    4.79
  11  -6   2   29.13    5.71
  11   6   3    0.48    1.77
  11  -6   3    7.75    3.08
  11  -6   3    3.22    2.33
  11   6   3    3.68    2.17
  11   6   4    3.11    2.00
  11   6   4    2.45    2.02
  11  -6   4    2.71    0.92
  11  -6   4    2.17    0.92
  11   6   5    3.40    1.22
  11   6   5    2.51    1.18
  11  -6   5    1.11    1.75
  11   6   6   18.23    3.42
  11   6   6   23.69    4.61
  11  -6   6   25.91    4.91
  11  -6   6   16.66    4.14
  11   6   7    5.76    2.64
  11   6   7    2.59    1.94
  11  -6   7    4.47    2.76
  11  -6   7    2.49    1.63
  11   6   8    9.83    3.01
  11  -6   8    4.83    2.10
  11  -6   8    5.70    2.02
  11   6   9    0.72    0.89
  11   6   9    0.40    1.42
  11  -6   9    0.60    1.60
  11   6  10   15.56    3.96
  11   6  10   20.22    4.71
  11  -6  10   18.75    4.84
  11  -6  10   14.93    3.23
  11   6  11   -1.60    2.06
  11   6  11    2.15    1.81
  11  -6  11   -0.15    1.42
  11  -6  11    0.89    2.00
  11   6  12    0.99    1.45
  11   6  12    2.30    3.19
  11  -6  12    0.21    1.62
  11  -6  12   -1.07    2.46
  11   6  13    4.01    2.65
  11   6  13    0.17    1.40
  11  -6  13    6.03    2.67
  11  -6  13    7.73    3.09
  11   6  14    3.48    0.92
  11   6  14    5.16    2.16
  11  -6  14    3.91    1.63
  11   6  15    2.93    1.80
  11  -6  15    1.74    1.58
  11  -6  15    1.86    2.07
  11   6  15    0.54    1.54
  11  -6  16    0.60    1.91
  11  -6  16   -2.44    1.64
  11   6  16   -1.07    1.33
  11  -6  17    0.79    1.13
  11  -6  17    2.64    3.15
  11   6  17   -0.36    1.97
  11  -6  18   -0.19    3.07
  11   6  18    0.02    1.53
  11   6  19    2.86    2.85
  11   6  20    6.33    3.27
  11   6  21    2.12    2.14
  11  -7 -18    4.63    2.23
  11  -7 -18   10.04    4.13
  11   7 -17    2.66    2.19
  11  -7 -17    5.71    3.03
  11  -7 -17    0.42    1.20
  11   7 -16    1.95    1.64
  11  -7 -16    1.96    1.62
  11  -7 -16    1.66    2.23
  11   7 -15    6.81    3.75
  11  -7 -15   10.64    3.91
  11  -7 -15    6.91    3.27
  11   7 -14   15.79    4.32
  11  -7 -14    7.85    3.48
  11  -7 -14   21.03    4.90
  11   7 -13   14.66    3.93
  11  -7 -13   19.94    4.43
  11  -7 -13   15.21    4.52
  11   7 -12    6.63    2.41
  11  -7 -12    1.74    1.78
  11  -7 -12    4.36    2.91
  11   7 -11    2.02    2.34
  11  -7 -11    1.81    2.02
  11  -7 -11    0.71    1.11
  11   7 -10    1.81    2.59
  11  -7 -10    1.28    2.47
  11  -7 -10    2.67    1.96
  11   7  -9   12.08    3.88
  11  -7  -9    4.25    1.48
  11  -7  -9   11.09    3.57
  11   7  -8   24.08    4.85
  11  -7  -8   35.07    6.41
  11  -7  -8   35.55    6.03
 -11   7  -7   34.22    6.08
  11  -7  -7   31.65    5.56
  11  -7  -7   45.16    6.94
  11   7  -7   33.51    6.39
  11  -7  -6    8.25    3.12
  11   7  -6   15.78    4.39
  11  -7  -6   11.41    3.48
  11  -7  -5    1.46    1.04
  11   7  -5    0.90    1.81
  11  -7  -5    0.32    1.81
  11  -7  -4   15.35    4.30
  11   7  -4   10.89    3.24
  11  -7  -4   13.62    3.28
  11   7  -3   45.36    6.60
  11   7  -3   44.47    6.55
  11  -7  -3   44.18    6.69
  11  -7  -3   40.57    6.62
  11  -7  -2    7.53    2.50
  11   7  -2    6.31    2.86
  11  -7  -2    7.27    3.15
  11   7  -2    6.84    2.61
  11  -7  -1    0.51    1.32
  11   7  -1    2.29    2.34
  11  -7  -1    0.42    1.55
  11   7  -1    1.50    1.99
  11   7   0    1.47    2.58
  11  -7   0   -0.50    2.20
  11   7   0   -0.90    1.75
  11  -7   0   -0.01    2.09
  11   7   1   -1.74    2.17
  11  -7   1    1.71    1.14
  11   7   1   -1.94    2.70
  11  -7   1   -0.38    1.13
  11   7   2    4.82    2.42
  11  -7   2   12.06    3.45
  11   7   2    2.32    2.63
  11  -7   2    6.58    2.61
  11   7   3   54.10    7.27
  11   7   3   45.98    7.01
  11  -7   3   47.16    6.93
  11  -7   3   43.41    6.68
  11   7   4   11.90    3.42
  11  -7   4   14.26    4.03
  11   7   4   16.64    3.79
  11  -7   4   11.68    3.96
  11   7   5   -0.13    0.95
  11   7   5    0.47    0.98
  11  -7   5    2.65    2.45
  11  -7   5    3.44    2.12
  11   7   6   16.51    4.13
  11   7   6    6.34    2.23
  11  -7   6   12.32    3.70
  11  -7   6   13.67    3.80
  11   7   7   41.81    6.21
  11   7   7   38.05    6.42
  11  -7   7   51.03    6.84
  11  -7   7   34.76    6.28
  11   7   8   33.19    5.95
  11  -7   8   28.49    5.52
  11   7   8   40.87    6.52
  11  -7   8   31.08    5.67
  11   7   9   14.33    3.53
  11   7   9   12.75    3.52
  11  -7   9   11.80    3.69
  11  -7   9    7.06    3.73
  11   7  10    3.90    2.16
  11   7  10    2.94    2.01
  11  -7  10    1.75    1.28
  11  -7  10    2.26    2.16
  11   7  11    1.03    1.93
  11   7  11    1.55    2.22
  11  -7  11    4.49    2.81
  11  -7  11    2.60    2.29
  11   7  12    9.74    3.65
  11   7  12    0.11    2.30
  11  -7  12    5.66    3.71
  11  -7  12    6.28    3.12
  11   7  13   22.20    4.71
  11   7  13   19.23    4.21
  11  -7  13   22.94    5.20
  11  -7  13   17.38    4.88
  11   7  14   21.01    5.09
  11   7  14   13.90    4.19
  11  -7  14   11.14    2.94
  11  -7  14   10.64    3.68
  11   7  15    5.15    1.10
  11   7  15    2.03    2.43
  11  -7  15    7.43    3.16
  11   7  16    1.30    1.95
  11   7  16    2.75    2.19
  11   7  17    7.74    3.60
  11   7  18    9.53    3.36
  11   8 -15   -0.72    1.38
  11  -8 -15   -0.36    2.19
  11  -8 -15    0.25    1.54
  11   8 -14   -1.54    2.42
  11  -8 -14   -0.66    1.76
  11  -8 -14    0.76    2.36
  11   8 -13    1.60    1.74
  11  -8 -13    5.98    2.45
  11  -8 -13    2.53    2.83
  11   8 -12    1.84    1.72
  11  -8 -12   -0.44    1.80
  11  -8 -12   -1.09    1.41
  11   8 -11   -1.02    1.82
  11  -8 -11    3.01    2.65
  11  -8 -11    1.50    3.04
  11   8 -10   -0.28    0.99
  11  -8 -10    0.41    2.01
  11  -8 -10    0.50    1.52
  11   8  -9    0.87    1.64
  11  -8  -9    4.57    3.10
  11  -8  -9    9.43    2.98
  11   8  -8    1.88    2.47
  11  -8  -8    3.12    2.50
  11  -8  -8    2.63    2.18
  11   8  -7   -3.11    2.67
  11  -8  -7   -0.56    2.66
  11  -8  -7    2.36    2.21
  11   8  -6    0.80    2.51
 -11   8  -6   -0.83    1.30
  11  -8  -6    1.61    1.60
  11  -8  -6    5.69    2.53
  11   8  -5    1.89    1.43
 -11   8  -5    5.75    3.26
  11  -8  -5    0.76    1.88
  11  -8  -5    1.64    1.80
  11  -8  -4    0.11    2.01
  11   8  -4   -1.82    2.14
 -11   8  -4   -0.82    1.22
  11  -8  -4    0.11    1.18
  11  -8  -3    2.00    2.34
  11   8  -3    2.62    1.52
 -11   8  -3    1.80    2.60
  11  -8  -3    1.57    1.29
  11  -8  -2    1.90    1.94
  11   8  -2   -0.55    1.42
 -11   8  -2    0.21    1.58
  11  -8  -2    1.95    1.64
  11  -8  -1   10.74    3.50
  11   8  -1    9.81    3.08
  11   8  -1   15.20    4.00
 -11   8  -1    2.38    1.06
  11  -8  -1    3.72    1.78
  11  -8   0    3.45    3.06
  11   8   0    7.31    2.93
  11   8   0   -0.30    1.71
 -11   8   0    4.93    2.36
  11  -8   0    1.07    1.49
  11  -8   1   15.36    4.69
  11   8   1   12.57    2.79
  11   8   1   11.91    4.11
  11  -8   1   11.75    3.58
  11  -8   2    4.79    2.60
  11   8   2    0.12    2.18
  11   8   2   -1.13    1.93
  11  -8   2    3.45    2.85
  11  -8   3    2.05    1.41
  11   8   3   -2.15    1.54
  11   8   3    2.93    2.41
  11  -8   3    1.77    2.09
  11  -8   4   -1.25    1.99
  11   8   4   -0.08    2.82
  11   8   4    2.90    2.09
  11  -8   4    2.97    1.47
  11  -8   5   -0.58    1.72
  11   8   5    0.78    1.13
  11   8   5    1.03    1.02
  11  -8   5    1.94    1.78
  11  -8   6    1.15    1.71
  11   8   6   -0.26    1.68
  11   8   6    3.05    1.32
  11  -8   6    1.78    1.81
  11  -8   7   -0.29    2.49
  11   8   7    6.48    3.76
  11   8   7    1.57    2.43
  11  -8   7    2.47    3.42
  11  -8   8    6.03    3.31
  11   8   8   -2.12    2.48
  11   8   8    4.96    2.36
  11  -8   8    0.10    2.81
  11  -8   9    2.73    1.46
  11   8   9    2.25    1.65
  11   8   9    5.56    2.18
  11  -8  10    0.78    1.54
  11   8  10   -1.06    1.67
  11   8  10    1.09    1.09
  11  -8  11    0.44    1.91
  11   8  11   -1.95    2.57
  11   8  11   -0.18    1.83
  11  -8  12   -2.38    1.25
  11   8  12   -0.50    1.40
  11   8  12   -1.08    2.30
  11  -8  13   -1.64    1.43
  11   8  13    3.00    2.18
  11   8  13    2.86    1.06
  11  -8  14    1.83    1.94
  11   8  14   -2.82    2.20
  11   8  14   -0.79    1.66
  11   8  15    2.49    1.87
  11   8  15    0.23    1.10
  11   9 -11    4.01    2.58
  11  -9 -11    1.28    1.72
  11  -9 -11    0.80    1.38
  11   9 -10    1.69    1.54
  11  -9 -10    1.32    2.60
  11  -9 -10    3.89    3.14
  11  -9  -9    4.01    1.91
  11  -9  -9    2.67    1.65
  11   9  -8    1.03    2.04
  11  -9  -8    5.25    2.88
  11  -9  -8    2.68    2.46
  11   9  -7   14.70    4.81
  11  -9  -7   14.89    4.29
  11  -9  -7   12.84    3.52
  11   9  -6    3.83    2.59
  11  -9  -6    4.95    3.24
  11  -9  -6    0.13    1.37
  11   9  -5    7.63    3.31
 -11   9  -5    0.99    1.18
  11  -9  -5    8.65    3.36
  11  -9  -5    7.29    3.12
  11   9  -4    4.45    3.17
 -11   9  -4   -0.80    1.69
  11  -9  -4    3.01    1.79
  11  -9  -4   -1.61    1.74
  11   9  -3   54.81    7.72
 -11   9  -3   42.67    7.07
  11  -9  -3   55.39    7.72
  11  -9  -3   41.88    7.00
  11   9  -2    7.54    2.78
 -11   9  -2    7.42    3.60
  11  -9  -2    2.30    2.33
  11  -9  -2    0.49    2.52
  11   9  -1    1.72    2.00
 -11   9  -1    2.34    2.12
  11  -9  -1    3.70    2.40
  11  -9  -1   -0.38    1.63
  11   9   0    4.38    2.81
 -11   9   0   -3.17    2.90
  11  -9   0    3.72    3.82
  11  -9   0    2.63    2.78
  11  -9   1    0.31    1.72
  11   9   1    6.15    3.73
 -11   9   1    0.78    1.84
  11  -9   1   -0.97    2.09
  11  -9   2    4.20    3.40
  11   9   2    1.11    1.85
  11   9   2    2.86    1.22
 -11   9   2    4.70    1.70
  11   9   3   44.79    7.01
  11   9   3   28.49    5.68
 -11   9   3   46.28    6.85
  11  -9   3   37.70    6.63
  11  -9   4    1.27    1.54
  11   9   4    2.98    2.17
  11   9   4    2.83    2.06
 -11   9   4    0.26    0.98
  11  -9   5    5.33    2.48
  11   9   5    4.71    3.66
  11   9   5    1.24    2.22
 -11   9   5    6.83    2.99
  11  -9   6    1.70    2.45
  11   9   6    2.63    1.73
  11   9   6    1.94    2.36
  11  -9   7   17.78    4.49
  11   9   7   16.69    4.86
  11   9   7   11.65    3.59
 -11   9   7   11.73    3.93
  11  -9   8    7.58    3.83
  11   9   8    4.67    3.01
  11   9   8    9.11    3.57
 -11   9   8    3.82    2.64
  11  -9   9    4.41    2.67
  11   9   9   10.56    4.18
  11   9   9    7.12    2.69
 -11   9   9    7.23    3.29
  11  -9  10    2.30    2.45
  11   9  10   -1.88    1.53
  11   9  10    1.27    2.43
 -11   9  10    0.26    2.47
  11  -9  11    0.55    1.89
  11   9  11    3.15    3.02
  11   9  11    2.88    2.26
 -11   9  11    6.57    3.29
  12   0 -23    3.53    2.14
  12   0 -22   -1.01    2.40
  12   0 -21    3.59    2.59
  12   0 -20   22.28    4.98
  12   0 -19   34.64    5.86
  12   0 -18   18.92    4.66
  12   0 -17   73.04    8.34
  12   0 -16   43.59    6.34
  12   0 -15    3.72    1.96
  12   0 -14  103.83    9.56
  12   0 -13  225.08   13.92
  12   0 -12    2.59    1.38
  12   0 -12   75.56    8.20
  12   0 -11  109.93    9.07
  12   0 -11  115.42    9.70
  12   0 -10  133.67    9.97
  12   0 -10  113.64    9.58
  12   0  -9   25.18    4.21
  12   0  -9   25.71    4.52
  12   0  -8   70.48    7.05
  12   0  -8   66.39    7.12
  12   0  -7   16.61    3.62
  12   0  -7   19.50    4.23
  12   0  -6   55.14    6.03
  12   0  -6   55.09    6.37
  12   0  -5  136.76    9.78
  12   0  -5  111.44    9.15
  12   0  -4   77.68    7.51
  12   0  -4   79.36    7.68
  12   0  -4   67.72    7.10
  12   0  -3   10.43    2.90
  12   0  -3    7.76    2.51
  12   0  -2  231.30   12.86
  12   0  -2  220.69   12.91
  12   0  -2  241.91   13.11
  12   0  -1  475.18   18.48
  12   0  -1  489.44   19.16
  12   0  -1  529.00   19.47
  12   0   0  339.97   15.68
  12   0   0  344.63   16.17
  12   0   0  338.89   15.43
  12   0   1  520.48   19.70
  12   0   1  491.09   19.32
  12   0   1  493.27   18.38
  12   0   2  226.86   13.17
  12   0   2  221.30   12.90
  12   0   2  217.37   12.27
  12   0   3   10.50    2.54
  12   0   3   15.86    3.37
  12   0   4   64.23    7.08
  12   0   4   68.74    6.86
  12   0   5  122.82    9.71
  12   0   5  116.19    8.78
  12   0   6   44.69    6.00
  12   0   6   60.63    6.37
  12   0   7   22.42    4.22
  12   0   7   10.07    2.86
  12   0   8   77.31    7.83
  12   0   8   76.21    7.02
  12   0   9   25.95    4.66
  12   0   9   25.73    4.18
  12   0  10  136.96   10.46
  12   0  10  127.77    9.44
  12   0  11  118.82    9.67
  12   0  12   80.50    8.37
  12   0  13  199.09   13.19
  12   0  14  107.99    9.64
  12   0  15    2.11    1.07
  12   0  16   53.56    6.95
  12   0  17   67.84    8.10
  12   0  18   18.44    4.83
  12   0  19   28.54    5.45
  12   0  20   16.26    3.39
  12   0  21   -1.17    2.50
  12   0  22    1.49    1.78
  12   0  23    3.48    3.39
  12   0  24    2.60    2.40
  12   0  25   18.21    5.19
  12  -1 -25   -2.09    1.95
  12  -1 -24    2.95    3.10
  12  -1 -23    2.68    1.66
  12  -1 -22   -1.12    1.95
  12  -1 -21    2.05    1.52
  12  -1 -20    2.02    1.80
  12  -1 -19    1.78    2.67
  12   1 -18   -0.93    1.09
  12  -1 -18    0.62    1.66
  12   1 -17    5.10    2.86
  12  -1 -17    8.07    2.40
  12   1 -16    0.54    1.44
  12  -1 -16    2.53    2.27
  12   1 -15    0.39    1.60
  12  -1 -15    5.70    2.16
  12   1 -14    6.92    2.61
  12  -1 -14    2.41    2.22
  12  -1 -13    0.34    0.85
  12   1 -13    1.55    1.29
  12  -1 -13    3.68    2.63
  12  -1 -12    4.41    1.65
  12   1 -12    4.76    2.57
  12  -1 -12    2.06    2.32
  12  -1 -11   21.22    4.01
  12   1 -11   14.40    3.66
  12  -1 -11   20.90    4.15
  12   1 -11   22.38    4.37
  12  -1 -10   13.78    3.00
  12   1 -10    6.18    2.14
  12  -1 -10   15.76    3.83
  12   1 -10    8.61    2.81
  12   1 -10   13.52    3.00
  12  -1  -9   24.06    4.31
  12   1  -9   18.26    3.67
  12   1  -9   17.40    4.22
  12  -1  -9   17.48    3.94
  12   1  -9   16.36    3.73
  12  -1  -8   11.58    3.14
  12   1  -8    6.88    2.22
  12  -1  -8    9.14    2.62
  12   1  -8    5.75    2.33
  12   1  -8   13.16    2.62
  12  -1  -7    0.30    0.76
  12   1  -7    1.46    2.05
  12  -1  -7    0.10    1.22
  12   1  -7    1.10    1.78
  12   1  -7    4.08    1.50
  12  -1  -6    3.56    1.73
  12   1  -6    9.61    2.83
  12  -1  -6    4.26    1.46
  12   1  -6    9.57    2.87
  12   1  -6    6.85    2.41
  12  -1  -5   16.37    3.76
  12   1  -5   10.37    2.64
  12  -1  -5   16.57    3.30
  12   1  -5   19.26    3.91
  12   1  -5   18.06    3.75
  12  -1  -4   36.99    5.13
  12   1  -4   41.59    5.44
  12  -1  -4   38.47    5.60
  12   1  -4   46.96    5.93
  12   1  -4   32.70    4.91
  12  -1  -3   78.21    7.76
  12   1  -3   96.62    8.38
  12  -1  -3   86.52    8.20
  12   1  -3   93.90    8.32
  12   1  -3  101.55    8.34
  12  -1  -2   51.83    6.23
  12   1  -2   61.22    6.65
  12  -1  -2   52.07    6.49
  12   1  -2   51.11    6.13
  12   1  -2   53.37    6.35
  12  -1  -1   22.37    4.07
  12  -1  -1   17.26    3.91
  12   1  -1   22.24    3.85
  12   1  -1   15.79    3.25
  12   1  -1   21.64    3.72
  12  -1   0    7.32    2.63
  12  -1   0   10.38    2.98
  12   1   0   12.66    3.51
  12   1   0   11.66    2.54
  12   1   0   11.14    3.12
  12   1   1   19.86    3.57
  12  -1   1   13.14    3.29
  12  -1   1   20.18    4.02
  12   1   1   15.29    3.48
  12   1   1   19.18    3.67
  12  -1   2   62.20    6.87
  12   1   2   59.54    6.57
  12  -1   2   60.59    6.71
  12   1   2   57.06    6.17
  12  -1   3   81.81    7.77
  12   1   3   89.90    8.17
  12  -1   3   81.71    8.06
  12   1   3   83.57    7.50
  12  -1   4   39.56    5.54
  12   1   4   31.36    4.73
  12   1   4   48.32    5.78
  12   1   5   17.73    3.68
  12  -1   5   12.97    3.42
  12   1   5   20.12    3.91
  12   1   6    7.99    2.62
  12  -1   6    5.54    2.20
  12   1   7    1.44    1.90
  12  -1   7    1.00    1.49
  12   1   7    1.32    1.77
  12   1   8   13.66    3.61
  12  -1   8    6.47    2.16
  12   1   8    9.91    3.10
  12   1   9   17.84    3.61
  12  -1   9   20.84    4.15
  12   1   9   18.04    3.71
  12   1  10   10.98    3.09
  12  -1  10   13.30    3.16
  12   1  10    3.72    1.34
  12   1  11   20.15    3.93
  12  -1  11   15.98    3.60
  12   1  11   20.96    3.55
  12   1  12    4.32    2.02
  12  -1  12    5.89    2.60
  12   1  12    4.99    1.86
  12   1  13   -0.55    1.22
  12  -1  13    0.96    1.71
  12   1  14    4.82    2.61
  12  -1  14    5.88    2.58
  12   1  15    2.77    1.96
  12  -1  15    5.25    2.22
  12   1  16    2.04    1.00
  12  -1  16    0.04    1.33
  12   1  17    6.58    2.76
  12  -1  17    5.34    2.36
  12   1  18   -1.17    1.99
  12  -1  18    0.74    1.95
  12   1  19    1.72    2.48
  12  -1  19    1.71    1.79
  12   1  20    5.56    3.04
  12  -1  20    2.20    2.74
  12   1  21    2.99    2.21
  12  -1  21    8.02    3.08
  12   1  22    4.17    3.34
  12  -1  22    0.64    1.51
  12   1  23    2.50    3.01
  12  -1  23    1.69    2.49
  12   1  24    1.24    1.66
  12  -1  24   -2.35    2.30
  12   1  25    0.69    2.35
  12  -2 -25    9.90    4.15
  12  -2 -24   10.40    2.60
  12  -2 -23    4.57    2.73
  12  -2 -22    2.85    2.57
  12  -2 -21    9.85    3.31
  12  -2 -20    5.81    3.03
  12  -2 -19    8.12    3.17
  12  -2 -18   22.08    4.99
  12  -2 -17   18.72    4.19
  12  -2 -16   12.84    3.59
  12  -2 -15   11.10    3.16
  12   2 -15   17.79    3.80
  12  -2 -14   29.89    5.28
  12  -2 -14   29.97    5.24
  12   2 -14   25.35    4.72
  12   2 -13   63.21    7.03
  12  -2 -13   72.72    7.98
  12   2 -13   76.64    8.05
  12  -2 -13   66.25    7.56
  12   2 -12   49.64    6.42
  12  -2 -12   48.96    6.64
  12   2 -12   48.36    6.10
  12  -2 -12   54.36    7.04
  12  -2 -11   21.88    4.08
  12   2 -11   16.05    3.63
  12  -2 -11   24.03    4.41
  12   2 -11   28.29    5.04
  12  -2 -10   32.50    5.24
  12   2 -10   23.52    4.80
  12   2 -10   31.16    4.95
  12  -2 -10   29.96    5.09
  12  -2  -9   64.16    7.09
  12   2  -9   68.40    6.72
  12   2  -9   52.75    6.42
  12   2  -9   65.47    7.10
  12  -2  -8   65.60    7.66
  12   2  -8   64.27    6.59
  12  -2  -8   68.57    7.64
  12   2  -8   69.45    7.49
  12   2  -8   70.05    7.37
  12  -2  -7   34.89    5.32
  12   2  -7   47.00    5.90
  12  -2  -7   39.45    6.03
  12   2  -7   35.10    5.00
  12   2  -7   39.31    5.64
  12  -2  -6   28.96    4.88
  12   2  -6   26.67    4.47
  12  -2  -6   27.71    5.06
  12   2  -6   34.61    5.14
  12   2  -6   26.60    4.84
  12  -2  -5   75.96    7.75
  12   2  -5   77.29    7.35
  12  -2  -5   63.75    7.35
  12   2  -5   53.18    6.33
  12   2  -5   67.77    7.27
  12  -2  -4   97.84    8.48
  12   2  -4  100.61    8.41
  12  -2  -4  104.16    9.29
  12   2  -4  110.87    9.11
  12   2  -4  102.92    8.86
  12  -2  -3   24.75    4.28
  12   2  -3   25.86    4.42
  12  -2  -3   26.18    4.55
  12   2  -3   27.63    4.67
  12   2  -3   23.91    4.11
  12  -2  -2  112.56    9.36
  12   2  -2  108.60    8.90
  12  -2  -2  113.23    9.46
  12   2  -2  118.25    9.27
  12   2  -2  113.59    9.08
  12  -2  -1  249.04   13.72
  12   2  -1  281.18   13.88
  12  -2  -1  269.94   14.65
  12   2  -1  244.42   13.39
  12   2  -1  242.46   13.14
  12  -2   0  169.86   11.47
  12   2   0  161.20   10.80
  12  -2   0  178.98   11.97
  12   2   0  146.86   10.41
  12   2   0  161.30   10.82
  12  -2   1  244.37   13.67
  12   2   1  247.09   13.45
  12  -2   1  259.78   14.21
  12   2   1  234.46   13.07
  12  -2   2  105.21    9.13
  12   2   2  100.01    8.60
  12  -2   2  112.67    9.59
  12   2   2  109.72    8.93
  12  -2   3   24.06    4.32
  12   2   3   23.79    4.16
  12  -2   3   27.11    4.84
  12   2   3   31.88    4.82
  12  -2   4  101.82    9.11
  12   2   4   88.44    8.28
  12  -2   4   94.55    8.90
  12   2   4  107.19    8.58
  12  -2   5   71.12    7.68
  12  -2   5   69.15    7.47
  12   2   5   63.28    6.99
  12   2   5   69.42    7.13
  12  -2   6   29.68    4.92
  12   2   6   26.48    4.56
  12   2   6   27.50    4.51
  12  -2   7   34.21    5.21
  12   2   7   47.05    5.94
  12   2   7   39.91    5.50
  12  -2   8   65.84    7.58
  12   2   8   75.04    7.61
  12   2   8   63.41    6.94
  12  -2   9   53.99    6.70
  12   2   9   66.72    7.33
  12   2   9   66.18    6.95
  12  -2  10   30.53    5.44
  12   2  10   34.42    5.36
  12   2  10   26.56    4.69
  12  -2  11   28.05    4.77
  12   2  11   23.84    4.60
  12   2  11   28.54    4.67
  12  -2  12   56.56    7.07
  12   2  12   52.18    6.78
  12   2  12   47.95    6.01
  12  -2  13   72.42    7.96
  12   2  13   59.98    7.59
  12   2  13   60.53    6.97
  12  -2  14   28.16    5.19
  12   2  14   23.71    4.90
  12   2  15    7.95    2.63
  12  -2  15    8.09    2.54
  12   2  16   13.85    3.72
  12  -2  16   13.97    3.85
  12   2  17   26.55    4.97
  12  -2  17   16.66    3.96
  12   2  18   24.09    4.87
  12  -2  18   25.74    4.73
  12   2  19    7.89    2.58
  12  -2  19   10.55    3.06
  12   2  20    3.59    2.36
  12  -2  20    3.11    1.20
  12   2  21    3.91    2.05
  12  -2  21   11.87    4.34
  12   2  22    9.96    3.12
  12  -2  22    0.21    2.60
  12   2  23    5.93    2.10
  12   2  24    9.01    3.81
  12   2  25    5.25    2.51
  12  -3 -24    2.04    2.74
  12  -3 -23    4.83    3.11
  12  -3 -22    1.24    1.65
  12  -3 -21    1.48    1.65
  12  -3 -20    0.95    1.18
  12  -3 -19   -0.87    1.35
  12  -3 -18    4.91    2.31
  12   3 -18   11.37    3.41
  12  -3 -17    2.74    2.24
  12   3 -17    1.71    1.46
  12  -3 -16    0.26    1.30
  12   3 -16    2.33    1.81
  12  -3 -15    1.45    1.78
  12  -3 -15    1.03    2.22
  12   3 -15   -1.39    0.96
  12  -3 -14   -0.04    1.45
  12  -3 -14    0.54    1.39
  12   3 -14    4.01    2.66
  12  -3 -13    0.34    1.72
  12  -3 -13    3.33    2.17
  12   3 -13    2.53    2.19
  12  -3 -12   22.96    4.34
  12  -3 -12   22.82    4.13
  12   3 -12   31.55    5.41
  12  -3 -11   18.81    4.30
  12  -3 -11   16.79    4.25
  12   3 -11   22.89    4.45
  12  -3 -10   15.58    3.49
  12  -3 -10   19.56    4.43
  12   3 -10   17.80    3.49
  12  -3  -9   11.87    2.93
  12  -3  -9   19.40    3.68
  12   3  -9   12.54    3.09
  12  -3  -8   16.08    3.75
  12  -3  -8   15.20    3.76
  12   3  -8   10.81    3.04
  12   3  -8   12.40    3.33
  12   3  -7    4.44    2.44
  12  -3  -7    6.18    2.28
  12  -3  -7    1.98    1.79
  12   3  -7    5.14    2.42
  12   3  -7    7.97    2.54
  12   3  -6    1.66    1.78
  12   3  -6    1.06    1.22
  12  -3  -6    0.68    1.52
  12  -3  -6    5.00    3.23
  12   3  -6    1.81    1.59
  12   3  -5   19.17    3.94
  12   3  -5   16.90    3.63
  12  -3  -5   13.98    3.80
  12  -3  -5   19.47    4.68
  12   3  -5   16.42    3.52
  12  -3  -4   83.53    8.31
  12   3  -4   70.89    7.11
  12  -3  -4   73.05    7.98
  12   3  -4   87.41    7.92
  12   3  -4   74.72    7.62
  12  -3  -3  155.15   11.42
  12  -3  -3  141.99   11.00
  12   3  -3  148.78   10.36
  12   3  -3  143.59   10.03
  12   3  -3  148.72   10.80
  12  -3  -2   75.28    7.81
  12  -3  -2   65.98    7.47
  12   3  -2   72.99    7.37
  12   3  -2   68.64    7.15
  12   3  -2   64.15    6.97
  12   3  -1   14.69    3.36
  12   3  -1   10.82    2.79
  12  -3  -1   10.21    3.31
  12  -3  -1    4.71    1.67
  12   3  -1    6.94    2.13
  12   3   0   11.44    3.14
  12   3   0   15.18    3.09
  12  -3   0   12.46    3.20
  12   3   0   21.47    4.07
  12  -3   0    9.77    3.00
  12   3   1    9.58    2.64
  12   3   1   11.45    2.99
  12  -3   1   12.03    3.20
  12  -3   1    9.86    3.50
  12  -3   2   63.86    7.21
  12  -3   2   80.17    8.08
  12   3   2   72.15    7.31
  12   3   2   62.39    6.78
  12  -3   3  141.30   10.82
  12  -3   3  151.08   11.14
  12   3   3  142.91   10.46
  12   3   3  146.97   10.63
  12  -3   4   54.06    6.37
  12  -3   4   71.56    7.82
  12   3   4   82.84    7.94
  12   3   4   82.67    7.88
  12   3   5   16.69    3.61
  12  -3   5   11.86    3.38
  12  -3   5   18.58    4.01
  12   3   5   23.46    4.64
  12   3   6    0.90    0.79
  12   3   6    6.56    2.57
  12  -3   6    4.61    2.37
  12  -3   6    2.25    1.83
  12   3   7    2.42    1.38
  12   3   7    6.92    2.45
  12  -3   7    2.49    0.93
  12  -3   7    5.89    1.97
  12   3   8    8.30    2.77
  12   3   8   10.40    3.27
  12  -3   8   14.64    3.94
  12   3   9   11.39    3.23
  12   3   9    7.48    2.59
  12  -3   9   11.61    3.54
  12   3  10   19.53    3.99
  12   3  10   19.41    4.32
  12  -3  10   13.41    3.34
  12   3  11   21.43    4.14
  12   3  11   14.14    3.69
  12  -3  11   17.44    3.96
  12  -3  12   18.73    4.02
  12   3  12   34.56    5.31
  12   3  12   30.95    5.48
  12   3  13    3.04    1.99
  12   3  13    0.39    1.02
  12   3  14   -0.20    1.21
  12   3  14    2.15    1.77
  12  -3  14   -0.01    1.11
  12   3  15   -1.38    2.15
  12  -3  15    1.10    1.81
  12   3  16    1.59    1.60
  12  -3  16    1.27    2.65
  12   3  17    0.37    1.93
  12  -3  17    3.58    2.20
  12   3  18    7.15    3.71
  12  -3  18    9.08    4.40
  12   3  19    2.68    1.66
  12  -3  19    0.84    1.65
  12   3  20    3.53    2.12
  12  -3  20    4.10    1.31
  12   3  21    5.36    2.75
  12  -3  21    1.98    1.12
  12   3  22    5.19    3.05
  12   3  23    2.74    2.30
  12   3  24    0.13    2.13
  12  -4 -23    7.98    3.16
  12  -4 -22   12.00    3.77
  12  -4 -21    6.07    1.95
  12  -4 -20    4.53    1.62
  12  -4 -19    1.20    1.80
  12   4 -19    3.46    1.94
  12  -4 -18    3.55    2.60
  12   4 -18    5.32    2.77
  12  -4 -17    8.69    3.37
  12   4 -17    3.61    2.61
  12  -4 -16   12.67    3.68
  12   4 -16    9.95    3.05
  12  -4 -16   14.09    3.79
  12  -4 -15    5.27    2.64
  12   4 -15    3.27    2.21
  12  -4 -15    6.09    2.43
  12  -4 -14    9.39    2.79
  12  -4 -14   11.23    3.15
  12   4 -14    8.78    2.66
  12  -4 -13   24.63    4.45
  12  -4 -13   17.40    4.02
  12   4 -13   23.82    4.75
  12  -4 -12    5.55    2.39
  12  -4 -12    0.72    0.90
  12   4 -12    2.27    2.38
  12  -4 -11    3.05    1.04
  12  -4 -11    4.56    2.22
  12   4 -11    5.54    2.04
  12   4 -10   18.60    3.90
  12  -4 -10    9.90    3.39
  12  -4 -10   11.45    3.72
  12  -4  -9   35.27    5.63
  12  -4  -9   36.05    5.69
  12   4  -9   44.39    5.98
  12  -4  -8   78.05    8.51
  12   4  -8   66.86    7.83
  12  -4  -8   66.47    7.75
  12  -4  -7   89.78    9.16
  12   4  -7  107.43    9.33
  12  -4  -7   83.85    9.00
  12  -4  -6   34.32    5.61
  12   4  -6   39.03    5.32
  12  -4  -6   32.44    5.64
  12  -4  -5   64.90    7.52
  12   4  -5   65.97    7.00
  12   4  -5   75.00    7.93
  12  -4  -5   76.22    8.25
  12  -4  -4  128.55   10.83
  12   4  -4  113.28    9.13
  12   4  -4  116.38    9.79
  12  -4  -4  131.44   10.70
  12  -4  -3  104.84    9.56
  12  -4  -3  101.23    9.62
  12   4  -3  117.76    9.28
  12   4  -3  131.91   10.07
  12  -4  -2  105.65    9.72
  12  -4  -2  110.13   10.09
  12   4  -2  106.34    9.11
  12   4  -2  135.46   10.61
  12  -4  -1   78.87    8.24
  12  -4  -1   79.48    8.26
  12   4  -1   86.34    8.12
  12   4  -1   65.27    7.36
  12   4  -1   83.46    8.42
  12   4   0   20.11    4.30
  12  -4   0   15.98    4.18
  12  -4   0   22.01    4.27
  12   4   0   21.31    4.23
  12   4   0   20.78    4.35
  12  -4   1   64.40    7.40
  12  -4   1   68.08    7.74
  12   4   1   67.74    7.31
  12   4   1   55.76    6.75
  12  -4   2  108.38    9.83
  12  -4   2  118.80   10.29
  12   4   2  120.59    9.91
  12   4   2  113.15    9.47
  12  -4   3  103.98    9.61
  12  -4   3  115.91   10.11
  12   4   3  109.70    9.56
  12   4   3  121.94   10.01
  12  -4   4  111.67   10.09
  12   4   4  135.87   10.36
  12   4   4  129.57   10.03
  12   4   5   67.84    7.55
  12  -4   5   70.32    7.85
  12  -4   5   64.99    7.63
  12   4   5   69.04    7.37
  12   4   6   26.05    4.87
  12  -4   6   43.27    5.86
  12  -4   6   41.77    5.87
  12   4   6   37.90    5.66
  12   4   7  100.45    9.15
  12  -4   7  101.70    9.54
  12  -4   7  102.20    9.90
  12   4   7   88.83    8.38
  12   4   8   60.60    7.18
  12  -4   8   59.17    7.35
  12  -4   8   64.47    7.57
  12   4   8   52.20    6.58
  12   4   9   31.29    5.28
  12  -4   9   36.20    5.90
  12  -4   9   43.71    6.44
  12   4   9   45.80    6.64
  12   4  10   14.15    3.67
  12  -4  10   16.93    4.04
  12   4  10   15.45    3.40
  12  -4  10   16.80    4.23
  12   4  11    0.67    1.86
  12  -4  11    5.84    2.33
  12   4  11    3.16    2.09
  12   4  12    1.88    2.19
  12  -4  12    5.22    2.19
  12   4  12    4.58    1.46
  12   4  13   16.41    3.89
  12  -4  13   20.72    4.26
  12   4  13   12.25    3.34
  12   4  14    6.70    2.55
  12  -4  14   10.43    3.23
  12   4  14   12.25    3.95
  12  -4  15    1.78    1.38
  12   4  15    1.92    2.02
  12  -4  16    9.96    3.30
  12   4  16    6.88    2.18
  12  -4  17    8.19    3.86
  12   4  17    8.55    3.78
  12  -4  18    4.67    3.28
  12   4  18    3.04    2.28
  12  -4  19    1.52    1.12
  12   4  19    2.07    1.74
  12  -4  20    4.88    3.02
  12   4  20    4.22    1.12
  12   4  21    8.10    3.05
  12   4  22    6.78    2.92
  12   4  23   13.18    4.04
  12  -5 -21    1.57    2.32
  12  -5 -20    0.26    2.09
  12  -5 -19   -0.32    1.88
  12   5 -19   15.59    5.65
  12  -5 -18    0.37    0.91
  12   5 -18    1.45    2.10
  12  -5 -17    9.89    3.13
  12  -5 -17    6.80    3.19
  12   5 -17    2.10    2.11
  12  -5 -16    1.00    1.82
  12  -5 -16   -2.10    1.52
  12   5 -16    1.15    1.12
  12  -5 -15    0.03    1.70
  12  -5 -15    0.85    1.57
  12   5 -15    1.71    0.84
  12  -5 -14    0.46    0.85
  12  -5 -14   -0.59    1.82
  12   5 -14   -0.08    1.82
  12  -5 -13    6.38    2.94
  12   5 -13    5.79    2.69
  12  -5 -13    6.02    2.58
  12   5 -12    1.38    1.09
  12  -5 -12    4.85    2.19
  12  -5 -12    2.40    2.31
  12   5 -11    4.07    2.34
  12  -5 -11    4.61    2.45
  12  -5 -11    4.86    3.04
  12   5 -10    9.90    3.39
  12  -5 -10   15.09    4.07
  12  -5 -10   11.65    3.36
  12   5  -9   10.80    3.56
  12  -5  -9    8.64    2.99
  12  -5  -9    9.63    3.40
  12   5  -8   -0.79    1.42
  12  -5  -8   -0.82    1.14
  12  -5  -8    0.50    1.94
  12   5  -7    6.11    2.63
  12  -5  -7    4.73    2.23
  12  -5  -7    7.57    3.49
  12   5  -6    1.72    2.47
  12  -5  -6   -0.43    0.99
  12  -5  -6    0.21    1.49
  12   5  -5    1.00    0.92
  12  -5  -5    1.76    2.54
  12   5  -5    1.30    0.77
  12  -5  -5    2.03    2.30
  12   5  -4    2.21    2.89
  12  -5  -4    1.92    1.81
  12   5  -4   -0.72    0.86
  12  -5  -4    1.63    1.75
  12   5  -3    8.25    2.79
  12  -5  -3   16.50    4.28
  12   5  -3   14.89    3.10
  12  -5  -3   14.39    3.75
  12   5  -2   14.43    3.13
  12  -5  -2   18.73    4.54
  12   5  -2   19.33    4.16
  12  -5  -2   22.41    5.08
  12   5  -1   22.69    4.21
  12  -5  -1   23.29    4.77
  12   5  -1   19.95    4.08
  12  -5  -1   21.75    4.53
  12   5   0   11.18    3.40
  12  -5   0   11.56    3.03
  12   5   0   10.57    3.09
  12  -5   0   12.03    3.64
  12   5   1   26.55    4.45
  12  -5   1   25.07    4.63
  12   5   1   18.53    4.03
  12  -5   1   15.22    3.66
  12  -5   2   25.74    5.05
  12   5   2   21.05    4.23
  12   5   2   17.75    4.04
  12  -5   2   17.32    4.04
  12   5   3   14.18    3.74
  12  -5   3    9.88    2.51
  12   5   3   17.25    4.05
  12  -5   3   11.14    3.70
  12   5   4    3.97    2.72
  12  -5   4    0.65    0.87
  12   5   4    0.80    0.90
  12  -5   4   -1.74    2.59
  12   5   5    0.58    2.15
  12  -5   5    1.04    2.14
  12   5   5    0.53    1.75
  12  -5   5    1.08    1.83
  12   5   6    1.17    2.09
  12  -5   6    0.35    1.50
  12   5   6    3.57    2.25
  12  -5   6    1.15    2.18
  12   5   7    4.69    2.80
  12  -5   7    9.32    3.09
  12   5   7    6.59    2.87
  12  -5   7    3.70    1.80
  12   5   8    0.77    1.90
  12  -5   8    3.22    2.11
  12   5   8    0.42    0.71
  12  -5   8   -0.13    1.88
  12   5   9   12.19    3.65
  12  -5   9   13.51    3.66
  12   5   9    6.96    2.14
  12  -5   9   10.22    2.78
  12   5  10   12.59    3.52
  12  -5  10   12.68    3.67
  12   5  10   16.47    3.74
  12  -5  10    4.34    1.76
  12   5  11    3.26    1.00
  12  -5  11    5.91    2.24
  12   5  11    3.25    2.27
  12  -5  11    3.58    2.49
  12   5  12    1.31    1.48
  12  -5  12    0.07    1.08
  12   5  12    2.00    1.69
  12  -5  12    1.95    1.90
  12   5  13    8.82    3.71
  12  -5  13   10.92    3.49
  12   5  13    7.48    2.16
  12  -5  13   11.67    3.99
  12   5  14    0.44    2.51
  12  -5  14   -0.35    1.44
  12   5  14   -0.85    1.95
  12  -5  14    0.20    2.19
  12   5  15    0.08    1.37
  12  -5  15   -0.40    1.77
  12   5  15    1.34    1.39
  12  -5  16   -0.79    1.67
  12   5  16   -1.18    2.43
  12  -5  17    7.89    3.85
  12   5  17    6.11    2.73
  12  -5  18   -1.93    2.30
  12   5  18    4.31    3.13
  12  -5  19    1.99    2.05
  12   5  19    5.14    2.56
  12   5  20   -1.42    2.17
  12   5  21    1.16    1.70
  12  -6 -19    6.70    2.90
  12  -6 -18    2.53    1.17
  12  -6 -18    1.53    2.06
  12   6 -18   -0.20    2.00
  12  -6 -17   10.02    3.76
  12  -6 -17    8.19    2.83
  12   6 -17   14.20    4.03
  12  -6 -16    4.83    3.66
  12  -6 -16    5.91    2.95
  12   6 -16   10.44    3.15
  12   6 -15    3.59    2.92
  12  -6 -15    1.69    2.58
  12  -6 -15    3.11    1.70
  12   6 -14   17.38    4.49
  12  -6 -14    9.80    3.47
  12  -6 -14   18.04    4.62
  12   6 -13   27.85    5.01
  12  -6 -13   46.61    6.96
  12  -6 -13   32.40    6.03
  12   6 -12   -1.42    2.00
  12  -6 -12    1.50    1.88
  12  -6 -12    1.67    1.29
  12  -6 -11    7.42    3.04
  12   6 -11   14.97    4.08
  12  -6 -11   12.34    3.93
  12  -6 -10   15.46    4.46
  12   6 -10   15.43    3.43
  12  -6 -10   26.36    5.39
  12  -6  -9   16.16    4.29
  12   6  -9   14.32    3.95
  12  -6  -9   15.95    4.15
  12  -6  -8   32.66    6.05
  12  -6  -8   26.11    5.23
  12   6  -8   36.66    6.36
  12  -6  -7   55.36    7.80
  12  -6  -7   75.08    8.53
  12   6  -7   54.03    7.04
  12   6  -6   15.72    4.03
  12  -6  -6    9.03    3.20
  12  -6  -6    8.41    3.47
  12   6  -5   14.44    3.60
  12  -6  -5    8.49    2.70
  12  -6  -5   17.26    4.11
  12  -6  -4   24.13    5.10
  12  -6  -4   36.60    5.99
  12   6  -4   41.70    6.03
  12  -6  -3   74.20    8.57
  12  -6  -3   72.76    8.47
  12   6  -3   65.47    7.79
  12   6  -3   49.59    6.72
  12   6  -2   36.82    5.29
  12  -6  -2   45.44    6.55
  12  -6  -2   52.92    7.46
  12   6  -2   55.78    6.97
  12   6  -1   15.78    4.51
  12  -6  -1   10.27    3.41
  12   6  -1   10.66    3.06
  12  -6  -1   16.93    4.58
  12   6   0    0.04    0.96
  12  -6   0    0.74    1.86
  12   6   0    0.11    1.89
  12  -6   0    1.23    1.14
  12   6   1   13.60    3.99
  12  -6   1    9.38    3.97
  12  -6   1    9.32    3.05
  12   6   1    9.01    2.81
  12   6   2   44.46    6.23
  12  -6   2   51.33    7.06
  12  -6   2   42.21    6.80
  12   6   2   54.06    7.14
  12   6   3   66.82    7.73
  12  -6   3   60.92    7.91
  12  -6   3   56.21    7.49
  12   6   3   55.51    7.30
  12   6   4   43.04    5.88
  12  -6   4   39.96    6.26
  12  -6   4   29.89    5.81
  12   6   4   49.27    6.92
  12   6   5   19.91    4.05
  12  -6   5   13.18    3.79
  12  -6   5   11.22    3.11
  12   6   5   14.24    3.17
  12   6   6   13.05    3.71
  12  -6   6    9.67    3.29
  12  -6   6   19.89    5.07
  12   6   6   14.25    3.44
  12   6   7   68.13    7.96
  12   6   7   68.34    7.94
  12  -6   7   56.99    7.38
  12  -6   7   61.91    8.04
  12   6   8   33.27    5.91
  12  -6   8   40.69    6.19
  12  -6   8   27.80    4.87
  12   6   8   27.79    4.67
  12   6   9   12.50    4.29
  12  -6   9   10.46    3.35
  12  -6   9   14.69    3.91
  12   6   9    8.40    2.73
  12   6  10   26.01    5.36
  12  -6  10   20.49    4.77
  12  -6  10   19.91    4.44
  12   6  10   14.01    3.50
  12   6  11    9.21    3.69
  12  -6  11   13.69    3.78
  12  -6  11   10.56    3.54
  12   6  11    9.40    3.48
  12   6  12    2.16    1.04
  12  -6  12    1.74    1.27
  12  -6  12    0.64    1.92
  12   6  12    0.01    2.04
  12  -6  13   32.57    6.30
  12   6  13   31.55    5.88
  12   6  13   28.39    5.46
  12  -6  13   26.35    5.77
  12   6  14   18.98    4.53
  12  -6  14   19.89    5.02
  12  -6  14   11.33    3.43
  12   6  14   17.89    4.28
  12   6  15    0.49    1.26
  12  -6  15    1.73    1.59
  12  -6  15   -1.81    2.49
  12   6  15    5.06    2.48
  12  -6  16    8.20    3.26
  12  -6  16   19.20    5.26
  12   6  16   11.00    3.62
  12  -6  17    6.92    3.88
  12   6  17    9.87    3.34
  12  -6  17    9.36    3.72
  12   6  18   -0.72    3.01
  12  -6  18    2.23    2.75
  12   6  19    7.71    3.30
  12  -6  19    6.75    3.57
  12   7 -17    4.34    3.08
  12  -7 -17   -2.80    1.39
  12  -7 -17    1.06    1.59
  12   7 -16   -1.50    2.01
  12  -7 -16    0.01    2.43
  12  -7 -16   -1.24    1.06
  12   7 -15    6.96    2.28
  12  -7 -15    7.15    2.44
  12  -7 -15    6.52    3.18
  12   7 -14    3.44    2.45
  12  -7 -14    3.69    2.99
  12  -7 -14    1.58    2.16
  12   7 -13   10.03    3.52
  12  -7 -13   13.43    4.23
  12  -7 -13    6.28    2.88
  12   7 -12    2.04    1.83
  12  -7 -12    6.62    3.16
  12  -7 -12    4.02    1.93
  12   7 -11    0.91    0.94
  12  -7 -11    2.21    2.55
  12  -7 -11    0.01    1.16
  12   7 -10    7.12    3.09
  12  -7 -10    2.64    3.32
  12  -7 -10    0.82    1.88
  12   7  -9   18.16    4.08
  12  -7  -9   24.52    5.54
  12  -7  -9   21.51    5.24
  12  -7  -8    4.19    2.05
  12   7  -8    4.10    2.13
  12  -7  -8    4.75    1.31
  12  -7  -7   13.47    3.94
  12   7  -7   14.56    3.85
  12  -7  -7    8.60    3.49
  12  -7  -6    3.49    1.22
  12   7  -6    3.36    2.55
  12  -7  -6    0.60    1.20
  12  -7  -5    0.36    1.51
  12   7  -5    0.57    1.53
  12  -7  -5    1.50    1.13
  12  -7  -4    7.63    3.02
  12   7  -4   10.01    2.96
  12  -7  -4    9.19    4.14
  12  -7  -3    4.98    2.22
  12   7  -3    6.04    2.71
  12  -7  -3    3.86    2.04
  12  -7  -2    2.22    1.72
  12   7  -2    3.85    3.21
  12  -7  -2    1.71    2.02
  12   7  -2    3.80    1.70
  12  -7  -1   12.72    3.98
  12   7  -1   12.92    3.89
  12  -7  -1   14.28    3.68
  12   7  -1   11.86    3.55
  12   7   0   14.99    4.16
  12  -7   0    6.46    2.82
  12  -7   0    5.40    1.86
  12   7   0   11.52    3.92
  12   7   1   14.43    4.29
  12  -7   1   17.14    4.15
  12  -7   1   11.09    3.32
  12   7   1   11.70    3.72
  12   7   2    5.35    2.69
  12  -7   2    1.09    1.95
  12  -7   2    3.13    2.03
  12   7   2    4.03    2.37
  12   7   3    6.55    2.27
  12  -7   3    6.56    3.06
  12  -7   3    8.67    3.18
  12   7   3    9.54    3.37
  12   7   4   12.75    3.63
  12  -7   4   17.57    4.14
  12  -7   4   15.67    4.31
  12   7   4   11.50    3.55
  12   7   5    0.36    2.03
  12  -7   5    3.60    2.41
  12  -7   5   -1.63    2.08
  12   7   5    1.56    2.08
  12   7   6    5.53    2.43
  12  -7   6    2.66    1.60
  12  -7   6    3.04    2.53
  12   7   6    2.72    1.40
  12   7   7    8.67    3.22
  12  -7   7    9.85    3.78
  12  -7   7    8.39    3.79
  12   7   7    7.11    3.05
  12   7   8    5.09    2.06
  12  -7   8    7.95    3.76
  12  -7   8    4.67    2.58
  12   7   8    6.22    3.20
  12   7   9   24.93    5.07
  12  -7   9   19.00    5.33
  12  -7   9   19.14    4.34
  12   7   9   18.68    4.13
  12   7  10    2.60    2.46
  12  -7  10   12.32    4.28
  12  -7  10    4.95    3.59
  12   7  10    6.43    2.94
  12   7  11    0.28    1.59
  12  -7  11   -0.69    2.17
  12  -7  11    0.11    1.74
  12   7  11   -0.03    1.79
  12   7  12    3.67    1.63
  12  -7  12   -0.38    1.62
  12   7  12    3.89    2.30
  12   7  13   10.79    3.61
  12  -7  13   11.05    4.09
  12  -7  13    4.92    3.49
  12   7  13    2.08    1.86
  12   7  14    0.74    1.90
  12  -7  14    2.08    3.24
  12  -7  14   -0.10    2.63
  12   7  14    0.44    1.87
  12   7  15   10.66    4.32
  12  -7  15   11.19    4.22
  12   7  15    9.88    3.95
  12  -7  16    7.00    3.91
  12   7  16    0.05    1.39
  12   7  17    3.40    2.56
  12   8 -14    0.56    1.22
  12  -8 -14    1.29    2.61
  12  -8 -14    0.13    2.34
  12  -8 -13   13.61    3.92
  12  -8 -13    8.78    3.36
  12   8 -12    9.27    3.66
  12  -8 -12   15.24    4.56
  12  -8 -12    5.11    2.59
  12   8 -11    3.53    1.98
  12  -8 -11    2.63    2.39
  12  -8 -11    1.68    1.20
  12   8 -10    6.09    3.02
  12  -8 -10    1.18    0.97
  12  -8 -10    4.56    3.46
  12   8  -9    5.73    2.68
  12  -8  -9    2.31    2.42
  12  -8  -9    7.88    2.84
  12   8  -8    1.83    2.21
  12  -8  -8    4.69    2.66
  12  -8  -8    3.27    1.21
  12   8  -7   10.00    2.82
  12  -8  -7   12.57    4.25
  12  -8  -7    5.90    3.04
  12   8  -6    8.49    3.21
  12  -8  -6    4.97    2.04
  12  -8  -6    4.54    2.69
  12  -8  -5    0.59    1.30
  12   8  -5    0.83    1.16
  12  -8  -5    0.42    1.74
  12  -8  -4    3.26    1.13
  12   8  -4    2.64    2.05
 -12   8  -4    2.35    2.56
  12  -8  -4    3.04    2.25
  12  -8  -3   15.63    4.35
 -12   8  -3    8.68    3.39
  12  -8  -3   13.04    3.36
  12  -8  -2    5.59    2.89
  12   8  -2    9.53    3.18
 -12   8  -2    3.90    2.42
  12  -8  -2    3.46    1.48
  12  -8  -1    0.40    2.08
  12   8  -1    4.26    2.86
  12  -8  -1    2.97    2.69
  12   8  -1    0.33    1.80
  12  -8   0    1.81    2.26
  12   8   0    1.22    2.52
  12  -8   0   -0.09    1.23
  12   8   0    2.27    2.12
  12  -8   1    4.19    2.42
  12   8   1   -1.32    2.03
  12  -8   1    0.80    2.44
  12   8   1    2.29    2.46
  12  -8   2    1.87    1.35
  12   8   2    8.47    3.10
  12  -8   2    6.33    3.30
  12   8   2    3.61    2.84
  12   8   3    9.14    3.49
  12  -8   3   20.94    4.61
  12   8   3   17.57    4.11
  12  -8   3   14.41    3.91
  12   8   4    3.36    1.78
  12  -8   4    4.47    1.68
  12   8   4    6.51    2.52
  12  -8   4    5.04    2.15
  12   8   5   -0.32    1.83
  12  -8   5    1.29    2.58
  12   8   5   -4.52    3.19
  12  -8   5    0.99    2.18
  12   8   6    2.24    1.60
  12   8   6    2.51    1.56
  12  -8   6   -0.43    1.70
  12   8   7   14.30    4.19
  12  -8   7    9.37    3.45
  12   8   7    9.50    3.82
  12  -8   7   12.52    4.12
  12   8   8    3.96    2.82
  12  -8   8    2.42    1.99
  12   8   8    2.44    3.18
  12  -8   8    0.17    2.50
  12   8   9   11.27    3.83
  12  -8   9    5.61    3.34
  12   8   9   12.50    4.55
  12  -8   9    6.33    2.76
  12   8  10    8.04    3.28
  12  -8  10    5.22    2.42
  12   8  10    3.75    3.66
  12   8  11    4.02    3.04
  12  -8  11   -0.01    1.81
  12   8  11    2.24    3.46
  12   8  12   11.46    3.59
  12  -8  12    8.38    4.11
  12   8  12    0.43    3.90
  12   8  13   14.46    4.25
  12  -8  13   16.07    3.99
  12   8  13    9.63    4.31
  12   8  14    4.04    2.90
  12  -8  14    1.40    1.83
  12   8  14   -2.70    3.19
  12   9  -8   -1.53    2.21
  12  -9  -8   -0.74    1.80
  12  -9  -8   -0.24    0.91
  12   9  -7    1.94    2.39
  12  -9  -7    3.23    2.42
  12  -9  -7    1.95    2.44
  12   9  -6    1.93    2.58
  12  -9  -6   -1.97    2.32
  12  -9  -6    1.90    2.10
  12   9  -5    2.97    1.91
  12  -9  -5    0.58    1.48
  12  -9  -5    2.03    2.17
  12   9  -4    3.26    2.31
 -12   9  -4    0.48    1.78
  12  -9  -4   -2.66    2.82
  12  -9  -4    2.55    2.25
  12   9  -3    5.55    3.26
 -12   9  -3   10.00    3.79
  12  -9  -3   11.17    3.86
  12  -9  -3    9.82    4.15
  12   9  -2    2.17    3.08
 -12   9  -2    1.61    1.76
  12  -9  -2    0.54    2.08
  12  -9  -2    3.28    3.09
  12   9  -1    0.57    1.34
 -12   9  -1    1.69    2.44
  12  -9  -1    0.73    1.91
  12  -9  -1    0.75    1.73
  12  -9   0   -1.71    1.53
  12   9   0   -0.01    2.47
 -12   9   0    2.84    1.78
  12  -9   0    4.14    3.53
  12  -9   1    2.94    2.37
  12   9   1   -0.38    1.77
 -12   9   1    3.39    2.93
  12  -9   1   -1.83    3.19
  12   9   1    1.08    1.41
  12  -9   2    0.36    1.23
  12   9   2    0.39    1.45
  12   9   2   -0.80    1.24
 -12   9   2    3.85    3.38
  12  -9   2   -2.81    2.73
  12   9   3    4.04    2.77
  12   9   3    6.38    2.69
 -12   9   3    7.61    3.22
  12  -9   4    2.64    2.56
  12   9   4    1.00    2.61
  12   9   4   -1.01    1.34
 -12   9   4   -0.52    1.65
  12  -9   5   -1.27    2.71
  12   9   5    4.91    2.82
  12   9   5    3.02    3.46
 -12   9   5   -1.86    2.48
  12  -9   6   -0.25    1.09
  12   9   6   -0.33    2.07
  12   9   6    3.23    2.74
 -12   9   6    1.88    1.11
  12  -9   7    3.42    2.19
  12   9   7    3.19    2.28
  12   9   7    1.05    2.61
 -12   9   7    5.14    2.59
  12  -9   8    1.03    1.88
  12   9   8    0.89    1.49
  12   9   8   -0.30    1.56
 -12   9   8    2.88    1.87
  13   0 -22    0.74    3.09
  13   0 -21    3.46    3.11
  13   0 -20   -2.83    2.10
  13   0 -19   -0.08    2.07
  13   0 -18    1.55    2.75
  13   0 -17   -1.19    1.50
  13   0 -16   -0.34    1.43
  13   0 -15   -0.15    1.19
  13   0 -14   -0.20    1.17
  13   0 -13   -0.42    1.64
  13   0 -12   -0.17    1.21
  13   0 -11   -0.55    1.37
  13   0 -11   -0.01    0.92
  13   0 -10    0.75    1.06
  13   0 -10   -0.65    1.18
  13   0  -9    2.37    2.62
  13   0  -9    0.06    1.24
  13   0  -8   -0.76    1.48
  13   0  -8    0.49    0.97
  13   0  -7   -0.29    1.76
  13   0  -7    0.31    1.12
  13   0  -6   -0.36    1.31
  13   0  -6   -1.17    1.56
  13   0  -5    0.33    1.02
  13   0  -5    0.41    1.22
  13   0  -4    0.08    0.73
  13   0  -4    0.29    1.13
  13   0  -3   -1.32    1.42
  13   0  -3    0.33    1.83
  13   0  -3    1.96    1.60
  13   0  -2    0.53    1.76
  13   0  -2   -0.87    1.90
  13   0  -2   -0.91    1.12
  13   0  -1   -0.21    0.93
  13   0  -1   -0.09    1.15
  13   0  -1    0.87    1.95
  13   0   0   -0.13    1.24
  13   0   0    1.51    1.57
  13   0   0    1.75    1.67
  13   0   1   -0.19    1.83
  13   0   1    1.36    2.01
  13   0   1    0.63    1.26
  13   0   2   -1.08    1.73
  13   0   2    0.99    1.51
  13   0   2    2.04    2.52
  13   0   3   -0.02    1.02
  13   0   3   -1.25    1.35
  13   0   3    1.57    2.18
  13   0   4   -0.04    0.83
  13   0   4   -0.23    1.37
  13   0   5   -0.01    1.13
  13   0   5    0.57    1.64
  13   0   6    0.65    1.93
  13   0   6    0.47    0.81
  13   0   7   -0.23    0.78
  13   0   7    1.17    1.32
  13   0   8   -0.49    1.17
  13   0   8    0.80    1.78
  13   0   9   -0.26    0.85
  13   0   9    1.50    1.46
  13   0  10    1.85    2.29
  13   0  11   -0.41    1.07
  13   0  12    2.25    2.33
  13   0  13   -0.19    1.61
  13   0  14    0.20    1.53
  13   0  15    0.91    1.73
  13   0  16    0.14    2.41
  13   0  17   -1.37    1.85
  13   0  18    1.10    1.61
  13   0  19    0.65    2.40
  13   0  20   -0.44    1.23
  13   0  21   -0.33    1.50
  13   0  22    2.62    3.14
  13   0  23    1.78    1.23
  13   0  24   -2.08    2.41
  13  -1 -24    2.29    2.93
  13  -1 -23    0.80    2.34
  13  -1 -22    5.49    2.65
  13  -1 -21   21.37    4.96
  13  -1 -20   26.78    5.31
  13  -1 -19    3.00    2.34
  13   1 -18   -2.03    1.46
  13  -1 -18    3.14    1.85
  13   1 -17    6.87    2.59
  13  -1 -17    8.23    3.34
  13   1 -16   46.75    6.47
  13  -1 -16   36.35    6.09
  13   1 -15   13.08    3.42
  13  -1 -15   14.70    3.84
  13  -1 -14   39.11    5.99
  13   1 -14   30.61    5.02
  13   1 -13    2.85    1.13
  13  -1 -13    7.11    2.66
  13  -1 -12   21.59    4.55
  13  -1 -12   26.54    5.35
  13   1 -12   20.91    4.58
  13  -1 -11    0.74    1.64
  13  -1 -11    0.86    1.15
  13   1 -11    0.56    1.36
  13  -1 -10   70.96    7.63
  13   1 -10   62.98    7.46
  13  -1 -10   54.39    7.17
  13   1 -10   58.11    7.30
  13   1 -10   57.49    6.86
  13  -1  -9   61.16    7.22
  13   1  -9   63.15    6.83
  13  -1  -9   51.37    6.71
  13   1  -9   54.23    6.92
  13  -1  -8    3.35    2.13
  13   1  -8    3.28    1.79
  13  -1  -8    0.96    0.94
  13   1  -8    1.58    1.20
  13   1  -8    5.10    2.37
  13  -1  -7   12.72    3.11
  13   1  -7   15.57    3.24
  13  -1  -7   12.27    3.35
  13   1  -7   11.57    2.97
  13   1  -7    9.91    3.42
  13  -1  -6   39.05    5.62
  13   1  -6   35.31    5.43
  13  -1  -6   33.53    5.10
  13   1  -6   45.78    6.14
  13   1  -6   38.68    5.59
  13  -1  -5  156.45   11.31
  13   1  -5  157.16   10.94
  13  -1  -5  155.99   11.45
  13   1  -5  151.37   11.03
  13   1  -5  149.43   10.77
  13   1  -4   21.01    4.19
  13  -1  -4   17.56    3.98
  13  -1  -4   25.26    4.90
  13   1  -4   14.81    3.83
  13   1  -4   13.96    2.92
  13  -1  -3   41.76    5.81
  13   1  -3   49.91    6.45
  13  -1  -3   48.73    6.47
  13   1  -3   52.90    6.56
  13   1  -3   57.39    6.52
  13  -1  -2   62.10    7.25
  13   1  -2   61.46    7.04
  13  -1  -2   72.41    8.09
  13   1  -2   61.75    7.01
  13   1  -2   50.76    6.31
  13  -1  -1   21.53    4.45
  13   1  -1   22.14    4.20
  13  -1  -1   25.52    4.37
  13   1  -1   14.20    3.26
  13   1  -1   20.75    4.25
  13  -1   0  621.90   22.15
  13   1   0  587.88   21.39
  13  -1   0  612.53   22.39
  13   1   0  590.77   21.92
  13   1   0  636.71   21.56
  13  -1   1   23.91    4.53
  13   1   1   26.93    4.83
  13  -1   1   19.60    4.12
  13   1   1   25.75    4.70
  13   1   1   22.55    4.10
  13  -1   2   52.37    6.49
  13   1   2   59.28    6.93
  13  -1   2   57.00    7.12
  13   1   2   58.09    6.74
  13   1   2   45.67    5.89
  13  -1   3   70.31    7.61
  13   1   3   56.23    6.61
  13  -1   3   57.30    6.93
  13   1   3   45.92    5.68
  13   1   4   17.24    3.89
  13  -1   4   20.99    4.07
  13  -1   4   23.62    4.63
  13   1   4   21.55    3.89
  13  -1   5  175.24   12.02
  13   1   5  153.25   11.07
  13   1   5  149.03   10.47
  13  -1   6   34.60    5.47
  13   1   6   46.60    6.22
  13   1   6   30.87    4.86
  13   1   7   13.20    3.46
  13  -1   7   11.64    3.29
  13   1   7    7.51    2.48
  13   1   8    3.38    1.86
  13  -1   8    3.31    2.54
  13   1   8    4.03    1.48
  13  -1   9   54.17    6.79
  13   1   9   63.72    7.21
  13   1   9   58.43    6.72
  13  -1  10   64.74    7.35
  13   1  10   57.41    7.04
  13   1  10   50.33    6.15
  13   1  11    3.09    1.94
  13  -1  11    0.55    1.12
  13   1  11    1.38    0.93
  13   1  12   26.08    4.72
  13  -1  12   25.10    5.10
  13   1  12   23.41    4.17
  13   1  13    2.18    1.59
  13  -1  13    0.04    1.87
  13  -1  14   38.87    5.99
  13   1  14   42.98    6.23
  13   1  15   14.16    3.99
  13  -1  15   16.39    4.11
  13  -1  16   47.93    6.94
  13   1  16   43.09    6.78
  13   1  17    6.74    2.78
  13  -1  17    3.93    2.49
  13   1  18    0.75    1.46
  13  -1  18    2.00    2.19
  13   1  19    2.45    3.07
  13  -1  19    0.85    1.67
  13   1  20   30.64    5.69
  13  -1  20   33.36    6.48
  13   1  21   22.05    5.39
  13  -1  21   13.76    3.94
  13   1  22    6.04    2.44
  13  -1  22    1.78    2.32
  13   1  23   -0.11    1.63
  13  -1  23    2.76    2.90
  13   1  24    1.59    1.33
  13  -1  24    1.50    1.76
  13  -2 -23    5.65    1.49
  13  -2 -22   -0.76    1.20
  13  -2 -21    3.15    2.14
  13  -2 -20    4.15    2.34
  13  -2 -19    1.87    2.37
  13  -2 -18   -1.23    1.58
  13  -2 -17   22.99    4.75
  13  -2 -16    0.24    1.56
  13  -2 -15    0.49    0.75
  13   2 -15    2.31    2.53
  13  -2 -14   -2.06    1.41
  13  -2 -14    2.81    1.92
  13   2 -14    2.37    1.63
  13  -2 -13    2.03    0.86
  13  -2 -13    3.67    2.50
  13   2 -13    4.49    1.15
  13  -2 -12   15.72    4.25
  13   2 -12   23.16    4.83
  13  -2 -12   14.09    3.97
  13   2 -12   18.84    3.80
  13   2 -11   64.68    7.45
  13  -2 -11   73.19    8.30
  13   2 -11   64.10    7.42
  13  -2 -11   51.20    6.95
  13  -2 -10    7.41    2.86
  13  -2 -10    4.04    2.06
  13   2 -10    2.31    1.58
  13   2 -10    4.29    1.89
  13  -2  -9    3.34    2.03
  13  -2  -9    1.47    2.36
  13   2  -9    3.37    2.31
  13   2  -9    5.70    1.95
  13  -2  -8   26.48    5.02
  13   2  -8   26.21    4.36
  13   2  -8   28.98    4.91
  13  -2  -8   19.70    4.52
  13   2  -8   22.94    4.25
  13  -2  -7   17.40    3.30
  13  -2  -7   16.44    3.48
  13   2  -7   17.37    3.80
  13   2  -7   21.56    3.92
  13   2  -7   12.23    3.52
  13  -2  -6    1.28    1.21
  13  -2  -6    1.54    1.95
  13   2  -6    1.71    0.80
  13   2  -6   -0.53    1.43
  13   2  -6    1.24    1.43
  13  -2  -5    0.04    0.72
  13  -2  -5   -0.49    1.34
  13   2  -5    0.91    1.92
  13   2  -5    0.33    1.31
  13   2  -5    0.42    1.37
  13  -2  -4   12.84    3.43
  13  -2  -4   11.82    3.38
  13   2  -4    8.23    3.20
  13   2  -4   13.12    3.20
  13   2  -4    6.32    1.91
  13  -2  -3   35.11    5.32
  13   2  -3   29.63    5.00
  13  -2  -3   32.77    5.27
  13   2  -3   32.49    4.90
  13   2  -3   30.62    5.09
  13   2  -2   14.08    3.40
  13  -2  -2    8.66    2.12
  13  -2  -2   14.87    3.47
  13   2  -2   11.41    2.75
  13   2  -2    9.62    2.83
  13   2  -1   15.51    3.47
  13  -2  -1   18.26    4.21
  13  -2  -1   14.32    3.80
  13   2  -1   11.84    2.74
  13   2  -1    6.69    2.19
  13  -2   0  236.97   14.10
  13   2   0  241.35   13.57
  13  -2   0  259.61   15.12
  13   2   0  253.89   14.21
  13   2   0  280.89   14.64
  13   2   1   10.48    2.97
  13  -2   1   10.63    3.41
  13  -2   1   11.65    3.47
  13   2   1   15.88    3.47
  13   2   1   13.22    3.24
  13   2   2   15.58    3.57
  13  -2   2   18.68    4.19
  13  -2   2   15.89    3.90
  13   2   2   11.90    3.04
  13  -2   3   33.05    5.08
  13   2   3   29.22    4.98
  13  -2   3   24.12    4.85
  13   2   3   35.59    5.31
  13   2   4    2.42    1.91
  13  -2   4    9.96    2.73
  13  -2   4   10.65    2.53
  13   2   4    5.71    1.93
  13   2   5    1.46    1.59
  13  -2   5    0.62    1.30
  13  -2   5    0.33    1.22
  13   2   5   -2.09    1.65
  13   2   6   -1.11    1.23
  13  -2   6    0.72    1.45
  13  -2   6    1.60    1.51
  13   2   6   -1.00    1.69
  13   2   7   14.22    3.57
  13  -2   7   22.82    4.63
  13   2   7   13.56    3.23
  13  -2   8   24.76    4.70
  13   2   8   27.80    4.87
  13   2   8   25.47    4.51
  13   2   9    5.98    2.38
  13  -2   9    3.37    2.15
  13   2   9    6.67    2.57
  13   2  10    6.53    2.86
  13  -2  10    7.73    3.07
  13   2  10    3.01    2.13
  13  -2  11   60.22    7.16
  13   2  11   55.96    7.17
  13   2  11   63.60    7.23
  13   2  12   20.02    4.25
  13  -2  12   20.04    4.33
  13   2  12   19.45    3.71
  13   2  13    2.80    1.75
  13  -2  13    4.71    2.43
  13   2  13    3.83    2.14
  13   2  14    4.48    2.37
  13  -2  14    1.68    2.18
  13   2  15    0.89    1.90
  13  -2  15   -0.97    1.85
  13   2  16    3.56    2.19
  13  -2  16    7.64    3.18
  13   2  17   17.45    4.13
  13  -2  17   24.65    5.09
  13   2  18   -0.01    1.53
  13  -2  18    3.98    2.71
  13   2  19    0.36    2.02
  13  -2  19   -0.05    1.55
  13   2  20    0.72    1.17
  13  -2  20    5.58    2.98
  13   2  21    7.96    3.56
  13  -2  21    6.12    2.63
  13   2  22    2.33    1.88
  13  -2  22    2.59    2.04
  13   2  23    7.15    3.43
  13  -2  23   -0.62    2.61
  13  -3 -23    2.49    2.02
  13  -3 -22   11.65    3.95
  13  -3 -21    1.73    1.56
  13  -3 -20    6.81    2.61
  13  -3 -19    3.23    1.40
  13  -3 -18    2.40    0.96
  13   3 -18    0.57    1.42
  13  -3 -17    0.63    1.17
  13   3 -17    5.02    2.25
  13  -3 -16   69.76    8.66
  13   3 -16   92.13    9.59
  13  -3 -15   17.00    4.72
  13  -3 -15    6.17    2.82
  13   3 -15    9.99    3.65
  13  -3 -14   54.43    7.45
  13  -3 -14   44.98    6.85
  13   3 -14   41.04    6.21
  13  -3 -13    9.01    3.13
  13  -3 -13    7.79    2.82
  13   3 -13    9.34    2.99
  13  -3 -12   59.93    7.89
  13  -3 -12   62.48    8.11
  13   3 -12   55.55    7.17
  13  -3 -11    0.35    1.68
  13  -3 -11    1.95    2.05
  13   3 -11    0.93    0.88
  13  -3 -10  143.58   11.47
  13   3 -10  150.28   11.25
  13  -3 -10  147.57   11.88
  13  -3  -9   18.13    4.19
  13  -3  -9   14.24    4.07
  13   3  -9   11.69    3.50
  13  -3  -8   14.09    4.02
  13  -3  -8   20.16    4.82
  13   3  -8   21.43    4.35
  13  -3  -7   15.48    3.94
  13  -3  -7   17.27    4.29
  13   3  -7   16.67    3.50
  13   3  -7   13.48    3.52
  13  -3  -6   29.81    5.00
  13   3  -6   34.01    5.30
  13  -3  -6   42.52    5.93
  13   3  -6   29.67    4.61
  13   3  -6   22.21    4.79
  13   3  -5    5.78    2.35
  13   3  -5    2.61    2.34
  13  -3  -5    4.77    3.02
  13  -3  -5    7.78    2.84
  13   3  -5    4.54    1.81
  13  -3  -4  107.62    9.88
  13   3  -4  108.90    9.23
  13  -3  -4  112.79   10.06
  13   3  -4  126.88   10.02
  13   3  -4  126.50   10.24
  13   3  -3   11.81    2.95
  13   3  -3   11.10    2.98
  13  -3  -3    8.19    3.24
  13  -3  -3   10.37    3.67
  13   3  -3   15.07    3.48
  13   3  -2    0.90    1.37
  13   3  -2    0.69    1.08
  13  -3  -2    1.23    1.27
  13  -3  -2    1.33    1.53
  13   3  -2   -0.60    1.10
  13   3  -1   19.12    3.92
  13   3  -1   13.40    3.30
  13  -3  -1   11.28    3.30
  13  -3  -1   13.52    3.14
  13   3  -1   15.61    3.52
  13  -3   0   43.96    6.00
  13  -3   0   45.34    6.31
  13   3   0   41.87    5.58
  13   3   0   38.38    5.60
  13   3   0   45.89    6.11
  13   3   1   15.08    3.64
  13   3   1   13.26    3.27
  13  -3   1   11.73    2.93
  13  -3   1    9.46    3.11
  13   3   1   14.30    3.26
  13   3   2    0.71    1.70
  13   3   2    0.50    0.73
  13  -3   2   -0.59    1.76
  13  -3   2    0.03    1.26
  13   3   3   12.70    3.38
  13   3   3    8.45    3.06
  13  -3   3   11.67    3.19
  13  -3   3   10.73    2.92
  13  -3   4  101.81    9.48
  13  -3   4  123.53   10.23
  13   3   4  116.42    9.81
  13   3   4   99.58    9.15
  13   3   5    5.06    2.21
  13   3   5    2.46    1.82
  13  -3   5    3.62    2.18
  13  -3   5    1.24    1.44
  13   3   6   27.85    4.62
  13  -3   6   26.75    5.05
  13  -3   6   24.82    4.42
  13   3   6   27.74    4.70
  13   3   7   13.46    3.18
  13   3   7   11.45    3.61
  13  -3   7   12.30    3.33
  13  -3   7   11.97    3.27
  13   3   8   20.06    4.37
  13  -3   8   25.64    4.80
  13  -3   8   21.89    4.40
  13   3   8   26.86    5.11
  13   3   9    9.27    2.66
  13   3   9   14.41    3.84
  13  -3   9    9.75    2.91
  13  -3  10  149.40   11.80
  13   3  10  141.34   11.28
  13   3  10  138.11   10.85
  13   3  11    1.41    1.63
  13   3  11    0.30    1.33
  13  -3  11    0.68    1.07
  13  -3  12   58.27    7.56
  13   3  12   52.53    7.25
  13   3  12   65.61    7.61
  13   3  13   11.22    3.16
  13   3  13    5.93    2.56
  13  -3  13    7.76    2.15
  13  -3  14   43.24    6.77
  13   3  14   46.04    6.68
  13   3  15    7.93    3.56
  13  -3  15    5.31    2.68
  13  -3  16   79.12    9.19
  13   3  16   88.69    9.51
  13   3  17    1.04    1.40
  13  -3  17    5.28    3.16
  13   3  18    5.72    3.33
  13  -3  18    5.97    3.03
  13   3  19    2.64    2.77
  13  -3  19    4.31    1.58
  13   3  20   14.43    4.70
  13  -3  20   13.84    4.20
  13   3  21    1.55    1.27
  13  -3  21    0.41    1.45
  13   3  22   13.68    3.70
  13   3  23    3.37    2.62
  13  -4 -22   -1.94    1.89
  13  -4 -21    5.75    3.31
  13  -4 -20    1.81    2.13
  13   4 -20   14.31    5.06
  13  -4 -19    3.76    2.11
  13   4 -19    5.20    2.73
  13  -4 -18    1.26    2.52
  13   4 -18   -1.21    1.84
  13  -4 -17    2.27    1.47
  13   4 -17    8.61    2.21
  13  -4 -16    1.82    1.56
  13   4 -16   -0.37    1.22
  13  -4 -15    9.97    3.59
  13  -4 -15    8.03    3.07
  13   4 -15    6.82    2.71
  13  -4 -14   -1.18    1.75
  13  -4 -14   -0.07    1.81
  13   4 -14    1.95    2.25
  13  -4 -13   -0.61    0.81
  13  -4 -13    1.05    2.29
  13   4 -13    1.73    1.36
  13  -4 -12    0.31    1.69
  13  -4 -12    1.81    2.35
  13   4 -12    2.79    1.19
  13  -4 -11   -1.64    1.85
  13  -4 -11    0.59    0.84
  13   4 -11   -0.81    1.49
  13  -4 -10    0.93    1.71
  13  -4 -10    4.40    2.41
  13   4 -10    1.70    1.84
  13  -4  -9   64.53    7.94
  13   4  -9   66.89    7.55
  13  -4  -9   64.18    7.87
  13   4  -8    1.67    1.67
  13  -4  -8    1.66    1.48
  13  -4  -8    0.73    2.26
  13  -4  -7    2.39    0.83
  13  -4  -7    5.89    2.88
  13  -4  -6   33.74    5.71
  13   4  -6   35.95    5.76
  13   4  -6   33.55    5.70
  13  -4  -6   28.62    5.33
  13   4  -5    0.60    1.10
  13   4  -5    3.36    1.31
  13  -4  -5    1.89    0.88
  13  -4  -5    0.07    1.24
  13   4  -4   12.10    4.08
  13   4  -4   17.36    3.59
  13  -4  -4   11.05    3.39
  13  -4  -4    7.10    2.89
  13   4  -3   -0.50    0.94
  13   4  -3    3.17    1.90
  13  -4  -3    1.69    1.72
  13  -4  -3    0.92    1.45
  13  -4  -2   66.08    7.94
  13  -4  -2   47.06    6.57
  13   4  -2   67.17    7.38
  13   4  -2   78.20    8.20
  13  -4  -1   40.72    6.34
  13  -4  -1   31.90    5.56
  13   4  -1   38.19    5.38
  13   4  -1   33.32    5.35
  13   4   0    0.62    1.49
  13  -4   0    0.34    1.05
  13   4   0    1.43    1.93
  13  -4   0    1.49    2.15
  13   4   0    2.59    2.41
  13  -4   1   22.38    4.69
  13  -4   1   35.33    5.95
  13   4   1   34.69    5.44
  13   4   1   34.92    5.15
  13  -4   2   62.50    7.88
  13  -4   2   71.91    8.16
  13   4   2   62.96    7.18
  13   4   2   74.56    7.88
  13   4   3    3.28    2.47
  13  -4   3    1.97    1.01
  13   4   3   -0.32    1.93
  13  -4   3    2.31    2.49
  13  -4   4    8.97    2.86
  13   4   4    7.11    2.40
  13  -4   4   11.37    3.05
  13   4   5    3.11    2.28
  13  -4   5   -0.17    1.68
  13   4   5    2.28    0.69
  13  -4   5   -0.28    2.41
  13  -4   6   38.39    6.05
  13  -4   6   31.92    5.60
  13   4   6   37.07    5.76
  13   4   6   42.14    6.22
  13   4   7    5.40    2.68
  13  -4   7    8.65    3.22
  13   4   7    7.75    3.13
  13  -4   7    9.23    3.80
  13   4   8    0.01    1.97
  13  -4   8    0.56    1.33
  13   4   8    1.63    1.51
  13  -4   8   -0.79    1.26
  13  -4   9   63.66    7.95
  13  -4   9   57.95    7.59
  13   4   9   46.73    6.78
  13   4   9   62.26    7.56
  13   4  10    3.84    2.69
  13  -4  10    4.18    1.59
  13   4  10    0.85    1.34
  13  -4  10    0.83    1.84
  13   4  11    3.33    2.31
  13  -4  11    1.58    2.52
  13   4  11    0.67    0.91
  13  -4  11    1.01    2.40
  13   4  12    4.41    3.29
  13  -4  12    1.57    1.23
  13   4  12    4.02    2.52
  13   4  13    0.59    1.53
  13  -4  13    0.59    0.94
  13   4  13    0.17    1.56
  13   4  14    1.02    1.36
  13  -4  14    1.77    2.14
  13   4  14    1.45    1.59
  13  -4  15    8.71    3.80
  13   4  15    5.60    1.96
  13  -4  16    2.45    3.04
  13   4  16    2.29    2.71
  13  -4  17   10.19    3.89
  13   4  17    7.97    2.55
  13  -4  18    2.43    2.69
  13   4  18    0.95    1.68
  13   4  19    2.09    2.17
  13  -4  19    3.69    2.42
  13   4  20   -0.50    1.66
  13  -4  20    0.14    1.61
  13   4  21    3.47    2.89
  13   4  22    1.15    1.07
  13  -5 -20    4.13    1.38
  13  -5 -19    3.06    2.59
  13   5 -19   -1.01    2.20
  13  -5 -18    3.48    2.68
  13   5 -18    0.99    1.46
  13  -5 -17    5.41    1.72
  13   5 -17    6.08    3.59
  13  -5 -16   10.23    2.97
  13  -5 -16    4.60    2.42
  13   5 -16    9.59    3.23
  13  -5 -15    3.78    3.11
  13  -5 -15    6.03    3.00
  13   5 -15    2.68    2.30
  13  -5 -14   11.38    3.94
  13   5 -14    3.55    2.50
  13  -5 -14    5.03    2.81
  13  -5 -13    0.51    1.72
  13  -5 -13    0.10    1.50
  13   5 -13    1.78    1.77
  13   5 -12    6.21    2.32
  13  -5 -12    7.09    2.83
  13  -5 -12    7.00    3.11
  13   5 -11   15.77    3.79
  13  -5 -11   15.08    4.00
  13  -5 -11   15.33    4.11
  13   5 -10    9.65    3.10
  13  -5 -10   11.41    3.83
  13  -5 -10    9.75    3.18
  13   5  -9    3.93    2.73
  13  -5  -9    1.61    0.86
  13  -5  -9    3.63    2.99
  13   5  -8    0.15    1.79
  13  -5  -8   -0.42    1.32
  13  -5  -8    3.33    2.60
  13   5  -7   14.78    4.00
  13  -5  -7   19.85    4.08
  13  -5  -7   15.80    4.21
  13  -5  -6   35.14    5.85
  13  -5  -6   42.25    6.57
  13   5  -6   44.52    6.23
  13   5  -5    9.99    3.66
  13  -5  -5    5.17    2.22
  13  -5  -5    8.53    3.46
  13  -5  -4   45.51    6.72
  13   5  -4   40.58    5.88
  13   5  -4   43.30    6.22
  13  -5  -4   44.66    6.69
  13  -5  -3   21.96    5.12
  13   5  -3   13.98    3.58
  13  -5  -3   19.66    4.05
  13   5  -3   24.63    5.02
  13  -5  -2   63.69    7.98
  13   5  -2   64.12    7.36
  13   5  -2   68.63    7.87
  13  -5  -2   64.61    7.90
  13  -5  -1   41.01    6.29
  13   5  -1   48.90    6.61
  13  -5  -1   53.11    7.02
  13   5   0   11.14    3.02
  13  -5   0   13.52    3.65
  13   5   0   13.21    3.50
  13  -5   0   21.02    4.83
  13  -5   1   45.02    6.56
  13  -5   1   59.63    7.74
  13   5   1   47.61    6.26
  13   5   1   41.31    5.83
  13  -5   2   64.78    7.79
  13  -5   2   57.13    7.40
  13   5   2   62.86    7.57
  13   5   3   24.62    4.57
  13  -5   3   21.60    4.52
  13   5   3   20.12    4.21
  13  -5   3   26.49    4.90
  13   5   4   41.09    6.19
  13  -5   4   33.26    5.44
  13  -5   4   43.73    6.98
  13   5   4   41.52    6.55
  13   5   5   12.05    3.16
  13  -5   5    9.12    2.84
  13   5   5    5.37    1.89
  13  -5   5    8.50    2.81
  13   5   6   34.72    5.59
  13  -5   6   46.26    6.88
  13  -5   6   41.61    6.20
  13   5   6   42.59    6.17
  13   5   7   15.52    3.50
  13  -5   7   12.57    3.91
  13   5   7   23.23    4.54
  13  -5   7   16.82    4.01
  13   5   8   -0.34    1.63
  13  -5   8   -0.44    1.93
  13   5   8    2.11    1.94
  13  -5   8    2.62    1.88
  13   5   9    1.25    1.01
  13  -5   9    2.74    1.28
  13   5   9    1.51    1.44
  13  -5   9    3.62    1.83
  13   5  10   19.72    4.64
  13  -5  10   10.45    3.22
  13   5  10   15.35    4.14
  13  -5  10    9.37    2.48
  13   5  11   25.45    4.99
  13   5  11   18.60    4.19
  13  -5  11   22.78    4.57
  13  -5  11   13.49    3.92
  13   5  12   11.02    3.56
  13  -5  12    6.27    3.09
  13   5  12    6.84    2.57
  13  -5  12   12.42    3.40
  13   5  13    2.02    2.28
  13  -5  13    2.40    2.82
  13   5  13    1.38    0.84
  13  -5  13    1.88    1.92
  13   5  14   10.95    3.66
  13  -5  14   11.01    3.59
  13   5  14    8.63    2.69
  13  -5  14    5.46    2.64
  13  -5  15    1.32    1.97
  13   5  15    3.99    2.85
  13  -5  15    3.41    2.95
  13  -5  16   11.72    3.71
  13   5  16   10.28    2.64
  13  -5  17    3.99    1.96
  13   5  17    5.80    2.92
  13  -5  18    0.26    3.06
  13   5  18    2.80    2.68
  13  -5  19    3.84    3.30
  13   5  19    0.61    1.77
  13   5  20    3.80    1.52
  13  -6 -18    0.39    1.56
  13   6 -18    0.26    2.56
  13  -6 -17    3.91    3.10
  13  -6 -17    4.79    3.34
  13   6 -17   -0.29    2.43
  13  -6 -16   -0.12    1.30
  13  -6 -16   -0.80    1.30
  13   6 -16    0.24    1.56
  13  -6 -15    1.27    2.14
  13  -6 -15    5.07    3.64
  13   6 -15    1.51    2.09
  13   6 -14    0.49    1.63
  13  -6 -14   -0.38    1.35
  13   6 -13    3.64    2.07
  13  -6 -13    4.08    1.95
  13  -6 -13    5.43    3.32
  13   6 -12    0.23    1.59
  13  -6 -12    1.16    2.25
  13  -6 -12   -0.10    1.07
  13  -6 -11    4.78    2.10
  13   6 -11    6.33    2.92
  13  -6 -11   -2.12    1.45
  13   6 -10    3.54    2.34
  13  -6 -10    1.22    2.67
  13  -6 -10   -1.83    1.25
  13   6  -9    1.83    2.29
  13  -6  -9    4.03    2.12
  13  -6  -9    0.11    2.09
  13   6  -8    1.46    1.97
  13  -6  -8    1.72    0.83
  13  -6  -8    2.20    1.87
  13   6  -7    3.06    2.29
  13  -6  -7   -0.32    1.60
  13  -6  -7   -0.71    1.66
  13   6  -6    2.48    0.79
  13  -6  -6    5.61    2.65
  13  -6  -6    2.57    2.22
  13   6  -5    0.16    1.74
  13  -6  -5    4.36    2.39
  13  -6  -5   -0.85    1.44
  13   6  -4   -1.41    1.13
  13  -6  -4    0.34    1.42
  13  -6  -4   -0.93    1.18
  13   6  -3    3.60    2.52
  13  -6  -3    0.52    1.47
  13  -6  -3    5.39    2.49
  13   6  -2    1.58    1.48
  13  -6  -2    4.73    3.41
  13   6  -2    0.34    1.66
  13  -6  -2    6.03    3.07
  13   6  -1    0.70    0.94
  13  -6  -1    0.76    1.61
  13   6  -1    1.63    1.34
  13  -6  -1    2.47    2.70
  13   6   0    3.75    1.94
  13  -6   0    1.90    1.09
  13   6   0    5.85    1.79
  13  -6   0    3.08    2.63
  13   6   1    1.60    1.84
  13  -6   1    2.19    1.73
  13   6   1    0.64    1.62
  13  -6   1    5.57    2.62
  13   6   2    4.65    3.16
  13  -6   2    2.66    2.45
  13   6   2    3.67    2.47
  13  -6   2    3.93    2.07
  13   6   3    7.95    2.76
  13  -6   3    2.52    2.43
  13   6   3    7.78    3.05
  13  -6   3    6.86    1.57
  13   6   4    0.06    1.53
  13  -6   4    0.60    1.80
  13   6   4    0.41    1.03
  13  -6   4   -0.32    1.16
  13   6   5    1.63    2.56
  13  -6   5   -0.97    1.70
  13   6   5   -0.87    1.27
  13  -6   5   -1.70    2.49
  13   6   6    3.25    2.27
  13  -6   6    3.31    1.73
  13   6   6    1.09    2.05
  13  -6   6    1.62    1.30
  13   6   7   -0.71    1.35
  13  -6   7    0.51    1.85
  13   6   7    2.80    1.61
  13  -6   7    1.17    1.33
  13   6   8   -0.18    1.07
  13  -6   8   -0.82    1.15
  13   6   8    0.66    1.80
  13  -6   8    0.04    3.43
  13   6   9    3.34    3.11
  13  -6   9    3.76    2.72
  13   6   9    0.24    1.71
  13  -6   9   -0.71    1.92
  13   6  10    1.41    1.58
  13  -6  10    4.65    1.74
  13   6  10    1.58    1.32
  13   6  11    3.15    2.76
  13  -6  11    0.21    1.10
  13   6  11    1.84    1.53
  13  -6  11    4.87    2.04
  13   6  12    1.25    2.95
  13  -6  12   -1.31    2.03
  13   6  12   -1.06    1.38
  13  -6  12    1.61    3.08
  13   6  13    4.78    2.79
  13  -6  13    2.42    1.84
  13   6  13    1.64    1.08
  13  -6  13    1.90    2.41
  13   6  14    2.92    2.28
  13  -6  14    0.74    2.00
  13   6  14    2.05    2.08
  13  -6  14    0.61    1.44
  13  -6  15   -0.01    1.54
  13   6  15   -0.62    0.87
  13  -6  15    1.01    1.72
  13  -6  16   -2.99    3.90
  13   6  16   -1.33    2.01
  13  -6  16   -1.13    2.32
  13  -6  17    1.09    1.39
  13   6  17    2.37    2.52
  13  -6  17    3.92    2.81
  13   6  18    1.86    1.68
  13  -6  18    2.67    2.48
  13   7 -15    4.47    2.32
  13  -7 -15    5.45    3.23
  13  -7 -15    2.74    2.36
  13   7 -14    4.41    1.49
  13  -7 -14    7.20    3.32
  13  -7 -14    2.31    1.91
  13   7 -13    4.55    3.17
  13  -7 -13    0.65    1.89
  13  -7 -13    2.15    1.52
  13   7 -12    2.53    2.30
  13  -7 -12    3.08    2.25
  13  -7 -12    4.18    3.11
  13   7 -11    3.70    2.11
  13  -7 -11    0.93    1.67
  13  -7 -11    3.38    1.01
  13   7 -10   22.90    5.15
  13  -7 -10   19.86    5.03
  13  -7 -10   20.47    5.13
  13  -7  -9    3.59    1.67
  13   7  -9    3.31    2.63
  13  -7  -9    1.97    3.24
  13  -7  -8   -0.33    2.34
  13  -7  -8    3.48    2.63
  13  -7  -7   -0.21    0.80
  13   7  -7    2.33    1.58
  13  -7  -7    2.60    2.98
  13  -7  -6   18.80    4.58
  13   7  -6   26.37    5.04
  13  -7  -6   15.97    4.70
  13  -7  -5    1.00    1.58
  13   7  -5    1.23    0.88
  13  -7  -5    0.88    2.39
  13  -7  -4    8.41    2.42
  13   7  -4    9.68    2.50
  13  -7  -4   10.81    3.46
  13   7  -3    3.59    2.35
  13  -7  -3    5.08    1.79
  13  -7  -3    4.38    3.33
  13   7  -2    5.44    2.42
  13  -7  -2    5.91    3.05
  13   7  -2   -0.85    1.02
  13  -7  -2    9.60    3.13
  13  -7  -1    1.38    2.02
  13   7  -1    1.74    2.12
  13  -7  -1    4.47    3.48
  13   7   0    7.25    2.53
  13  -7   0    7.36    3.39
  13   7   0    6.21    2.53
  13  -7   0    2.59    2.05
  13   7   1    6.76    2.36
  13  -7   1    4.04    1.67
  13   7   1    4.10    2.68
  13  -7   1    9.84    3.94
  13   7   2    6.98    2.78
  13  -7   2    6.57    3.12
  13  -7   2    6.58    1.83
  13   7   2    9.13    3.29
  13   7   3   10.53    3.62
  13  -7   3    1.55    1.94
  13  -7   3    1.54    1.88
  13   7   3    9.41    2.51
  13   7   4   12.26    3.49
  13  -7   4    7.10    2.56
  13  -7   4   12.23    3.73
  13   7   4   14.04    4.07
  13   7   5    1.33    1.46
  13  -7   5    0.46    1.41
  13  -7   5    0.08    2.74
  13   7   5    1.43    1.75
  13   7   6   14.90    3.91
  13  -7   6   18.49    4.11
  13  -7   6   14.87    4.25
  13   7   6   18.48    4.49
  13   7   7    1.66    1.16
  13  -7   7    3.64    2.49
  13  -7   7   -0.68    1.49
  13   7   7    0.90    1.96
  13   7   8    2.36    2.01
  13  -7   8    5.56    3.02
  13  -7   8    2.22    2.74
  13   7   8    3.32    1.87
  13   7   9    1.55    1.56
  13  -7   9    0.30    1.34
  13  -7   9    1.27    2.36
  13   7   9    3.62    2.37
  13   7  10   18.42    4.46
  13   7  10   25.91    5.58
  13  -7  10   18.11    5.07
  13  -7  10   21.39    5.18
  13   7  11    3.56    2.91
  13  -7  11    0.64    1.61
  13  -7  11   -3.08    3.37
  13   7  11    4.79    2.56
  13   7  12    2.27    1.93
  13  -7  12    0.51    1.19
  13  -7  12    4.91    3.18
  13   7  12    5.62    3.30
  13   7  13   -1.46    2.72
  13  -7  13   -1.63    2.82
  13  -7  13   -1.97    1.74
  13   7  13    2.68    1.58
  13   7  14    3.66    1.98
  13  -7  14    1.91    2.17
  13  -7  14   11.94    4.53
  13   7  14    8.51    3.68
  13  -7  15    1.94    1.77
  13  -7  15    2.44    1.54
  13   7  15    4.28    2.73
  13   8 -11   -1.41    2.51
  13  -8 -11    5.23    3.88
  13  -8 -11    3.30    2.56
  13   8 -10   -1.08    0.86
  13  -8 -10    0.21    0.99
  13  -8 -10    1.39    1.36
  13   8  -9    0.90    2.41
  13  -8  -9    2.45    2.65
  13  -8  -9    0.97    1.64
  13   8  -8    2.97    1.83
  13  -8  -8    2.11    1.69
  13  -8  -8   -2.74    2.54
  13   8  -7   -1.78    2.16
  13  -8  -7    2.77    1.97
  13  -8  -7    0.66    1.02
  13  -8  -6    1.62    2.30
  13   8  -6    1.00    1.35
  13  -8  -5   -1.09    1.68
  13   8  -5    1.22    1.19
 -13   8  -5    5.02    4.68
  13  -8  -5   -0.09    2.11
  13  -8  -4   -1.16    1.16
  13   8  -4   -0.34    1.18
 -13   8  -4   -1.41    2.45
  13  -8  -4   -0.82    1.47
  13  -8  -3   -1.03    1.01
  13   8  -3   -0.86    1.25
  13  -8  -3   -0.93    3.01
  13  -8  -2    4.69    3.32
  13   8  -2    2.59    2.48
  13  -8  -2    1.03    2.12
  13  -8  -1   -0.57    1.80
  13   8  -1   -0.10    1.49
  13  -8  -1    1.91    1.99
  13  -8   0    1.55    2.33
  13   8   0    0.82    1.22
  13  -8   0   -3.48    3.41
  13   8   0   -0.08    1.24
  13  -8   1    3.72    3.07
  13   8   1    0.13    2.71
  13  -8   1    0.15    2.12
  13   8   1   -2.53    2.20
  13  -8   2    4.84    2.93
  13   8   2    0.54    1.63
  13  -8   2    2.72    1.54
  13   8   2    3.90    2.87
  13  -8   3    1.80    2.59
  13   8   3    4.44    1.96
  13  -8   3    2.56    2.85
  13   8   3   -0.61    2.27
  13  -8   4   -5.05    3.35
  13   8   4    1.06    1.66
  13  -8   4    1.42    3.30
  13   8   4    0.78    1.41
  13  -8   5    0.13    1.73
  13   8   5    2.30    2.94
  13  -8   5    1.90    2.04
  13   8   5   -0.14    1.64
  13   8   6   -1.32    1.79
  13  -8   6    4.03    1.44
  13  -8   6   -0.42    2.50
  13   8   6    0.35    1.28
  13   8   7    8.26    2.87
  13  -8   7    5.07    3.52
  13  -8   7    0.53    1.50
  13   8   7    1.88    1.49
  13   8   8    0.72    1.84
  13  -8   8    3.02    3.31
  13  -8   8    0.75    2.00
  13   8   8    1.11    1.98
  13   8   9   -0.54    1.73
  13  -8   9   -0.55    1.67
  13  -8   9    2.61    2.55
  13   8   9   -1.87    1.30
  13   8  10    0.26    1.79
  13  -8  10    0.43    1.85
  13   8  10   -1.96    1.35
  13   8  11    3.10    2.31
  13  -8  11    0.67    1.64
  13   8  11   -1.16    1.76
  13   9  -4    7.92    3.81
  13  -9  -4    9.40    4.20
  13  -9  -4    3.67    2.31
  13   9  -3    4.32    3.08
 -13   9  -3    4.31    3.76
  13  -9  -3    0.05    2.17
  13  -9  -3    0.54    1.63
  13  -9  -2    3.83    2.98
  13   9  -2    4.07    2.79
 -13   9  -2   -0.01    1.89
  13  -9  -2    6.73    2.94
  13  -9  -1    1.17    2.17
  13   9  -1    0.77    1.21
 -13   9  -1    3.40    3.30
  13  -9  -1   -1.28    2.39
  13  -9   0    5.61    2.65
 -13   9   0    5.08    2.98
  13  -9   0    0.72    2.39
  13  -9   1   -0.45    1.35
  13   9   1    4.65    3.16
 -13   9   1   -0.34    1.38
  13  -9   1    1.30    2.71
  13  -9   2    1.21    2.16
  13   9   2    0.60    1.60
 -13   9   2    1.81    3.44
  13  -9   2    4.81    2.90
  13   9   2   -0.70    2.56
  13  -9   3    2.62    2.05
  13   9   3   -2.10    2.81
 -13   9   3    5.11    2.96
  13  -9   3   -0.54    2.53
  13   9   3   -0.83    1.20
  13  -9   4   10.14    3.76
  13   9   4    6.78    2.89
 -13   9   4   13.46    3.85
  13   9   4    4.99    3.41
  14   0 -21   30.40    6.97
  14   0 -20   14.96    4.36
  14   0 -19    5.38    2.75
  14   0 -18   -0.24    1.51
  14   0 -17    4.58    2.58
  14   0 -16   32.14    5.78
  14   0 -15    0.89    2.13
  14   0 -14   22.46    4.92
  14   0 -13   27.97    5.29
  14   0 -12   42.21    6.61
  14   0 -11    9.89    2.98
  14   0 -10   52.66    7.02
  14   0 -10   51.17    7.00
  14   0  -9   10.85    3.41
  14   0  -9    8.03    2.91
  14   0  -8    9.22    3.03
  14   0  -8   14.64    4.19
  14   0  -7   73.05    8.07
  14   0  -7   73.30    8.25
  14   0  -6  118.99    9.97
  14   0  -6  119.81   10.52
  14   0  -5   36.14    5.74
  14   0  -5   44.68    6.38
  14   0  -4  102.86    9.28
  14   0  -4   90.90    9.07
  14   0  -3   61.01    7.09
  14   0  -3   65.76    7.72
  14   0  -2   29.76    4.98
  14   0  -2   35.43    5.59
  14   0  -1   30.05    5.12
  14   0  -1   38.63    5.64
  14   0   0   82.48    8.34
  14   0   0   81.78    8.61
  14   0   0   80.45    8.07
  14   0   1   42.07    5.96
  14   0   1   38.69    5.57
  14   0   1   31.29    5.36
  14   0   2   36.64    5.59
  14   0   2   35.38    5.59
  14   0   2   37.46    5.35
  14   0   3   52.32    6.81
  14   0   3   78.70    8.42
  14   0   3   67.81    7.21
  14   0   4   92.87    8.86
  14   0   4   90.25    8.99
  14   0   4   93.15    8.32
  14   0   5   49.19    6.57
  14   0   5   40.61    5.84
  14   0   6  112.50   10.11
  14   0   6  121.36    9.87
  14   0   7   79.32    8.18
  14   0   8   13.70    3.49
  14   0   9   10.99    3.44
  14   0  10   59.08    7.25
  14   0  11    7.70    2.47
  14   0  12   53.22    7.29
  14   0  13   32.41    5.46
  14   0  14    9.80    2.90
  14   0  15    4.09    1.66
  14   0  16   22.42    5.13
  14   0  17    1.34    1.31
  14   0  18    1.43    1.68
  14   0  19    4.98    2.49
  14   0  20   14.50    4.07
  14   0  21   13.47    3.67
  14   0  22    2.65    1.39
  14   0  23    4.53    2.25
  14  -1 -23   -0.23    1.99
  14  -1 -22   -2.66    1.97
  14  -1 -21    4.32    3.11
  14  -1 -20   -0.02    1.88
  14  -1 -19    4.24    2.57
  14  -1 -18    4.97    2.41
  14  -1 -17   -1.07    1.82
  14   1 -16    3.79    2.56
  14  -1 -16    2.44    3.08
  14   1 -15    6.95    2.78
  14  -1 -15    6.58    3.26
  14   1 -14   -1.14    1.81
  14  -1 -14    0.20    1.56
  14   1 -13   -0.43    1.30
  14  -1 -13    4.03    2.77
  14   1 -12    0.14    0.79
  14  -1 -12    0.24    1.85
  14  -1 -11   -1.30    1.76
  14  -1 -11    1.55    1.24
  14   1 -11    1.20    1.35
  14  -1 -10    2.58    1.79
  14  -1 -10    4.78    2.14
  14   1 -10    0.96    1.62
  14  -1  -9    5.93    2.54
  14   1  -9    7.65    2.49
  14  -1  -9   10.65    3.09
  14   1  -9    9.26    2.57
  14   1  -9    3.03    1.65
  14  -1  -8    1.82    1.65
  14   1  -8    0.05    1.41
  14  -1  -8    2.90    1.98
  14   1  -8    0.09    1.58
  14   1  -8    2.63    1.43
  14  -1  -7   25.33    4.50
  14   1  -7   18.42    4.22
  14  -1  -7   22.40    4.81
  14   1  -7   15.62    3.97
  14   1  -7   14.37    3.64
  14  -1  -6    0.89    0.75
  14   1  -6    3.16    2.39
  14  -1  -6    2.05    2.29
  14   1  -6    0.82    1.35
  14   1  -6    0.32    2.03
  14  -1  -5   -0.36    0.97
  14   1  -5    1.19    1.66
  14  -1  -5    1.92    1.90
  14   1  -5    0.07    0.92
  14   1  -5    1.44    1.09
  14  -1  -4    4.20    1.71
  14   1  -4    2.87    1.08
  14   1  -4    3.84    2.64
  14   1  -4    6.58    1.93
  14  -1  -3    6.64    2.46
  14  -1  -3   12.41    3.42
  14   1  -3    6.79    2.49
  14   1  -3    7.17    2.32
  14   1  -3    7.01    2.52
  14  -1  -2   32.43    5.22
  14   1  -2   23.55    4.77
  14  -1  -2   22.08    4.52
  14   1  -2   14.88    3.72
  14   1  -2   24.91    4.43
  14  -1  -1   27.21    5.02
  14   1  -1   32.60    5.15
  14  -1  -1   25.88    5.30
  14   1  -1   32.46    5.25
  14   1  -1   36.42    5.59
  14   1   0   25.23    4.77
  14  -1   0   19.56    3.93
  14  -1   0   18.34    4.14
  14   1   0   24.51    4.68
  14   1   0   28.98    4.97
  14  -1   1   36.93    5.68
  14   1   1   23.65    4.80
  14   1   1   28.29    5.04
  14  -1   1   17.91    4.22
  14   1   1   23.15    4.65
  14  -1   2   22.76    4.60
  14   1   2   26.15    4.61
  14  -1   2   27.45    5.21
  14   1   2   28.25    4.80
  14   1   2   26.04    4.75
  14  -1   3    8.16    2.71
  14  -1   3   11.62    3.14
  14   1   3    4.51    1.44
  14   1   3    9.04    3.00
  14   1   3    6.35    2.31
  14   1   4    9.22    2.99
  14  -1   4    5.77    1.99
  14  -1   4    5.95    2.21
  14   1   4    9.48    2.87
  14   1   5    1.48    1.74
  14  -1   5    3.55    2.06
  14  -1   5    0.53    1.22
  14   1   5    4.71    2.85
  14   1   6    1.21    1.36
  14  -1   6    2.28    0.78
  14   1   6    1.55    1.49
  14   1   7   16.36    3.74
  14  -1   7   17.76    4.46
  14   1   7   17.05    3.86
  14   1   8    1.15    2.09
  14  -1   8    0.98    2.48
  14   1   8    2.91    2.31
  14   1   9    6.97    2.74
  14  -1   9    8.70    2.45
  14   1   9    5.36    2.65
  14   1  10    1.92    1.33
  14  -1  10    2.32    1.65
  14   1  10    1.33    1.33
  14   1  11    0.76    1.52
  14  -1  11    1.98    2.63
  14   1  11    0.18    1.03
  14   1  12   -0.23    1.27
  14  -1  12   -1.45    1.35
  14   1  13    0.97    1.32
  14  -1  13    0.32    1.15
  14   1  14    0.66    2.17
  14  -1  14   -0.21    1.02
  14   1  15    4.16    2.24
  14  -1  15    3.42    1.51
  14   1  16    3.81    2.01
  14  -1  16    0.71    1.18
  14   1  17   -1.26    1.80
  14  -1  17   -0.61    2.29
  14   1  18    1.50    1.60
  14  -1  18    2.30    3.12
  14   1  19    1.20    1.57
  14  -1  19    1.42    1.05
  14   1  20    1.61    2.10
  14  -1  20    3.28    1.63
  14   1  21   -2.68    3.12
  14  -1  21    1.89    1.84
  14   1  22   -0.08    1.62
  14  -1  22   -0.42    2.27
  14   1  23    7.65    3.79
  14  -1  23    3.26    3.61
  14  -2 -22    4.39    1.83
  14  -2 -21    5.88    2.96
  14  -2 -20    8.47    3.09
  14  -2 -19    2.12    2.19
  14  -2 -18   -2.28    2.14
  14  -2 -17    4.95    2.70
  14  -2 -16   26.10    5.59
  14  -2 -15    1.70    1.75
  14  -2 -14   19.80    4.49
  14   2 -14   36.22    5.51
  14  -2 -13   15.49    3.93
  14  -2 -13   12.30    3.83
  14   2 -13    7.59    2.69
  14  -2 -12   23.36    4.90
  14  -2 -12   14.56    4.20
  14   2 -12   12.10    4.14
  14  -2 -11    0.21    1.36
  14  -2 -11    2.23    2.42
  14   2 -11    0.40    1.26
  14  -2 -10   24.63    4.80
  14  -2 -10   30.97    5.27
  14   2 -10   26.30    5.12
  14   2 -10   28.22    5.18
  14  -2  -9   26.38    5.19
  14  -2  -9   33.43    5.58
  14   2  -9   36.60    5.74
  14   2  -9   30.13    5.24
  14  -2  -8    8.32    2.66
  14   2  -8   15.10    3.48
  14  -2  -8    9.17    3.14
  14   2  -8   13.40    3.22
  14   2  -8   11.71    3.12
  14  -2  -7    7.71    2.55
  14  -2  -7   11.67    4.06
  14   2  -7    8.56    2.56
  14   2  -7   10.26    3.08
  14   2  -7    9.10    2.81
  14  -2  -6   34.39    5.69
  14   2  -6   33.54    5.05
  14  -2  -6   28.71    5.05
  14   2  -6   35.61    5.35
  14   2  -6   34.30    5.43
  14  -2  -5   23.57    4.73
  14   2  -5   23.35    4.56
  14  -2  -5   29.30    5.09
  14   2  -5   24.43    4.63
  14   2  -5   20.09    4.55
  14  -2  -4   55.40    6.83
  14   2  -4   39.23    5.91
  14  -2  -4   55.97    6.97
  14   2  -4   58.71    7.19
  14   2  -4   61.82    7.00
  14  -2  -3   14.12    3.89
  14  -2  -3   21.09    4.74
  14   2  -3   20.46    4.13
  14   2  -3   15.18    3.38
  14   2  -3   23.50    4.46
  14  -2  -2    6.30    2.86
  14  -2  -2    7.10    2.85
  14   2  -2    4.31    2.53
  14   2  -2    3.20    1.40
  14   2  -2    6.76    2.99
  14  -2  -1    8.90    3.32
  14  -2  -1    6.62    2.73
  14   2  -1    7.17    2.80
  14   2  -1    5.05    2.26
  14   2  -1    5.19    2.38
  14  -2   0   87.50    8.93
  14   2   0   89.61    8.72
  14  -2   0   88.10    9.05
  14   2   0  104.33    9.66
  14   2   0   85.58    8.51
  14   2   1    7.38    2.67
  14  -2   1    7.01    3.06
  14  -2   1    7.33    2.46
  14   2   1    9.35    2.90
  14   2   1    5.68    3.27
  14   2   2    6.46    2.79
  14  -2   2    5.76    2.46
  14  -2   2    3.35    0.79
  14   2   2    7.64    3.09
  14   2   2    7.37    1.98
  14   2   3   12.88    3.62
  14  -2   3   10.25    3.22
  14  -2   3   18.81    4.13
  14   2   3   17.97    4.09
  14  -2   4   47.66    6.75
  14   2   4   50.67    6.44
  14  -2   4   49.96    7.05
  14   2   4   54.63    6.34
  14  -2   5   19.98    4.24
  14   2   5   18.89    4.49
  14  -2   5   29.71    4.98
  14   2   5   18.88    3.96
  14  -2   6   36.72    5.57
  14   2   6   27.78    5.02
  14  -2   6   30.14    5.13
  14   2   6   26.78    4.56
  14   2   7   10.14    3.08
  14  -2   7    9.05    2.75
  14  -2   7   11.60    3.30
  14   2   7    7.60    1.80
  14   2   8    9.74    2.85
  14  -2   8   10.56    3.98
  14   2   8   12.75    3.32
  14   2   9   18.59    4.04
  14  -2   9   28.18    5.31
  14   2  10   22.30    4.67
  14  -2  10   34.83    6.17
  14   2  10   20.54    4.63
  14   2  11    2.36    1.11
  14  -2  11    0.46    1.45
  14   2  11    2.33    1.87
  14   2  12   11.95    3.41
  14  -2  12   14.92    4.58
  14   2  12   17.29    3.98
  14   2  13    8.87    2.38
  14  -2  13   12.82    3.90
  14   2  14   31.00    5.55
  14  -2  14   22.23    4.45
  14   2  15    3.75    2.51
  14  -2  15    5.02    2.54
  14   2  16   17.99    4.07
  14  -2  16   28.80    5.46
  14   2  17    6.35    1.84
  14  -2  17   10.47    3.55
  14   2  18    3.22    2.71
  14  -2  18    2.35    2.95
  14   2  19    0.46    1.44
  14  -2  19    3.80    3.05
  14   2  20   13.52    4.29
  14  -2  20    8.43    3.02
  14   2  21    4.08    2.66
  14  -2  21    8.87    3.57
  14   2  22    8.42    3.39
  14  -2  22   -0.92    2.44
  14  -3 -21   -0.10    1.58
  14  -3 -20    1.10    1.18
  14  -3 -19   -0.41    1.89
  14  -3 -18    3.26    2.25
  14  -3 -17    0.15    1.44
  14   3 -17    2.32    3.04
  14  -3 -16    6.34    3.12
  14   3 -16    1.28    1.18
  14  -3 -15    0.86    1.65
  14   3 -15    2.05    1.60
  14  -3 -14    7.45    3.47
  14  -3 -14    2.17    1.79
  14   3 -14    3.57    1.89
  14  -3 -13    1.49    0.94
  14  -3 -13    0.11    1.68
  14   3 -13   -0.10    1.88
  14  -3 -12    0.60    1.70
  14  -3 -12    1.21    1.14
  14   3 -12    2.71    1.58
  14  -3 -11    3.34    1.84
  14  -3 -11    1.26    0.84
  14   3 -11    0.49    1.46
  14  -3 -10   17.77    4.47
  14  -3 -10   20.94    4.94
  14   3 -10   14.48    3.74
  14  -3  -9   -0.84    2.31
  14  -3  -9    0.60    2.41
  14   3  -9    1.89    2.04
  14  -3  -8    0.49    1.16
  14  -3  -8   -0.96    1.65
  14   3  -8   -0.47    1.33
  14  -3  -7    4.18    2.19
  14  -3  -7    3.14    2.09
  14   3  -7    0.76    0.89
  14   3  -7   -1.57    1.74
  14  -3  -6    6.66    2.58
  14  -3  -6    4.50    2.36
  14   3  -6    2.34    1.47
  14   3  -6    3.44    1.91
  14  -3  -5    9.02    2.96
  14  -3  -5    5.22    2.29
  14   3  -5    7.72    3.08
  14   3  -5    5.21    2.23
  14   3  -5    9.78    2.71
  14  -3  -4    0.45    2.32
  14  -3  -4    0.98    1.68
  14   3  -4    1.05    2.10
  14   3  -4   -1.91    2.18
  14   3  -4   -0.37    0.80
  14   3  -3   12.46    3.30
  14  -3  -3    6.27    2.36
  14  -3  -3    8.17    3.09
  14   3  -3   14.35    3.84
  14   3  -3    9.88    3.23
  14  -3  -2   59.75    7.60
  14   3  -2   57.60    6.78
  14  -3  -2   49.12    6.88
  14   3  -2   46.12    6.64
  14   3  -2   52.23    6.83
  14   3  -1   15.08    3.57
  14   3  -1   12.95    3.18
  14  -3  -1   10.81    3.73
  14  -3  -1   16.31    4.47
  14   3  -1   17.08    4.22
  14  -3   0   59.43    7.38
  14   3   0   49.54    6.56
  14  -3   0   41.73    6.53
  14   3   0   47.77    6.52
  14   3   0   50.06    6.59
  14   3   1   16.88    4.54
  14   3   1   12.47    3.55
  14  -3   1   14.51    3.73
  14  -3   1   12.08    3.35
  14   3   1   17.98    4.20
  14  -3   2   55.18    7.11
  14   3   2   43.03    6.07
  14  -3   2   36.35    5.88
  14   3   2   38.32    5.89
  14   3   3   10.39    3.39
  14   3   3    7.91    3.08
  14  -3   3   10.85    3.57
  14  -3   3   13.70    4.19
  14   3   4   -0.24    0.94
  14   3   4   -0.31    1.32
  14  -3   4    1.47    1.75
  14  -3   4    1.84    1.22
  14   3   5   10.25    3.25
  14   3   5    5.22    2.70
  14  -3   5    6.57    2.56
  14  -3   5    7.77    2.61
  14   3   6    5.54    2.71
  14   3   6    1.99    1.77
  14  -3   6    3.64    2.72
  14  -3   6    3.89    1.66
  14   3   7    5.07    2.71
  14   3   7    2.02    1.42
  14  -3   7    1.94    2.59
  14  -3   7    3.97    2.24
  14   3   8    0.57    0.93
  14   3   8    0.02    1.37
  14  -3   8   -1.73    2.16
  14  -3   8   -2.57    2.07
  14   3   9   -0.08    1.65
  14  -3   9   -0.43    1.22
  14  -3   9    1.05    1.95
  14   3  10   18.42    4.02
  14   3  10   17.07    4.30
  14  -3  10   10.81    3.41
  14   3  11    0.87    1.60
  14   3  11    0.78    2.12
  14  -3  11    5.65    2.58
  14   3  12    0.30    2.07
  14   3  12    2.07    1.91
  14  -3  12   -0.49    1.07
  14   3  13    5.16    2.90
  14   3  13    5.57    2.56
  14  -3  13    1.41    1.38
  14   3  14   -0.44    2.27
  14  -3  14    1.61    1.52
  14   3  15   -0.84    1.94
  14  -3  15    1.60    1.44
  14   3  16    6.02    2.80
  14  -3  16    4.34    1.87
  14   3  17    0.56    1.85
  14  -3  17   -0.93    2.45
  14   3  18    4.08    2.86
  14  -3  18   -0.90    1.80
  14   3  19    3.02    1.19
  14  -3  19    1.09    1.42
  14   3  20    1.85    2.69
  14  -3  20    2.33    1.21
  14   3  21    0.68    1.68
  14  -3  21   -0.83    1.21
  14  -4 -20   10.06    3.46
  14   4 -20   10.18    4.26
  14  -4 -19    1.42    2.88
  14   4 -19    1.63    1.79
  14  -4 -18    1.96    1.20
  14   4 -18    0.93    2.23
  14  -4 -17    6.80    2.74
  14   4 -17    8.32    3.54
  14  -4 -16    8.47    3.51
  14   4 -16   13.76    4.39
  14  -4 -15    2.25    1.53
  14  -4 -15    5.22    2.75
  14   4 -15    0.22    1.35
  14  -4 -14   20.47    4.87
  14  -4 -14   13.15    4.01
  14   4 -14   12.94    3.80
  14  -4 -13    7.66    3.07
  14  -4 -13   10.96    3.83
  14   4 -13    9.63    3.10
  14  -4 -12   11.55    3.77
  14  -4 -12   15.09    4.02
  14   4 -12   10.81    3.14
  14  -4 -11   17.50    4.38
  14  -4 -11   17.75    4.56
  14   4 -11   20.05    4.85
  14  -4 -10   14.45    3.87
  14  -4 -10   18.48    4.52
  14   4 -10   18.14    4.55
  14  -4  -9   20.52    4.34
  14   4  -9   31.72    5.45
  14  -4  -9   26.37    5.87
  14  -4  -8    8.22    3.16
  14  -4  -8    4.36    2.44
  14   4  -8    3.44    2.47
  14   4  -7    7.77    2.05
  14  -4  -7    7.57    3.75
  14  -4  -7    8.64    3.34
  14  -4  -6   30.20    5.26
  14   4  -6   30.61    5.61
  14  -4  -6   31.52    5.51
  14   4  -5    3.11    1.67
  14   4  -5    3.46    2.37
  14  -4  -5    4.88    3.01
  14  -4  -5    4.45    1.87
  14  -4  -4   30.26    5.54
  14   4  -4   40.27    5.63
  14  -4  -4   37.37    6.22
  14   4  -4   32.61    5.38
  14  -4  -3   30.99    5.45
  14  -4  -3   30.10    5.88
  14   4  -3   26.82    4.87
  14   4  -3   35.73    5.66
  14   4  -2    2.38    1.27
  14   4  -2    3.84    1.80
  14  -4  -2    3.85    1.66
  14  -4  -2    6.84    2.60
  14   4  -1    9.75    3.02
  14   4  -1   21.33    4.47
  14  -4  -1   16.27    4.70
  14  -4  -1    9.06    2.40
  14  -4   0  169.28   12.51
  14  -4   0  174.83   13.22
  14   4   0  162.25   12.09
  14   4   0  167.57   12.48
  14   4   1   15.61    3.59
  14  -4   1   25.43    5.39
  14   4   1   17.18    3.70
  14  -4   1   21.52    4.48
  14   4   1   11.06    2.77
  14   4   2    4.21    2.58
  14   4   2    2.26    1.43
  14  -4   2    9.85    3.38
  14  -4   2    6.42    2.16
  14   4   3   28.11    4.88
  14  -4   3   25.32    5.19
  14  -4   3   29.82    5.60
  14   4   3   23.98    4.75
  14  -4   4   27.28    5.59
  14  -4   4   29.15    5.29
  14   4   4   34.45    5.86
  14   4   4   41.10    6.22
  14   4   5    4.43    1.80
  14   4   5    3.25    0.96
  14  -4   5    6.83    3.31
  14  -4   5    3.50    1.44
  14   4   6   35.56    5.25
  14  -4   6   30.34    5.23
  14  -4   6   33.51    6.24
  14   4   6   26.81    5.18
  14   4   7    6.10    2.49
  14   4   7    3.34    0.92
  14  -4   7    7.80    2.59
  14  -4   7    7.19    2.94
  14   4   8    7.66    2.41
  14   4   8    1.79    2.04
  14  -4   8    6.93    3.10
  14  -4   8    2.21    2.12
  14   4   9   24.86    4.65
  14   4   9   20.80    4.81
  14  -4   9   20.57    4.66
  14  -4   9   27.95    5.49
  14   4  10   14.02    3.40
  14   4  10    9.99    3.29
  14  -4  10   16.75    4.04
  14  -4  10   15.23    3.92
  14   4  11    9.41    3.48
  14   4  11   16.75    4.37
  14  -4  11   15.74    3.27
  14  -4  11   21.03    5.24
  14   4  12   15.22    4.18
  14   4  12   13.61    4.05
  14  -4  12   14.86    4.18
  14  -4  12   16.21    4.41
  14   4  13    5.00    2.49
  14   4  13   10.60    3.50
  14  -4  13    4.72    3.15
  14  -4  13    5.64    3.04
  14   4  14   13.86    4.01
  14  -4  14   16.21    4.65
  14   4  15    3.00    1.15
  14  -4  15    1.73    1.24
  14   4  16    9.88    3.49
  14  -4  16   12.72    3.72
  14   4  17   11.65    4.22
  14  -4  17   11.47    3.93
  14   4  18    0.88    1.41
  14  -4  18    4.24    2.32
  14   4  19    0.58    1.10
  14  -4  19    2.94    1.66
  14   4  20   15.26    4.44
  14  -4  20   16.32    5.00
  14  -5 -18    1.59    1.95
  14   5 -18    1.41    1.44
  14  -5 -17    1.24    1.29
  14   5 -17   -2.78    2.25
  14  -5 -16   -0.42    0.84
  14  -5 -16    1.49    2.06
  14  -5 -15    0.82    1.57
  14   5 -15   -1.11    2.02
  14  -5 -15    0.74    2.03
  14  -5 -14    1.32    1.78
  14  -5 -14    2.98    2.45
  14   5 -14    4.52    1.91
  14  -5 -13    3.95    1.97
  14  -5 -13    1.46    2.37
  14   5 -13    3.63    2.31
  14  -5 -12    6.53    2.02
  14  -5 -12   13.99    3.71
  14   5 -12    8.81    3.94
  14  -5 -11    0.26    1.23
  14  -5 -11    2.06    1.96
  14   5 -11    4.40    2.42
  14   5 -10   10.95    3.25
  14  -5 -10   10.99    4.36
  14  -5 -10    3.41    2.46
  14   5  -9    3.88    3.03
  14  -5  -9    7.82    3.44
  14  -5  -9    1.69    1.73
  14   5  -8    2.41    2.61
  14  -5  -8    1.54    1.74
  14  -5  -8    4.43    2.90
  14   5  -7    1.08    1.98
  14  -5  -7    4.66    2.61
  14  -5  -7    3.02    2.61
  14   5  -6   -0.05    1.29
  14  -5  -6   -0.03    1.01
  14  -5  -6   -0.48    2.07
  14   5  -5    3.61    2.41
  14  -5  -5   -0.82    1.32
  14  -5  -5   -2.11    2.03
  14   5  -4    7.21    2.99
  14  -5  -4    6.21    2.77
  14   5  -4    8.32    3.28
  14  -5  -4    9.17    3.22
  14   5  -3   -0.54    1.97
  14  -5  -3    1.37    1.33
  14   5  -3    4.31    2.46
  14  -5  -3    1.13    1.47
  14   5  -2    4.09    2.60
  14  -5  -2    2.20    1.30
  14   5  -2    2.60    2.46
  14  -5  -2    4.77    2.33
  14   5  -1    8.94    3.37
  14  -5  -1    8.21    3.11
  14   5  -1   13.32    3.79
  14  -5  -1   15.76    3.82
  14  -5   0   35.06    5.93
  14  -5   0   40.73    6.93
  14   5   0   31.52    5.26
  14   5   0   33.30    5.69
  14   5   1   18.24    4.20
  14  -5   1   13.55    3.71
  14   5   1   17.65    4.38
  14  -5   1   11.24    3.03
  14   5   2    5.87    3.21
  14  -5   2    2.54    1.89
  14   5   2    3.38    2.25
  14  -5   2   -0.41    1.77
  14   5   3    2.79    1.08
  14  -5   3    0.51    1.44
  14   5   3    0.08    1.22
  14  -5   3    2.73    2.66
  14   5   4    5.38    2.64
  14  -5   4    5.44    2.08
  14   5   4    9.32    2.81
  14  -5   4    5.47    2.09
  14   5   5   -1.38    1.74
  14  -5   5    0.37    0.92
  14   5   5    1.15    1.45
  14  -5   5   -0.68    1.30
  14   5   6   -2.80    2.60
  14  -5   6   -0.12    0.92
  14   5   6   -2.04    1.97
  14  -5   6    0.88    1.56
  14   5   7    0.36    1.75
  14  -5   7    2.03    1.01
  14   5   7    4.17    2.72
  14  -5   7    3.79    1.94
  14   5   8    0.40    0.95
  14  -5   8    2.00    1.93
  14   5   8    3.79    2.77
  14  -5   8    3.08    2.36
  14   5   9    2.05    1.88
  14  -5   9    6.17    2.85
  14   5   9    5.96    1.90
  14  -5   9    2.80    1.45
  14   5  10    5.69    1.22
  14  -5  10    5.58    1.86
  14   5  10   10.97    3.66
  14  -5  10    4.12    2.82
  14   5  11   -1.39    2.10
  14  -5  11    4.87    2.97
  14   5  11    3.84    2.89
  14  -5  11    1.10    2.12
  14   5  12    4.56    1.87
  14  -5  12    5.02    1.89
  14   5  12    5.69    2.65
  14  -5  12    5.38    2.93
  14   5  13   -0.25    1.30
  14  -5  13    2.25    2.74
  14   5  13    1.65    0.91
  14  -5  13    2.24    1.88
  14  -5  14    4.13    2.18
  14   5  14    2.13    2.34
  14  -5  14    7.06    3.83
  14  -5  15   -1.67    1.93
  14   5  15   -4.54    3.63
  14  -5  15    0.93    2.17
  14  -5  16    1.73    2.27
  14   5  16    2.12    2.52
  14  -5  16    3.71    2.96
  14  -5  17    2.82    2.45
  14   5  17   -1.13    1.73
  14  -5  17    0.44    1.62
  14  -5  18    4.35    2.19
  14   5  18    0.05    1.82
  14  -6 -16    6.09    3.53
  14  -6 -16    6.64    2.94
  14   6 -16    7.22    3.39
  14  -6 -15   -0.41    1.34
  14  -6 -15    1.10    1.85
  14   6 -15    0.66    1.51
  14  -6 -14   -1.63    2.29
  14  -6 -14    1.68    1.17
  14   6 -14    2.64    1.55
  14   6 -13    1.59    0.90
  14  -6 -13    0.17    1.00
  14   6 -12    4.43    2.21
  14  -6 -12   11.27    3.82
  14  -6 -12    9.52    3.89
  14   6 -11    1.21    1.45
  14  -6 -11    3.51    2.53
  14  -6 -11    4.46    2.65
  14   6 -10   27.47    4.92
  14  -6 -10   24.05    5.36
  14  -6 -10   34.82    6.16
  14   6  -9    9.85    3.54
  14  -6  -9    7.61    3.40
  14  -6  -9   16.41    4.14
  14   6  -8    5.11    2.81
  14  -6  -8    6.55    2.68
  14  -6  -8    6.42    3.21
  14   6  -7   15.21    4.42
  14  -6  -7    7.57    2.77
  14  -6  -7    7.35    4.13
  14  -6  -6   37.35    6.56
  14  -6  -6   32.99    6.21
  14   6  -6   40.58    6.49
  14   6  -5    2.91    2.08
  14  -6  -5    1.93    2.56
  14  -6  -5   -0.98    1.40
  14  -6  -4   25.45    5.15
  14  -6  -4   34.21    6.13
  14   6  -4   34.41    5.93
  14  -6  -3    9.10    3.92
  14  -6  -3   13.21    3.63
  14   6  -2   11.56    3.33
  14  -6  -2    6.41    2.78
  14   6  -2    4.31    2.43
  14  -6  -2   10.71    3.70
  14   6  -1   11.03    3.11
  14  -6  -1   12.73    3.94
  14   6  -1    5.12    2.32
  14  -6  -1    7.83    2.90
  14  -6   0  100.19   10.21
  14   6   0   75.47    8.78
  14  -6   0   82.45    9.34
  14   6   0  103.12   10.19
  14   6   1    9.75    3.10
  14  -6   1   11.96    4.12
  14   6   1    9.06    2.54
  14  -6   1   13.38    3.77
  14   6   2    7.34    3.28
  14  -6   2   10.32    4.30
  14   6   2   13.38    3.80
  14  -6   2    2.56    2.61
  14   6   3   22.95    4.69
  14  -6   3   16.31    3.91
  14   6   3   19.30    4.31
  14  -6   3   21.69    5.40
  14   6   4   15.86    3.92
  14  -6   4   29.75    5.86
  14   6   4   27.29    5.25
  14  -6   4   20.45    4.36
  14   6   5    1.94    2.10
  14  -6   5    4.10    3.29
  14   6   5    0.26    1.40
  14  -6   5    0.38    1.26
  14  -6   6   31.59    6.10
  14   6   6   38.95    6.33
  14  -6   6   40.85    6.76
  14   6   6   33.32    5.96
  14   6   7    7.68    2.96
  14  -6   7    3.26    3.02
  14   6   7    4.35    2.37
  14  -6   7   10.67    4.25
  14   6   8    3.22    1.87
  14  -6   8    2.00    1.01
  14   6   8    4.31    2.12
  14  -6   8    4.61    1.83
  14  -6   9    9.97    3.30
  14   6   9    9.84    3.65
  14  -6   9    5.68    1.79
  14  -6  10   28.84    5.68
  14   6  10   23.25    4.58
  14  -6  10   27.50    5.85
  14   6  10   33.74    6.27
  14   6  11    2.12    2.06
  14  -6  11    0.85    1.11
  14   6  11    3.06    1.22
  14  -6  11    0.63    2.08
  14   6  12    9.51    3.19
  14  -6  12    8.23    3.41
  14   6  12   13.71    3.88
  14  -6  12   10.02    3.64
  14   6  13   -2.64    3.54
  14  -6  13    4.85    1.51
  14   6  13   -1.84    2.35
  14  -6  13    4.43    1.84
  14   6  14    0.50    2.41
  14  -6  14   -1.43    1.98
  14   6  14    1.78    1.06
  14  -6  14    1.41    1.51
  14  -6  15    0.10    1.39
  14   6  15    2.22    1.22
  14  -6  15   -1.72    2.60
  14  -6  16    9.42    3.95
  14   6  16    9.26    3.29
  14  -6  16    8.90    4.30
  14   7 -13    3.85    2.11
  14  -7 -13    1.87    1.94
  14  -7 -13    0.43    1.71
  14   7 -12    2.33    1.21
  14  -7 -12    4.38    2.67
  14  -7 -12   -0.76    1.45
  14   7 -11    4.15    1.61
  14  -7 -11   -0.45    2.35
  14  -7 -11    1.15    1.95
  14  -7 -10    1.63    1.40
  14   7 -10   -1.03    2.31
  14  -7 -10   -0.58    1.64
  14  -7  -9    0.85    0.98
  14   7  -9    0.12    0.96
  14  -7  -9   -0.16    1.76
  14  -7  -8    2.31    1.33
  14   7  -8    1.94    1.34
  14  -7  -8    2.70    1.69
  14  -7  -7    0.53    0.79
  14   7  -7    2.90    1.79
  14  -7  -7    2.39    2.09
  14   7  -6    7.55    3.10
  14  -7  -6    3.29    1.81
  14  -7  -6    5.36    2.38
  14   7  -5    9.79    3.90
  14  -7  -5   13.52    4.06
  14  -7  -5    7.23    3.55
  14   7  -4   -0.98    1.99
  14  -7  -4    5.89    2.79
  14  -7  -4    3.52    3.24
  14   7  -3    9.48    2.97
  14  -7  -3    5.21    2.62
  14  -7  -3    2.02    2.49
  14   7  -2    2.69    1.94
  14  -7  -2    4.43    2.46
  14  -7  -2    7.27    3.22
  14   7  -1   -1.37    2.46
  14  -7  -1    1.23    1.25
  14  -7  -1   -2.09    2.05
  14   7   0    7.96    3.11
  14  -7   0    5.75    2.15
  14   7   0    6.83    3.00
  14   7   1    0.59    2.16
  14  -7   1    0.35    2.42
  14   7   1    0.19    1.77
  14  -7   1    0.64    1.76
  14   7   2    6.49    2.92
  14  -7   2    8.56    3.73
  14   7   2    4.00    2.36
  14  -7   2    6.95    3.30
  14   7   3    4.78    3.42
  14  -7   3    2.26    1.88
  14   7   3    0.95    1.52
  14  -7   3    2.57    2.80
  14   7   4    2.18    2.06
  14  -7   4    4.31    2.34
  14   7   4    0.94    1.17
  14  -7   4    0.98    1.71
  14   7   5   12.61    3.50
  14  -7   5    6.47    2.69
  14   7   5   12.19    3.98
  14  -7   5    5.28    2.67
  14   7   6    6.35    2.94
  14  -7   6    9.86    4.57
  14   7   6    7.54    2.51
  14  -7   6    6.90    2.89
  14   7   7    2.63    2.41
  14  -7   7    4.76    3.54
  14   7   7    2.59    1.96
  14  -7   7    2.20    2.48
  14   7   8    8.18    3.60
  14  -7   8    4.03    2.41
  14   7   8    5.49    2.59
  14  -7   8    3.61    2.81
  14   7   9   -0.94    1.89
  14  -7   9    0.77    2.83
  14   7   9   -0.81    1.00
  14  -7   9   -0.25    2.32
  14   7  10   -0.63    1.21
  14  -7  10   -2.70    3.22
  14   7  10    0.16    2.20
  14  -7  10   -0.57    1.37
  14   7  11    2.01    2.68
  14  -7  11   -0.02    1.85
  14   7  11    3.22    2.29
  14  -7  11   -0.03    1.73
  14   7  12    2.15    1.56
  14  -7  12    0.85    1.36
  14   7  12    5.04    2.95
  14  -7  12    0.10    1.63
  14   7  13    3.91    2.54
  14  -7  13    0.70    1.43
  14   7  13    3.11    2.73
  14  -7  13    4.39    3.16
  14   8  -8    6.79    2.46
  14  -8  -8    6.49    3.64
  14  -8  -8    1.60    2.36
  14  -8  -7    0.88    1.59
  14   8  -7    2.16    1.14
  14  -8  -7   -2.15    2.53
  14  -8  -6    6.00    3.10
  14   8  -6    4.69    1.47
  14  -8  -6    3.16    3.41
  14  -8  -5    0.64    1.38
  14   8  -5   -1.21    1.78
  14  -8  -5    4.17    2.74
  14  -8  -4   11.74    3.90
  14   8  -4   16.13    3.81
  14  -8  -4    4.98    3.14
  14  -8  -3    0.33    0.87
  14   8  -3    8.79    3.02
  14  -8  -3    5.64    3.39
  14  -8  -2   -0.20    2.70
  14   8  -2   -0.10    1.92
  14  -8  -2   -7.17    3.64
  14  -8  -1   -0.65    1.83
  14   8  -1    0.47    1.71
  14  -8  -1    2.46    1.94
  14  -8   0   -1.87    1.90
  14   8   0    4.06    2.73
  14  -8   0    0.37    1.88
  14  -8   1    1.63    2.42
  14   8   1    0.30    1.35
  14   8   1    1.94    2.34
  14  -8   1    2.82    2.35
  14   8   2    0.67    1.12
  14  -8   2   -0.53    2.77
  14   8   2    0.19    1.17
  14  -8   2    1.28    1.84
  14   8   3    3.67    1.28
  14  -8   3    3.77    1.73
  14   8   3    4.50    2.80
  14  -8   3    2.96    2.64
  14   8   4    8.58    3.07
  14  -8   4    0.95    2.44
  14  -8   4    6.32    4.02
  14   8   4    6.69    3.60
  14   8   5   -0.25    2.11
  14  -8   5    0.52    1.25
  14  -8   5   -1.37    1.76
  14   8   5    0.83    1.74
  14   8   6    3.64    3.64
  14  -8   6    7.25    3.31
  14  -8   6    0.29    1.48
  14   8   6   -1.27    2.31
  14   8   7    0.44    1.53
  14  -8   7    6.83    3.25
  14  -8   7    5.85    3.24
  14   8   7    3.94    2.45
  14   8   8    2.60    2.76
  14  -8   8    2.21    1.56
  14  -8   8    4.42    2.76
  14   8   8   -0.14    1.42
  15   0 -20   -3.31    2.64
  15   0 -19   -3.50    3.32
  15   0 -18    1.09    2.75
  15   0 -17    4.74    3.37
  15   0 -16    0.68    2.24
  15   0 -15   -1.36    1.39
  15   0 -14   -1.75    1.53
  15   0 -13   -0.26    0.87
  15   0 -12    0.78    0.97
  15   0 -11   -1.16    1.07
  15   0 -10   -1.05    1.07
  15   0 -10   -0.93    1.28
  15   0  -9   -0.65    1.98
  15   0  -9   -1.12    0.94
  15   0  -8   -0.40    0.96
  15   0  -8   -1.17    1.80
  15   0  -7   -0.60    0.95
  15   0  -7    0.47    0.87
  15   0  -6   -0.60    1.72
  15   0  -6   -2.03    1.56
  15   0  -5   -0.44    1.85
  15   0  -5    0.44    1.17
  15   0  -4   -0.26    0.81
  15   0  -4   -0.89    1.56
  15   0  -3    0.35    1.21
  15   0  -3   -0.88    1.94
  15   0  -2   -0.29    0.96
  15   0  -2    0.53    1.70
  15   0  -1   -0.19    1.44
  15   0  -1    0.14    0.90
  15   0   0    0.43    1.35
  15   0   0    1.99    2.19
  15   0   1    0.37    0.82
  15   0   1   -0.65    2.11
  15   0   2    0.22    0.89
  15   0   2   -0.07    1.04
  15   0   3   -0.86    1.53
  15   0   3    1.34    1.09
  15   0   4    0.18    2.24
  15   0   4    0.40    2.10
  15   0   5   -0.65    1.25
  15   0   5    1.14    0.66
  15   0   6   -0.11    1.57
  15   0   7   -0.32    0.75
  15   0   8    0.03    0.89
  15   0   9   -0.53    0.93
  15   0  10    0.01    1.01
  15   0  11   -0.15    1.09
  15   0  12   -0.14    1.09
  15   0  13   -0.02    1.96
  15   0  14   -1.36    1.48
  15   0  15    1.32    2.41
  15   0  16   -0.22    1.43
  15   0  17    0.81    1.82
  15   0  18    1.19    1.62
  15   0  19    0.22    1.79
  15   0  20    2.15    2.64
  15   0  21    3.73    3.54
  15  -1 -21   -1.77    1.91
  15  -1 -20   -1.58    1.49
  15  -1 -19   -0.32    2.52
  15  -1 -18    0.55    1.64
  15  -1 -17    6.04    1.93
  15  -1 -16   12.85    3.73
  15   1 -15    6.21    4.28
  15  -1 -15    3.27    2.61
  15   1 -14    4.29    2.05
  15  -1 -14    0.24    0.93
  15   1 -13   53.01    7.25
  15  -1 -13   53.30    7.44
  15   1 -12    4.68    2.26
  15  -1 -12   10.03    3.34
  15  -1 -11    3.94    2.55
  15  -1 -11    2.74    2.45
  15   1 -11    1.56    1.74
  15  -1 -10    2.90    1.49
  15  -1 -10    3.44    1.75
  15   1 -10    7.04    2.89
  15  -1  -9   -0.62    1.92
  15   1  -9   -0.01    0.51
  15  -1  -9    1.01    2.15
  15   1  -9    2.95    1.17
  15  -1  -8   19.44    4.79
  15   1  -8   11.14    3.68
  15  -1  -8   13.93    3.84
  15   1  -8   15.93    4.10
  15   1  -8   13.39    3.84
  15  -1  -7   53.72    7.17
  15   1  -7   51.15    6.87
  15  -1  -7   52.77    7.17
  15   1  -7   54.58    7.28
  15   1  -7   50.66    7.15
  15  -1  -6    3.64    2.43
  15   1  -6    2.10    1.58
  15  -1  -6    5.68    2.40
  15   1  -6   -1.05    1.49
  15   1  -6    4.41    2.18
  15  -1  -5    6.97    2.44
  15   1  -5    9.82    2.98
  15  -1  -5   13.35    4.08
  15   1  -5   11.34    3.87
  15   1  -5    6.08    2.34
  15  -1  -4   13.34    3.47
  15   1  -4   11.49    3.29
  15  -1  -4   15.86    3.77
  15   1  -4    9.66    3.51
  15   1  -4   18.58    4.06
  15  -1  -3   44.75    6.45
  15   1  -3   33.62    5.21
  15  -1  -3   34.16    5.77
  15   1  -3   39.48    5.94
  15   1  -3   42.28    6.21
  15  -1  -2    1.67    1.44
  15   1  -2   -0.10    0.72
  15  -1  -2    0.95    0.98
  15   1  -2    0.61    1.31
  15  -1  -1    1.37    1.04
  15  -1  -1    1.24    1.71
  15   1  -1    3.66    3.00
  15   1  -1    0.50    1.48
  15   1  -1   -0.44    0.80
  15  -1   0    0.46    1.00
  15  -1   0    0.06    1.54
  15   1   0   -0.85    1.20
  15   1   0    0.75    1.72
  15   1   0   -0.89    1.38
  15  -1   1   -0.16    2.06
  15  -1   1   -1.29    1.86
  15   1   1   -0.64    1.61
  15   1   1   -1.07    1.53
  15   1   1    1.68    1.99
  15  -1   2    0.61    1.64
  15  -1   2    1.52    1.85
  15   1   2    3.58    1.54
  15   1   2    0.16    1.18
  15   1   2    1.08    1.09
  15  -1   3   39.91    5.96
  15   1   3   39.34    5.94
  15  -1   3   42.41    6.19
  15   1   3   46.88    6.68
  15   1   3   36.42    5.74
  15  -1   4   12.40    3.73
  15  -1   4   15.87    4.14
  15   1   4   15.07    3.83
  15   1   4   24.24    4.93
  15   1   4   14.47    3.63
  15  -1   5   11.51    3.39
  15  -1   5   15.59    3.56
  15   1   5    6.17    2.07
  15   1   5   14.62    3.81
  15  -1   6    5.14    3.19
  15  -1   6    4.19    2.41
  15   1   6    4.40    1.94
  15   1   6    1.08    1.23
  15  -1   7   47.78    6.70
  15   1   7   56.65    7.19
  15   1   7   48.92    6.55
  15   1   8   15.11    3.85
  15  -1   8   12.64    3.53
  15   1   8    8.28    2.91
  15   1   9    1.11    1.42
  15  -1   9    2.09    1.76
  15   1   9    3.17    1.80
  15   1  10    3.95    1.99
  15  -1  10    8.94    3.05
  15   1  10    6.30    3.08
  15   1  11    2.54    2.31
  15  -1  11    3.38    1.93
  15   1  11    1.37    1.71
  15   1  12    7.29    2.00
  15  -1  12   10.23    3.78
  15  -1  13   64.97    8.17
  15   1  13   68.76    7.98
  15   1  14    5.64    2.18
  15  -1  14    0.48    2.50
  15   1  15    1.30    1.03
  15  -1  15   -0.46    1.52
  15   1  16    8.80    3.83
  15  -1  16    9.08    3.23
  15   1  17   14.10    3.99
  15  -1  17   15.95    4.13
  15   1  18    3.02    3.19
  15  -1  18    0.57    1.57
  15   1  19    5.36    2.92
  15  -1  19    6.04    2.80
  15   1  20   -0.17    1.89
  15  -1  20    1.64    2.28
  15   1  21    1.53    2.06
  15  -1  21   -0.49    1.75
  15  -2 -21    4.35    2.52
  15  -2 -20    1.25    2.59
  15  -2 -19    7.86    3.07
  15  -2 -18   -1.13    1.75
  15  -2 -17    1.79    2.61
  15  -2 -16    3.50    2.12
  15  -2 -15    2.13    1.84
  15  -2 -14    2.67    1.54
  15  -2 -13   14.78    4.02
  15   2 -13    9.95    3.44
  15  -2 -12    1.93    2.53
  15  -2 -12   -0.66    1.95
  15   2 -12    2.50    2.43
  15  -2 -11    1.54    1.62
  15  -2 -11    4.68    2.57
  15   2 -11    0.54    1.17
  15  -2 -10    3.47    1.99
  15  -2 -10    4.24    0.87
  15   2 -10    3.66    1.60
  15  -2  -9    2.32    1.13
  15  -2  -9   -0.62    1.34
  15   2  -9    1.60    1.97
  15   2  -9    4.26    2.63
  15  -2  -8    1.41    0.88
  15  -2  -8    1.59    0.97
  15   2  -8    3.55    1.75
  15   2  -8    2.04    0.74
  15  -2  -7    6.93    2.50
  15   2  -7    6.54    2.62
  15  -2  -7    8.17    2.57
  15   2  -7   10.33    3.19
  15   2  -7   12.09    3.45
  15  -2  -6    1.88    2.01
  15  -2  -6    2.27    2.50
  15   2  -6    2.20    2.26
  15   2  -6    1.26    1.58
  15   2  -6    0.60    1.66
  15  -2  -5    5.70    2.78
  15  -2  -5   10.56    2.91
  15   2  -5    3.38    1.81
  15   2  -5    4.10    1.74
  15   2  -5    3.59    1.82
  15  -2  -4    2.09    2.04
  15  -2  -4    1.67    1.82
  15   2  -4    2.20    1.37
  15   2  -4    2.76    2.63
  15   2  -4    0.65    1.46
  15  -2  -3    1.21    2.24
  15  -2  -3    1.65    1.81
  15   2  -3    0.30    0.96
  15   2  -3    0.24    1.52
  15   2  -3    1.03    2.37
  15  -2  -2    2.08    1.84
  15  -2  -2    0.49    1.09
  15   2  -2   -0.80    1.94
  15   2  -2    0.58    2.25
  15   2  -2    2.31    0.87
  15  -2  -1    3.27    2.58
  15  -2  -1    0.97    2.05
  15   2  -1    0.02    1.78
  15   2  -1    2.77    2.32
  15   2  -1    0.16    1.30
  15  -2   0   -0.79    0.86
  15  -2   0   -1.05    0.88
  15   2   0   -1.05    1.88
  15   2   0    0.69    1.89
  15   2   0    2.25    1.87
  15   2   1    2.83    1.54
  15  -2   1    3.44    2.40
  15  -2   1    1.43    1.38
  15   2   1    4.03    2.21
  15   2   1    1.88    1.96
  15   2   2    0.40    1.30
  15  -2   2    0.98    1.17
  15  -2   2    1.02    2.41
  15   2   2    1.24    2.11
  15   2   2    2.07    2.05
  15   2   3   -1.04    1.56
  15  -2   3   -0.30    1.24
  15  -2   3   -0.12    1.37
  15   2   3   -0.58    0.89
  15   2   3    1.17    1.39
  15   2   4    1.02    1.19
  15  -2   4    1.42    2.01
  15  -2   4    1.82    1.45
  15   2   4    1.08    1.68
  15   2   5    3.82    1.84
  15  -2   5    3.37    1.76
  15  -2   5    7.88    3.18
  15   2   5    5.79    2.58
  15   2   6    3.66    1.77
  15  -2   6   -0.05    1.76
  15  -2   6    1.26    1.37
  15   2   6    2.48    1.43
  15   2   7   11.14    3.30
  15  -2   7    4.75    2.52
  15  -2   7    7.80    2.86
  15   2   7    6.19    2.40
  15   2   8    0.09    1.69
  15  -2   8    0.31    1.33
  15  -2   8    4.05    3.02
  15   2   8    2.79    1.66
  15   2   9    2.48    0.90
  15  -2   9    2.16    0.97
  15   2   9    3.58    2.53
  15   2  10    3.27    1.85
  15  -2  10    5.39    3.35
  15   2  10    4.09    1.92
  15   2  11    1.31    1.81
  15  -2  11    0.79    1.29
  15   2  11    3.49    2.08
  15   2  12    1.53    1.81
  15  -2  12   -1.87    2.01
  15   2  13   11.30    3.78
  15  -2  13   21.08    4.81
  15   2  14   -1.04    0.95
  15  -2  14    4.91    2.43
  15   2  15    5.78    3.31
  15  -2  15    2.57    2.06
  15   2  16   10.77    4.03
  15  -2  16    7.72    3.33
  15   2  17   -0.76    2.19
  15  -2  17   -0.93    1.48
  15   2  18    1.11    2.71
  15  -2  18    0.77    1.99
  15   2  19    1.37    1.65
  15  -2  19    1.19    1.78
  15   2  20    0.17    2.13
  15  -2  20   -3.35    2.55
  15   2  21   -0.92    1.09
  15  -2  21    3.68    3.28
  15  -3 -20    4.36    2.38
  15  -3 -19    1.61    1.94
  15  -3 -18   12.05    3.22
  15  -3 -17   13.80    4.61
  15  -3 -16    2.36    2.22
  15   3 -16    0.14    1.08
  15  -3 -15    0.44    2.58
  15   3 -15   -0.50    1.41
  15  -3 -14    8.40    3.71
  15   3 -14   10.23    3.61
  15  -3 -13    3.55    2.80
  15  -3 -13    4.53    2.07
  15   3 -13   11.02    4.11
  15  -3 -12   19.23    4.82
  15  -3 -12   29.66    6.01
  15   3 -12   24.06    4.96
  15  -3 -11    5.14    2.39
  15  -3 -11    5.43    2.08
  15   3 -11    2.74    1.61
  15  -3 -10   -1.59    2.85
  15  -3 -10    2.63    1.67
  15   3 -10    2.11    2.28
  15  -3  -9    5.76    2.55
  15  -3  -9    6.41    3.51
  15   3  -9    6.07    2.60
  15  -3  -8   11.99    3.58
  15  -3  -8   12.45    3.85
  15   3  -8   12.96    3.19
  15  -3  -7    6.42    2.18
  15  -3  -7   11.36    3.33
  15   3  -7   10.76    3.32
  15  -3  -6    9.22    2.97
  15  -3  -6   12.86    3.90
  15   3  -6   16.95    3.83
  15   3  -6   13.72    3.91
  15  -3  -5    7.60    2.77
  15  -3  -5   14.34    3.44
  15   3  -5   13.14    3.57
  15   3  -5    4.86    2.08
  15  -3  -4    7.91    2.62
  15   3  -4   14.09    5.01
  15  -3  -4   10.92    3.71
  15   3  -4    3.21    1.44
  15   3  -4    9.63    2.88
  15  -3  -3   38.82    6.23
  15   3  -3   36.14    5.49
  15  -3  -3   44.36    6.72
  15   3  -3   36.29    5.70
  15   3  -3   35.44    5.66
  15   3  -2   13.85    3.87
  15  -3  -2   10.43    3.31
  15  -3  -2   17.55    3.69
  15   3  -2   11.61    2.55
  15   3  -2   15.09    3.98
  15   3  -1    8.87    2.73
  15  -3  -1   14.33    3.86
  15  -3  -1   11.51    3.42
  15   3  -1   12.63    3.11
  15   3  -1    9.24    3.37
  15   3   0   14.91    3.55
  15  -3   0    9.94    2.46
  15  -3   0   16.98    3.79
  15   3   0   13.68    4.02
  15   3   0   10.45    3.32
  15   3   1   13.27    3.25
  15  -3   1   15.59    4.10
  15  -3   1   13.66    3.74
  15   3   1   14.20    3.75
  15   3   1   15.20    4.06
  15   3   2   12.87    3.71
  15  -3   2   18.96    4.43
  15  -3   2   10.36    3.52
  15   3   2   19.20    4.19
  15   3   2   17.49    4.07
  15  -3   3   27.45    5.05
  15   3   3   35.55    5.90
  15  -3   3   34.83    5.81
  15   3   3   37.83    5.82
  15   3   4    5.72    2.54
  15   3   4    4.63    2.29
  15  -3   4   12.06    3.82
  15  -3   4   10.43    3.49
  15   3   5    8.07    2.37
  15   3   5   11.05    3.06
  15  -3   5    3.50    2.08
  15  -3   5    7.92    3.76
  15   3   6   10.94    3.76
  15   3   6   14.04    3.36
  15  -3   6   11.72    3.69
  15  -3   6    7.85    3.02
  15   3   7    9.73    3.55
  15   3   7    8.30    2.92
  15  -3   7    8.57    3.31
  15  -3   7    5.52    2.23
  15   3   8   18.35    4.63
  15   3   8    9.47    2.84
  15  -3   8   13.01    3.51
  15  -3   8   14.18    3.41
  15   3   9    5.36    1.68
  15  -3   9    3.08    1.41
  15  -3   9    5.84    2.83
  15   3   9    8.34    2.38
  15   3  10    2.54    1.21
  15  -3  10    2.39    2.43
  15  -3  10    1.14    2.06
  15   3  10    4.41    2.17
  15   3  11    2.87    1.96
  15  -3  11    4.23    2.34
  15  -3  11    4.80    3.31
  15   3  11    6.07    2.94
  15   3  12   25.18    4.78
  15  -3  12   26.14    5.21
  15   3  12   21.36    5.24
  15   3  13    2.65    1.08
  15  -3  13    0.07    1.43
  15   3  14   11.28    3.56
  15  -3  14    5.25    2.59
  15   3  15    0.52    1.79
  15  -3  15    4.34    3.62
  15   3  16   -0.69    1.11
  15  -3  16    0.20    2.19
  15   3  17   10.73    4.03
  15  -3  17   14.54    4.73
  15   3  18   12.89    3.98
  15  -3  18   13.48    4.24
  15   3  19   -1.38    2.43
  15  -3  19   -0.50    1.60
  15   3  20    2.08    3.02
  15  -3  20    5.07    2.89
  15  -4 -18    4.55    2.75
  15   4 -18   -2.29    2.15
  15  -4 -17    1.02    1.16
  15   4 -17    3.90    1.19
  15  -4 -16    3.50    2.47
  15   4 -16    0.14    1.95
  15  -4 -15    0.60    1.45
  15   4 -15    7.65    3.80
  15  -4 -14    8.01    3.06
  15  -4 -14    6.10    3.26
  15   4 -14    6.81    2.94
  15  -4 -13    4.56    2.22
  15  -4 -13   11.16    3.09
  15   4 -13    6.70    2.66
  15  -4 -12    1.01    1.63
  15  -4 -12    2.33    2.32
  15   4 -12    3.30    2.63
  15  -4 -11   11.25    3.41
  15  -4 -11    8.61    3.23
  15   4 -11    8.39    3.23
  15  -4 -10   -1.12    1.57
  15  -4 -10   -1.14    1.56
  15   4 -10    2.16    1.47
  15  -4  -9    3.74    1.65
  15   4  -9    0.85    1.21
  15  -4  -8    7.33    3.43
  15  -4  -8    6.49    3.18
  15   4  -8    7.00    2.67
  15  -4  -7   15.82    4.31
  15  -4  -7    8.91    3.29
  15   4  -7   15.90    4.02
  15  -4  -6    2.10    2.04
  15  -4  -6    8.09    2.18
  15   4  -6    4.94    2.33
  15   4  -5   -1.71    1.96
  15  -4  -5    9.58    3.61
  15  -4  -5    6.33    3.58
  15   4  -5    6.83    2.57
  15   4  -4    0.66    1.49
  15   4  -4    4.44    2.88
  15  -4  -4    2.38    2.31
  15  -4  -4    1.94    2.32
  15   4  -3    1.11    1.65
  15   4  -3   -1.43    2.36
  15  -4  -3    5.91    2.72
  15  -4  -3    0.79    1.48
  15   4  -2    1.84    2.60
  15   4  -2    0.64    1.48
  15  -4  -2    1.03    2.17
  15  -4  -2    2.68    3.20
  15   4  -1    4.38    1.54
  15   4  -1    5.51    2.62
  15  -4  -1    3.63    2.47
  15  -4  -1    2.45    2.68
  15   4   0    5.18    2.19
  15   4   0   10.65    3.22
  15  -4   0   10.12    3.06
  15  -4   0    9.26    2.51
  15   4   1    8.06    3.29
  15   4   1    0.44    0.76
  15  -4   1    7.39    2.71
  15  -4   1    3.56    1.85
  15   4   2   -0.30    1.09
  15   4   2    1.42    2.20
  15  -4   2   -0.16    1.54
  15  -4   2   -0.48    1.93
  15   4   2    5.26    3.67
  15   4   3   -0.10    1.76
  15   4   3   -0.25    1.20
  15  -4   3   -0.48    0.80
  15  -4   3    0.26    2.27
  15   4   4    3.08    1.06
  15   4   4    2.37    0.92
  15  -4   4    3.68    1.12
  15  -4   4    0.71    1.70
  15   4   5    8.21    2.41
  15   4   5    3.93    1.88
  15  -4   5    4.50    2.71
  15  -4   5    4.99    1.87
  15   4   6    7.96    2.56
  15   4   6    7.49    2.88
  15  -4   6    4.62    1.60
  15  -4   6    9.66    3.60
  15   4   7   10.44    2.89
  15   4   7   13.35    3.29
  15  -4   7   10.20    3.68
  15  -4   7    7.12    3.22
  15   4   8   12.26    3.76
  15   4   8   11.09    3.47
  15  -4   8    1.93    2.47
  15  -4   8   12.70    4.18
  15   4   9    4.84    1.97
  15   4   9    6.14    2.63
  15  -4   9    5.83    2.89
  15  -4   9    4.61    1.62
  15   4  10    0.74    1.90
  15   4  10    0.24    1.18
  15  -4  10    1.55    1.59
  15  -4  10    2.46    3.27
  15   4  11   14.51    4.38
  15   4  11   10.46    3.27
  15  -4  11   12.11    3.05
  15  -4  11   10.76    3.02
  15   4  12    5.51    2.39
  15   4  12    0.15    2.10
  15  -4  12    3.21    1.31
  15  -4  12    1.31    2.75
  15   4  13    8.20    2.82
  15  -4  13    3.93    1.96
  15   4  14    9.46    3.44
  15  -4  14   11.91    4.47
  15  -4  14   16.12    4.72
  15   4  15    5.82    2.97
  15  -4  15    4.07    2.05
  15   4  16    4.01    2.86
  15  -4  16    0.78    2.30
  15   4  17    3.44    2.62
  15  -4  17   -1.68    2.52
  15   4  18    0.90    1.50
  15  -4  18    1.02    2.66
  15  -5 -17    6.16    3.29
  15   5 -17    9.16    4.29
  15  -5 -16    0.86    0.99
  15   5 -16    1.77    2.71
  15  -5 -15    3.46    2.47
  15   5 -15    2.76    1.90
  15  -5 -15    7.25    3.84
  15  -5 -14    3.80    3.43
  15  -5 -14    6.97    3.17
  15   5 -14    2.69    2.51
  15  -5 -13   12.04    3.71
  15  -5 -13   16.14    3.95
  15   5 -13   21.31    4.38
  15  -5 -12    0.31    2.17
  15  -5 -12   -1.20    1.23
  15   5 -12    0.97    1.93
  15  -5 -11    1.57    1.18
  15  -5 -11    0.84    2.24
  15   5 -11    6.25    3.17
  15  -5 -10   11.24    3.25
  15  -5 -10    8.25    3.70
  15   5 -10    7.00    2.92
  15  -5  -9   29.22    5.17
  15  -5  -9   31.68    6.25
  15   5  -9   28.30    5.61
  15   5  -8    0.91    1.25
  15  -5  -8   -0.66    1.43
  15  -5  -8    3.29    3.11
  15   5  -7    4.64    2.14
  15  -5  -7    7.01    2.00
  15  -5  -7   10.96    3.78
  15   5  -6    7.35    2.71
  15  -5  -6    5.82    2.82
  15  -5  -6    5.19    3.03
  15   5  -5   -0.47    1.31
  15  -5  -5   -0.69    0.85
  15  -5  -5   -2.59    2.08
  15   5  -4    5.46    3.30
  15  -5  -4    6.98    2.68
  15  -5  -4    2.20    1.81
  15   5  -3   25.85    5.39
  15  -5  -3   29.27    5.25
  15   5  -3   35.27    6.36
  15  -5  -3   32.99    6.08
  15   5  -2   -0.94    0.96
  15   5  -2    3.47    2.40
  15  -5  -2    0.62    2.12
  15  -5  -2    3.38    2.42
  15   5  -1   17.75    3.70
  15  -5  -1   26.23    5.43
  15   5  -1   29.26    5.67
  15  -5  -1   25.51    5.32
  15   5   0   20.08    4.67
  15  -5   0   17.09    3.82
  15   5   0   16.91    4.31
  15  -5   0   20.35    4.48
  15   5   1   28.52    5.34
  15  -5   1   26.41    4.92
  15   5   1   20.37    4.51
  15  -5   1   28.41    5.62
  15   5   2   -1.05    1.74
  15  -5   2   -0.26    1.71
  15  -5   2    0.22    1.35
  15  -5   3   27.66    5.58
  15   5   3   32.27    5.59
  15  -5   3   31.46    6.05
  15   5   3   34.24    5.82
  15   5   4    5.44    2.30
  15  -5   4    2.39    1.62
  15   5   4    4.90    1.88
  15  -5   4    4.69    2.58
  15   5   5   -0.11    1.59
  15  -5   5    0.98    1.41
  15   5   5   -0.96    1.30
  15  -5   5   -0.55    1.39
  15   5   6    6.60    3.02
  15  -5   6    7.26    2.59
  15   5   6    3.46    1.64
  15  -5   6    5.12    3.54
  15   5   7    4.50    2.37
  15  -5   7   11.06    3.60
  15  -5   7    4.25    3.09
  15   5   8   -1.85    2.48
  15  -5   8    0.27    1.39
  15   5   8    3.31    2.66
  15  -5   8    3.96    2.79
  15   5   9   27.96    5.87
  15  -5   9   29.31    5.55
  15   5   9   28.19    5.51
  15  -5   9   33.23    5.87
  15   5  10    8.45    3.08
  15  -5  10    3.97    1.96
  15   5  10    6.36    2.81
  15  -5  10   10.29    3.89
  15   5  11    2.90    1.72
  15  -5  11    3.50    2.47
  15   5  11    1.80    1.33
  15  -5  11    1.61    1.68
  15   5  12    3.96    2.03
  15  -5  12    0.74    1.20
  15   5  12    4.37    2.26
  15  -5  12    4.43    2.01
  15   5  13   14.90    3.86
  15  -5  13   15.72    3.84
  15   5  13   14.85    3.91
  15  -5  13   16.35    4.59
  15  -5  14    1.70    1.86
  15   5  14    2.67    1.26
  15  -5  14   -0.77    2.31
  15  -5  15    0.91    2.23
  15   5  15    7.56    2.66
  15  -5  15    2.96    2.53
  15  -5  16    5.19    2.82
  15   5  16    2.35    2.50
  15  -5  16    2.10    3.08
  15  -5  17    8.80    3.69
  15   5  17   -0.43    2.33
  15  -5  17   10.36    4.16
  15  -6 -14    2.05    1.85
  15  -6 -14    1.84    2.29
  15   6 -14   -1.15    1.21
  15  -6 -13   -0.91    2.77
  15   6 -13    0.05    1.03
  15  -6 -13   -0.18    1.68
  15  -6 -12    1.67    2.05
  15  -6 -12    2.53    2.10
  15   6 -12    0.84    2.50
  15   6 -11    2.49    1.94
  15  -6 -11    0.30    1.39
  15  -6 -11    0.89    1.80
  15   6 -10    6.91    3.12
  15  -6 -10    5.15    2.90
  15  -6 -10    4.59    2.19
  15   6  -9   -0.25    2.09
  15  -6  -9    1.30    1.86
  15  -6  -9    4.59    3.10
  15   6  -8    2.78    1.18
  15  -6  -8    5.21    3.57
  15  -6  -8   -0.92    1.09
  15   6  -7   -0.33    1.76
  15  -6  -7    1.41    2.81
  15  -6  -7    2.30    2.19
  15   6  -6    0.64    1.14
  15  -6  -6    3.94    2.51
  15  -6  -6    2.57    2.00
  15  -6  -5   -0.41    0.87
  15  -6  -5    0.12    1.01
  15   6  -4    5.73    2.96
  15  -6  -4   10.27    3.38
  15  -6  -4   14.04    4.57
  15   6  -3   -0.07    1.70
  15  -6  -3    1.47    1.58
  15  -6  -3    0.15    2.06
  15   6  -2    6.61    2.60
  15  -6  -2    4.48    2.74
  15  -6  -2    8.63    3.45
  15  -6  -1    9.18    3.02
  15   6  -1    6.24    2.55
  15  -6  -1    4.84    2.62
  15   6   0   11.99    3.81
  15  -6   0    8.91    3.57
  15   6   0   16.45    4.51
  15  -6   0   11.45    4.48
  15   6   1   13.39    4.54
  15  -6   1    7.13    3.09
  15   6   1    9.43    3.25
  15  -6   1    4.23    1.65
  15   6   2    7.20    2.85
  15  -6   2    1.75    2.20
  15   6   2    6.23    2.33
  15  -6   2    1.09    1.82
  15   6   3   -1.75    2.23
  15  -6   3    0.05    2.09
  15   6   3   -0.67    1.96
  15  -6   3    0.55    1.51
  15   6   4    5.95    2.93
  15  -6   4    0.43    2.18
  15   6   4    4.63    2.26
  15  -6   4    7.54    3.77
  15   6   5   -0.68    2.17
  15  -6   5    3.12    2.70
  15   6   5   -0.83    0.96
  15  -6   5    2.22    2.46
  15   6   6    4.98    2.68
  15  -6   6    2.94    2.89
  15   6   6    1.64    1.45
  15  -6   6    2.37    2.22
  15   6   7    1.35    1.15
  15  -6   7   -1.39    0.87
  15   6   7    0.90    0.91
  15  -6   7    0.07    1.82
  15   6   8   -0.36    1.93
  15  -6   8    0.48    2.96
  15   6   8   -0.36    1.30
  15  -6   8   -0.53    2.10
  15   6   9   -0.36    1.84
  15  -6   9    1.74    2.43
  15   6   9    0.18    1.87
  15  -6   9    4.33    2.75
  15  -6  10   -0.23    2.06
  15   6  10    2.07    1.87
  15  -6  10    5.84    2.97
  15   6  11   -1.19    1.58
  15  -6  11   -0.34    1.62
  15   6  11    3.43    2.84
  15  -6  11    0.72    1.22
  15   6  12    2.04    1.29
  15  -6  12    2.31    1.57
  15   6  12    2.01    2.85
  15  -6  12    5.56    2.98
  15   6  13    1.80    2.74
  15  -6  13   -2.94    2.64
  15   6  13   -1.33    2.05
  15  -6  13    0.69    3.01
  15   6  14   -0.74    1.88
  15  -6  14    0.24    1.86
  15  -7 -10    3.67    2.84
  15   7 -10    1.04    0.92
  15  -7  -9    4.89    2.46
  15   7  -9   11.22    3.76
  15  -7  -9    7.20    3.15
  15   7  -8   -0.51    1.62
  15  -7  -8    0.94    1.46
  15  -7  -8    0.29    1.70
  15   7  -7    2.96    1.51
  15  -7  -7    4.35    2.50
  15  -7  -7    3.25    3.01
  15   7  -6   -1.32    2.29
  15  -7  -6    2.40    1.64
  15  -7  -6    2.13    2.30
  15   7  -5   -0.95    1.69
  15  -7  -5   -0.32    1.35
  15   7  -4    4.82    3.18
  15  -7  -4    1.41    1.99
  15  -7  -4   -0.55    2.92
  15   7  -3   11.12    3.95
  15  -7  -3    6.92    2.58
  15  -7  -3    7.91    4.13
  15   7  -2    2.01    1.97
  15  -7  -2    1.57    2.28
  15  -7  -2    0.38    2.23
  15   7  -1    8.14    4.05
  15  -7  -1    6.79    3.24
  15  -7  -1   12.40    3.87
  15   7   0    7.18    4.06
  15  -7   0    0.87    1.95
  15   7   0    0.91    2.02
  15  -7   0    5.91    2.94
  15   7   1    3.24    2.33
  15  -7   1    8.94    3.87
  15   7   1    9.83    3.94
  15  -7   1    7.83    3.90
  15   7   2    2.30    2.40
  15  -7   2    0.15    1.66
  15   7   2    0.59    1.09
  15  -7   2    1.28    1.18
  15   7   3    7.47    3.46
  15   7   3    3.85    1.46
  15  -7   3   10.24    3.64
  15   7   4    4.73    2.53
  15  -7   4    0.52    2.11
  15   7   4    0.83    2.03
  15  -7   4    3.68    2.68
  15   7   5    0.13    1.54
  15  -7   5    3.42    3.01
  15   7   5    3.36    3.04
  15  -7   5   -0.43    3.30
  15   7   6    2.51    2.26
  15  -7   6   -0.88    1.39
  15   7   6    1.39    2.26
  15  -7   6    2.15    2.06
  15   7   7    5.76    2.63
  15  -7   7    3.92    3.24
  15   7   7    4.69    2.24
  15  -7   7    7.77    3.47
  15   7   8   -1.00    2.22
  15  -7   8   -0.20    2.66
  15   7   8    1.50    1.39
  15  -7   8    0.81    2.86
  15   7   9    7.78    3.88
  15  -7   9    7.44    3.20
  15   7   9    6.97    2.91
  15  -7   9    6.50    3.51
  15   7  10    0.66    1.83
  15   7  10    3.36    2.54
  15  -7  10    0.34    1.51
  15  -8  -3    2.97    2.41
  15   8  -3   -0.22    1.57
  15  -8  -3    3.31    1.83
  15  -8  -2    2.02    1.09
  15   8  -2    6.82    2.12
  15  -8  -2    6.32    2.46
  15   8  -1    3.09    2.06
  15  -8  -1    3.75    3.19
  15  -8  -1    0.71    1.90
  15   8   0    5.98    3.28
  15  -8   0    6.49    2.79
  15  -8   0    1.94    2.31
  15   8   1    1.42    1.45
  15  -8   1    4.42    1.90
  15   8   2    4.45    2.91
  15  -8   2    0.35    1.71
  15   8   2    3.97    1.74
  15  -8   2    4.55    3.08
  15   8   3   -2.74    2.68
  15  -8   3   -2.02    1.58
  15   8   3    0.01    1.97
  15  -8   3    0.78    3.12
  16   0 -18   19.93    4.63
  16   0 -17   21.06    4.95
  16   0 -16    4.08    1.71
  16   0 -15    1.39    1.32
  16   0 -14    4.90    1.24
  16   0 -13   46.51    7.83
  16   0 -12    5.70    2.48
  16   0 -11    8.70    3.19
  16   0 -10    9.70    3.62
  16   0  -9    5.14    3.03
  16   0  -9    4.19    2.50
  16   0  -8   15.32    4.45
  16   0  -8   13.07    3.76
  16   0  -7   48.74    6.66
  16   0  -7   57.19    7.63
  16   0  -6    3.36    2.18
  16   0  -6    8.63    2.89
  16   0  -5    1.08    1.06
  16   0  -5    2.47    0.94
  16   0  -4   23.20    4.89
  16   0  -4   23.74    4.97
  16   0  -3   37.18    6.10
  16   0  -3   37.04    5.99
  16   0  -2   47.97    6.66
  16   0  -2   58.21    7.74
  16   0  -1   10.42    3.14
  16   0  -1   12.01    3.56
  16   0   0    4.55    3.06
  16   0   0    4.46    2.47
  16   0   1    5.12    2.11
  16   0   1    8.81    3.00
  16   0   2   59.08    7.44
  16   0   2   69.62    8.35
  16   0   3   33.64    5.58
  16   0   3   38.92    6.20
  16   0   4   17.88    4.46
  16   0   4   14.75    4.06
  16   0   5    1.66    1.38
  16   0   5    3.04    2.64
  16   0   6    7.75    2.91
  16   0   6    6.16    3.09
  16   0   7   54.24    7.52
  16   0   8   12.42    3.92
  16   0   9    5.72    1.65
  16   0  10   13.47    3.60
  16   0  11   15.42    4.34
  16   0  12    7.27    3.42
  16   0  13   66.33    8.33
  16   0  14    1.90    2.37
  16   0  15    2.63    2.14
  16   0  16    8.83    3.56
  16   0  17   30.20    6.08
  16   0  18   14.19    4.55
  16   0  19   24.45    5.42
  16  -1 -19    1.47    2.11
  16  -1 -18   -1.49    1.17
  16  -1 -17   -2.93    3.19
  16  -1 -16    0.81    1.87
  16  -1 -15    0.30    1.40
  16   1 -14   -3.90    2.05
  16  -1 -14    2.34    1.84
  16   1 -13    1.89    2.62
  16  -1 -13   -0.82    2.08
  16   1 -12   -0.79    0.98
  16  -1 -12   -0.61    0.89
  16  -1 -11    0.54    0.98
  16   1 -11   -0.82    1.66
  16  -1 -10    0.36    2.30
  16  -1 -10    2.36    1.81
  16   1 -10    0.29    1.02
  16  -1  -9   -0.99    1.67
  16  -1  -9    1.09    1.42
  16   1  -9    4.48    2.54
  16  -1  -8    1.16    1.79
  16   1  -8    0.15    1.99
  16  -1  -8    3.95    2.95
  16   1  -8    2.54    2.27
  16  -1  -7    1.11    1.35
  16   1  -7   -0.60    1.48
  16  -1  -7    0.73    1.72
  16   1  -7    1.58    2.83
  16  -1  -6    0.28    1.10
  16   1  -6    3.76    1.92
  16  -1  -6    1.41    1.07
  16   1  -6    1.33    2.38
  16   1  -6    5.00    2.35
  16  -1  -5    5.17    2.26
  16   1  -5    4.70    2.01
  16  -1  -5   11.33    3.38
  16   1  -5    5.70    2.59
  16   1  -5    5.53    2.57
  16  -1  -4    0.06    0.86
  16   1  -4   -0.02    1.20
  16  -1  -4    3.50    2.06
  16   1  -4    0.54    1.36
  16   1  -4    0.14    1.34
  16  -1  -3    9.85    3.21
  16   1  -3   10.10    3.93
  16  -1  -3    8.69    3.09
  16   1  -3   10.47    3.57
  16   1  -3   11.44    3.62
  16  -1  -2    0.71    2.60
  16   1  -2    0.32    1.69
  16  -1  -2    0.69    1.64
  16   1  -2    1.02    2.06
  16   1  -2    1.13    1.49
  16  -1  -1    5.16    1.88
  16   1  -1    3.35    1.99
  16  -1  -1    2.78    1.88
  16   1  -1    3.05    1.77
  16   1  -1    6.96    1.84
  16  -1   0    0.16    1.15
  16  -1   0   -1.12    1.76
  16   1   0    1.10    0.77
  16   1   0    0.52    1.27
  16   1   0    1.62    0.99
  16  -1   1    0.78    1.46
  16  -1   1    3.18    2.23
  16   1   1    3.68    1.73
  16   1   1    4.67    2.35
  16   1   1    2.72    1.70
  16  -1   2   -0.19    0.95
  16  -1   2   -0.35    1.19
  16   1   2    0.17    0.85
  16   1   2   -0.50    1.13
  16   1   2   -1.39    2.32
  16  -1   3   10.57    3.54
  16  -1   3   10.40    3.73
  16   1   3   12.46    3.63
  16   1   3   13.65    3.78
  16   1   3   11.92    3.78
  16  -1   4    0.50    1.31
  16  -1   4    0.04    0.89
  16   1   4    2.66    3.30
  16   1   4    1.03    2.00
  16   1   4    0.51    1.33
  16  -1   5    5.40    1.73
  16  -1   5    4.71    2.41
  16   1   5   12.87    3.59
  16   1   5    6.83    2.96
  16   1   5    8.71    2.86
  16  -1   6   -1.19    1.36
  16  -1   6    4.32    2.77
  16   1   6    2.22    1.02
  16   1   6    3.09    2.20
  16  -1   7    4.30    2.77
  16  -1   7   -0.69    1.38
  16   1   7   -0.74    2.23
  16   1   7    1.00    1.83
  16  -1   8    0.13    0.89
  16  -1   8   -0.81    1.30
  16   1   8    0.33    2.27
  16   1   8    0.83    1.70
  16  -1   9    5.40    2.81
  16   1   9    7.23    3.29
  16   1   9    4.82    2.91
  16  -1  10   -0.82    1.74
  16   1  10    1.15    1.12
  16   1  10   -0.97    0.86
  16   1  11    0.56    1.43
  16  -1  11   -3.05    2.56
  16   1  12    1.97    1.54
  16  -1  12   -0.74    1.82
  16   1  13    3.41    2.86
  16  -1  13    0.44    1.11
  16   1  14    8.44    3.22
  16  -1  14    4.05    2.51
  16   1  15    3.09    3.04
  16  -1  15   10.16    4.07
  16   1  16    1.17    1.72
  16  -1  16    2.12    3.16
  16   1  17    5.94    3.19
  16  -1  17    2.78    1.63
  16   1  18    3.69    2.74
  16  -1  18   -1.45    2.62
  16   1  19    0.55    1.76
  16  -1  19    0.19    1.65
  16  -2 -19    3.86    1.83
  16  -2 -18    1.15    2.48
  16  -2 -17   20.81    5.18
  16  -2 -16    2.39    1.09
  16  -2 -15    3.80    3.08
  16  -2 -14    1.80    2.48
  16  -2 -13   18.29    5.48
  16  -2 -12    5.08    2.22
  16   2 -12    5.28    3.52
  16  -2 -11    6.38    2.68
  16  -2 -11   12.60    4.23
  16   2 -11    5.22    3.14
  16  -2 -10    3.78    1.41
  16  -2 -10    0.92    0.81
  16   2 -10    2.00    1.66
  16  -2  -9    6.90    2.89
  16  -2  -9    2.23    1.83
  16   2  -9    2.97    2.55
  16  -2  -8    4.56    2.41
  16  -2  -8    3.02    2.54
  16   2  -8    5.33    3.79
  16   2  -8    7.17    2.53
  16  -2  -7   20.22    4.46
  16   2  -7   17.43    4.09
  16  -2  -7   23.12    4.74
  16   2  -7   25.81    5.09
  16   2  -7   23.06    4.65
  16  -2  -6    5.95    3.08
  16   2  -6    1.48    2.61
  16  -2  -6    6.34    3.45
  16   2  -6    3.52    2.84
  16   2  -6    1.69    1.81
  16  -2  -5    0.70    0.90
  16   2  -5    5.03    2.53
  16  -2  -5    3.03    1.51
  16   2  -5    2.76    2.50
  16   2  -5    4.85    3.04
  16  -2  -4    6.00    2.59
  16  -2  -4    1.64    2.47
  16   2  -4    5.62    2.37
  16   2  -4    3.77    2.37
  16   2  -4    4.77    2.30
  16  -2  -3   38.77    6.48
  16   2  -3   30.63    5.65
  16  -2  -3   30.95    5.71
  16   2  -3   35.90    6.30
  16   2  -3   32.62    5.65
  16  -2  -2    5.72    2.73
  16  -2  -2    6.32    2.32
  16   2  -2    2.02    2.40
  16   2  -2    5.13    2.39
  16   2  -2    4.34    2.62
  16  -2  -1    4.08    2.58
  16  -2  -1    4.92    2.56
  16   2  -1    2.34    1.08
  16   2  -1    2.68    2.33
  16   2  -1    2.10    1.68
  16  -2   0    3.07    1.90
  16  -2   0   -0.18    2.23
  16   2   0   -0.49    1.48
  16   2   0    0.63    1.07
  16   2   0    2.60    1.98
  16  -2   1    3.28    0.83
  16  -2   1    3.95    2.04
  16   2   1    6.03    2.68
  16   2   1    2.63    2.02
  16   2   1    3.15    1.38
  16  -2   2    1.40    0.82
  16  -2   2    4.84    2.81
  16   2   2    6.01    2.74
  16   2   2    1.96    2.02
  16   2   2    5.99    2.57
  16  -2   3   33.27    6.01
  16   2   3   31.90    6.01
  16  -2   3   27.38    5.61
  16   2   3   32.23    5.32
  16   2   3   32.31    5.19
  16   2   4    4.91    2.63
  16  -2   4    5.11    2.69
  16  -2   4    5.29    2.71
  16   2   4    1.36    2.20
  16   2   4    4.37    2.99
  16   2   5    7.16    3.23
  16  -2   5    3.73    2.47
  16  -2   5    2.17    1.00
  16   2   5    5.42    2.77
  16   2   6    7.96    3.10
  16  -2   6    6.14    2.74
  16  -2   6    2.57    2.47
  16   2   6    5.42    1.76
  16  -2   7   35.95    5.98
  16   2   7   27.23    5.44
  16  -2   7   26.19    5.08
  16   2   7   32.29    5.33
  16   2   8    0.49    1.74
  16  -2   8    1.45    1.65
  16  -2   8    2.41    1.80
  16   2   8    3.32    2.20
  16   2   9    6.73    2.92
  16  -2   9    6.45    3.14
  16  -2   9    4.42    2.45
  16   2   9    4.91    2.84
  16   2  10    3.47    2.16
  16  -2  10    2.17    1.45
  16  -2  10    4.83    2.76
  16   2  10    3.10    2.43
  16   2  11    5.84    2.57
  16  -2  11    8.32    3.22
  16   2  11    3.96    2.50
  16   2  12   10.43    3.73
  16  -2  12   10.80    3.63
  16   2  13   27.30    5.83
  16  -2  13   29.68    5.89
  16   2  14    3.55    2.15
  16  -2  14    4.56    2.03
  16   2  15    0.11    1.51
  16  -2  15   -0.54    1.18
  16   2  16    2.49    1.83
  16  -2  16   -0.23    1.16
  16   2  17   13.04    3.89
  16  -2  17   26.58    5.86
  16   2  18    6.14    3.59
  16  -2  18    4.84    1.68
  16   2  19   -0.06    1.54
  16  -2  19    0.15    2.77
  16  -3 -18   -3.76    3.01
  16  -3 -17    4.05    2.20
  16  -3 -16    2.29    3.32
  16  -3 -15    0.13    1.90
  16   3 -15    1.65    1.26
  16  -3 -14    1.30    1.20
  16   3 -14    1.21    2.16
  16  -3 -13    0.70    2.08
  16   3 -13   -0.05    0.93
  16  -3 -12    2.16    2.21
  16  -3 -12    2.56    2.72
  16   3 -12    0.78    1.88
  16  -3 -11    3.56    2.05
  16  -3 -11    2.75    1.34
  16   3 -11    4.68    2.40
  16  -3 -10    1.00    1.86
  16  -3 -10    1.41    1.94
  16   3 -10   -1.03    1.64
  16  -3  -9    3.11    1.36
  16  -3  -9    1.16    1.03
  16   3  -9    1.91    1.74
  16  -3  -8    1.07    1.21
  16  -3  -8    2.02    1.74
  16   3  -8    1.39    1.12
  16  -3  -7    2.36    1.83
  16  -3  -7    4.68    2.39
  16   3  -7    3.53    2.30
  16  -3  -6   -1.38    1.52
  16  -3  -6   -0.33    2.26
  16   3  -6   -0.20    0.83
  16  -3  -5    1.27    1.79
  16   3  -5    2.82    2.02
  16   3  -5    2.13    1.43
  16  -3  -4    1.88    2.29
  16  -3  -4    0.40    1.59
  16   3  -4    1.47    1.78
  16   3  -4   -0.64    1.20
  16  -3  -3   -0.38    1.80
  16  -3  -3    0.24    1.50
  16   3  -3   -1.56    1.30
  16   3  -3   -1.03    0.99
  16   3  -3    0.77    1.97
  16  -3  -2   -0.86    1.93
  16  -3  -2    0.82    1.26
  16   3  -2   -0.43    1.05
  16   3  -2    0.12    1.40
  16   3  -2    0.18    1.89
  16  -3  -1    1.16    1.86
  16  -3  -1    1.82    2.64
  16   3  -1    1.36    1.41
  16   3  -1    2.60    2.30
  16   3  -1    3.04    1.90
  16   3   0    0.88    0.88
  16  -3   0   -0.74    1.51
  16  -3   0   -0.56    1.25
  16   3   0   -1.61    2.24
  16   3   0    0.51    1.01
  16   3   1   -0.23    1.13
  16  -3   1    2.78    1.67
  16  -3   1    4.72    1.79
  16   3   1    1.14    2.19
  16   3   1   -0.25    1.58
  16   3   2   -0.28    1.81
  16  -3   2    1.12    1.41
  16  -3   2    1.91    2.86
  16   3   2   -1.40    2.11
  16   3   2    2.32    1.47
  16   3   3   -1.92    1.78
  16  -3   3    0.35    1.49
  16  -3   3   -1.11    2.56
  16   3   3    0.25    2.64
  16   3   3    0.13    1.17
  16   3   4    0.70    1.40
  16  -3   4    0.26    2.10
  16  -3   4    0.62    2.09
  16   3   4    1.55    1.74
  16   3   4   -0.13    1.26
  16   3   5    1.25    1.06
  16  -3   5    4.20    2.63
  16  -3   5    0.67    1.19
  16   3   5    0.25    1.60
  16   3   6    1.38    1.70
  16  -3   6   -2.07    1.61
  16  -3   6    1.35    2.19
  16   3   6   -1.12    1.98
  16   3   7    2.05    1.48
  16  -3   7    6.01    3.09
  16  -3   7    4.17    2.13
  16   3   7    4.59    2.52
  16   3   8    2.00    2.02
  16  -3   8    0.62    0.99
  16  -3   8    0.43    3.32
  16   3   8    2.85    2.15
  16   3   9    1.56    0.92
  16  -3   9    1.28    1.96
  16  -3   9    1.60    1.26
  16   3   9   -0.42    1.46
  16   3  10    3.60    2.53
  16  -3  10   -0.64    2.12
  16  -3  10    0.63    2.41
  16   3  10    0.21    1.14
  16   3  11   -0.40    1.77
  16  -3  11   -0.36    1.19
  16   3  11    0.18    1.19
  16   3  12   -0.85    1.51
  16  -3  12   -1.19    1.62
  16  -3  12    0.46    2.04
  16   3  13    1.49    1.83
  16  -3  13    1.50    1.65
  16  -3  13    3.37    1.77
  16   3  14    2.99    2.15
  16  -3  14    2.61    3.11
  16   3  15   -1.71    1.01
  16  -3  15    0.33    2.43
  16   3  16    0.10    2.23
  16  -3  16    3.66    1.49
  16   3  17    0.07    1.68
  16  -3  17    2.03    2.13
  16   3  18    1.77    2.15
  16  -3  18    3.10    2.17
  16  -4 -16    6.57    2.61
  16   4 -16    1.06    0.93
  16  -4 -15    0.53    1.83
  16   4 -15    4.07    1.88
  16  -4 -14    2.04    2.03
  16   4 -14    2.07    1.36
  16  -4 -13   17.43    4.05
  16  -4 -13   33.82    6.54
  16   4 -13   23.19    5.04
  16  -4 -12    8.59    3.48
  16  -4 -12    5.77    4.03
  16   4 -12    9.19    3.53
  16  -4 -11    5.40    2.95
  16   4 -11    4.11    2.31
  16  -4 -10    4.05    2.27
  16  -4 -10    4.13    2.53
  16   4 -10    1.53    1.04
  16  -4  -9    7.64    2.33
  16  -4  -9   11.20    3.76
  16   4  -9   10.92    3.28
  16  -4  -8    2.37    2.40
  16  -4  -8    0.88    2.21
  16   4  -8    0.85    0.94
  16  -4  -7   10.16    3.02
  16  -4  -7   21.45    5.23
  16   4  -7   18.93    4.67
  16  -4  -6    0.32    1.63
  16  -4  -6    1.31    0.93
  16   4  -6   -2.15    2.22
  16  -4  -5    5.09    1.40
  16   4  -5    4.13    1.64
  16  -4  -4    5.43    3.06
  16  -4  -4    3.69    1.07
  16   4  -4    3.82    3.11
  16   4  -4    3.60    2.85
  16  -4  -3   33.29    6.11
  16   4  -3   33.44    5.68
  16  -4  -3   35.72    6.33
  16   4  -3   36.57    6.11
  16   4  -2    3.91    2.27
  16  -4  -2    2.41    1.27
  16  -4  -2    3.49    1.72
  16   4  -2    6.74    2.76
  16   4  -1    6.15    2.03
  16   4  -1    8.24    3.27
  16  -4  -1   10.47    3.39
  16  -4  -1    9.58    3.33
  16   4   0    2.72    1.96
  16   4   0   -0.57    1.43
  16  -4   0    0.42    1.14
  16  -4   0   -1.51    2.15
  16   4   1   12.58    3.82
  16   4   1    2.75    1.88
  16  -4   1   13.88    4.22
  16  -4   1    8.22    3.48
  16   4   2    8.43    3.79
  16   4   2    2.02    1.74
  16  -4   2   10.31    3.68
  16  -4   2    6.55    2.79
  16   4   3   25.63    5.51
  16  -4   3   25.67    5.16
  16   4   3   36.29    5.80
  16  -4   3   27.08    5.86
  16   4   4    2.10    2.60
  16   4   4    5.62    2.05
  16  -4   4    5.85    2.12
  16  -4   4    5.08    2.78
  16   4   5   12.66    3.85
  16   4   5    7.15    2.58
  16  -4   5    7.86    2.82
  16  -4   5   11.15    3.95
  16   4   6    2.51    1.33
  16   4   6    0.08    1.33
  16  -4   6   -0.63    1.70
  16  -4   6    0.78    2.28
  16   4   7   11.09    3.26
  16   4   7   13.17    4.09
  16  -4   7    8.36    2.17
  16   4   8    1.44    1.71
  16   4   8    1.42    0.81
  16  -4   8   -0.03    1.90
  16  -4   8    0.66    2.27
  16   4   9   17.12    4.32
  16   4   9   11.47    3.75
  16  -4   9   14.98    4.09
  16  -4   9   19.87    4.74
  16   4  10    4.27    3.26
  16   4  10    4.05    2.44
  16  -4  10    3.18    1.61
  16  -4  10    1.36    1.36
  16   4  11    5.94    3.82
  16   4  11    7.77    2.36
  16  -4  11    5.73    1.75
  16  -4  11    8.76    3.67
  16   4  12   10.22    3.05
  16   4  12    4.38    2.91
  16  -4  12    6.03    3.59
  16  -4  12    5.58    2.85
  16  -4  13   23.55    4.99
  16   4  13   30.16    5.79
  16  -4  13   18.86    5.13
  16  -4  14    0.91    1.39
  16  -4  14    2.60    1.79
  16   4  15    1.76    2.10
  16  -4  15    0.90    1.42
  16  -4  15    1.89    2.15
  16   4  16    3.41    2.84
  16  -4  16    5.46    3.16
  16  -4  16    3.13    3.02
  16  -5 -14    3.31    2.02
  16  -5 -14    7.51    3.32
  16   5 -14    5.15    2.55
  16  -5 -13    2.20    2.30
  16  -5 -13    5.58    2.74
  16   5 -13   -0.54    1.54
  16  -5 -12   -1.66    1.96
  16  -5 -12    0.85    0.96
  16   5 -12    1.76    2.02
  16  -5 -11    1.66    2.01
  16  -5 -11    1.45    1.82
  16   5 -11    2.49    1.57
  16  -5 -10    6.13    2.03
  16  -5 -10    0.58    1.51
  16   5 -10    2.55    2.33
  16  -5  -9    3.71    2.99
  16  -5  -9    0.40    1.44
  16   5  -9    0.77    1.77
  16  -5  -8   -1.19    1.16
  16  -5  -8    0.19    1.36
  16   5  -8    1.61    1.55
  16  -5  -7   -0.25    1.94
  16  -5  -7    4.10    3.38
  16   5  -7   -0.43    1.15
  16   5  -6    1.14    1.72
  16  -5  -6   -0.12    1.32
  16  -5  -6    1.29    2.79
  16   5  -5    2.76    1.80
  16  -5  -5   10.45    3.99
  16  -5  -5    9.15    2.56
  16   5  -4    2.10    1.05
  16  -5  -4    4.15    2.07
  16  -5  -4    2.25    2.19
  16   5  -3    6.87    3.04
  16  -5  -3    1.27    1.97
  16  -5  -3    4.63    2.63
  16   5  -2   -0.01    1.68
  16   5  -2    0.47    1.39
  16  -5  -2    0.21    1.26
  16  -5  -2   -0.65    1.38
  16   5  -1   10.79    3.18
  16   5  -1    1.60    1.54
  16  -5  -1    4.87    2.68
  16  -5  -1    7.72    2.26
  16   5   0    0.11    1.56
  16   5   0    1.11    1.68
  16  -5   0    3.88    2.02
  16  -5   0    0.33    1.13
  16   5   1    6.14    3.24
  16   5   1   10.23    3.70
  16  -5   1    4.05    2.45
  16  -5   1    2.95    3.05
  16   5   2    0.48    2.31
  16   5   2    0.57    1.32
  16  -5   2   -0.61    1.40
  16  -5   2    2.42    3.20
  16   5   3    4.75    1.53
  16   5   3    1.50    1.56
  16  -5   3    2.70    2.19
  16  -5   3   -0.28    1.94
  16   5   4    2.96    1.51
  16   5   4    0.39    1.58
  16  -5   4    3.46    2.03
  16  -5   4   -0.19    1.95
  16   5   5    6.26    2.72
  16   5   5    7.68    3.28
  16  -5   5    8.78    3.43
  16  -5   5    7.52    3.63
  16   5   6    1.72    2.04
  16   5   6    1.61    1.37
  16  -5   6    0.67    1.32
  16  -5   6   -1.15    2.63
  16   5   7    0.78    1.22
  16  -5   7    0.65    1.98
  16   5   7    1.83    2.11
  16  -5   7    0.21    2.76
  16   5   8   -2.75    2.50
  16  -5   8    0.96    1.50
  16   5   8    3.04    2.51
  16  -5   8   -0.62    2.43
  16   5   9   -0.28    1.53
  16   5   9   -0.05    2.61
  16  -5   9   -1.33    1.54
  16  -5   9    1.27    2.67
  16   5  10    3.03    2.52
  16  -5  10    6.49    3.16
  16   5  10    9.01    3.50
  16  -5  10    2.39    2.20
  16   5  11    1.24    1.80
  16  -5  11    0.60    1.44
  16   5  11    5.44    3.08
  16  -5  11   -0.37    1.70
  16   5  12    2.17    1.77
  16  -5  12   -2.62    3.16
  16   5  12    3.47    2.10
  16  -5  12    4.89    3.07
  16  -5  13   -0.99    1.79
  16   5  13    3.73    2.66
  16  -5  13    3.34    3.49
  16   5  14   10.98    4.02
  16  -5  14    5.43    2.99
  16  -5  14    6.89    2.60
  16  -6 -11    3.80    2.28
  16  -6 -11    2.48    2.14
  16   6 -11    1.44    1.09
  16  -6 -10    4.99    2.00
  16  -6 -10    2.46    2.19
  16   6 -10    7.08    3.62
  16   6  -9   10.66    3.11
  16  -6  -9    8.21    2.81
  16  -6  -9    3.89    2.76
  16   6  -8    0.44    1.37
  16  -6  -8    2.55    3.53
  16  -6  -8    2.93    1.61
  16   6  -7    9.25    3.55
  16  -6  -7   15.39    4.63
  16  -6  -7   16.44    4.53
  16   6  -6    3.58    2.24
  16  -6  -6    2.51    3.24
  16  -6  -6    0.70    1.87
  16   6  -5   -0.22    1.18
  16  -6  -5   -0.57    1.86
  16  -6  -5   -1.25    2.00
  16   6  -4    2.23    2.27
  16  -6  -4    2.64    2.46
  16  -6  -4    4.11    3.11
  16   6  -3   14.39    4.48
  16  -6  -3   11.47    3.68
  16  -6  -3   11.95    3.72
  16   6  -2   10.15    3.30
  16  -6  -2   18.52    4.60
  16  -6  -2   21.00    4.68
  16   6  -1   13.11    4.02
  16  -6  -1   13.70    4.58
  16   6  -1   11.18    3.63
  16  -6  -1    8.92    2.57
  16   6   0    3.36    1.22
  16  -6   0    1.48    2.33
  16   6   0    0.33    1.63
  16  -6   0    4.88    2.09
  16   6   1   14.61    4.02
  16  -6   1   11.44    3.64
  16   6   1    7.31    3.22
  16  -6   1   13.96    4.29
  16   6   2   19.98    4.08
  16  -6   2    9.09    3.53
  16   6   2   20.74    5.08
  16  -6   2   13.07    4.31
  16   6   3   23.43    5.01
  16  -6   3   13.15    4.93
  16   6   3   12.65    3.88
  16  -6   3   18.64    4.82
  16   6   4    2.71    1.01
  16  -6   4    2.94    1.95
  16   6   4    7.39    3.38
  16  -6   4    6.17    2.06
  16   6   5    2.19    1.97
  16  -6   5    0.81    1.12
  16   6   5    3.03    1.82
  16  -6   5    1.72    1.43
  16   6   6    5.63    3.35
  16  -6   6    2.70    1.22
  16   6   6    0.33    1.02
  16  -6   6    2.51    2.55
  16   6   7   10.07    4.08
  16  -6   7    1.56    2.37
  16   6   7   14.14    4.89
  16  -6   7   15.43    4.49
  16   6   8    1.30    1.87
  16  -6   8    1.96    2.66
  16   6   8    3.80    2.71
  16  -6   8   -0.10    1.68
  16   6   9    9.66    4.52
  16  -6   9   11.41    4.16
  16   6   9    8.65    3.13
  16  -6   9   16.90    5.35
  16   6  10    3.00    2.05
  16  -6  10    4.37    2.67
  16   6  10    5.86    1.72
  16  -6  10    5.56    2.80
  16   6  11    3.02    2.62
  16  -6  11    3.86    1.77
  16   6  11    1.90    2.09
  16  -6  11    9.02    3.58
  16   7  -6    1.77    1.94
  16  -7  -6   -1.31    1.84
  16  -7  -6    0.75    1.34
  16   7  -5    4.62    2.83
  16  -7  -5    1.92    1.79
  16  -7  -5    7.35    3.51
  16   7  -4    0.95    1.93
  16  -7  -4    2.37    1.87
  16  -7  -4    2.53    3.39
  16   7  -3    1.04    1.62
  16  -7  -3    1.38    2.18
  16  -7  -3    5.76    3.12
  16   7  -2   -1.43    1.96
  16  -7  -2    0.19    1.77
  16  -7  -2    0.30    1.80
  16   7  -1   -0.92    2.69
  16  -7  -1   -0.45    1.43
  16  -7  -1   -3.08    2.50
  16   7   0    1.91    2.00
  16  -7   0    1.61    2.06
  16  -7   0    1.02    2.01
  16   7   1   -2.71    2.94
  16  -7   1    3.08    2.58
  16   7   1    0.87    2.18
  16  -7   1   -1.65    1.23
  16   7   2    2.25    3.23
  16  -7   2   -0.45    1.06
  16   7   2    5.03    1.70
  16  -7   2   -0.14    1.49
  16   7   3    5.09    2.26
  16  -7   3    5.37    2.98
  16   7   3   -0.53    1.36
  16  -7   3   -0.24    2.05
  16   7   4    2.66    2.26
  16  -7   4    0.34    2.84
  16   7   4    1.77    1.14
  16  -7   4    1.62    1.66
  16   7   5    4.51    1.83
  16  -7   5    4.42    2.68
  16   7   5    1.59    1.65
  16  -7   5    7.23    3.93
  16   7   6   -1.01    2.43
  16  -7   6    2.14    2.87
  16   7   6   -0.07    1.26
  16  -7   6    0.77    1.50
  17   0 -17   11.51    4.79
  17   0 -16    0.50    1.13
  17   0 -15   -3.74    3.14
  17   0 -14    3.08    1.48
  17   0 -13    0.87    1.41
  17   0 -12   -0.37    1.45
  17   0 -11   -0.81    0.94
  17   0 -10    1.99    1.09
  17   0  -9   -3.14    1.81
  17   0  -9    1.07    2.23
  17   0  -8    1.69    2.92
  17   0  -8    1.77    3.31
  17   0  -7   -1.79    2.75
  17   0  -7   -1.18    1.84
  17   0  -6   -0.58    1.54
  17   0  -6   -1.09    2.23
  17   0  -5    1.28    2.02
  17   0  -5    0.29    1.65
  17   0  -4   -0.49    1.67
  17   0  -4   -0.20    1.05
  17   0  -3    0.51    1.89
  17   0  -3   -0.07    1.35
  17   0  -2    0.18    1.08
  17   0  -2   -0.77    1.69
  17   0  -1   -0.72    0.97
  17   0  -1   -0.95    1.79
  17   0   0   -0.53    1.03
  17   0   0    1.23    1.81
  17   0   1    0.93    2.05
  17   0   1   -0.12    1.00
  17   0   2    0.48    1.59
  17   0   2   -1.32    2.88
  17   0   3    1.24    2.32
  17   0   3    0.47    1.56
  17   0   4   -0.37    1.94
  17   0   4    0.76    2.09
  17   0   5    0.63    1.35
  17   0   5   -1.30    1.84
  17   0   6    0.59    2.10
  17   0   6   -0.12    1.03
  17   0   7   -1.76    1.72
  17   0   7    0.51    1.65
  17   0   8   -0.30    1.88
  17   0   9    0.01    1.72
  17   0  10   -0.34    0.93
  17   0  11    2.16    1.90
  17   0  12   -1.65    2.10
  17   0  13   -3.59    2.09
  17   0  14   -0.36    1.41
  17   0  15   -1.54    2.15
  17   0  16    0.05    2.03
  17   0  17    1.41    1.38
  17  -1 -17    8.32    3.25
  17  -1 -16    7.57    3.91
  17  -1 -15    2.99    2.22
  17  -1 -14    5.37    2.77
  17  -1 -13    1.47    2.67
  17   1 -12   16.21    4.88
  17  -1 -12    2.39    1.85
  17  -1 -11   17.87    4.41
  17   1 -11   20.33    4.71
  17  -1 -10    7.43    4.47
  17  -1 -10   10.81    3.14
  17   1 -10    6.09    3.32
  17  -1  -9    3.64    2.32
  17  -1  -9    3.64    1.16
  17   1  -9    8.85    3.52
  17  -1  -8    3.83    1.99
  17  -1  -8    5.67    2.86
  17   1  -8    3.29    1.77
  17  -1  -7    1.16    1.03
  17   1  -7   -0.70    2.58
  17  -1  -7    0.71    1.91
  17   1  -7   -0.33    1.75
  17  -1  -6    4.87    1.74
  17   1  -6    3.64    2.61
  17  -1  -6    0.20    1.57
  17  -1  -5    6.67    2.24
  17   1  -5    5.29    2.14
  17  -1  -5   11.56    3.66
  17   1  -5    9.97    3.49
  17  -1  -4   26.37    5.29
  17  -1  -4   30.59    5.86
  17   1  -4   23.85    4.95
  17   1  -4   27.44    5.19
  17   1  -3   25.63    5.43
  17  -1  -3   16.97    4.39
  17  -1  -3   16.18    4.58
  17   1  -3   21.40    5.22
  17   1  -3   25.15    4.74
  17  -1  -2   18.30    4.23
  17   1  -2   17.70    4.42
  17  -1  -2   16.99    4.47
  17   1  -2   11.45    3.62
  17   1  -2   18.09    4.53
  17  -1  -1    9.64    2.97
  17   1  -1    7.74    2.99
  17  -1  -1    4.11    2.62
  17   1  -1    6.08    2.95
  17   1  -1    6.51    2.74
  17  -1   0   27.59    5.35
  17  -1   0   35.23    6.12
  17   1   0   27.56    5.87
  17   1   0   26.30    4.99
  17   1   0   14.52    3.06
  17  -1   1    7.76    3.35
  17   1   1    9.77    2.38
  17  -1   1    5.47    2.78
  17   1   1    6.07    2.70
  17   1   1    9.77    3.27
  17  -1   2   18.24    4.35
  17  -1   2   17.44    4.43
  17   1   2   18.60    5.08
  17   1   2   18.66    4.67
  17   1   2   14.69    4.09
  17  -1   3   21.47    4.79
  17  -1   3   16.39    4.20
  17   1   3   17.30    3.71
  17   1   3   16.17    4.18
  17   1   3   17.89    4.58
  17  -1   4   26.20    5.20
  17  -1   4   29.88    5.34
  17   1   4   19.42    4.56
  17   1   4   22.79    5.02
  17   1   4   22.75    4.69
  17  -1   5    6.32    3.01
  17  -1   5    4.98    2.55
  17   1   5   12.65    4.12
  17   1   5   11.08    3.66
  17   1   5    5.26    2.81
  17  -1   6    7.34    2.89
  17  -1   6    5.76    1.91
  17   1   6    6.12    1.72
  17   1   6    1.85    1.07
  17   1   6    1.68    1.09
  17  -1   7   -0.18    1.21
  17  -1   7    5.44    2.09
  17   1   7    4.23    2.37
  17   1   7    0.75    2.07
  17  -1   8    3.30    1.82
  17  -1   8    8.15    2.80
  17   1   8    4.51    2.39
  17   1   8    8.11    2.99
  17  -1   9    7.50    2.87
  17  -1   9    7.39    3.13
  17   1   9    2.02    1.65
  17   1   9    3.20    1.09
  17  -1  10    8.49    3.59
  17   1  10    6.98    2.61
  17  -1  11   22.31    4.90
  17   1  11   17.22    4.12
  17  -1  12    6.31    2.84
  17   1  12    3.46    2.89
  17  -1  13    4.31    2.69
  17   1  13    1.12    1.41
  17  -1  14   10.17    3.47
  17   1  14    1.14    1.24
  17  -1  15   -0.80    1.17
  17   1  15    7.00    3.10
  17  -1  16    6.26    2.08
  17   1  16    2.23    1.99
  17  -1  17   19.39    5.20
  17   1  17   12.31    3.90
  17  -2 -17    0.25    1.81
  17  -2 -16   -0.50    1.66
  17  -2 -15    3.44    2.88
  17  -2 -14    0.22    1.67
  17  -2 -13   -0.63    2.18
  17  -2 -12    0.99    0.98
  17  -2 -11    1.55    2.73
  17  -2 -11   -0.26    2.51
  17  -2 -10    2.74    1.99
  17  -2 -10    1.68    1.08
  17   2 -10    5.41    3.00
  17  -2  -9    9.66    3.60
  17  -2  -9    2.15    1.68
  17   2  -9    5.10    2.51
  17  -2  -8    5.29    2.36
  17  -2  -8   -0.28    1.44
  17   2  -8    2.86    2.63
  17  -2  -7    0.83    2.14
  17  -2  -7   -1.36    2.24
  17   2  -7    4.31    3.39
  17   2  -7   -0.75    1.80
  17  -2  -6    5.38    2.99
  17   2  -6    4.53    2.72
  17  -2  -6    3.73    2.25
  17   2  -6    6.43    3.22
  17   2  -6    1.44    1.56
  17  -2  -5    2.25    2.06
  17   2  -5   -2.13    2.64
  17  -2  -5    2.07    1.26
  17   2  -5    3.24    2.43
  17   2  -5   -1.29    1.50
  17  -2  -4    2.30    1.55
  17   2  -4    0.58    1.58
  17  -2  -4    2.31    1.39
  17   2  -4    4.11    2.33
  17   2  -4    5.14    2.96
  17  -2  -3   -1.00    1.15
  17  -2  -3   -0.96    1.28
  17   2  -3    1.17    1.09
  17   2  -3   -0.27    1.74
  17   2  -3   -0.92    1.02
  17  -2  -2   -0.61    0.96
  17  -2  -2    0.34    1.14
  17   2  -2    3.28    2.56
  17   2  -2    0.51    1.20
  17   2  -2    4.76    3.05
  17  -2  -1    0.08    0.82
  17  -2  -1    0.10    1.62
  17   2  -1   -0.93    2.24
  17   2  -1   -0.60    1.17
  17   2  -1    0.29    0.91
  17  -2   0    1.21    1.86
  17  -2   0    0.24    1.15
  17   2   0   -1.27    1.99
  17   2   0    2.28    2.00
  17   2   0   -0.17    1.58
  17  -2   1    0.76    2.15
  17  -2   1   -1.06    1.52
  17   2   1    1.79    2.85
  17   2   1    2.72    2.39
  17   2   1   -1.44    1.61
  17  -2   2    0.22    1.06
  17  -2   2    1.88    1.57
  17   2   2    1.25    1.78
  17   2   2    0.64    1.80
  17   2   2    3.89    2.77
  17  -2   3    1.22    2.53
  17  -2   3   -0.31    2.29
  17   2   3    1.14    1.18
  17   2   3    1.01    0.93
  17   2   3    2.91    2.19
  17  -2   4    0.72    1.47
  17  -2   4   -0.07    1.73
  17   2   4    4.19    2.07
  17   2   4    0.33    1.92
  17   2   4   -1.19    1.35
  17  -2   5    1.02    1.95
  17  -2   5   -0.86    1.20
  17   2   5    1.07    2.36
  17   2   5    2.62    2.19
  17   2   5    1.14    2.19
  17   2   6    7.33    2.98
  17  -2   6   -0.01    1.74
  17  -2   6    4.15    1.59
  17   2   6    3.89    1.39
  17   2   7    1.24    1.69
  17  -2   7    2.95    2.48
  17  -2   7    1.80    1.50
  17   2   7    1.92    1.71
  17   2   8    3.83    2.99
  17  -2   8    2.67    1.33
  17  -2   8    7.01    3.05
  17   2   8    3.05    1.76
  17   2   9    1.63    1.82
  17  -2   9    6.89    2.96
  17  -2   9    3.58    2.70
  17   2   9   -1.72    1.47
  17   2  10    0.96    1.82
  17  -2  10    0.08    2.46
  17  -2  10    0.98    2.32
  17   2  10    0.01    1.97
  17   2  11    0.59    2.01
  17  -2  11    0.37    1.10
  17  -2  11    0.22    1.38
  17   2  12    1.33    1.88
  17  -2  12    1.36    1.95
  17   2  13    1.21    1.32
  17  -2  13    1.93    2.22
  17   2  14    1.93    2.14
  17  -2  14    5.58    2.93
  17   2  15    3.48    1.77
  17  -2  15    5.05    3.18
  17   2  16    0.43    1.70
  17  -2  16   -0.28    1.89
  17   2  17    1.53    1.69
  17  -2  17    2.98    1.32
  17  -3 -16    7.44    2.65
  17  -3 -15    9.37    3.16
  17  -3 -14   -3.68    3.23
  17   3 -14    0.53    1.36
  17  -3 -13    0.04    2.12
  17   3 -13    6.06    3.28
  17  -3 -12    4.07    3.37
  17  -3 -12    0.93    2.48
  17   3 -12   -0.79    2.64
  17  -3 -11    5.55    3.26
  17  -3 -11    8.09    3.78
  17   3 -11    2.65    2.27
  17  -3 -10    5.20    2.97
  17  -3 -10   10.31    4.07
  17   3 -10   10.01    1.98
  17  -3  -9    1.15    1.72
  17  -3  -9    3.25    2.95
  17   3  -9    5.96    1.97
  17  -3  -8    1.61    2.19
  17  -3  -8   -0.55    1.12
  17   3  -8   -1.40    1.72
  17  -3  -7    4.00    3.19
  17  -3  -7    7.60    2.99
  17   3  -7    1.77    0.97
  17  -3  -6    1.22    1.42
  17  -3  -6    0.30    1.28
  17   3  -6    2.64    2.26
  17  -3  -5   13.16    3.57
  17  -3  -5   16.89    4.36
  17   3  -5   21.62    4.82
  17  -3  -4   10.71    3.37
  17  -3  -4   11.05    3.37
  17   3  -4   11.52    3.80
  17   3  -4   12.15    3.69
  17  -3  -3    1.32    1.62
  17  -3  -3   -2.39    2.75
  17   3  -3   -3.00    2.67
  17   3  -3    1.85    1.50
  17  -3  -2   16.78    4.53
  17  -3  -2    4.60    1.38
  17   3  -2   14.49    4.33
  17   3  -2   12.48    3.63
  17  -3  -1   36.78    6.55
  17   3  -1   39.71    6.40
  17  -3  -1   44.55    6.62
  17   3  -1   45.67    7.52
  17   3  -1   46.53    6.77
  17  -3   0    0.44    1.25
  17  -3   0    0.60    2.31
  17   3   0   -1.14    2.06
  17   3   0   -1.29    0.98
  17   3   0    2.89    2.15
  17  -3   1   42.57    6.45
  17   3   1   40.43    6.03
  17  -3   1   44.97    7.07
  17   3   1   40.67    6.92
  17   3   1   43.11    6.66
  17   3   2   12.66    3.97
  17  -3   2   11.61    3.44
  17  -3   2   20.01    4.66
  17   3   2   16.90    3.93
  17   3   2   13.38    3.43
  17   3   3    1.81    0.87
  17  -3   3    2.08    1.11
  17  -3   3   -0.58    1.15
  17   3   3    0.84    1.73
  17   3   3    0.75    1.61
  17   3   4   11.05    3.70
  17  -3   4   14.38    4.27
  17  -3   4   10.77    3.69
  17   3   4   14.92    3.95
  17   3   4   16.03    4.44
  17   3   5   19.56    4.47
  17  -3   5   23.78    4.68
  17  -3   5   27.09    5.85
  17   3   5   24.89    4.82
  17   3   5   18.83    4.43
  17   3   6   -0.40    1.19
  17  -3   6    4.77    2.54
  17  -3   6    2.13    3.36
  17   3   6   -0.14    1.82
  17   3   7    3.27    2.10
  17  -3   7    3.71    2.64
  17  -3   7    7.64    3.97
  17   3   7    5.13    2.08
  17   3   8    0.26    0.95
  17  -3   8    1.29    1.84
  17  -3   8    1.43    1.51
  17   3   8   -1.27    2.21
  17   3   9    3.17    1.51
  17  -3   9    6.82    3.16
  17  -3   9    5.28    2.99
  17   3   9    5.64    2.96
  17   3  10    9.51    2.69
  17  -3  10   13.82    3.88
  17  -3  10   10.34    3.41
  17   3  10   15.00    4.19
  17   3  11    3.66    1.74
  17  -3  11    7.70    2.27
  17  -3  11    2.00    1.97
  17   3  11    2.90    2.74
  17   3  12    1.04    2.57
  17  -3  12   -0.39    1.92
  17  -3  12   -0.99    1.76
  17   3  13    5.71    3.52
  17  -3  13    2.94    1.93
  17  -3  13    6.15    3.31
  17   3  14    2.55    1.81
  17  -3  14    2.55    1.13
  17  -3  14    1.62    2.24
  17   3  15   12.97    4.04
  17  -3  15    6.56    3.26
  17  -3  15    9.28    3.79
  17   3  16    2.28    1.99
  17  -3  16    2.54    1.74
  17  -4 -14    5.95    2.73
  17   4 -14   -0.11    1.23
  17  -4 -13    2.98    1.27
  17  -4 -13    4.78    3.11
  17   4 -13    9.21    3.66
  17  -4 -12    2.95    1.17
  17   4 -12    2.23    1.10
  17  -4 -11    4.58    2.68
  17  -4 -11    4.73    2.86
  17   4 -11    1.54    1.67
  17  -4 -10    3.08    2.55
  17  -4 -10   -3.71    2.51
  17   4 -10   -0.12    1.89
  17  -4  -9    2.57    2.05
  17  -4  -9    0.28    1.59
  17   4  -9   -0.79    2.15
  17  -4  -8   -0.24    1.30
  17  -4  -8    1.84    2.74
  17   4  -8    2.09    2.62
  17  -4  -7    0.95    1.49
  17  -4  -7   -1.72    1.91
  17   4  -7   -0.32    1.29
  17  -4  -6    4.06    2.73
  17  -4  -6    2.61    2.89
  17   4  -6    2.44    1.88
  17  -4  -5    9.99    3.65
  17  -4  -5    6.51    2.46
  17   4  -5   13.62    3.24
  17  -4  -4    1.49    2.27
  17  -4  -4   -0.04    2.01
  17   4  -4   -0.07    1.49
  17  -4  -3    2.58    1.49
  17  -4  -3    1.55    1.33
  17   4  -3    0.28    1.53
  17   4  -3    0.65    1.01
  17   4  -2    4.57    3.11
  17  -4  -2    4.86    2.53
  17  -4  -2    4.18    1.50
  17   4  -2    1.32    1.51
  17   4  -1    3.44    1.61
  17  -4  -1    6.18    2.80
  17  -4  -1    8.35    3.57
  17   4  -1    8.48    3.49
  17   4   0    6.33    2.98
  17  -4   0    7.56    3.58
  17  -4   0    8.44    3.41
  17   4   0    4.79    3.50
  17   4   1   13.06    3.34
  17  -4   1    9.98    3.11
  17  -4   1    8.09    2.76
  17   4   1    7.49    3.31
  17   4   2    3.46    2.38
  17  -4   2    2.80    2.11
  17  -4   2    0.61    1.81
  17   4   2    2.48    2.27
  17   4   3   -0.12    1.24
  17  -4   3    2.08    1.64
  17  -4   3   -0.19    2.09
  17   4   3    0.90    1.67
  17   4   4    0.75    1.74
  17  -4   4    4.26    2.03
  17  -4   4    4.98    3.97
  17   4   4   -1.64    1.93
  17   4   5   10.61    3.58
  17  -4   5    8.99    3.10
  17  -4   5    7.80    3.61
  17   4   5    1.04    1.22
  17   4   5    9.48    3.23
  17   4   6    2.94    2.51
  17  -4   6    6.72    3.33
  17  -4   6    2.69    1.98
  17   4   6    4.29    2.58
  17   4   7    1.58    2.82
  17  -4   7   -0.05    1.52
  17  -4   7    0.95    2.45
  17   4   7    1.94    2.48
  17   4   8    2.79    2.83
  17  -4   8    4.50    2.63
  17  -4   8    1.33    1.53
  17   4   8    2.31    2.49
  17   4   9    3.09    2.69
  17  -4   9   -0.28    1.30
  17  -4   9    0.64    1.41
  17   4   9    3.93    2.42
  17   4  10   -0.47    1.36
  17  -4  10    0.13    1.97
  17  -4  10    1.27    2.36
  17   4  10    4.59    2.96
  17   4  11    3.03    1.60
  17  -4  11    4.40    2.27
  17  -4  11    7.23    3.60
  17   4  11    2.95    2.93
  17   4  12    4.45    2.33
  17  -4  12    3.18    2.97
  17  -4  12    5.40    1.47
  17   4  13    6.13    2.49
  17  -4  13   10.21    3.00
  17  -4  13    3.01    2.18
  17   4  14    2.00    2.19
  17  -4  14    0.46    1.74
  17  -4  14    5.13    2.69
  17  -5 -11    5.35    2.47
  17  -5 -11   -0.44    1.65
  17   5 -11    2.54    2.49
  17  -5 -10   10.03    3.19
  17  -5 -10    5.96    2.49
  17   5 -10   15.64    4.34
  17  -5  -9    2.80    1.43
  17  -5  -9    1.63    1.56
  17  -5  -8    3.16    1.15
  17  -5  -8    2.32    1.92
  17   5  -8   -0.72    1.80
  17  -5  -7    1.90    1.10
  17  -5  -7   11.76    4.04
  17   5  -7   10.05    2.90
  17  -5  -6   16.91    4.66
  17  -5  -6   23.47    5.37
  17   5  -6   16.41    3.99
  17  -5  -5    5.05    2.99
  17  -5  -5   12.47    3.74
  17   5  -5    5.95    3.30
  17  -5  -4    3.26    2.55
  17   5  -4   -0.15    1.80
  17  -5  -3    2.29    2.41
  17  -5  -3    5.13    3.34
  17   5  -3    3.77    2.56
  17   5  -2    6.09    1.60
  17  -5  -2    3.40    2.84
  17  -5  -2    0.55    2.16
  17   5  -1    3.34    1.35
  17   5  -1    6.22    2.60
  17  -5  -1    5.49    2.91
  17  -5  -1    4.48    3.47
  17   5   0    9.59    3.53
  17   5   0    5.83    3.40
  17  -5   0   13.08    3.71
  17  -5   0    6.74    3.49
  17   5   1    0.40    1.94
  17   5   1    6.62    3.40
  17  -5   1    8.02    3.21
  17  -5   1    9.02    3.18
  17   5   2    2.47    1.06
  17   5   2    2.65    2.60
  17  -5   2    5.09    3.28
  17  -5   2    1.80    2.68
  17   5   3    6.04    3.44
  17   5   3    3.16    1.95
  17  -5   3   -2.00    2.08
  17  -5   3    6.09    3.06
  17   5   4    4.02    3.13
  17   5   4   -1.01    0.88
  17  -5   4    1.64    2.91
  17  -5   4    4.52    2.45
  17   5   5    0.04    2.32
  17   5   5    3.60    2.89
  17  -5   5    6.13    3.59
  17  -5   5    5.32    3.11
  17   5   6   18.00    4.32
  17   5   6   13.72    4.24
  17  -5   6    9.85    4.02
  17  -5   6   21.93    5.94
  17   5   7    4.64    1.14
  17   5   7    3.25    2.95
  17  -5   7    4.01    2.07
  17  -5   7    1.75    1.52
  17   5   8    6.95    3.38
  17   5   8    2.61    2.01
  17  -5   8    3.42    1.97
  17  -5   8    3.77    3.05
  17   5   9    3.21    2.79
  17   5   9   -0.29    1.65
  17  -5   9   -0.21    1.11
  17  -5   9    0.86    1.48
  17   5  10   11.37    4.07
  17   5  10   18.06    4.69
  17  -5  10   16.88    5.15
  17  -5  10   12.47    3.98
  17   5  11    3.21    2.75
  17   5  11    5.23    1.62
  17  -5  11    3.48    2.00
  17  -5  11    6.14    3.04
  17  -6  -8    3.05    2.25
  17  -6  -8    6.55    3.37
  17   6  -8    3.85    3.35
  17  -6  -7   -1.21    0.90
  17  -6  -7    0.90    1.93
  17   6  -7   -1.28    1.23
  17   6  -6    0.41    1.95
  17  -6  -6    0.85    1.49
  17  -6  -6    3.42    2.40
  17   6  -5    1.93    2.16
  17  -6  -5   -0.80    1.05
  17  -6  -5    2.49    2.79
  17   6  -4    2.71    2.22
  17  -6  -4    0.74    1.69
  17  -6  -4   -0.40    1.33
  17   6  -3   -0.31    1.22
  17  -6  -3   -2.19    1.91
  17   6  -2    1.22    1.91
  17  -6  -2    4.60    2.62
  17  -6  -2   -0.35    1.86
  17   6  -1    0.18    1.34
  17  -6  -1    0.17    2.52
  17  -6  -1   -0.53    1.87
  17   6   0    1.14    1.43
  17   6   0   -0.44    1.42
  17  -6   0    0.13    2.15
  17  -6   0   -1.45    2.72
  17   6   1   -0.40    1.80
  17  -6   1   -0.68    1.27
  17   6   1    1.18    2.53
  17  -6   1   -0.60    2.05
  17   6   2    0.86    2.26
  17  -6   2    0.83    2.27
  17   6   2    0.27    2.17
  17  -6   2   -2.53    3.01
  17   6   3    2.11    2.12
  17  -6   3   -1.70    2.78
  17   6   3    3.45    1.26
  17  -6   3   -0.74    1.77
  17   6   4   -0.66    1.89
  17  -6   4    1.62    1.46
  17   6   4    3.02    2.24
  17  -6   4    1.37    1.10
  17   6   5    2.01    1.64
  17  -6   5    1.04    1.45
  17   6   5    4.11    2.27
  17  -6   5   -0.61    2.19
  17   6   6    2.49    2.66
  17  -6   6    3.31    2.75
  17   6   6    1.66    1.25
  17  -6   6    3.26    3.25
  17   6   7    0.91    1.63
  17  -6   7   -0.79    1.51
  17   6   7   -1.71    2.40
  17  -6   7   -0.26    2.39
  17   6   8   -1.88    2.16
  17  -6   8   -1.10    1.73
  17   6   8    1.43    2.42
  17  -6   8    0.77    1.55
  18   0 -15  114.59   12.29
  18   0 -14    1.88    2.19
  18   0 -13    3.87    3.57
  18   0 -12    3.74    2.47
  18   0 -11   99.92   10.66
  18   0 -10    7.77    2.82
  18   0  -9   15.02    4.01
  18   0  -8    8.54    5.17
  18   0  -8    5.36    2.96
  18   0  -7    3.12    2.17
  18   0  -7    5.76    3.02
  18   0  -6    6.27    3.08
  18   0  -6   -1.15    2.57
  18   0  -5   49.35    7.33
  18   0  -5   52.06    7.42
  18   0  -4   29.71    5.73
  18   0  -4   34.54    6.51
  18   0  -3   36.93    6.47
  18   0  -3   37.51    6.37
  18   0  -2   10.55    3.54
  18   0  -2   17.26    4.18
  18   0  -1   21.88    4.86
  18   0  -1   26.40    5.67
  18   0   0    8.66    3.10
  18   0   0    7.88    3.24
  18   0   1   27.99    5.20
  18   0   1   28.89    5.95
  18   0   2   13.34    3.88
  18   0   2   18.28    4.55
  18   0   3   42.36    6.63
  18   0   3   41.01    6.53
  18   0   4   33.59    6.37
  18   0   4   41.11    6.72
  18   0   5   53.05    7.59
  18   0   5   47.48    7.07
  18   0   6    1.98    2.81
  18   0   6   -2.00    2.33
  18   0   7    3.20    2.82
  18   0   7    2.68    1.79
  18   0   8    1.13    1.86
  18   0   8    4.85    1.54
  18   0   9   20.21    4.61
  18   0   9   25.47    5.96
  18   0  10    7.62    2.97
  18   0  11  119.59   11.62
  18   0  12   13.69    4.68
  18   0  13    9.17    3.99
  18   0  14    2.63    1.13
  18   0  15  107.18   11.09
  18  -1 -15   10.18    4.35
  18  -1 -14   -1.61    2.19
  18  -1 -13    3.51    2.95
  18  -1 -12    0.01    2.24
  18  -1 -11   -0.10    1.81
  18   1 -11   -0.82    1.16
  18  -1 -10   14.74    4.94
  18   1 -10   14.21    3.81
  18  -1  -9    2.87    3.07
  18  -1  -9    3.88    2.65
  18   1  -9    3.04    2.41
  18  -1  -8    3.34    2.77
  18  -1  -8    2.30    2.78
  18   1  -8    0.11    1.94
  18  -1  -7    0.64    1.02
  18  -1  -7    5.62    2.67
  18   1  -7    3.08    3.19
  18  -1  -6    2.61    2.09
  18   1  -6    4.98    2.64
  18  -1  -6    4.57    3.18
  18   1  -6   11.59    3.72
  18  -1  -5    1.16    1.89
  18   1  -5    0.51    1.14
  18  -1  -5    2.46    1.71
  18   1  -5    0.11    1.73
  18  -1  -4    1.68    2.24
  18   1  -4    1.62    2.72
  18  -1  -4    0.55    1.45
  18   1  -4    3.01    2.03
  18  -1  -3    3.63    2.21
  18   1  -3    0.71    0.95
  18  -1  -3    1.00    1.85
  18   1  -3   -0.69    2.08
  18  -1  -2    0.10    1.18
  18   1  -2    0.61    1.08
  18  -1  -2    0.69    1.25
  18   1  -2   -2.40    2.28
  18  -1  -1    3.70    2.08
  18   1  -1   -0.68    1.02
  18  -1  -1    1.29    2.03
  18   1  -1   -1.40    1.21
  18  -1   0    3.71    1.72
  18   1   0   -0.98    1.57
  18  -1   0    0.55    2.17
  18   1   0    0.34    1.76
  18  -1   1    1.98    1.56
  18   1   1    1.03    1.63
  18  -1   1    2.68    2.83
  18   1   1    2.88    2.36
  18  -1   2    0.41    1.86
  18   1   2    1.66    2.00
  18  -1   2   -0.12    1.23
  18   1   2    3.28    2.84
  18  -1   3    0.81    1.49
  18   1   3    0.10    1.78
  18  -1   3   -0.46    1.42
  18   1   3    1.51    1.48
  18  -1   4    0.50    1.02
  18  -1   4   -0.24    1.66
  18   1   4    1.30    3.01
  18   1   4   -0.46    1.31
  18  -1   5   -1.00    0.82
  18  -1   5   -0.57    2.49
  18   1   5    1.39    1.49
  18   1   5   -0.83    2.22
  18  -1   6    9.52    3.34
  18  -1   6    5.39    3.17
  18   1   6    7.57    3.48
  18   1   6   10.73    3.11
  18  -1   7    0.05    1.29
  18  -1   7    2.48    2.72
  18   1   7    1.61    1.42
  18   1   7    0.30    1.31
  18  -1   8    4.40    2.33
  18  -1   8    1.69    2.84
  18   1   8    1.97    2.06
  18   1   8   -0.29    2.08
  18  -1   9    1.04    1.04
  18  -1   9    0.47    1.70
  18   1   9    3.46    2.11
  18  -1  10   20.16    5.04
  18  -1  10   12.24    4.01
  18   1  10   14.75    4.58
  18  -1  11    5.14    3.08
  18  -1  11    2.86    1.88
  18   1  11    1.18    1.66
  18  -1  12    1.86    1.25
  18   1  12    1.45    2.14
  18  -1  13   -1.87    1.64
  18   1  13    0.48    1.34
  18  -1  14   -0.61    1.75
  18   1  14    5.26    3.60
  18  -1  15   11.44    3.56
  18   1  15   10.86    4.11
  18  -2 -14   -1.16    1.85
  18  -2 -13    6.51    3.65
  18  -2 -12   -0.73    1.48
  18  -2 -11    9.19    3.55
  18  -2 -10   10.98    4.53
  18  -2 -10   11.42    3.92
  18  -2  -9    1.08    1.72
  18  -2  -9    3.34    1.89
  18  -2  -8   -0.85    1.84
  18  -2  -8    3.16    2.60
  18   2  -8    1.29    2.41
  18  -2  -7    1.45    1.34
  18  -2  -7    3.57    1.59
  18   2  -7    2.91    2.13
  18  -2  -6    8.19    2.86
  18  -2  -6    7.35    1.90
  18   2  -6    2.73    1.15
  18  -2  -5   25.35    5.44
  18   2  -5   18.23    5.07
  18  -2  -5   21.09    5.06
  18   2  -5   22.67    6.17
  18   2  -5   16.59    4.05
  18  -2  -4   16.56    4.11
  18   2  -4    8.10    3.03
  18  -2  -4    9.57    3.34
  18   2  -4    8.94    3.44
  18   2  -4    7.94    2.86
  18  -2  -3    7.51    2.80
  18   2  -3    3.85    2.10
  18  -2  -3   11.14    3.88
  18   2  -3    2.86    2.04
  18   2  -3    4.34    1.94
  18  -2  -2    6.99    2.61
  18   2  -2    6.23    3.03
  18  -2  -2    3.90    2.84
  18   2  -2    7.46    1.13
  18   2  -2    5.45    2.52
  18  -2  -1   39.99    6.53
  18  -2  -1   36.73    6.65
  18   2  -1   36.54    6.34
  18   2  -1   31.89    5.57
  18   2  -1   28.37    5.91
  18  -2   0   18.85    4.98
  18  -2   0    7.60    2.87
  18   2   0    8.35    3.51
  18   2   0   11.66    3.76
  18   2   0    6.10    2.24
  18  -2   1   32.39    5.84
  18  -2   1   40.13    7.08
  18   2   1   24.21    4.81
  18   2   1   24.19    5.48
  18   2   1   27.01    5.42
  18  -2   2    8.83    2.77
  18  -2   2    6.62    2.56
  18   2   2    6.50    3.21
  18   2   2    1.99    1.42
  18   2   2   11.37    4.04
  18  -2   3    5.38    2.25
  18  -2   3    3.97    2.58
  18   2   3   10.07    3.04
  18   2   3   10.45    4.01
  18   2   3    1.00    1.25
  18  -2   4   13.14    4.05
  18  -2   4   11.05    3.48
  18   2   4    7.78    2.11
  18   2   4   11.82    3.85
  18   2   4    8.70    2.58
  18  -2   5   16.62    4.09
  18  -2   5   26.66    5.30
  18   2   5   21.97    4.72
  18   2   5   21.07    4.90
  18   2   5   21.37    5.04
  18  -2   6    8.66    3.15
  18  -2   6    9.91    3.39
  18   2   6    4.84    1.59
  18   2   6    4.75    3.07
  18   2   6    9.03    2.97
  18  -2   7    0.78    1.18
  18  -2   7    4.06    3.62
  18   2   7    1.51    1.40
  18   2   7    0.60    1.72
  18   2   7    1.40    1.41
  18  -2   8   -1.41    1.42
  18  -2   8    1.10    2.36
  18   2   8   -2.28    1.66
  18   2   8   -0.84    1.35
  18  -2   9    2.49    2.85
  18  -2   9    0.15    1.44
  18   2   9    1.49    1.71
  18   2   9    1.15    2.15
  18  -2  10    8.62    3.32
  18  -2  10   12.37    3.00
  18   2  10    3.58    2.31
  18   2  11   15.46    4.61
  18  -2  11   15.72    4.84
  18  -2  11   19.99    5.03
  18   2  12    2.73    1.99
  18  -2  12   -0.24    1.45
  18  -2  12   -1.26    2.03
  18   2  13    6.35    3.56
  18  -2  13    1.27    2.08
  18  -2  13    5.63    3.74
  18   2  14    3.18    1.14
  18  -2  14    2.56    1.60
  18  -3 -13    5.76    2.58
  18   3 -13    5.40    2.98
  18  -3 -12    8.78    3.96
  18   3 -12    5.41    3.70
  18  -3 -11    3.28    1.81
  18  -3 -11    0.75    1.28
  18   3 -11    2.31    2.55
  18  -3 -10    2.36    2.22
  18  -3 -10    0.86    1.11
  18   3 -10    1.35    1.56
  18  -3  -9   -1.14    1.12
  18  -3  -9    0.13    1.92
  18  -3  -8    3.45    3.17
  18  -3  -8    1.60    2.91
  18   3  -8   -2.71    2.21
  18  -3  -7    2.22    2.64
  18  -3  -7    1.01    1.76
  18   3  -7    0.99    1.18
  18  -3  -6   12.09    3.82
  18  -3  -6   11.13    3.80
  18   3  -6   13.90    4.28
  18  -3  -5   -1.02    1.09
  18   3  -5    0.33    1.20
  18  -3  -4    2.30    2.33
  18  -3  -4    6.61    1.90
  18   3  -4    0.53    1.38
  18  -3  -3   -0.63    1.68
  18  -3  -3   -1.78    1.75
  18   3  -3    0.29    1.52
  18   3  -3    2.30    1.10
  18  -3  -2    0.17    0.89
  18  -3  -2    1.22    2.26
  18   3  -2   -0.77    1.09
  18   3  -2   -0.18    0.94
  18  -3  -1    0.97    0.98
  18  -3  -1    2.41    2.06
  18   3  -1    0.84    1.86
  18   3  -1   -1.49    2.13
  18  -3   0    1.58    2.66
  18  -3   0    0.82    1.88
  18   3   0    0.84    1.36
  18   3   0    1.41    1.27
  18  -3   1   -1.07    1.34
  18  -3   1   -1.77    1.78
  18   3   1    2.63    3.38
  18   3   1    0.08    2.00
  18   3   1    0.66    2.10
  18  -3   2    1.91    1.36
  18  -3   2   -1.05    1.12
  18   3   2    3.55    1.96
  18   3   2   -2.41    2.22
  18   3   2    2.19    1.41
  18  -3   3    1.32    2.34
  18  -3   3   -1.11    1.66
  18   3   3    1.18    2.20
  18   3   3    0.06    1.70
  18   3   3    4.47    3.08
  18   3   4    6.41    2.70
  18  -3   4    4.46    2.90
  18  -3   4    6.30    2.78
  18   3   4    7.37    3.44
  18   3   4    4.29    2.90
  18   3   5    0.81    2.12
  18  -3   5    1.67    1.42
  18  -3   5    4.20    2.71
  18   3   5    3.30    2.27
  18   3   5    4.41    3.34
  18   3   6   15.44    4.22
  18  -3   6   20.04    5.02
  18  -3   6   14.36    4.47
  18   3   6   20.86    4.98
  18   3   6   12.01    4.28
  18   3   7    2.17    2.28
  18  -3   7    2.80    3.29
  18  -3   7    0.62    2.08
  18   3   7    2.71    2.48
  18   3   8   -0.61    1.23
  18  -3   8    1.61    1.35
  18  -3   8    2.69    1.67
  18   3   8   -0.53    1.27
  18   3   9    1.73    2.43
  18  -3   9    2.84    3.05
  18  -3   9    1.53    2.53
  18   3   9   -0.38    2.63
  18   3  10    2.86    1.49
  18  -3  10    5.95    2.42
  18  -3  10   -0.60    3.53
  18   3  10   -0.90    1.91
  18   3  11    0.35    1.91
  18  -3  11    1.41    1.59
  18  -3  11   -2.16    2.79
  18   3  12    3.19    2.04
  18  -3  12    6.57    2.45
  18  -3  12    8.87    4.05
  18   3  13    6.27    3.34
  18  -3  13    3.79    1.79
  18  -3  13    5.48    2.48
  18  -4 -11    3.63    1.79
  18  -4 -11   12.64    4.41
  18   4 -11    8.53    3.38
  18  -4 -10   12.02    5.06
  18  -4 -10    8.95    3.53
  18   4 -10   13.83    3.67
  18  -4  -9   -0.71    2.36
  18  -4  -9    0.65    1.98
  18  -4  -8    6.69    3.28
  18  -4  -8    2.62    2.35
  18   4  -8    3.28    2.01
  18  -4  -7   11.90    3.61
  18  -4  -7    5.41    3.33
  18   4  -7    4.97    2.62
  18  -4  -6   17.61    4.54
  18  -4  -6   15.04    4.36
  18   4  -6   14.67    3.99
  18  -4  -5   27.08    5.66
  18  -4  -5   23.69    5.49
  18   4  -5   14.34    4.27
  18  -4  -4    3.46    3.02
  18  -4  -4    0.54    1.86
  18   4  -4    1.61    0.92
  18  -4  -3    2.27    2.49
  18  -4  -3    1.60    2.20
  18   4  -3   -0.95    2.91
  18  -4  -2    0.86    1.46
  18  -4  -2    0.75    1.02
  18   4  -2    2.75    1.57
  18   4  -2    1.62    2.09
  18  -4  -1   18.78    4.71
  18  -4  -1   26.44    5.38
  18   4  -1   28.37    5.61
  18   4  -1   19.50    5.13
  18   4   0   13.66    4.25
  18  -4   0   15.82    4.44
  18  -4   0    6.42    2.56
  18   4   0   13.34    3.53
  18   4   1   25.82    5.83
  18  -4   1   20.80    5.33
  18  -4   1   21.59    5.66
  18   4   1   26.32    5.37
  18   4   2    3.32    1.84
  18  -4   2    1.17    1.02
  18  -4   2    2.00    2.58
  18   4   2    0.35    1.46
  18   4   3    1.47    0.98
  18  -4   3    1.45    1.04
  18  -4   3   -2.10    1.97
  18   4   3    3.39    2.18
  18   4   4    2.50    1.99
  18  -4   4    0.32    1.08
  18  -4   4    0.08    1.34
  18   4   4   -1.56    1.35
  18   4   5   21.72    4.83
  18  -4   5   28.98    5.56
  18  -4   5   34.24    6.32
  18   4   5   18.46    4.97
  18   4   6   13.87    3.69
  18  -4   6   20.87    5.08
  18  -4   6   26.00    6.16
  18   4   6   15.91    3.54
  18   4   7    6.92    3.23
  18  -4   7   13.72    3.99
  18   4   7   10.49    2.76
  18   4   8    1.18    1.28
  18  -4   8    1.14    1.51
  18  -4   8    4.36    1.21
  18   4   8   -1.41    2.65
  18   4   9    2.85    3.00
  18  -4   9    1.96    2.40
  18  -4   9   -1.68    1.55
  18   4   9    0.78    2.62
  18   4  10    0.60    1.76
  18  -4  10    8.79    4.01
  18  -4  10    5.73    4.03
  18   4  10    9.11    3.00
  18   4  11    7.89    3.87
  18  -4  11    9.40    3.17
  18  -5  -7   -0.16    2.42
  18  -5  -7    2.06    1.93
  18   5  -7    1.71    1.62
  18  -5  -6    3.97    1.55
  18  -5  -6    2.22    2.48
  18   5  -6    5.54    2.80
  18  -5  -5    3.71    2.56
  18  -5  -5    5.46    3.08
  18   5  -5   -0.94    1.99
  18  -5  -4    1.35    2.97
  18  -5  -4    3.95    2.63
  18   5  -4    4.23    2.00
  18  -5  -3   -0.44    1.32
  18  -5  -3   -1.00    2.18
  18   5  -3    0.17    1.54
  18  -5  -2   -1.08    2.19
  18  -5  -2   -1.51    2.65
  18   5  -2    0.31    1.73
  18   5  -1    4.29    3.55
  18  -5  -1    2.36    2.72
  18  -5  -1    1.96    2.30
  18   5  -1    6.06    2.38
  18   5   0   -2.05    1.09
  18  -5   0    2.45    2.15
  18  -5   0   -0.89    1.33
  18   5   0    2.14    2.65
  18   5   1    3.36    2.50
  18  -5   1    1.30    2.59
  18  -5   1    9.87    3.55
  18   5   1    1.48    1.90
  18   5   2   -0.61    2.42
  18  -5   2   -0.70    2.39
  18  -5   2    0.50    1.76
  18   5   2    2.77    2.10
  18   5   3   -0.36    2.01
  18  -5   3    1.76    2.27
  18  -5   3    1.45    1.79
  18   5   3   -1.00    1.90
  18   5   4   -0.56    1.24
  18   5   4    3.13    1.42
  18  -5   4    2.72    1.01
  18  -5   4    5.23    3.53
  18   5   5    0.46    1.06
  18   5   5    0.64    1.30
  18  -5   5    0.35    1.18
  18  -5   5    1.34    3.13
  18   5   6    0.18    1.69
  18   5   6    1.77    2.02
  18  -5   6    4.13    2.85
  18  -5   6    2.78    2.30
  18   5   7   -1.48    2.17
  18   5   7    1.41    0.95
  18  -5   7    0.78    1.94
  18  -5   7    1.58    1.83
  19   0 -12   -0.80    1.84
  19   0 -11    2.77    2.45
  19   0 -10   -3.35    1.36
  19   0  -9    0.16    1.72
  19   0  -8    0.28    1.81
  19   0  -7    1.41    1.14
  19   0  -7    4.12    2.78
  19   0  -6    0.70    1.26
  19   0  -6    0.64    1.12
  19   0  -5   -0.48    2.60
  19   0  -5    0.50    1.68
  19   0  -4    1.62    2.37
  19   0  -4    3.89    2.71
  19   0  -3    0.74    1.63
  19   0  -3   -0.06    1.93
  19   0  -2    0.61    1.58
  19   0  -2    0.31    1.12
  19   0  -1    2.00    2.44
  19   0  -1    0.18    1.19
  19   0   0    0.73    1.35
  19   0   0    4.69    2.75
  19   0   1   -1.70    2.06
  19   0   1   -0.93    1.64
  19   0   2    0.60    0.95
  19   0   2   -1.01    2.01
  19   0   3    0.97    1.67
  19   0   3   -0.09    1.14
  19   0   4    0.05    2.16
  19   0   4    1.08    2.00
  19   0   5   -0.44    1.24
  19   0   5   -0.51    2.45
  19   0   6    1.40    0.99
  19   0   6    2.22    3.18
  19   0   7   -1.30    1.18
  19   0   7    0.32    1.98
  19   0   8    0.61    1.40
  19   0   8    0.73    1.44
  19   0   9   -1.66    2.60
  19   0   9    0.55    1.75
  19   0  10   -0.80    1.52
  19   0  10   -1.10    1.49
  19   0  11   -0.55    2.66
  19   0  11    1.54    2.42
  19   0  12    0.58    1.59
  19  -1 -12    1.36    1.91
  19  -1 -11   21.57    5.65
  19  -1 -10   14.43    4.50
  19  -1  -9    2.02    1.73
  19   1  -9   16.02    5.84
  19  -1  -8    1.79    1.34
  19  -1  -8    3.66    2.67
  19   1  -8    3.27    3.06
  19  -1  -7   11.05    3.57
  19  -1  -7   13.78    4.31
  19   1  -7    2.16    1.27
  19  -1  -6   17.21    4.54
  19   1  -6   18.48    5.81
  19  -1  -6   10.88    3.56
  19   1  -6   11.97    4.10
  19  -1  -5   11.67    3.67
  19   1  -5   12.41    4.29
  19  -1  -5   11.83    4.03
  19   1  -5   16.79    4.92
  19  -1  -4   12.62    3.98
  19   1  -4   11.75    3.54
  19  -1  -4   14.33    4.21
  19   1  -4   13.21    3.82
  19  -1  -3    1.56    1.07
  19   1  -3    3.31    2.73
  19  -1  -3    1.86    1.66
  19   1  -3    4.89    2.19
  19  -1  -2   32.47    5.95
  19   1  -2   21.41    5.06
  19  -1  -2   22.95    4.90
  19   1  -2   33.82    6.19
  19  -1  -1   14.31    4.26
  19   1  -1    8.31    3.06
  19  -1  -1    9.72    4.30
  19   1  -1   17.45    4.98
  19  -1   0    2.96    2.29
  19   1   0    1.19    2.60
  19  -1   0   -0.79    1.10
  19   1   0   -1.30    1.42
  19  -1   1   10.28    3.85
  19   1   1   12.88    3.59
  19  -1   1   11.34    3.80
  19   1   1    5.58    2.47
  19  -1   2   35.11    6.45
  19   1   2   18.79    4.59
  19  -1   2   30.11    5.58
  19   1   2   30.34    6.15
  19  -1   3    5.15    2.49
  19   1   3    8.07    3.12
  19  -1   3    5.56    2.32
  19   1   3    3.04    1.85
  19  -1   4    5.19    2.87
  19   1   4   11.07    3.50
  19  -1   4    5.67    2.62
  19   1   4    6.53    3.15
  19  -1   5    3.87    1.85
  19   1   5   12.42    3.55
  19  -1   5   19.46    4.88
  19   1   5   14.71    3.73
  19  -1   6    9.61    3.67
  19   1   6    8.70    3.63
  19  -1   6    5.35    2.58
  19   1   6   15.10    4.61
  19  -1   7   11.83    3.83
  19  -1   7    9.50    3.55
  19   1   7    7.61    3.46
  19   1   7   11.91    3.72
  19  -1   8   10.56    3.20
  19  -1   8    4.74    2.51
  19   1   8    7.57    2.77
  19   1   8   10.82    3.18
  19  -1   9    4.40    2.57
  19  -1   9    0.77    1.69
  19   1   9    4.92    1.75
  19   1   9    4.33    2.81
  19  -1  10    6.94    2.12
  19  -1  10   16.29    4.37
  19   1  10   12.67    3.98
  19  -1  11   15.93    4.57
  19  -1  11   14.15    4.20
  19   1  11   19.54    4.62
  19  -1  12    1.71    2.29
  19  -1  12    2.13    2.23
  19   1  12   -0.10    1.95
  19  -2 -11    1.23    1.88
  19  -2 -10    1.29    1.67
  19  -2  -9   -0.41    1.38
  19  -2  -9    0.67    1.93
  19  -2  -8    0.30    1.46
  19  -2  -8   -1.55    1.39
  19  -2  -7    8.68    3.34
  19  -2  -7    3.88    2.60
  19  -2  -6    7.49    3.58
  19  -2  -6    3.21    2.69
  19   2  -6    2.70    2.55
  19  -2  -5    7.66    3.39
  19  -2  -5   10.11    3.66
  19   2  -5    9.18    3.55
  19  -2  -4    0.10    0.96
  19   2  -4    4.61    2.50
  19  -2  -4    5.27    2.94
  19   2  -4    1.91    2.60
  19  -2  -3    2.29    1.87
  19   2  -3    2.33    2.93
  19  -2  -3    6.05    2.87
  19   2  -3    0.86    2.75
  19   2  -3   -0.90    2.62
  19  -2  -2    0.27    1.91
  19   2  -2    0.02    2.51
  19  -2  -2    0.68    2.68
  19   2  -2    4.23    3.30
  19   2  -2    4.25    3.03
  19  -2  -1    3.30    2.13
  19   2  -1    2.99    3.16
  19  -2  -1    2.24    1.78
  19   2  -1    0.64    2.32
  19   2  -1    0.31    1.30
  19  -2   0    1.49    2.01
  19  -2   0    3.71    2.61
  19   2   0    1.80    2.03
  19   2   0   10.35    3.67
  19   2   0    1.79    2.77
  19  -2   1    7.54    3.41
  19  -2   1    2.06    2.25
  19   2   1    5.98    3.34
  19   2   1    0.55    1.02
  19   2   1    0.66    1.48
  19  -2   2    0.86    1.14
  19  -2   2    3.51    2.18
  19   2   2    0.46    2.22
  19   2   2    4.07    0.99
  19   2   2    0.02    1.23
  19  -2   3    2.90    2.58
  19  -2   3    5.87    3.71
  19   2   3    1.52    2.12
  19   2   3    3.20    2.92
  19   2   3    0.25    1.50
  19  -2   4    6.92    2.87
  19  -2   4    0.87    2.13
  19   2   4   -1.68    2.19
  19   2   4    1.25    2.14
  19   2   4   -1.81    2.33
  19  -2   5    8.70    3.28
  19  -2   5    6.41    3.43
  19   2   5    9.77    3.78
  19   2   5    6.78    2.80
  19   2   5   10.01    2.97
  19  -2   6   10.76    3.28
  19  -2   6    3.12    1.53
  19   2   6    4.05    3.23
  19   2   6   10.09    4.32
  19   2   6    7.05    3.31
  19  -2   7    3.00    1.83
  19  -2   7    2.51    2.14
  19   2   7    0.83    1.11
  19   2   7    1.45    1.80
  19   2   7    1.01    2.27
  19  -2   8    0.65    1.78
  19  -2   8    2.11    2.66
  19   2   8    1.38    2.32
  19   2   8    1.73    1.94
  19   2   8    1.83    2.81
  19  -2   9    4.60    2.76
  19  -2   9    0.75    1.97
  19   2   9    1.81    2.53
  19   2   9    0.62    1.14
  19  -2  10    4.57    2.15
  19  -2  10    2.45    1.96
  19   2  10    2.90    2.20
  19  -2  11    1.95    2.11
  19  -2  11    3.13    2.27
  19   2  11    4.35    3.54
  19  -3  -9   -0.85    1.74
  19  -3  -9    6.69    3.52
  19   3  -9    5.05    2.70
  19  -3  -8    8.38    3.15
  19  -3  -8   18.91    5.38
  19   3  -8   10.56    3.60
  19  -3  -7    1.56    1.52
  19  -3  -7    1.53    2.33
  19   3  -7    3.97    3.03
  19  -3  -6   -0.22    1.09
  19  -3  -6    2.38    2.83
  19   3  -6    1.41    1.16
  19  -3  -5   -0.39    2.24
  19  -3  -5   10.13    3.10
  19   3  -5    7.76    3.14
  19  -3  -4    1.16    2.22
  19  -3  -4    1.96    2.31
  19   3  -4    3.62    2.67
  19  -3  -3    0.85    1.07
  19  -3  -3   -0.09    1.76
  19   3  -3    0.56    2.10
  19   3  -3    2.00    2.10
  19  -3  -2    7.44    3.36
  19  -3  -2    5.37    2.45
  19   3  -2    6.38    3.28
  19   3  -2    4.75    3.02
  19  -3  -1    1.11    1.61
  19  -3  -1    2.27    2.65
  19   3  -1    1.91    1.61
  19   3  -1    0.02    1.30
  19  -3   0    0.73    1.24
  19  -3   0   -1.25    2.17
  19   3   0    2.26    2.05
  19   3   0    2.08    1.17
  19  -3   1    3.29    1.67
  19  -3   1    1.66    2.33
  19   3   1    2.75    1.16
  19   3   1    2.15    1.90
  19  -3   2    4.48    2.14
  19  -3   2    9.21    3.55
  19   3   2    3.55    2.27
  19   3   2    5.37    2.92
  19  -3   3    1.87    1.77
  19  -3   3    2.71    2.31
  19   3   3    3.27    2.56
  19   3   3    2.39    1.68
  19   3   3    4.47    2.85
  19  -3   4    0.35    1.93
  19  -3   4    0.27    1.22
  19   3   4   -0.48    1.82
  19   3   4    1.61    2.71
  19   3   4   -1.37    1.80
  19  -3   5    7.18    3.40
  19  -3   5    6.00    2.93
  19   3   5    2.41    2.19
  19   3   5    4.70    3.43
  19   3   5    7.00    2.88
  19  -3   6    6.50    3.01
  19  -3   6    8.18    3.59
  19   3   6    2.83    1.70
  19   3   6    5.41    3.24
  19   3   6    2.79    2.89
  19  -3   7    1.06    1.67
  19  -3   7    2.63    1.37
  19   3   7    5.88    3.43
  19   3   7    3.35    2.90
  19   3   7    2.18    2.04
  19   3   8   10.81    4.24
  19  -3   8    4.59    1.68
  19  -3   8   10.60    4.19
  19   3   8    2.40    1.59
  19   3   8   15.11    5.03
  19   3   9    2.06    1.47
  19  -3   9    5.05    2.57
  19  -3   9    2.24    1.58
  19   3   9    4.34    3.28
  19  -4  -6    1.77    1.04
  19  -4  -6    1.09    1.96
  19   4  -6    1.50    2.40
  19  -4  -5   -0.85    2.38
  19  -4  -5   -2.63    2.75
  19   4  -5    2.69    1.68
  19  -4  -4    1.72    2.49
  19  -4  -4    3.28    2.32
  19   4  -4    3.30    1.90
  19  -4  -3    3.62    1.53
  19  -4  -3    6.68    2.55
  19   4  -3    2.13    1.53
  19  -4  -2   -2.16    1.57
  19  -4  -2    3.78    2.34
  19   4  -2   -3.35    2.04
  19   4  -2   -1.77    2.73
  19  -4  -1    0.35    1.38
  19  -4  -1   -0.87    1.61
  19   4  -1   -1.74    2.81
  19   4  -1    3.64    2.26
  19  -4   0    2.56    2.86
  19  -4   0    2.66    1.14
  19   4   0    2.29    1.39
  19   4   0   -0.04    1.62
  19  -4   1   -0.64    1.16
  19  -4   1   -0.10    1.33
  19   4   1    2.79    2.12
  19   4   1   -0.13    1.53
  19  -4   2    0.43    1.56
  19  -4   2   -0.20    2.71
  19   4   2    1.73    1.91
  19   4   2   -2.60    2.37
  19   4   3    3.63    2.56
  19  -4   3    4.29    2.42
  19  -4   3    4.38    2.33
  19   4   3    4.08    1.42
  19   4   4    2.61    3.03
  19  -4   4    1.65    1.67
  19  -4   4    3.72    2.73
  19   4   4   -0.07    1.81
  19   4   5    1.79    2.47
  19  -4   5    0.70    2.51
  19  -4   5    0.73    1.28
  19   4   5   -0.89    2.43
  19   4   6    2.57    3.09
  19  -4   6   -0.01    1.52
  19  -4   6   -0.26    1.61
  19   4   6    2.83    2.83
  20   0  -8   48.33    8.08
  20   0  -7    1.28    2.77
  20   0  -6   -2.19    2.49
  20   0  -6   -3.07    2.56
  20   0  -5   13.13    4.00
  20   0  -5   20.20    4.60
  20   0  -4   57.23    8.23
  20   0  -4   73.91    9.55
  20   0  -3    3.31    3.13
  20   0  -3    4.21    2.90
  20   0  -2   82.24   10.31
  20   0  -2   73.23    9.67
  20   0  -1    3.90    3.85
  20   0  -1    0.61    2.25
  20   0   0    1.48    1.59
  20   0   0   -0.87    2.65
  20   0   1    1.24    2.31
  20   0   1    0.94    1.78
  20   0   2   75.80    9.44
  20   0   2   79.38    9.71
  20   0   3    0.20    1.00
  20   0   3   -0.68    2.49
  20   0   4   64.34    8.67
  20   0   4   64.69    9.08
  20   0   5   25.46    5.55
  20   0   5   16.73    4.11
  20   0   6    0.79    1.85
  20   0   6   -1.09    1.06
  20   0   7   -1.17    2.70
  20   0   7    0.92    1.25
  20   0   8   57.61    8.24
  20   0   8   60.43    8.18
  20  -1  -7   -0.95    2.92
  20  -1  -7   -0.14    1.60
  20  -1  -6   -2.69    2.46
  20  -1  -6    1.00    1.93
  20   1  -6   -0.34    1.53
  20  -1  -5    0.92    1.46
  20   1  -5    3.83    3.02
  20  -1  -5    1.65    1.42
  20   1  -5    3.60    2.90
  20  -1  -4    0.24    2.04
  20   1  -4    0.11    1.33
  20  -1  -4   -0.63    1.22
  20   1  -4   -0.13    1.36
  20  -1  -3    5.31    2.36
  20   1  -3    5.59    2.26
  20  -1  -3    2.83    1.14
  20   1  -3    3.00    2.33
  20  -1  -2    4.39    2.04
  20   1  -2    2.04    2.41
  20  -1  -2    2.82    1.06
  20   1  -2   -0.23    1.58
  20  -1  -1    2.59    2.67
  20   1  -1    1.49    1.78
  20  -1  -1    1.29    2.52
  20   1  -1    2.87    2.60
  20  -1   0    0.32    1.06
  20   1   0   -0.58    1.39
  20  -1   0   -1.69    2.51
  20   1   0    4.37    3.65
  20  -1   1    1.30    1.39
  20   1   1    1.15    2.52
  20  -1   1    3.81    2.36
  20   1   1    2.92    2.20
  20  -1   2    0.79    0.97
  20   1   2    2.92    2.44
  20  -1   2    1.41    1.96
  20   1   2    2.24    1.80
  20  -1   3    2.62    2.09
  20   1   3    1.64    1.43
  20  -1   3    6.99    3.24
  20   1   3    4.89    2.21
  20  -1   4   -0.08    0.83
  20   1   4   -2.04    1.86
  20  -1   4   -1.11    1.36
  20   1   4    1.85    3.04
  20  -1   5    0.97    2.04
  20   1   5   -1.13    1.93
  20   1   5   -1.09    1.47
  20  -1   6    1.43    1.23
  20   1   6    0.37    2.16
  20  -1   6    0.44    1.58
  20   1   6    1.88    2.14
  20  -1   7    0.39    1.74
  20   1   7    1.81    1.59
  20  -1   7   -0.07    1.60
  20   1   7    1.35    2.55
  20  -2  -6    3.53    2.67
  20  -2  -6    2.05    1.19
  20  -2  -5    1.21    1.68
  20  -2  -5    0.61    1.15
  20  -2  -4    2.77    1.32
  20  -2  -4    6.24    3.16
  20  -2  -3    1.10    1.44
  20   2  -3    1.20    1.37
  20  -2  -3   -0.63    1.14
  20  -2  -2   34.60    6.63
  20   2  -2   26.89    6.21
  20  -2  -2   24.22    5.25
  20   2  -2   25.37    4.73
  20  -2  -1    2.60    1.28
  20   2  -1    2.19    2.14
  20  -2  -1    2.83    3.30
  20   2  -1   -1.17    2.71
  20   2  -1    1.09    1.86
  20  -2   0    2.57    2.26
  20   2   0    0.72    1.45
  20  -2   0   -0.69    2.28
  20   2   0   -4.75    3.05
  20   2   0    2.10    2.55
  20  -2   1   -0.01    1.90
  20   2   1    0.73    1.15
  20  -2   1    0.81    1.07
  20   2   1    2.16    2.39
  20   2   1    1.06    1.74
  20  -2   2   27.14    5.88
  20  -2   2   34.45    6.93
  20   2   2   27.27    5.45
  20   2   2   24.45    6.27
  20   2   2   30.73    5.90
  20  -2   3    0.09    1.24
  20  -2   3    1.46    1.49
  20   2   3    4.36    1.70
  20   2   3   -2.05    2.25
  20   2   3    0.90    3.10
  20  -2   4    6.29    3.20
  20  -2   4    0.76    1.53
  20   2   4   13.05    4.22
  20   2   4    5.38    3.20
  20   2   4    5.75    3.52
  20  -2   5   -0.51    1.14
  20  -2   5   -2.18    1.54
  20   2   5    2.11    3.13
  20   2   5   -0.56    2.05
  20   2   5    3.60    2.37
  20  -2   6    4.54    2.71
  20  -2   6    3.68    2.40
  20   2   6    2.96    2.47
  20   2   6    4.63    2.52
  20   2   6    6.96    3.55
  20  -3  -1   -0.58    1.10
  20  -3  -1   -0.72    1.51
  20   3  -1   -0.22    1.62
  20   3  -1    1.92    2.21
  20  -3   0    0.21    1.36
  20  -3   0    1.42    2.40
  20   3   0    1.64    1.92
  20   3   0    0.06    1.15
  20  -3   1   -0.21    2.24
  20  -3   1    2.68    1.90
  20   3   1    3.94    2.58
  20   3   1    1.62    1.78
   0   0   0    0.00    0.00
TITL 002_300K_SulfamerazineF1 in Pna2(1)
REM Pna2(1) (#33, found as Pbn2(1) in ba-c setting)
CELL 0.68890  14.504017   8.216193  21.998426  90.0000  90.0000  90.0000
ZERR    8.00   0.000171   0.000105   0.000366   0.0000   0.0000   0.0000
LATT -1
SYMM -x,-y, z+1/2
SYMM  x+1/2,-y+1/2, z
SYMM -x+1/2, y+1/2, z+1/2
SFAC C H N O S
UNIT 88.00 96.00 32.00 16.00 8.00
TREF
HKLF 4
END
_computing_structure_solution     'SHELXT 2014/5 (Sheldrick, 2014)'
;
_shelx_hkl_checksum              95951
loop_
_space_group_symop_operation_xyz
'x, y, z'
'-x, -y, z+1/2'
'x+1/2, -y+1/2, z'
'-x+1/2, y+1/2, z+1/2'
loop_
_atom_site_label
_atom_site_type_symbol
_atom_site_fract_x
_atom_site_fract_y
_atom_site_fract_z
_atom_site_U_iso_or_equiv
_atom_site_adp_type
_atom_site_occupancy
_atom_site_site_symmetry_order
_atom_site_calc_flag
_atom_site_refinement_flags_posn
_atom_site_refinement_flags_adp
_atom_site_refinement_flags_occupancy
_atom_site_disorder_assembly
_atom_site_disorder_group
S1 S 0.64748(7) 0.49612(10) 0.34471(6) 0.0423(2) Uani 1 1 d . . . . .
S2 S 0.57777(7) 0.49404(10) 0.65210(6) 0.0420(2) Uani 1 1 d . . . . .
O1 O 0.6905(2) 0.3716(4) 0.30926(15) 0.0553(7) Uani 1 1 d . . . . .
O2 O 0.5509(2) 0.5228(4) 0.33834(17) 0.0550(7) Uani 1 1 d . . . . .
O3 O 0.6751(2) 0.4665(4) 0.65848(17) 0.0530(7) Uani 1 1 d . . . . .
O4 O 0.5353(2) 0.6209(4) 0.68616(15) 0.0546(7) Uani 1 1 d . . . . .
N1 N 0.8436(3) 1.1158(5) 0.3125(2) 0.0631(11) Uani 1 1 d . . . . .
N2 N 0.6565(2) 0.4501(5) 0.41729(19) 0.0487(8) Uani 1 1 d . . . . .
N3 N 0.8159(2) 0.4103(4) 0.41799(18) 0.0484(8) Uani 1 1 d . . . . .
N4 N 0.7288(3) 0.4276(6) 0.50906(19) 0.0651(11) Uani 1 1 d . . . . .
N5 N 0.3800(3) -0.1199(5) 0.6961(3) 0.0816(16) Uani 1 1 d . . . . .
H5A H 0.3236 -0.1181 0.7079 0.106 Uiso 1 1 calc R U . . .
H5B H 0.4073 -0.2114 0.6900 0.106 Uiso 1 1 calc R U . . .
N6 N 0.5685(3) 0.5346(5) 0.57926(19) 0.0507(9) Uani 1 1 d . . . . .
N7 N 0.4104(2) 0.5845(5) 0.57926(19) 0.0526(9) Uani 1 1 d . . . . .
N8 N 0.4971(3) 0.5661(6) 0.4874(2) 0.0645(11) Uani 1 1 d . . . . .
C1 C 0.7066(2) 0.6783(4) 0.3344(2) 0.0387(8) Uani 1 1 d . . . . .
C2 C 0.7957(2) 0.6798(5) 0.31126(18) 0.0409(8) Uani 1 1 d . . . . .
H2 H 0.8246 0.5827 0.3009 0.053 Uiso 1 1 calc R U . . .
C3 C 0.8409(3) 0.8252(5) 0.3038(2) 0.0416(9) Uani 1 1 d . . . . .
H3 H 0.9005 0.8260 0.2882 0.054 Uiso 1 1 calc R U . . .
C4 C 0.7985(3) 0.9722(5) 0.3193(2) 0.0443(9) Uani 1 1 d . . . . .
C5 C 0.7080(3) 0.9688(5) 0.3429(2) 0.0503(10) Uani 1 1 d . . . . .
H5 H 0.6788 1.0655 0.3535 0.065 Uiso 1 1 calc R U . . .
C6 C 0.6632(3) 0.8232(5) 0.3502(2) 0.0488(9) Uani 1 1 d . . . . .
H6 H 0.6036 0.8213 0.3657 0.063 Uiso 1 1 calc R U . . .
C7 C 0.7385(3) 0.4290(5) 0.44939(19) 0.0457(9) Uani 1 1 d . . . . .
C8 C 0.8061(4) 0.4015(10) 0.5398(3) 0.086(2) Uani 1 1 d . . . . .
H8 H 0.8031 0.3974 0.5820 0.112 Uiso 1 1 calc R U . . .
C9 C 0.8902(3) 0.3803(8) 0.5123(3) 0.0799(17) Uani 1 1 d . . . . .
H9 H 0.9433 0.3617 0.5350 0.104 Uiso 1 1 calc R U . . .
C10 C 0.8929(3) 0.3877(6) 0.4503(2) 0.0595(12) Uani 1 1 d . . . . .
C11 C 0.9799(4) 0.3715(8) 0.4148(3) 0.0818(17) Uani 1 1 d . . . . .
H11A H 0.9784 0.2723 0.3918 0.106 Uiso 1 1 calc R U . . .
H11B H 1.0315 0.3693 0.4422 0.106 Uiso 1 1 calc R U . . .
H11C H 0.9860 0.4623 0.3877 0.106 Uiso 1 1 calc R U . . .
C12 C 0.5193(3) 0.3142(5) 0.66552(19) 0.0414(8) Uani 1 1 d . . . . .
C13 C 0.5635(3) 0.1677(5) 0.6556(3) 0.0527(11) Uani 1 1 d . . . . .
H13 H 0.6239 0.1665 0.6415 0.069 Uiso 1 1 calc R U . . .
C14 C 0.5180(3) 0.0230(5) 0.6666(3) 0.0606(14) Uani 1 1 d . . . . .
H14 H 0.5484 -0.0752 0.6605 0.079 Uiso 1 1 calc R U . . .
C15 C 0.4266(3) 0.0230(5) 0.6869(2) 0.0515(11) Uani 1 1 d . . . . .
C16 C 0.3826(3) 0.1721(5) 0.6967(2) 0.0474(9) Uani 1 1 d . . . . .
H16 H 0.3220 0.1739 0.7104 0.062 Uiso 1 1 calc R U . . .
C17 C 0.4282(2) 0.3157(5) 0.6865(2) 0.0413(9) Uani 1 1 d . . . . .
H17 H 0.3985 0.4143 0.6935 0.054 Uiso 1 1 calc R U . . .
C18 C 0.4875(3) 0.5631(5) 0.5482(2) 0.0450(9) Uani 1 1 d . . . . .
C19 C 0.4200(4) 0.6006(10) 0.4565(3) 0.087(2) Uani 1 1 d . . . . .
H19 H 0.4227 0.6073 0.4143 0.114 Uiso 1 1 calc R U . . .
C20 C 0.3375(4) 0.6261(9) 0.4849(3) 0.088(2) Uani 1 1 d . . . . .
H20 H 0.2852 0.6515 0.4624 0.114 Uiso 1 1 calc R U . . .
C21 C 0.3330(3) 0.6139(6) 0.5470(3) 0.0604(12) Uani 1 1 d . . . . .
C22 C 0.2470(3) 0.6345(10) 0.5828(3) 0.0886(19) Uani 1 1 d . . . . .
H22A H 0.2247 0.7438 0.5782 0.115 Uiso 1 1 calc R U . . .
H22B H 0.2595 0.6136 0.6250 0.115 Uiso 1 1 calc R U . . .
H22C H 0.2012 0.5595 0.5685 0.115 Uiso 1 1 calc R U . . .
H1N1 H 0.890(4) 1.119(7) 0.293(3) 0.071(16) Uiso 1 1 d . . . . .
H2N1 H 0.811(4) 1.196(7) 0.316(3) 0.069(16) Uiso 1 1 d . . . . .
H1N2 H 0.611(4) 0.486(6) 0.440(3) 0.065(17) Uiso 1 1 d . . . . .
H1N6 H 0.605(4) 0.513(5) 0.563(3) 0.046(15) Uiso 1 1 d . . . . .
loop_
_atom_site_aniso_label
_atom_site_aniso_U_11
_atom_site_aniso_U_22
_atom_site_aniso_U_33
_atom_site_aniso_U_23
_atom_site_aniso_U_13
_atom_site_aniso_U_12
S1 0.0394(4) 0.0451(5) 0.0425(5) 0.0035(4) -0.0016(4) -0.0030(3)
S2 0.0391(4) 0.0460(5) 0.0409(6) 0.0048(4) -0.0019(4) -0.0023(3)
O1 0.0630(18) 0.0465(15) 0.0563(19) -0.0050(14) 0.0018(15) -0.0027(13)
O2 0.0399(14) 0.0689(18) 0.056(2) 0.0082(16) -0.0093(16) -0.0068(12)
O3 0.0386(14) 0.0681(17) 0.0523(19) 0.0094(16) -0.0064(15) -0.0045(12)
O4 0.0619(19) 0.0455(14) 0.0564(19) -0.0049(13) -0.0006(15) -0.0032(13)
N1 0.055(2) 0.049(2) 0.085(3) -0.009(2) 0.022(2) -0.0057(17)
N2 0.0345(16) 0.062(2) 0.049(2) 0.0113(18) 0.0006(16) 0.0000(14)
N3 0.0382(16) 0.0531(18) 0.054(2) 0.0047(16) 0.0012(15) 0.0041(13)
N4 0.0450(19) 0.102(3) 0.048(2) 0.007(2) -0.0031(18) 0.015(2)
N5 0.072(3) 0.0464(19) 0.126(5) -0.006(2) 0.024(3) -0.0112(18)
N6 0.0357(17) 0.075(2) 0.041(2) 0.0128(18) 0.0025(16) 0.0030(16)
N7 0.0393(17) 0.062(2) 0.057(2) 0.0061(18) 0.0034(16) 0.0061(15)
N8 0.049(2) 0.099(3) 0.046(2) 0.009(2) -0.0032(18) 0.015(2)
C1 0.0364(17) 0.0428(17) 0.037(2) 0.0023(15) 0.0025(15) 0.0023(13)
C2 0.0394(17) 0.0460(18) 0.037(2) -0.0018(15) 0.0019(16) 0.0055(14)
C3 0.0359(18) 0.051(2) 0.038(2) -0.0013(16) 0.0073(16) 0.0023(14)
C4 0.046(2) 0.0448(19) 0.042(2) -0.0045(16) 0.0014(18) -0.0008(15)
C5 0.047(2) 0.0459(19) 0.058(3) -0.002(2) 0.009(2) 0.0053(15)
C6 0.0416(18) 0.050(2) 0.055(3) -0.0026(19) 0.0105(19) 0.0019(15)
C7 0.0396(19) 0.053(2) 0.044(2) 0.0086(17) -0.0005(17) 0.0045(16)
C8 0.061(3) 0.146(6) 0.052(3) 0.008(4) -0.006(3) 0.029(3)
C9 0.047(2) 0.125(5) 0.067(4) -0.004(3) -0.015(3) 0.025(3)
C10 0.045(2) 0.065(3) 0.069(4) 0.001(2) -0.001(2) 0.0122(19)
C11 0.049(3) 0.098(4) 0.098(5) -0.007(4) 0.008(3) 0.012(3)
C12 0.0402(17) 0.0430(17) 0.041(2) 0.0001(15) 0.0016(16) -0.0002(14)
C13 0.041(2) 0.047(2) 0.070(3) -0.001(2) 0.010(2) 0.0055(14)
C14 0.053(2) 0.042(2) 0.086(4) -0.003(2) 0.011(2) 0.0046(16)
C15 0.053(2) 0.0450(19) 0.057(3) -0.0022(18) 0.003(2) -0.0043(16)
C16 0.046(2) 0.049(2) 0.047(2) -0.0061(17) 0.0077(18) -0.0036(15)
C17 0.0392(18) 0.0419(18) 0.043(2) -0.0027(16) 0.0040(16) 0.0043(14)
C18 0.0407(18) 0.051(2) 0.044(2) 0.0072(17) -0.0014(17) 0.0008(15)
C19 0.062(3) 0.153(7) 0.047(3) 0.004(3) -0.009(3) 0.032(4)
C20 0.058(3) 0.136(6) 0.069(4) -0.001(4) -0.013(3) 0.036(3)
C21 0.044(2) 0.068(3) 0.069(3) -0.001(2) -0.004(2) 0.0144(19)
C22 0.044(2) 0.120(5) 0.102(5) 0.002(4) 0.007(3) 0.017(3)
loop_
_atom_type_symbol
_atom_type_description
_atom_type_scat_dispersion_real
_atom_type_scat_dispersion_imag
_atom_type_scat_source
C C 0.0033 0.0016 'International Tables Vol C Tables 4.2.6.8 and 6.1.1.4'
H H 0.0000 0.0000 'International Tables Vol C Tables 4.2.6.8 and 6.1.1.4'
N N 0.0061 0.0033 'International Tables Vol C Tables 4.2.6.8 and 6.1.1.4'
O O 0.0106 0.0060 'International Tables Vol C Tables 4.2.6.8 and 6.1.1.4'
S S 0.1246 0.1234 'International Tables Vol C Tables 4.2.6.8 and 6.1.1.4'
loop_
_geom_angle_atom_site_label_1
_geom_angle_atom_site_label_2
_geom_angle_atom_site_label_3
_geom_angle
_geom_angle_site_symmetry_1
_geom_angle_site_symmetry_3
O2 S1 O1 119.0(2) . .
O2 S1 N2 102.1(2) . .
O1 S1 N2 109.3(2) . .
O2 S1 C1 109.85(18) . .
O1 S1 C1 109.3(2) . .
N2 S1 C1 106.5(2) . .
O4 S2 O3 119.3(2) . .
O4 S2 N6 109.2(2) . .
O3 S2 N6 102.0(2) . .
O4 S2 C12 108.9(2) . .
O3 S2 C12 109.32(18) . .
N6 S2 C12 107.4(2) . .
C4 N1 H1N1 119(4) . .
C4 N1 H2N1 115(4) . .
H1N1 N1 H2N1 120(6) . .
C7 N2 S1 126.0(3) . .
C7 N2 H1N2 114(4) . .
S1 N2 H1N2 114(4) . .
C7 N3 C10 116.5(4) . .
C7 N4 C8 114.7(5) . .
C15 N5 H5A 120.0 . .
C15 N5 H5B 120.0 . .
H5A N5 H5B 120.0 . .
C18 N6 S2 126.0(3) . .
C18 N6 H1N6 117(5) . .
S2 N6 H1N6 114(5) . .
C18 N7 C21 117.1(4) . .
C19 N8 C18 115.1(4) . .
C2 C1 C6 120.3(3) . .
C2 C1 S1 121.0(3) . .
C6 C1 S1 118.8(3) . .
C3 C2 C1 119.8(3) . .
C3 C2 H2 120.1 . .
C1 C2 H2 120.1 . .
C2 C3 C4 120.8(3) . .
C2 C3 H3 119.6 . .
C4 C3 H3 119.6 . .
N1 C4 C3 120.8(4) . .
N1 C4 C5 120.4(4) . .
C3 C4 C5 118.8(3) . .
C6 C5 C4 120.0(4) . .
C6 C5 H5 120.0 . .
C4 C5 H5 120.0 . .
C5 C6 C1 120.2(4) . .
C5 C6 H6 119.9 . .
C1 C6 H6 119.9 . .
N4 C7 N3 127.3(4) . .
N4 C7 N2 114.5(4) . .
N3 C7 N2 118.2(4) . .
N4 C8 C9 123.2(5) . .
N4 C8 H8 118.4 . .
C9 C8 H8 118.4 . .
C10 C9 C8 117.3(5) . .
C10 C9 H9 121.3 . .
C8 C9 H9 121.3 . .
N3 C10 C9 120.9(4) . .
N3 C10 C11 116.2(5) . .
C9 C10 C11 122.9(5) . .
C10 C11 H11A 109.5 . .
C10 C11 H11B 109.5 . .
H11A C11 H11B 109.5 . .
C10 C11 H11C 109.5 . .
H11A C11 H11C 109.5 . .
H11B C11 H11C 109.5 . .
C13 C12 C17 119.9(3) . .
C13 C12 S2 119.4(3) . .
C17 C12 S2 120.8(3) . .
C12 C13 C14 120.1(4) . .
C12 C13 H13 120.0 . .
C14 C13 H13 120.0 . .
C13 C14 C15 120.6(4) . .
C13 C14 H14 119.7 . .
C15 C14 H14 119.7 . .
N5 C15 C16 120.2(4) . .
N5 C15 C14 121.0(4) . .
C16 C15 C14 118.8(4) . .
C17 C16 C15 120.6(4) . .
C17 C16 H16 119.7 . .
C15 C16 H16 119.7 . .
C16 C17 C12 120.1(3) . .
C16 C17 H17 120.0 . .
C12 C17 H17 120.0 . .
N7 C18 N8 126.8(4) . .
N7 C18 N6 119.1(4) . .
N8 C18 N6 114.1(4) . .
N8 C19 C20 122.1(5) . .
N8 C19 H19 119.0 . .
C20 C19 H19 119.0 . .
C19 C20 C21 119.1(5) . .
C19 C20 H20 120.4 . .
C21 C20 H20 120.4 . .
N7 C21 C20 119.8(5) . .
N7 C21 C22 116.1(5) . .
C20 C21 C22 124.1(5) . .
C21 C22 H22A 109.5 . .
C21 C22 H22B 109.5 . .
H22A C22 H22B 109.5 . .
C21 C22 H22C 109.5 . .
H22A C22 H22C 109.5 . .
H22B C22 H22C 109.5 . .
loop_
_geom_bond_atom_site_label_1
_geom_bond_atom_site_label_2
_geom_bond_distance
_geom_bond_site_symmetry_2
S1 O2 1.425(3) .
S1 O1 1.430(3) .
S1 N2 1.646(4) .
S1 C1 1.740(4) .
S2 O4 1.424(3) .
S2 O3 1.436(3) .
S2 N6 1.642(4) .
S2 C12 1.729(4) .
N1 C4 1.357(6) .
N1 H1N1 0.81(6) .
N1 H2N1 0.81(6) .
N2 C7 1.393(5) .
N2 H1N2 0.88(6) .
N3 C7 1.327(5) .
N3 C10 1.338(6) .
N4 C7 1.320(6) .
N4 C8 1.326(6) .
N5 C15 1.369(6) .
N5 H5A 0.8600 .
N5 H5B 0.8600 .
N6 C18 1.379(5) .
N6 H1N6 0.67(5) .
N7 C18 1.323(5) .
N7 C21 1.350(6) .
N8 C19 1.339(6) .
N8 C18 1.343(6) .
C1 C2 1.389(5) .
C1 C6 1.390(5) .
C2 C3 1.373(6) .
C2 H2 0.9300 .
C3 C4 1.398(5) .
C3 H3 0.9300 .
C4 C5 1.411(6) .
C5 C6 1.371(6) .
C5 H5 0.9300 .
C6 H6 0.9300 .
C8 C9 1.373(8) .
C8 H8 0.9300 .
C9 C10 1.366(8) .
C9 H9 0.9300 .
C10 C11 1.490(7) .
C11 H11A 0.9600 .
C11 H11B 0.9600 .
C11 H11C 0.9600 .
C12 C13 1.380(5) .
C12 C17 1.400(5) .
C13 C14 1.381(6) .
C13 H13 0.9300 .
C14 C15 1.399(6) .
C14 H14 0.9300 .
C15 C16 1.398(6) .
C16 C17 1.371(5) .
C16 H16 0.9300 .
C17 H17 0.9300 .
C19 C20 1.365(8) .
C19 H19 0.9300 .
C20 C21 1.371(8) .
C20 H20 0.9300 .
C21 C22 1.486(7) .
C22 H22A 0.9600 .
C22 H22B 0.9600 .
C22 H22C 0.9600 .
loop_
_geom_torsion_atom_site_label_1
_geom_torsion_atom_site_label_2
_geom_torsion_atom_site_label_3
_geom_torsion_atom_site_label_4
_geom_torsion
_geom_torsion_site_symmetry_1
_geom_torsion_site_symmetry_2
_geom_torsion_site_symmetry_3
_geom_torsion_site_symmetry_4
O2 S1 N2 C7 -172.8(4) . . . .
O1 S1 N2 C7 60.3(4) . . . .
C1 S1 N2 C7 -57.6(4) . . . .
O4 S2 N6 C18 -56.1(4) . . . .
O3 S2 N6 C18 176.8(4) . . . .
C12 S2 N6 C18 61.8(4) . . . .
O2 S1 C1 C2 -150.5(3) . . . .
O1 S1 C1 C2 -18.3(4) . . . .
N2 S1 C1 C2 99.6(4) . . . .
O2 S1 C1 C6 29.8(4) . . . .
O1 S1 C1 C6 162.0(4) . . . .
N2 S1 C1 C6 -80.0(4) . . . .
C6 C1 C2 C3 -0.1(6) . . . .
S1 C1 C2 C3 -179.8(3) . . . .
C1 C2 C3 C4 0.1(6) . . . .
C2 C3 C4 N1 179.2(4) . . . .
C2 C3 C4 C5 0.0(7) . . . .
N1 C4 C5 C6 -179.4(5) . . . .
C3 C4 C5 C6 -0.1(7) . . . .
C4 C5 C6 C1 0.1(8) . . . .
C2 C1 C6 C5 0.0(7) . . . .
S1 C1 C6 C5 179.7(4) . . . .
C8 N4 C7 N3 -1.3(8) . . . .
C8 N4 C7 N2 177.6(5) . . . .
C10 N3 C7 N4 -0.1(7) . . . .
C10 N3 C7 N2 -178.9(4) . . . .
S1 N2 C7 N4 166.0(4) . . . .
S1 N2 C7 N3 -15.0(6) . . . .
C7 N4 C8 C9 1.1(10) . . . .
N4 C8 C9 C10 0.3(11) . . . .
C7 N3 C10 C9 1.6(7) . . . .
C7 N3 C10 C11 -178.3(5) . . . .
C8 C9 C10 N3 -1.7(9) . . . .
C8 C9 C10 C11 178.2(6) . . . .
O4 S2 C12 C13 -157.7(4) . . . .
O3 S2 C12 C13 -25.9(4) . . . .
N6 S2 C12 C13 84.1(4) . . . .
O4 S2 C12 C17 22.0(4) . . . .
O3 S2 C12 C17 153.8(4) . . . .
N6 S2 C12 C17 -96.2(4) . . . .
C17 C12 C13 C14 -0.3(7) . . . .
S2 C12 C13 C14 179.4(4) . . . .
C12 C13 C14 C15 1.1(8) . . . .
C13 C14 C15 N5 177.9(5) . . . .
C13 C14 C15 C16 -1.1(8) . . . .
N5 C15 C16 C17 -178.7(4) . . . .
C14 C15 C16 C17 0.3(7) . . . .
C15 C16 C17 C12 0.5(7) . . . .
C13 C12 C17 C16 -0.5(6) . . . .
S2 C12 C17 C16 179.8(3) . . . .
C21 N7 C18 N8 -0.6(7) . . . .
C21 N7 C18 N6 179.3(4) . . . .
C19 N8 C18 N7 2.6(8) . . . .
C19 N8 C18 N6 -177.3(6) . . . .
S2 N6 C18 N7 10.8(6) . . . .
S2 N6 C18 N8 -169.3(4) . . . .
C18 N8 C19 C20 -1.7(10) . . . .
N8 C19 C20 C21 -1.0(12) . . . .
C18 N7 C21 C20 -2.3(8) . . . .
C18 N7 C21 C22 178.9(5) . . . .
C19 C20 C21 N7 3.1(11) . . . .
C19 C20 C21 C22 -178.3(7) . . . .
