#------------------------------------------------------------------------------
#$Date: 2017-11-07 03:26:35 +0200 (Tue, 07 Nov 2017) $
#$Revision: 202840 $
#$URL: file:///home/coder/svn-repositories/cod/cif/1/54/77/1547783.cif $
#------------------------------------------------------------------------------
#
# This file is available in the Crystallography Open Database (COD),
# http://www.crystallography.net/
#
# All data on this site have been placed in the public domain by the
# contributors.
#
data_1547783
loop_
_publ_author_name
'An, Yuanyuan'
'Wu, Jie'
_publ_section_title
;
 Synthesis of Tetrahydropyridine Derivatives through a Reaction of
 1,6-Enynes, Sulfur Dioxide, and Aryldiazonium Tetrafluoroborates.
;
_journal_issue                   21
_journal_name_full               'Organic letters'
_journal_page_first              6028
_journal_page_last               6031
_journal_paper_doi               10.1021/acs.orglett.7b03195
_journal_volume                  19
_journal_year                    2017
_chemical_formula_sum            'C27 H29 N3 O4 S2'
_chemical_formula_weight         523.65
_space_group_crystal_system      monoclinic
_space_group_IT_number           4
_space_group_name_Hall           'P 2yb'
_space_group_name_H-M_alt        'P 1 21 1'
_symmetry_space_group_name_Hall  'P 2yb'
_symmetry_space_group_name_H-M   'P 1 21 1'
_atom_sites_solution_hydrogens   geom
_audit_creation_method           SHELXL-2014/7
_cell_angle_alpha                90
_cell_angle_beta                 95.755(4)
_cell_angle_gamma                90
_cell_formula_units_Z            2
_cell_length_a                   7.9678(18)
_cell_length_b                   10.943(3)
_cell_length_c                   15.044(4)
_cell_measurement_reflns_used    1336
_cell_measurement_temperature    173(2)
_cell_measurement_theta_max      21.28
_cell_measurement_theta_min      2.31
_cell_volume                     1305.1(6)
_computing_cell_refinement       'Bruker SAINT'
_computing_data_collection       'Bruker APEX2'
_computing_data_reduction        'Bruker SAINT'
_computing_molecular_graphics    'Bruker SHELXTL'
_computing_publication_material  'Bruker SHELXTL'
_computing_structure_refinement  'SHELXL-2014/7 (Sheldrick, 2014)'
_computing_structure_solution    'SHELXS-97 (Sheldrick, 2008)'
_diffrn_ambient_temperature      173(2)
_diffrn_measured_fraction_theta_full 0.992
_diffrn_measured_fraction_theta_max 0.986
_diffrn_measurement_device_type  'Bruker APEX-II CCD'
_diffrn_measurement_method       '\f and \w scans'
_diffrn_radiation_type           MoK\a
_diffrn_radiation_wavelength     0.71073
_diffrn_reflns_av_R_equivalents  0.0517
_diffrn_reflns_av_unetI/netI     0.0910
_diffrn_reflns_Laue_measured_fraction_full 0.992
_diffrn_reflns_Laue_measured_fraction_max 0.986
_diffrn_reflns_limit_h_max       9
_diffrn_reflns_limit_h_min       -10
_diffrn_reflns_limit_k_max       10
_diffrn_reflns_limit_k_min       -14
_diffrn_reflns_limit_l_max       19
_diffrn_reflns_limit_l_min       -18
_diffrn_reflns_number            8419
_diffrn_reflns_point_group_measured_fraction_full 0.755
_diffrn_reflns_point_group_measured_fraction_max 0.741
_diffrn_reflns_theta_full        25.242
_diffrn_reflns_theta_max         27.406
_diffrn_reflns_theta_min         2.305
_exptl_absorpt_coefficient_mu    0.242
_exptl_absorpt_correction_T_max  0.982
_exptl_absorpt_correction_T_min  0.836
_exptl_absorpt_correction_type   multi-scan
_exptl_absorpt_process_details   sadabs
_exptl_crystal_colour            yellow
_exptl_crystal_density_diffrn    1.333
_exptl_crystal_description       prism
_exptl_crystal_F_000             552
_exptl_crystal_size_max          0.300
_exptl_crystal_size_mid          0.070
_exptl_crystal_size_min          0.040
_refine_diff_density_max         0.389
_refine_diff_density_min         -0.297
_refine_diff_density_rms         0.063
_refine_ls_abs_structure_details
; 
 Flack x determined using 727 quotients [(I+)-(I-)]/[(I+)+(I-)] 
 (Parsons, Flack and Wagner, Acta Cryst. B69 (2013) 249-259). 
;
_refine_ls_abs_structure_Flack   0.03(8)
_refine_ls_extinction_method     none
_refine_ls_goodness_of_fit_ref   1.018
_refine_ls_hydrogen_treatment    constr
_refine_ls_matrix_type           full
_refine_ls_number_parameters     328
_refine_ls_number_reflns         4402
_refine_ls_number_restraints     1
_refine_ls_restrained_S_all      1.018
_refine_ls_R_factor_all          0.0867
_refine_ls_R_factor_gt           0.0514
_refine_ls_shift/su_max          0.000
_refine_ls_shift/su_mean         0.000
_refine_ls_structure_factor_coef Fsqd
_refine_ls_weighting_details
'w=1/[\s^2^(Fo^2^)+(0.0493P)^2^+0.3935P] where P=(Fo^2^+2Fc^2^)/3'
_refine_ls_weighting_scheme      calc
_refine_ls_wR_factor_gt          0.1060
_refine_ls_wR_factor_ref         0.1281
_reflns_Friedel_coverage         0.428
_reflns_Friedel_fraction_full    0.489
_reflns_Friedel_fraction_max     0.469
_reflns_number_gt                3143
_reflns_number_total             4402
_reflns_threshold_expression     'I > 2\s(I)'
_cod_data_source_file            ol7b03195_si_002.cif
_cod_data_source_block           mo_71012a
_cod_depositor_comments
'Adding full bibliography for 1547782--1547783.cif.'
_cod_original_cell_volume        1305.1(5)
_cod_database_code               1547783
_shelx_shelxl_version_number     2014/7
_shelx_space_group_comment
; 
The symmetry employed for this shelxl refinement is uniquely defined 
by the following loop, which should always be used as a source of 
symmetry information in preference to the above space-group names. 
They are only intended as comments. 
;
_shelx_estimated_absorpt_t_min   0.931
_shelx_estimated_absorpt_t_max   0.990
_shelx_res_file
; 
  
    mo_71012a.res created by SHELXL-2014/7 
  
TITL mo_71012a in P2(1) 
CELL 0.71073   7.9678  10.9434  15.0436  90.000  95.755  90.000 
ZERR    2.00   0.0018   0.0026   0.0036   0.000   0.004   0.000 
LATT -1 
SYMM -X, 0.5+Y, -Z 
SFAC C  H  N  O  S 
UNIT 54 58 6 8 4 
OMIT 1 0 3 
OMIT 0 0 1 
L.S. 4 
ACTA 
BOND 
FMAP 2 
PLAN 1 
CONF 
SIZE 0.04 0.07 0.30 
TEMP -100 
WGHT    0.049300    0.393500 
FVAR       0.17848 
MOLE 1 
S1    5    1.071027    0.779537    0.396347    11.00000    0.02374    0.03299 = 
         0.01648    0.00057    0.00266    0.00174 
S2    5    0.498250    0.935473    0.155910    11.00000    0.02363    0.04907 = 
         0.03559    0.00798    0.00199    0.00045 
N1    3    0.681906    0.870725    0.158835    11.00000    0.02234    0.04710 = 
         0.02247    0.01036    0.00270    0.00134 
N2    3    0.972157    0.764639   -0.025335    11.00000    0.05504    0.02915 = 
         0.02280   -0.00064    0.00575   -0.00162 
N3    3    0.945287    0.686082   -0.083485    11.00000    0.04623    0.03034 = 
         0.02309    0.00072   -0.00316    0.00124 
O1    4    1.116549    0.897200    0.433875    11.00000    0.04350    0.03016 = 
         0.02839   -0.00333    0.00297    0.00644 
O2    4    0.911749    0.729104    0.414985    11.00000    0.02259    0.05951 = 
         0.02552    0.00980    0.00566    0.00095 
O3    4    0.424268    0.925874    0.065951    11.00000    0.03277    0.05927 = 
         0.04362    0.00151   -0.00951    0.00694 
O4    4    0.419566    0.878752    0.227647    11.00000    0.02734    0.06500 = 
         0.05076    0.01903    0.00946   -0.00141 
C1    1    0.773886    0.844843    0.245896    11.00000    0.02727    0.05524 = 
         0.02008    0.00839    0.00592    0.00797 
AFIX  23 
H1A   2    0.724693    0.773815    0.274733    11.00000   -1.20000 
H1B   2    0.772934    0.916437    0.286072    11.00000   -1.20000 
AFIX   0 
C2    1    0.951198    0.817088    0.223335    11.00000    0.02531    0.03242 = 
         0.02005    0.00287    0.00548   -0.00079 
C3    1    0.958693    0.836591    0.122755    11.00000    0.02796    0.02844 = 
         0.02023   -0.00012    0.00151   -0.00483 
AFIX  13 
H3    2    1.059733    0.887983    0.114484    11.00000   -1.20000 
AFIX   0 
C4    1    0.801357    0.912130    0.095416    11.00000    0.03183    0.03868 = 
         0.02516    0.00789    0.00589   -0.00376 
AFIX  23 
H4A   2    0.824921    1.000661    0.102057    11.00000   -1.20000 
H4B   2    0.756766    0.895020    0.032851    11.00000   -1.20000 
AFIX   0 
C5    1    1.080332    0.788204    0.280342    11.00000    0.02189    0.03173 = 
         0.01913   -0.00139    0.00707    0.00006 
AFIX  43 
H5    2    1.184856    0.770983    0.257663    11.00000   -1.20000 
AFIX   0 
C6    1    1.233844    0.675675    0.432430    11.00000    0.02458    0.02055 = 
         0.01848   -0.00083    0.00136    0.00310 
C7    1    1.194422    0.566178    0.471870    11.00000    0.02796    0.03779 = 
         0.02524    0.00329    0.00050   -0.00875 
AFIX  43 
H7    2    1.080371    0.544613    0.477192    11.00000   -1.20000 
AFIX   0 
C8    1    1.323391    0.489719    0.503009    11.00000    0.03902    0.03906 = 
         0.03474    0.01392    0.00294   -0.00572 
AFIX  43 
H8    2    1.298505    0.414392    0.530206    11.00000   -1.20000 
AFIX   0 
C9    1    1.491352    0.521545    0.495127    11.00000    0.03798    0.03428 = 
         0.04376    0.00992    0.00621    0.01093 
AFIX  43 
H9    2    1.580222    0.468435    0.517224    11.00000   -1.20000 
AFIX   0 
C10   1    1.527126    0.631210    0.454810    11.00000    0.02243    0.04502 = 
         0.03632    0.00170    0.00123    0.00587 
AFIX  43 
H10   2    1.640929    0.652777    0.448807    11.00000   -1.20000 
AFIX   0 
C11   1    1.400113    0.708273    0.423736    11.00000    0.03100    0.02409 = 
         0.02919    0.00150    0.00161   -0.00217 
AFIX  43 
H11   2    1.424954    0.783514    0.396407    11.00000   -1.20000 
AFIX   0 
C12   1    0.522155    1.091511    0.182324    11.00000    0.03075    0.04716 = 
         0.02901    0.00374    0.00131    0.00087 
C13   1    0.541090    1.175711    0.115364    11.00000    0.04050    0.05684 = 
         0.02390    0.00035    0.00290    0.00209 
AFIX  43 
H13   2    0.549270    1.148816    0.055911    11.00000   -1.20000 
AFIX   0 
C14   1    0.547976    1.297614    0.135059    11.00000    0.07118    0.05660 = 
         0.03879    0.01287    0.01401    0.00105 
AFIX  43 
H14   2    0.560596    1.354673    0.088604    11.00000   -1.20000 
AFIX   0 
C15   1    0.537060    1.340029    0.220787    11.00000    0.06030    0.06509 = 
         0.04861   -0.00850    0.01040   -0.00949 
C16   1    0.525722    1.253248    0.287490    11.00000    0.09616    0.07201 = 
         0.03318   -0.00194    0.01714   -0.00113 
AFIX  43 
H16   2    0.523045    1.279769    0.347462    11.00000   -1.20000 
AFIX   0 
C17   1    0.518314    1.130731    0.269176    11.00000    0.05795    0.07246 = 
         0.02845    0.00550    0.00867   -0.00439 
AFIX  43 
H17   2    0.510593    1.073240    0.315906    11.00000   -1.20000 
AFIX   0 
C18   1    0.970773    0.716921    0.067413    11.00000    0.04315    0.02864 = 
         0.02117   -0.00293    0.00601   -0.00303 
C19   1    0.825122    0.632344    0.077133    11.00000    0.04939    0.03751 = 
         0.02860    0.00524   -0.00252   -0.00688 
AFIX 137 
H19A  2    0.718976    0.674973    0.059118    11.00000   -1.50000 
H19B  2    0.827087    0.606410    0.139581    11.00000   -1.50000 
H19C  2    0.834332    0.560500    0.039037    11.00000   -1.50000 
AFIX   0 
C20   1    1.139102    0.653676    0.090740    11.00000    0.05428    0.03831 = 
         0.02323   -0.00383    0.00233    0.00654 
AFIX 137 
H20A  2    1.148661    0.584048    0.050592    11.00000   -1.50000 
H20B  2    1.146322    0.624704    0.152646    11.00000   -1.50000 
H20C  2    1.230940    0.711467    0.084033    11.00000   -1.50000 
AFIX   0 
C21   1    0.950062    0.728206   -0.174013    11.00000    0.05288    0.02907 = 
         0.02132   -0.00192    0.00473    0.00473 
C22   1    0.920990    0.643897   -0.240626    11.00000    0.06455    0.02891 = 
         0.02513   -0.00077   -0.00702    0.00558 
AFIX  43 
H22   2    0.897045    0.561806   -0.225694    11.00000   -1.20000 
AFIX   0 
C23   1    0.925571    0.675001   -0.328440    11.00000    0.07250    0.04584 = 
         0.02311   -0.00614   -0.00133    0.01657 
AFIX  43 
H23   2    0.905679    0.615223   -0.374073    11.00000   -1.20000 
AFIX   0 
C24   1    0.959606    0.794797   -0.349743    11.00000    0.09176    0.05070 = 
         0.02042    0.00351    0.00455    0.01318 
AFIX  43 
H24   2    0.964024    0.817486   -0.410419    11.00000   -1.20000 
AFIX   0 
C25   1    0.987104    0.881304   -0.283503    11.00000    0.14508    0.03653 = 
         0.02977    0.00259    0.01208   -0.01279 
AFIX  43 
H25   2    1.008085    0.963879   -0.298431    11.00000   -1.20000 
AFIX   0 
C26   1    0.984074    0.847643   -0.195469    11.00000    0.09767    0.03123 = 
         0.02448   -0.00397   -0.00301    0.00116 
AFIX  43 
H26   2    1.005428    0.906732   -0.149461    11.00000   -1.20000 
AFIX   0 
C27   1    0.539551    1.473395    0.242214    11.00000    0.15967    0.06009 = 
         0.11965   -0.02591    0.07034   -0.02594 
AFIX 137 
H27A  2    0.443920    1.493226    0.275812    11.00000   -1.50000 
H27B  2    0.531186    1.520680    0.186623    11.00000   -1.50000 
H27C  2    0.645179    1.493741    0.278258    11.00000   -1.50000 
AFIX   0 
HKLF 4 
  
REM  mo_71012a in P2(1) 
REM R1 =  0.0514 for    3143 Fo > 4sig(Fo)  and  0.0867 for all    4402 data 
REM    328 parameters refined using      1 restraints 
  
END 
  
WGHT      0.0490      0.4019 
  
REM Highest difference peak  0.389,  deepest hole -0.297,  1-sigma level  0.063 
Q1    1   1.1551  0.7178  0.4195  11.00000  0.05    0.39 
;
_shelx_res_checksum              48235
_shelx_hkl_file
; 
   1   0   0   29.63    1.00 
  -1   0   0   29.91    1.01 
  -1   0   0   29.31    1.00 
  -2   0   0  999.08   30.17 
  -2   0   0  996.18   29.36 
   2   0   0 1000.00   29.90 
  -3   0   0   57.00    1.94 
  -3   0   0   56.84    1.92 
   3   0   0   55.40    1.88 
  -4   0   0   55.53    1.97 
  -4   0   0   55.08    1.98 
  -5   0   0   24.22    1.13 
   5   0   0   25.17    1.09 
  -5   0   0   25.90    1.22 
   6   0   0    0.77    0.46 
  -6   0   0    1.98    0.52 
  -6   0   0    0.61    0.45 
  -7   0   0   32.32    1.53 
   7   0   0   33.24    1.50 
  -8   0   0    3.54    0.69 
   8   0   0    3.91    0.71 
   0  -1   0    0.12    0.10 
   1  -1   0   10.05    0.44 
  -1  -1   0    9.08    0.39 
   1  -1   0    9.49    0.37 
  -1   1   0    9.03    0.36 
  -2  -1   0   80.15    2.51 
   2  -1   0   81.25    2.58 
  -2  -1   0   80.09    2.62 
   2   1   0   79.05    2.52 
  -2   1   0   81.94    2.55 
  -2   1   0   82.25    2.58 
   3  -1   0  104.51    3.21 
  -3  -1   0   98.39    3.25 
  -3  -1   0   97.19    3.12 
   3   1   0   98.42    3.14 
  -3   1   0   98.20    3.17 
  -4  -1   0   84.80    2.89 
  -4   1   0   84.89    2.81 
   4   1   0   84.34    2.79 
  -4   1   0   85.94    2.85 
   5  -1   0    1.83    0.44 
  -5  -1   0    2.75    0.45 
  -5  -1   0    2.33    0.49 
  -5   1   0    2.15    0.41 
   5   1   0    2.09    0.40 
  -6  -1   0   15.06    1.03 
   6  -1   0   15.84    0.95 
  -6  -1   0   16.82    1.01 
  -6   1   0   14.60    0.94 
   6   1   0   14.51    0.91 
   7  -1   0   10.47    0.90 
  -7  -1   0    9.11    0.87 
  -7  -1   0    9.23    0.90 
  -7   1   0    8.97    0.81 
   7   1   0    7.94    0.77 
  -8  -1   0    1.00    0.62 
   8  -1   0    1.78    0.65 
  -8   1   0    1.75    0.59 
  -9  -1   0    1.94    0.77 
   0  -2   0  356.79   10.89 
   0  -2   0  361.35   10.82 
  -1  -2   0  449.53   13.18 
   1  -2   0  431.40   13.25 
  -1  -2   0  426.44   13.35 
   1  -2   0  447.73   13.24 
   2  -2   0  114.18    3.53 
  -2  -2   0  112.05    3.45 
  -2   2   0  107.73    3.43 
  -3  -2   0   89.28    2.86 
  -3  -2   0   90.58    3.02 
  -3   2   0   89.70    2.88 
   3   2   0   94.21    2.90 
   4  -2   0    2.57    0.43 
  -4  -2   0    2.30    0.46 
  -4   2   0    2.87    0.35 
   4   2   0    3.31    0.38 
  -5  -2   0   -0.10    0.33 
   5  -2   0   -0.06    0.37 
  -5  -2   0    0.05    0.42 
   5   2   0    0.27    0.33 
  -5   2   0    0.42    0.32 
  -6  -2   0   35.58    1.54 
  -6  -2   0   33.02    1.59 
   6  -2   0   32.21    1.48 
  -6   2   0   33.90    1.39 
   6   2   0   33.92    1.40 
  -7  -2   0    1.70    0.56 
   7  -2   0    2.87    0.63 
  -7  -2   0    2.39    0.64 
   7   2   0    3.20    0.59 
  -7   2   0    2.93    0.53 
   8  -2   0    9.28    0.97 
  -8  -2   0    9.75    1.02 
  -9  -2   0   -0.91    0.75 
 -10  -2   0    4.43    1.09 
   0  -3   0   -0.30    0.24 
   0  -3   0    0.04    0.26 
  -1  -3   0    1.36    0.33 
   1  -3   0    1.53    0.22 
  -1  -3   0    1.92    0.30 
   3  -3   0   61.06    2.10 
  -3  -3   0   58.42    1.92 
  -3  -3   0   57.96    1.97 
   4  -3   0    7.28    0.64 
  -4  -3   0    6.83    0.54 
  -4  -3   0    7.22    0.67 
   4   3   0    6.99    0.49 
  -4   3   0    8.26    0.47 
  -5  -3   0    1.77    0.39 
   5  -3   0    0.78    0.43 
  -5  -3   0    1.72    0.52 
  -5   3   0    1.20    0.32 
   5   3   0    2.36    0.41 
  -6  -3   0    0.86    0.45 
   6  -3   0    1.36    0.55 
  -6  -3   0   -0.44    0.51 
   6   3   0    0.76    0.49 
  -6   3   0    0.49    0.39 
   7  -3   0   -0.31    0.57 
  -7  -3   0   -0.86    0.45 
  -7  -3   0   -0.50    0.56 
   8  -3   0    4.16    0.83 
  -8  -3   0    3.16    0.79 
  -9  -3   0    3.64    0.98 
   9  -3   0    4.52    0.80 
 -10  -3   0    4.63    1.15 
   0  -4   0   46.80    1.64 
   0  -4   0   47.56    1.66 
   1  -4   0   37.21    1.50 
   1  -4   0   44.20    1.43 
  -1  -4   0   43.87    1.49 
  -1  -4   0   42.72    1.54 
  -2  -4   0   10.60    0.58 
   2  -4   0   10.20    0.47 
  -2  -4   0   10.03    0.66 
   2  -4   0    9.66    0.63 
  -3  -4   0   29.38    1.14 
  -3  -4   0   29.12    1.30 
   3  -4   0   29.25    1.23 
  -4  -4   0   -0.25    0.26 
  -4  -4   0   -0.19    0.25 
   4  -4   0    0.53    0.40 
   4   4   0    0.04    0.24 
  -5  -4   0    2.12    0.40 
   5  -4   0    2.30    0.55 
  -5  -4   0    2.44    0.61 
   5   4   0    2.89    0.43 
  -6  -4   0    4.27    0.74 
   6  -4   0    5.20    0.77 
  -6  -4   0    4.69    0.57 
   6   4   0    4.37    0.57 
  -7  -4   0    2.68    0.75 
   7  -4   0    3.08    0.75 
  -8  -4   0    5.95    1.02 
   8  -4   0    6.22    0.88 
  -9  -4   0    0.29    0.89 
   9  -4   0    1.20    0.68 
   0  -5   0    0.05    0.31 
   0  -5   0    0.37    0.29 
   1  -5   0    7.87    0.52 
   1  -5   0    7.32    0.56 
  -1  -5   0    8.30    0.61 
  -2  -5   0   17.67    0.81 
   2  -5   0   17.21    0.69 
  -2  -5   0   15.27    0.89 
   3  -5   0    4.83    0.35 
  -3  -5   0    4.37    0.47 
   3  -5   0    5.46    0.60 
  -3  -5   0    4.80    0.60 
  -4  -5   0   16.56    0.78 
   4  -5   0   14.06    0.62 
   4  -5   0   14.83    0.94 
  -4  -5   0   15.20    0.82 
  -5  -5   0    6.05    0.54 
   5  -5   0    4.71    0.70 
   5   5   0    5.80    0.56 
   6  -5   0    1.36    0.63 
  -6  -5   0    1.08    0.62 
   6   5   0    1.58    0.48 
  -7  -5   0    1.77    0.77 
   7  -5   0    2.40    0.74 
   8  -5   0    3.52    0.73 
  -8  -5   0    1.30    0.91 
   9  -5   0    1.86    0.74 
  -9  -5   0    0.11    0.96 
   0  -6   0    4.37    0.52 
  -1  -6   0    2.95    0.47 
   1  -6   0    2.81    0.38 
  -1  -6   0    2.45    0.43 
   1  -6   0    4.07    0.49 
   2  -6   0   18.89    0.78 
  -2  -6   0   17.69    0.97 
  -2  -6   0   17.08    0.89 
  -3  -6   0   17.11    0.88 
   3  -6   0   17.06    0.70 
  -3  -6   0   17.16    1.08 
   3  -6   0   18.50    1.01 
  -4  -6   0    1.41    0.58 
  -4  -6   0    1.18    0.43 
   4  -6   0    1.50    0.54 
   5  -6   0   12.54    1.03 
   5   6   0   12.63    0.80 
  -6  -6   0    0.08    0.54 
   6  -6   0   -1.02    0.57 
   7  -6   0    6.92    0.91 
  -7  -6   0    5.39    0.95 
   8  -6   0   -1.04    0.54 
  -8  -6   0    0.26    0.91 
  -9  -6   0    1.65    1.07 
   9  -6   0    2.34    0.78 
   0  -7   0    0.18    0.37 
   0  -7   0    0.54    0.40 
   1  -7   0    1.68    0.34 
  -1  -7   0    3.79    0.56 
  -1  -7   0    3.53    0.51 
   1  -7   0    3.17    0.52 
  -2  -7   0    7.01    0.74 
  -2  -7   0    6.70    0.63 
   2  -7   0    6.71    0.54 
   2  -7   0    7.45    0.71 
  -3  -7   0   16.57    0.91 
  -3  -7   0   15.46    1.12 
  -4  -7   0   22.52    1.13 
   4  -7   0   22.89    1.27 
  -4  -7   0   24.09    1.42 
  -5  -7   0    3.80    0.57 
  -5  -7   0    4.62    0.85 
   5  -7   0    3.64    0.76 
  -6  -7   0   -0.08    0.58 
   6  -7   0    0.36    0.58 
   7  -7   0    0.20    0.58 
  -7  -7   0   -0.23    0.60 
  -8  -7   0   -0.07    0.92 
   8  -7   0    0.51    0.68 
   0  -8   0   11.36    0.89 
   0  -8   0   11.11    0.84 
  -1  -8   0    6.09    0.66 
   1  -8   0    4.99    0.70 
  -1  -8   0    5.69    0.71 
   1  -8   0    4.55    0.55 
  -2  -8   0    1.55    0.59 
   2  -8   0    1.87    0.39 
   2  -8   0    1.95    0.55 
  -2  -8   0    1.63    0.48 
  -3  -8   0    6.17    0.65 
  -3  -8   0    5.26    0.83 
  -4  -8   0    5.02    0.86 
   4  -8   0    4.24    0.80 
  -4  -8   0    4.02    0.61 
  -5  -8   0    2.47    0.84 
  -5  -8   0    3.63    0.62 
   5  -8   0    3.14    0.78 
   6  -8   0    2.30    0.70 
  -6  -8   0    1.52    0.64 
  -7  -8   0    3.59    0.86 
   7  -8   0    3.39    0.82 
  -8  -8   0    1.94    0.86 
   8  -8   0    1.00    0.78 
   0  -9   0    0.63    0.51 
   0  -9   0   -0.96    0.46 
   1  -9   0    7.26    0.70 
  -1  -9   0    8.45    0.85 
  -1  -9   0    7.78    0.79 
   1  -9   0    6.94    0.81 
  -2  -9   0   16.79    1.26 
   2  -9   0   14.29    1.01 
  -2  -9   0   16.68    1.04 
  -3  -9   0    6.34    0.93 
   3  -9   0    4.32    0.70 
  -3  -9   0    6.44    0.70 
   4  -9   0    2.42    0.64 
  -4  -9   0    0.74    0.77 
  -4  -9   0    1.86    0.54 
   5  -9   0    3.54    0.78 
  -5  -9   0    3.02    0.84 
  -6  -9   0    1.51    0.77 
   6  -9   0    1.31    0.72 
   7  -9   0   -0.19    0.72 
  -7  -9   0    0.87    0.74 
   0 -10   0    0.18    0.53 
   0 -10   0   -0.27    0.51 
  -1 -10   0    6.86    0.86 
   1 -10   0    5.09    0.80 
  -1 -10   0    7.11    0.84 
  -2 -10   0    0.99    0.65 
  -2 -10   0    0.93    0.53 
   2 -10   0    1.81    0.66 
   3 -10   0    5.48    0.81 
  -3 -10   0    4.21    0.67 
  -3 -10   0    3.74    0.87 
  -4 -10   0    3.56    0.83 
  -4 -10   0    1.49    0.56 
   4 -10   0    3.33    0.71 
  -5 -10   0    1.13    0.73 
   5 -10   0    0.59    0.62 
   6 -10   0    5.53    0.96 
  -6 -10   0    4.67    0.98 
   7 -10   0   -0.89    0.93 
  -7 -10   0   -0.31    1.06 
   0 -11   0    0.00    0.59 
   1 -11   0    1.46    0.72 
  -1 -11   0    1.07    0.64 
  -1 -11   0    2.49    0.74 
  -2 -11   0    1.61    0.76 
  -2 -11   0    1.01    0.62 
   2 -11   0    1.39    0.76 
  -3 -11   0    3.99    0.85 
   3 -11   0    3.63    0.80 
  -3 -11   0    4.61    0.72 
  -4 -11   0    0.13    0.72 
   4 -11   0    2.08    0.69 
  -5 -11   0    4.47    0.97 
   5 -11   0    4.78    0.87 
   6 -11   0    1.27    1.02 
  -6 -11   0    0.26    1.01 
   0 -12   0    0.16    0.73 
   1 -12   0    0.74    0.81 
  -1 -12   0   -0.21    0.71 
  -2 -12   0    3.63    0.81 
   2 -12   0    2.97    0.95 
  -2 -12   0    3.71    0.78 
  -3 -12   0   -0.75    0.61 
  -3 -12   0   -0.46    0.62 
   3 -12   0    0.92    0.85 
  -4 -12   0    3.05    0.88 
   4 -12   0    1.34    0.72 
   5 -12   0    0.74    0.65 
  -5 -12   0    0.55    0.84 
   0 -13   0   -0.55    0.87 
  -1 -13   0   -0.31    0.84 
   1 -13   0   -0.97    0.84 
   2 -13   0   -0.22    0.89 
  -2 -13   0   -0.08    0.76 
   3 -13   0    2.14    1.02 
  -3 -13   0    0.99    0.79 
  -4 -13   0    2.29    0.93 
   4 -13   0    2.54    0.92 
   0 -14   0    1.41    1.06 
   1 -14   0    1.67    1.00 
  -1 -14   0    0.87    1.00 
  -8   0   1    2.64    0.67 
   7   0  -1    0.22    0.51 
  -7   0   1    0.43    0.48 
  -7   0   1   -0.26    0.50 
   6   0  -1   33.60    1.43 
  -6   0   1   36.46    1.53 
  -6   0   1   35.19    1.58 
  -5   0   1   17.90    1.01 
   5   0  -1   16.70    0.85 
  -5   0   1   16.48    0.92 
   4   0  -1   90.48    2.94 
  -4   0   1   91.22    3.00 
  -4   0   1   89.56    2.97 
  -3   0   1   52.98    1.82 
   3   0  -1   53.45    1.76 
  -3   0   1   52.28    1.81 
  -2   0   1  171.49    5.32 
  -2   0   1  177.37    5.43 
   2   0  -1  178.84    5.36 
  -1   0   1    3.22    0.23 
   1   0  -1    3.12    0.19 
  -1   0   1    2.75    0.18 
  -1   0   1    3.03    0.23 
   0   0   1   -0.03    0.05 
   1   0   1    6.05    0.32 
  -1   0  -1    4.54    0.29 
   2   0   1   21.51    0.84 
  -2   0  -1   21.35    0.87 
  -3   0  -1   64.46    2.19 
   3   0   1   63.87    2.14 
  -4   0  -1    0.13    0.33 
   4   0   1    0.13    0.29 
  -5   0  -1    6.62    0.64 
   5   0   1    7.45    0.64 
   6   0   1    3.50    0.58 
  -6   0  -1    3.67    0.58 
  -7   0  -1   25.40    1.38 
   7   0   1   26.54    1.34 
   8   0   1    0.57    0.62 
  -8   0  -1   -0.21    0.54 
  -9   0  -1    0.80    0.65 
  -9  -1   1    3.29    0.80 
  -8  -1   1   -0.72    0.51 
   8  -1  -1   -0.20    0.54 
  -8  -1   1   -0.40    0.54 
  -8   1   1    0.26    0.53 
   7  -1  -1    7.30    0.77 
  -7  -1   1    8.08    0.83 
  -7  -1   1    9.00    0.84 
   7   1  -1    7.90    0.74 
  -7   1   1    7.98    0.77 
  -6  -1   1    4.21    0.62 
   6  -1  -1    4.19    0.58 
  -6  -1   1    3.94    0.59 
   6   1  -1    3.67    0.50 
  -6   1   1    4.09    0.54 
  -6   1   1    3.77    0.61 
  -5  -1   1   15.40    0.93 
  -5  -1   1   17.37    0.95 
   5  -1  -1   14.72    0.84 
  -5   1   1   17.12    0.86 
  -5   1   1   13.77    0.95 
  -4  -1   1   11.81    0.74 
  -4  -1   1   13.26    0.79 
  -4   1   1   13.39    0.71 
   4   1  -1   13.33    0.65 
  -4   1   1   11.59    0.80 
  -3  -1   1    5.65    0.48 
   3  -1  -1    5.27    0.43 
  -3  -1   1    4.90    0.41 
  -3   1   1    5.52    0.43 
   3   1  -1    5.02    0.39 
   2  -1  -1   68.59    2.22 
  -2  -1   1   67.43    2.26 
  -2   1   1   69.00    2.23 
  -2   1   1   69.10    2.17 
   2   1  -1   69.46    2.14 
  -1  -1   1  141.86    4.37 
   1  -1  -1  149.03    4.45 
   1  -1  -1  143.74    4.41 
   1   1  -1  149.50    4.37 
  -1   1   1  144.01    4.41 
   0  -1  -1  119.04    3.53 
   0  -1  -1  114.24    3.42 
   0  -1   1  119.67    3.55 
   0  -1   1  109.04    3.50 
   0   1   1  114.93    3.42 
  -1  -1  -1    9.37    0.50 
   1  -1   1   11.14    0.47 
  -1  -1  -1   11.03    0.39 
  -1  -1  -1   10.02    0.45 
   1   1   1   10.69    0.38 
  -2  -1  -1  206.77    6.38 
  -2  -1  -1  204.11    6.13 
   2  -1   1  206.36    6.31 
  -2   1  -1  203.17    6.31 
   2   1   1  206.95    6.28 
   3  -1   1   18.33    0.86 
  -3  -1  -1   20.45    0.87 
  -3  -1  -1   19.12    0.93 
   3   1   1   19.57    0.83 
  -3   1  -1   20.44    0.85 
  -4  -1  -1   56.36    2.08 
   4  -1   1   57.07    2.02 
  -4   1  -1   57.59    2.01 
  -5  -1  -1   12.26    0.82 
   5  -1   1   12.07    0.77 
  -5  -1  -1   11.23    0.81 
   5   1   1   11.95    0.75 
  -5   1  -1   11.49    0.73 
   6  -1   1   40.30    1.70 
  -6  -1  -1   41.54    1.78 
   6   1   1   41.64    1.67 
  -6   1  -1   40.50    1.68 
  -7  -1  -1    7.14    0.84 
   7  -1   1    9.24    0.88 
   7   1   1   10.32    0.85 
  -7   1  -1    7.64    0.77 
   8  -1   1    4.31    0.77 
  -8  -1  -1    3.60    0.76 
   8   1   1    3.88    0.75 
  -8   1  -1    3.74    0.67 
  -9  -1  -1    2.26    0.82 
 -10  -2   1    2.73    1.00 
  -9  -2   1   -0.52    0.74 
  -8  -2   1   -0.02    0.56 
   8  -2  -1   -0.56    0.55 
  -8  -2   1    0.10    0.56 
  -7  -2   1    5.11    0.71 
  -7  -2   1    4.09    0.74 
   7  -2  -1    3.79    0.68 
  -7   2   1    7.10    0.66 
  -6  -2   1   24.67    1.33 
   6  -2  -1   23.07    1.21 
  -6  -2   1   27.22    1.29 
   6   2  -1   25.02    1.11 
  -6   2   1   25.04    1.14 
  -5  -2   1    8.04    0.64 
   5  -2  -1   10.09    0.71 
  -5  -2   1    9.23    0.76 
  -5   2   1    8.53    0.61 
  -5   2   1    8.73    0.75 
   4  -2  -1   33.04    1.28 
  -4  -2   1   32.74    1.36 
  -4   2   1   29.73    1.35 
  -4   2   1   30.98    1.17 
   4   2  -1   33.00    1.17 
  -3  -2   1   33.20    1.23 
  -3  -2   1   32.65    1.34 
   3  -2  -1   32.01    1.27 
   3   2  -1   34.43    1.16 
  -3   2   1   35.30    1.15 
  -2  -2   1   20.74    0.73 
   2  -2  -1   20.36    0.67 
   2  -2  -1   20.24    0.84 
  -2   2   1   19.03    0.67 
  -1  -2   1  193.66    5.81 
  -1  -2   1  190.49    5.94 
   1  -2  -1  195.95    5.89 
  -1   2   1  188.22    5.77 
   0  -2  -1   20.60    0.76 
   0  -2   1   20.78    0.78 
   0  -2   1   20.74    0.76 
  -1  -2  -1   31.89    1.17 
  -1  -2  -1   31.66    1.11 
  -2  -2  -1   38.24    1.25 
  -2  -2  -1   39.20    1.35 
   2  -2   1   39.23    1.41 
  -3  -2  -1   16.84    0.88 
  -3  -2  -1   17.77    0.74 
   3   2   1   17.09    0.76 
  -3   2  -1   17.67    0.75 
   4  -2   1   40.94    1.57 
  -4  -2  -1   40.15    1.46 
  -4  -2  -1   40.68    1.63 
  -4   2  -1   40.14    1.49 
   5  -2   1    1.10    0.46 
  -5  -2  -1    1.54    0.50 
  -5  -2  -1    1.59    0.39 
   5   2   1    1.54    0.42 
  -5   2  -1    1.86    0.41 
  -6  -2  -1    6.69    0.78 
   6  -2   1    6.83    0.77 
  -6  -2  -1    7.96    0.72 
   6   2   1    7.53    0.70 
  -6   2  -1    7.74    0.69 
  -7  -2  -1    5.71    0.79 
   7  -2   1    6.75    0.85 
   7   2   1    5.91    0.70 
  -7   2  -1    6.92    0.72 
   8  -2   1    0.52    0.61 
  -8  -2  -1   -0.14    0.59 
   9  -2   1    3.42    0.75 
  -9  -2  -1    3.29    0.94 
 -10  -2  -1    3.10    1.10 
 -10  -3   1    1.88    1.06 
  -9  -3   1   -0.04    0.85 
   8  -3  -1   10.82    1.05 
  -8  -3   1    9.94    0.94 
  -8  -3   1   10.48    1.09 
   7  -3  -1   -0.66    0.56 
  -7  -3   1   -0.54    0.54 
  -7  -3   1    0.27    0.49 
  -6  -3   1   21.82    1.24 
   6  -3  -1   21.44    1.17 
  -6  -3   1   18.75    1.13 
  -6   3   1   20.55    0.96 
   6   3  -1   20.13    0.97 
   5  -3  -1   11.42    0.79 
  -5  -3   1   11.56    0.87 
  -5  -3   1   11.45    0.79 
  -5   3   1   10.73    0.63 
   4  -3  -1    1.69    0.42 
  -4  -3   1    1.53    0.45 
   4   3  -1    2.02    0.32 
  -4   3   1    1.57    0.25 
  -3  -3   1   99.15    2.98 
   3  -3  -1   97.10    3.13 
  -3  -3   1   86.04    3.15 
  -2  -3   1   17.92    0.71 
   2  -3  -1   17.25    0.80 
  -1  -3   1   62.83    2.04 
  -1  -3   1   64.44    2.15 
   1  -3  -1   63.07    1.99 
   1  -3  -1   63.53    2.12 
   0  -3   1   59.46    1.96 
   0  -3   1   59.83    1.95 
   0  -3  -1   58.23    1.93 
   0  -3  -1   58.46    1.95 
  -1  -3  -1   75.83    2.48 
   1  -3   1   68.31    2.44 
   1  -3   1   77.54    2.39 
  -1  -3  -1   77.73    2.43 
  -3  -3  -1    3.31    0.30 
   3  -3   1    3.10    0.45 
  -3  -3  -1    3.37    0.40 
  -4  -3  -1   23.21    0.95 
   4  -3   1   23.14    1.09 
  -4  -3  -1   25.62    1.17 
  -4   3  -1   24.03    0.95 
   4   3   1   18.84    0.95 
  -5  -3  -1   21.62    1.17 
  -5  -3  -1   20.74    0.99 
   5  -3   1   19.41    1.06 
   5   3   1   18.44    0.96 
  -5   3  -1   18.87    0.91 
   6  -3   1   13.67    1.01 
  -6  -3  -1   14.54    0.98 
  -6  -3  -1   13.28    1.05 
   6   3   1   14.43    0.88 
  -6   3  -1   13.08    0.83 
  -7  -3  -1    7.60    0.87 
   7  -3   1    7.38    0.87 
   7   3   1    6.69    0.75 
  -8  -3  -1    3.90    0.89 
   8  -3   1    4.09    0.81 
   9  -3   1    1.07    0.65 
  -9  -3  -1   -0.09    0.89 
  -9  -4   1    0.82    0.94 
   9  -4  -1    0.76    0.59 
   8  -4  -1    1.18    0.66 
  -8  -4   1    0.28    0.77 
  -7  -4   1    9.65    0.86 
   7  -4  -1   11.54    1.03 
  -7  -4   1   10.26    1.04 
  -6  -4   1    4.36    0.58 
   6  -4  -1    4.60    0.70 
  -6  -4   1    3.76    0.73 
  -5  -4   1    6.25    0.58 
  -5  -4   1    6.88    0.76 
   5  -4  -1    5.19    0.66 
   4  -4  -1   11.59    0.77 
  -4  -4   1   10.97    0.76 
   4   4  -1   10.76    0.61 
   3  -4  -1    3.85    0.50 
  -3  -4   1    3.91    0.37 
  -3  -4   1    3.27    0.50 
  -2  -4   1    6.34    0.44 
   2  -4  -1    6.21    0.52 
  -2  -4   1    6.49    0.58 
  -1  -4   1    9.85    0.57 
  -1  -4   1    9.86    0.62 
   1  -4  -1    9.25    0.48 
   0  -4  -1   80.17    2.67 
   0  -4  -1   81.75    2.64 
   0  -4   1   81.96    2.66 
   0  -4   1   80.65    2.65 
  -1  -4  -1    3.11    0.39 
   1  -4   1    1.91    0.38 
   1  -4   1    3.36    0.34 
  -1  -4  -1    2.61    0.39 
   2  -4   1   23.33    0.89 
  -2  -4  -1   23.91    1.08 
  -2  -4  -1   24.19    0.99 
   3  -4   1   16.71    0.90 
  -3  -4  -1   15.91    0.94 
  -3  -4  -1   17.74    0.84 
  -3  -4  -1   17.20    0.71 
   4  -4   1    7.93    0.72 
  -4  -4  -1    8.85    0.60 
   4   4   1    7.91    0.61 
   5  -4   1    3.62    0.62 
  -5  -4  -1    3.23    0.64 
   5   4   1    4.03    0.53 
  -6  -4  -1    0.39    0.41 
  -6  -4  -1    0.49    0.59 
   6  -4   1    0.70    0.57 
   6   4   1    0.35    0.48 
   7  -4   1    7.35    0.91 
  -7  -4  -1    4.04    0.85 
   8  -4   1    7.56    0.94 
  -8  -4  -1    8.04    1.12 
  -9  -4  -1    7.93    1.23 
   9  -4   1    6.95    0.96 
   9  -5  -1    4.63    0.85 
  -9  -5   1    4.51    1.09 
  -8  -5   1    1.80    0.93 
   8  -5  -1    2.68    0.72 
   7  -5  -1    2.87    0.78 
  -7  -5   1    3.26    0.83 
  -6  -5   1    1.22    0.63 
   6  -5  -1    1.17    0.61 
  -6  -5   1    1.31    0.46 
  -5  -5   1    3.77    0.49 
   5  -5  -1    3.26    0.64 
  -5  -5   1    0.94    0.50 
   5   5  -1    4.06    0.49 
   4  -5  -1    1.63    0.49 
  -4  -5   1    0.08    0.24 
  -4  -5   1    0.34    0.34 
  -3  -5   1   21.99    0.92 
  -3  -5   1   21.95    1.10 
   3  -5  -1   21.20    1.05 
   2  -5  -1   42.48    1.38 
  -2  -5   1   42.89    1.69 
  -2  -5   1   41.65    1.51 
   2  -5  -1   43.12    1.65 
  -1  -5   1   47.13    1.84 
  -1  -5   1   52.98    1.78 
   1  -5  -1   47.36    1.82 
   1  -5  -1   53.47    1.71 
   0  -5  -1   20.03    0.89 
   0  -5   1   20.24    0.92 
   0  -5  -1   19.97    0.96 
   0  -5   1   20.39    0.91 
   1  -5   1  109.76    3.63 
   1  -5   1  111.76    3.55 
  -1  -5  -1  111.10    3.61 
   2  -5   1   17.11    0.76 
  -2  -5  -1   17.88    0.88 
  -2  -5  -1   18.74    0.97 
  -3  -5  -1   16.41    0.83 
   3  -5   1   14.61    0.87 
   3  -5   1   14.88    0.68 
  -3  -5  -1   13.89    0.93 
   4  -5   1    3.27    0.56 
  -4  -5  -1    4.87    0.40 
  -4  -5  -1    3.79    0.52 
   5  -5   1   13.34    0.97 
   5   5   1   10.89    0.76 
   6  -5   1    5.23    0.82 
  -6  -5  -1    4.13    0.78 
   6   5   1    4.81    0.64 
   7  -5   1    7.16    0.98 
  -7  -5  -1    6.97    1.03 
  -8  -5  -1    3.02    0.96 
   8  -5   1    2.86    0.75 
  -9  -5  -1    2.39    1.04 
   9  -5   1    2.62    0.81 
   9  -6  -1    1.66    0.72 
  -9  -6   1    0.75    1.05 
  -8  -6   1    1.45    0.95 
   8  -6  -1    2.14    0.70 
  -7  -6   1   -0.54    0.68 
   7  -6  -1    0.44    0.58 
   6  -6  -1    4.22    0.80 
  -6  -6   1    5.03    0.82 
  -5  -6   1    1.12    0.51 
  -5  -6   1    3.87    0.52 
   5  -6  -1    4.58    0.72 
   5   6  -1    3.59    0.51 
  -4  -6   1    9.99    0.85 
   4  -6  -1   13.99    0.96 
  -4  -6   1   15.32    0.80 
   3  -6  -1   15.73    0.96 
  -3  -6   1   16.56    1.06 
  -3  -6   1   14.70    0.78 
  -2  -6   1    3.03    0.52 
   2  -6  -1    3.33    0.31 
  -2  -6   1    2.88    0.42 
  -1  -6   1   16.26    0.88 
   1  -6  -1   18.70    0.96 
   1  -6  -1   16.84    0.80 
  -1  -6   1   17.63    0.93 
   0  -6  -1    0.25    0.26 
   0  -6  -1    0.03    0.31 
   0  -6   1   -0.31    0.33 
   0  -6   1   -0.13    0.28 
  -1  -6  -1   35.08    1.40 
  -1  -6  -1   34.37    1.40 
   1  -6   1   33.63    1.30 
   1  -6   1   34.09    1.41 
  -2  -6  -1   13.49    0.78 
   2  -6   1   13.78    0.68 
   2  -6   1   12.48    0.78 
  -2  -6  -1   14.44    0.89 
  -3  -6  -1   13.89    0.98 
  -3  -6  -1   14.86    0.85 
   3  -6   1   13.75    0.69 
  -4  -6  -1   16.71    0.99 
  -4  -6  -1   19.83    1.16 
   4  -6   1   18.06    1.10 
  -5  -6  -1    0.80    0.61 
   5  -6   1    0.94    0.59 
   5   6   1    0.83    0.48 
  -6  -6  -1    0.64    0.53 
   6  -6   1    1.94    0.71 
   6   6   1    1.60    0.55 
  -7  -6  -1    1.80    0.74 
   7  -6   1    1.69    0.65 
  -8  -6  -1    8.02    1.21 
   8  -6   1    7.82    0.99 
  -9  -6  -1   -0.17    1.04 
   9  -6   1    0.53    0.67 
  -8  -7   1    1.21    1.00 
   8  -7  -1    1.32    0.69 
   7  -7  -1    5.28    0.85 
  -7  -7   1    6.06    0.94 
  -6  -7   1    2.82    0.71 
   6  -7  -1    3.03    0.76 
  -5  -7   1    3.70    0.79 
   5  -7  -1    3.20    0.76 
  -4  -7   1   14.92    0.89 
   4  -7  -1   15.29    1.09 
  -4  -7   1   15.04    1.11 
  -3  -7   1    4.99    0.72 
  -3  -7   1    4.15    0.52 
   2  -7  -1   28.21    1.08 
  -2  -7   1   28.50    1.39 
  -2  -7   1   29.08    1.25 
  -1  -7   1    1.06    0.40 
   1  -7  -1    0.48    0.32 
   1  -7  -1    1.19    0.46 
  -1  -7   1    0.59    0.45 
   0  -7  -1   10.05    0.72 
   0  -7   1   10.53    0.83 
   0  -7   1    9.56    0.76 
   0  -7  -1   11.56    0.82 
  -1  -7  -1    1.07    0.42 
   1  -7   1    0.60    0.42 
   1  -7   1    0.13    0.30 
  -1  -7  -1   -0.01    0.42 
   2  -7   1    1.28    0.49 
  -2  -7  -1    1.83    0.53 
  -2  -7  -1    1.69    0.44 
   2  -7   1    1.83    0.37 
   3  -7   1    4.19    0.43 
  -3  -7  -1    3.61    0.67 
  -3  -7  -1    4.69    0.57 
  -4  -7  -1    4.87    0.61 
  -4  -7  -1    4.18    0.79 
   4  -7   1    4.79    0.73 
  -5  -7  -1    5.29    0.66 
  -5  -7  -1    3.70    0.80 
   5  -7   1    5.87    0.87 
  -6  -7  -1    0.17    0.58 
   6  -7   1   -0.51    0.55 
  -7  -7  -1    3.34    0.80 
   7  -7   1    1.68    0.68 
  -8  -7  -1    2.81    1.00 
   8  -7   1    4.84    0.92 
   8  -8  -1    1.15    0.72 
  -8  -8   1    1.98    0.95 
  -7  -8   1    1.26    0.73 
   7  -8  -1    1.91    0.72 
   6  -8  -1    1.17    0.66 
  -6  -8   1    1.33    0.62 
  -5  -8   1   18.54    1.41 
   5  -8  -1   20.82    1.37 
  -4  -8   1    2.16    0.77 
  -4  -8   1    1.65    0.48 
   4  -8  -1    2.44    0.71 
  -3  -8   1    9.16    0.75 
  -3  -8   1    8.87    0.97 
  -2  -8   1    7.48    0.85 
  -2  -8   1    8.94    0.75 
   1  -8  -1    2.09    0.42 
  -1  -8   1    3.77    0.58 
  -1  -8   1    3.32    0.60 
   1  -8  -1    3.69    0.63 
   0  -8  -1    7.71    0.69 
   0  -8   1    7.21    0.72 
   0  -8  -1    8.46    0.79 
   0  -8   1    6.43    0.68 
  -1  -8  -1   30.76    1.40 
   1  -8   1   27.94    1.37 
   1  -8   1   30.07    1.31 
  -1  -8  -1   28.23    1.35 
   2  -8   1   30.79    1.45 
  -2  -8  -1   28.80    1.49 
  -2  -8  -1   32.35    1.44 
  -3  -8  -1   12.08    1.06 
   3  -8   1   13.11    0.95 
  -3  -8  -1   12.74    0.93 
   4  -8   1    8.04    0.91 
  -4  -8  -1    7.97    0.78 
  -4  -8  -1    8.50    1.03 
  -5  -8  -1    3.44    0.62 
  -5  -8  -1    2.13    0.77 
   5  -8   1    1.89    0.68 
  -6  -8  -1    1.51    0.69 
   6  -8   1    0.58    0.61 
   7  -8   1    2.38    0.77 
  -7  -8  -1    1.47    0.75 
   8  -8   1    1.55    0.77 
  -8  -8  -1    0.27    0.76 
  -7  -9   1    1.92    0.77 
   7  -9  -1    1.68    0.75 
   6  -9  -1    1.67    0.71 
  -6  -9   1    0.32    0.71 
   5  -9  -1    1.19    0.64 
  -5  -9   1    1.22    0.71 
  -4  -9   1    0.58    0.47 
  -4  -9   1    2.23    0.83 
   4  -9  -1    2.23    0.63 
  -3  -9   1    2.82    0.53 
   3  -9  -1    2.18    0.55 
  -3  -9   1    2.92    0.78 
  -2  -9   1    6.95    0.75 
   2  -9  -1    5.93    0.76 
  -2  -9   1    7.26    0.91 
  -1  -9   1    5.95    0.79 
   1  -9  -1    5.58    0.76 
   1  -9  -1    6.20    0.64 
  -1  -9   1    7.47    0.77 
   0  -9  -1    2.27    0.61 
   0  -9   1    2.57    0.59 
   0  -9   1    2.35    0.61 
   0  -9  -1    2.62    0.55 
  -1  -9  -1    0.11    0.51 
   1  -9   1   -0.39    0.49 
   1  -9   1    0.13    0.46 
  -1  -9  -1    1.50    0.58 
  -2  -9  -1   10.01    0.99 
  -2  -9  -1   10.12    0.87 
   2  -9   1    9.42    0.92 
   3  -9   1   -0.15    0.51 
  -3  -9  -1    0.81    0.68 
  -3  -9  -1   -0.49    0.47 
  -4  -9  -1    6.37    1.01 
  -4  -9  -1    6.38    0.75 
   4  -9   1    5.00    0.78 
  -5  -9  -1   -0.16    0.53 
  -5  -9  -1    1.76    0.69 
   5  -9   1    1.21    0.64 
   6  -9   1    1.72    0.73 
  -6  -9  -1    3.31    0.88 
   7  -9   1    1.28    0.75 
  -7  -9  -1    1.20    0.77 
  -7 -10   1    0.64    0.95 
   7 -10  -1    0.28    0.98 
  -6 -10   1    1.83    0.83 
   6 -10  -1    2.79    0.79 
  -5 -10   1    2.35    0.82 
   5 -10  -1    1.93    0.74 
  -4 -10   1    1.73    0.70 
   4 -10  -1    0.73    0.57 
   3 -10  -1    2.06    0.63 
  -3 -10   1    3.71    0.91 
  -3 -10   1    2.82    0.61 
  -2 -10   1    5.36    0.87 
  -2 -10   1    4.52    0.69 
   2 -10  -1    4.63    0.79 
  -1 -10   1   -0.80    0.60 
   1 -10  -1    0.44    0.57 
  -1 -10   1   -0.41    0.51 
   0 -10   1    8.48    0.87 
   0 -10  -1    8.34    0.91 
   0 -10   1   10.20    0.93 
   0 -10  -1    9.36    0.83 
  -1 -10  -1    8.01    0.89 
  -1 -10  -1   11.16    0.98 
   1 -10   1    9.63    0.98 
  -2 -10  -1    4.48    0.72 
  -2 -10  -1    4.59    0.80 
   2 -10   1    3.55    0.74 
  -3 -10  -1    2.17    0.83 
   3 -10   1    1.84    0.67 
  -3 -10  -1    2.83    0.61 
  -4 -10  -1    0.76    0.68 
   4 -10   1    1.75    0.64 
  -4 -10  -1    1.41    0.59 
  -5 -10  -1    2.39    0.79 
   5 -10   1    3.60    0.79 
  -6 -10  -1    0.58    0.77 
   6 -10   1    0.57    0.69 
   7 -10   1    0.71    1.03 
  -7 -10  -1    1.71    1.21 
   6 -11  -1    2.90    1.08 
  -6 -11   1    2.95    1.13 
  -5 -11   1   -1.09    0.66 
   5 -11  -1    0.08    0.59 
  -4 -11   1    3.22    0.82 
   4 -11  -1    1.89    0.66 
  -3 -11   1    6.55    0.81 
  -3 -11   1    7.37    0.97 
   3 -11  -1    6.21    0.91 
   2 -11  -1    0.00    0.67 
  -2 -11   1    0.02    0.54 
  -2 -11   1   -0.11    0.67 
  -1 -11   1    2.47    0.66 
   1 -11  -1    1.50    0.75 
  -1 -11   1    2.49    0.79 
   0 -11   1   -0.27    0.60 
   0 -11   1   -0.88    0.53 
   0 -11  -1   -0.17    0.60 
  -1 -11  -1    0.58    0.67 
  -1 -11  -1    0.47    0.62 
   1 -11   1   -0.62    0.65 
  -2 -11  -1    0.64    0.60 
   2 -11   1   -0.75    0.68 
  -2 -11  -1    0.15    0.70 
   3 -11   1    0.43    0.70 
  -3 -11  -1    0.36    0.59 
  -3 -11  -1    1.14    0.71 
  -4 -11  -1    3.84    0.86 
  -4 -11  -1    4.26    0.78 
   4 -11   1    6.10    0.90 
  -5 -11  -1    3.40    0.97 
   5 -11   1    3.88    0.87 
   6 -11   1    1.23    0.91 
  -6 -11  -1    0.26    1.08 
  -5 -12   1    1.12    0.85 
   5 -12  -1    1.06    0.66 
   4 -12  -1    1.01    0.66 
  -4 -12   1    0.21    0.77 
  -3 -12   1    1.71    0.77 
   3 -12  -1    1.33    0.77 
  -2 -12   1    1.99    0.72 
  -2 -12   1    0.99    0.64 
   2 -12  -1    0.19    0.83 
   1 -12  -1    0.23    0.81 
  -1 -12   1    0.60    0.74 
  -1 -12   1    0.89    0.67 
   0 -12   1    1.83    0.80 
   0 -12  -1    0.98    0.80 
  -1 -12  -1    0.06    0.79 
   1 -12   1    0.41    0.76 
  -2 -12  -1    2.56    0.82 
  -2 -12  -1    2.91    0.79 
   2 -12   1    2.41    0.93 
  -3 -12  -1    1.78    0.78 
  -3 -12  -1    0.77    0.73 
   3 -12   1    1.58    0.90 
   4 -12   1    0.93    0.77 
  -4 -12  -1    0.90    0.76 
  -5 -12  -1    1.02    0.82 
   5 -12   1    1.70    0.82 
  -4 -13   1    0.96    0.82 
   4 -13  -1   -0.01    0.66 
  -3 -13   1    1.12    0.80 
   3 -13  -1    0.54    0.93 
  -2 -13   1    3.26    0.90 
  -2 -13   1    1.38    0.74 
   2 -13  -1    1.35    0.98 
   1 -13  -1    0.90    0.92 
  -1 -13   1   -0.05    0.84 
   0 -13  -1    1.54    0.98 
   0 -13   1    1.96    0.93 
  -1 -13  -1    1.72    0.90 
   1 -13   1   -0.05    0.85 
  -2 -13  -1    0.98    0.92 
   2 -13   1    0.37    0.94 
   3 -13   1    2.35    1.03 
  -3 -13  -1    1.82    0.82 
  -4 -13  -1   -0.18    0.76 
  -1 -14   1   -0.78    0.96 
   1 -14  -1    0.52    1.03 
   0 -14   1   -0.77    0.89 
   0 -14  -1   -1.92    0.91 
   1 -14   1    0.46    1.01 
  -1 -14  -1    0.52    1.04 
  -8   0   2    1.17    0.58 
  -8   0   2   -1.14    0.52 
  -7   0   2    0.82    0.51 
  -7   0   2    1.28    0.58 
   7   0  -2    0.53    0.47 
   6   0  -2    3.27    0.49 
  -6   0   2    2.80    0.52 
  -6   0   2    2.48    0.57 
  -5   0   2    1.24    0.42 
   5   0  -2    0.32    0.23 
  -5   0   2    1.04    0.39 
  -4   0   2   28.72    1.22 
   4   0  -2   28.11    1.07 
  -4   0   2   27.74    1.13 
   3   0  -2    3.34    0.32 
  -3   0   2    3.72    0.38 
  -3   0   2    1.84    0.29 
  -2   0   2  162.18    5.05 
   2   0  -2  166.95    5.04 
  -2   0   2  169.16    5.14 
   1   0  -2   20.08    0.67 
  -1   0   2   20.39    0.74 
   0   0  -2   18.00    0.63 
   1   0   2  190.74    5.81 
  -2   0  -2   26.38    1.04 
   2   0   2   26.81    1.01 
  -3   0  -2    7.80    0.59 
   4   0   2    3.73    0.47 
  -4   0  -2    3.76    0.49 
  -5   0  -2   16.16    0.93 
   5   0   2   15.99    0.89 
  -6   0  -2    3.01    0.57 
   6   0   2    2.72    0.59 
  -7   0  -2    4.28    0.71 
   7   0   2    4.68    0.70 
   8   0   2    1.62    0.71 
  -8   0  -2    2.20    0.62 
  -9   0  -2    0.18    0.68 
  -9  -1   2    2.95    0.77 
  -9  -1   2    2.92    0.71 
  -8  -1   2    1.74    0.65 
  -8  -1   2    1.93    0.66 
  -7  -1   2   14.49    1.01 
  -7  -1   2   15.04    1.14 
   7  -1  -2   13.73    0.91 
  -7   1   2   13.94    1.15 
  -7   1   2   13.42    0.96 
  -6  -1   2   14.90    1.02 
  -6  -1   2   19.25    1.11 
   6  -1  -2   16.36    0.91 
   6   1  -2   16.45    0.87 
  -6   1   2   17.15    1.14 
  -6   1   2   17.14    0.93 
  -5  -1   2    8.25    0.68 
  -5  -1   2    9.49    0.75 
   5  -1  -2    8.31    0.61 
   5   1  -2   10.32    0.58 
  -5   1   2    9.55    0.67 
  -5   1   2    8.00    0.71 
  -4  -1   2   18.70    0.93 
   4  -1  -2   17.20    0.83 
  -4  -1   2   19.19    0.93 
  -4   1   2   18.74    0.83 
   4   1  -2   18.29    0.77 
  -4   1   2   19.78    0.97 
  -3  -1   2    8.90    0.61 
   3  -1  -2    9.23    0.54 
  -3  -1   2    8.69    0.61 
   3   1  -2    9.50    0.44 
  -3   1   2    9.55    0.51 
  -2  -1   2   81.37    2.57 
  -2  -1   2   85.74    2.76 
   2  -1  -2   88.86    2.69 
   2   1  -2   84.16    2.58 
  -2   1   2   84.84    2.65 
   1  -1  -2   64.10    1.97 
  -1   1   2   61.04    1.95 
  -1   1   2   61.28    1.94 
   0  -1  -2  112.87    3.53 
   0  -1  -2  114.71    3.51 
   0  -1   2  114.35    3.48 
  -2  -1  -2   33.08    1.31 
   2  -1   2   37.29    1.31 
   2   1   2   36.56    1.28 
  -2   1  -2   36.07    1.29 
  -3  -1  -2    6.81    0.56 
  -3   1  -2    6.17    0.49 
   3   1   2    4.65    0.44 
  -4  -1  -2   36.82    1.51 
   4  -1   2   35.78    1.45 
   4   1   2   37.66    1.44 
  -4   1  -2   37.75    1.42 
  -5  -1  -2    3.60    0.56 
   5  -1   2    2.28    0.48 
   5   1   2    2.56    0.47 
  -5   1  -2    2.13    0.44 
   6  -1   2   39.40    1.66 
  -6  -1  -2   36.31    1.67 
  -6   1  -2   39.03    1.61 
   6   1   2   34.81    1.57 
   7  -1   2    4.33    0.75 
  -7  -1  -2    4.51    0.73 
   7   1   2    4.88    0.70 
  -7   1  -2    3.72    0.62 
  -8  -1  -2    2.53    0.69 
   8  -1   2    3.18    0.78 
  -8   1  -2    3.16    0.69 
   8   1   2    2.96    0.73 
   9  -1   2    0.28    0.59 
  -9  -1  -2    0.06    0.71 
  -9  -2   2    1.15    0.73 
  -9  -2   2    0.08    0.56 
  -8  -2   2    0.54    0.59 
  -8  -2   2    2.58    0.69 
   8  -2  -2    1.80    0.67 
   7  -2  -2    0.21    0.51 
  -7  -2   2   -0.18    0.49 
  -7  -2   2    1.13    0.56 
  -7   2   2    0.25    0.54 
  -6  -2   2    1.15    0.48 
  -6  -2   2    2.71    0.59 
   6  -2  -2    2.46    0.54 
  -6   2   2    2.25    0.44 
  -6   2   2    2.90    0.60 
  -5  -2   2   11.01    0.85 
   5  -2  -2   11.74    0.74 
  -5  -2   2   12.25    0.85 
   5   2  -2   12.22    0.63 
  -5   2   2   12.11    0.67 
  -5   2   2   12.65    0.95 
  -4  -2   2   67.99    2.34 
  -4  -2   2   67.41    2.44 
   4  -2  -2   69.28    2.35 
   4   2  -2   68.42    2.20 
  -4   2   2   68.79    2.24 
  -4   2   2   68.14    2.41 
  -3  -2   2   14.79    0.77 
   3  -2  -2   15.71    0.75 
   3   2  -2   14.71    0.58 
  -3   2   2   14.62    0.59 
  -2  -2   2   62.51    1.96 
   2  -2  -2   67.88    2.13 
  -2  -2   2   60.62    2.16 
  -2   2   2   66.02    1.97 
  -2   2   2   62.45    2.11 
   1  -2  -2    5.40    0.42 
  -1  -2   2    6.13    0.45 
  -1  -2   2    5.86    0.31 
  -1   2   2    5.10    0.37 
   0  -2  -2  140.20    4.26 
   0  -2   2  135.38    4.28 
   0  -2   2  139.53    4.22 
   0   2   2  135.01    4.10 
  -1  -2  -2   23.32    0.94 
  -1  -2  -2   23.76    0.87 
   1  -2   2   20.51    0.87 
  -3  -2  -2   33.50    1.39 
   3  -2   2   34.76    1.35 
  -3   2  -2   35.24    1.29 
   4  -2   2    6.16    0.56 
  -4  -2  -2    6.16    0.61 
  -4   2  -2    7.09    0.56 
   4   2   2    6.08    0.55 
  -5  -2  -2   14.46    0.98 
   5  -2   2   14.81    0.94 
   5   2   2   13.72    0.83 
  -5   2  -2   16.32    0.87 
  -6  -2  -2    0.20    0.53 
   6  -2   2    1.09    0.54 
  -6   2  -2    0.91    0.45 
   6   2   2    1.06    0.48 
   7  -2   2    2.85    0.69 
  -7  -2  -2    0.94    0.60 
   7   2   2    1.43    0.59 
  -7   2  -2    2.62    0.57 
   8  -2   2    0.63    0.68 
  -8  -2  -2    1.06    0.68 
   8   2   2    0.46    0.66 
   9  -2   2   -0.36    0.58 
  -9  -2  -2    1.23    0.87 
 -10  -3   2    0.59    0.95 
  -9  -3   2    1.51    0.87 
  -8  -3   2    1.57    0.70 
   8  -3  -2    1.22    0.64 
  -8  -3   2    1.74    0.66 
   7  -3  -2    6.86    0.81 
  -7  -3   2    5.98    0.85 
  -7  -3   2    8.21    0.83 
   6  -3  -2    2.79    0.59 
  -6  -3   2    2.40    0.60 
  -6  -3   2    1.89    0.51 
  -6   3   2    3.45    0.41 
   5  -3  -2    5.41    0.60 
  -5  -3   2    4.54    0.54 
  -5  -3   2    5.58    0.68 
  -5   3   2    4.86    0.60 
  -5   3   2    5.63    0.45 
   5   3  -2    5.12    0.43 
  -4  -3   2    2.13    0.45 
   4  -3  -2    2.27    0.43 
  -4  -3   2    2.67    0.41 
  -4   3   2    3.30    0.26 
  -4   3   2    1.84    0.36 
   4   3  -2    2.86    0.31 
  -3  -3   2   34.73    1.43 
   3  -3  -2   35.61    1.37 
  -3   3   2   34.84    1.40 
   3   3  -2   35.52    1.18 
  -2  -3   2    0.55    0.19 
   2  -3  -2    0.57    0.31 
  -2  -3   2   -0.02    0.20 
  -2   3   2    0.83    0.30 
  -1  -3   2   16.70    0.81 
   1  -3  -2   16.20    0.78 
  -1  -3   2   17.43    0.67 
   1  -3  -2   16.20    0.62 
  -1   3   2   16.81    0.76 
   0  -3   2  183.48    5.74 
   0  -3  -2  183.86    5.71 
   0  -3   2  186.86    5.68 
   1  -3   2    3.20    0.32 
  -1  -3  -2    2.95    0.36 
   1  -3   2    3.17    0.38 
  -1  -3  -2    2.56    0.38 
   3  -3   2    6.24    0.56 
  -3  -3  -2    5.82    0.44 
  -3  -3  -2    7.05    0.56 
  -4  -3  -2   10.13    0.81 
   4  -3   2   10.76    0.76 
  -4  -3  -2   12.09    0.65 
   4   3   2   10.97    0.70 
  -5  -3  -2    6.96    0.78 
   5  -3   2    8.55    0.79 
  -5   3  -2    6.98    0.59 
   5   3   2    8.25    0.69 
  -6  -3  -2    0.40    0.55 
   6  -3   2    1.56    0.60 
   6   3   2   -0.06    0.47 
  -6   3  -2    0.61    0.41 
   7  -3   2   15.27    1.14 
  -7  -3  -2   15.40    1.18 
  -7   3  -2   16.94    0.99 
   7   3   2   15.07    1.06 
  -8  -3  -2    1.15    0.77 
   8  -3   2    2.50    0.67 
  -9  -3  -2    5.57    1.10 
   9  -3   2    5.39    0.88 
  -9  -4   2    0.72    0.89 
   8  -4  -2    0.11    0.66 
  -8  -4   2    0.41    0.73 
   7  -4  -2    3.40    0.75 
  -7  -4   2    4.19    0.78 
  -7  -4   2    4.28    0.65 
   6  -4  -2    1.29    0.57 
  -6  -4   2    2.69    0.65 
  -6  -4   2    1.96    0.52 
  -5  -4   2   16.58    0.99 
  -5  -4   2   18.84    1.12 
   5  -4  -2   16.32    0.98 
   5   4  -2   16.20    0.76 
   4  -4  -2    8.30    0.69 
  -4  -4   2    9.92    0.80 
   4   4  -2    9.37    0.52 
  -3  -4   2   50.65    1.70 
   3  -4  -2   52.31    1.91 
   2  -4  -2   27.23    1.16 
  -2  -4   2   28.09    1.20 
  -2  -4   2   27.23    1.00 
  -1  -4   2   17.34    0.74 
   1  -4  -2   16.53    0.68 
   0  -4   2   67.55    2.24 
   0  -4  -2   65.27    2.24 
   0  -4   2   65.53    2.21 
   0  -4  -2   66.28    2.19 
   1  -4   2    2.07    0.37 
   1  -4   2    1.32    0.30 
  -1  -4  -2    0.61    0.32 
  -1  -4  -2    1.58    0.34 
  -2  -4  -2   13.96    0.73 
   2  -4   2   12.84    0.66 
  -2  -4  -2   13.86    0.81 
   3  -4   2   47.94    1.84 
  -3  -4  -2   49.15    1.77 
  -3  -4  -2   48.24    1.54 
  -3  -4  -2   48.21    1.86 
   4  -4   2   14.13    0.89 
  -4  -4  -2   13.81    0.70 
   4   4   2   14.82    0.81 
  -5  -4  -2    3.69    0.67 
  -5  -4  -2    2.78    0.36 
   5  -4   2    4.09    0.64 
   5   4   2    4.69    0.58 
   6  -4   2    5.80    0.81 
  -6  -4  -2    5.26    0.80 
   6   4   2    4.70    0.66 
  -7  -4  -2    1.64    0.73 
   7  -4   2    1.04    0.68 
   7   4   2    0.91    0.57 
   8  -4   2   -0.46    0.55 
  -8  -4  -2   -0.22    0.80 
  -9  -4  -2    2.54    1.01 
   9  -4   2    0.83    0.70 
  -9  -5   2    0.67    1.01 
   9  -5  -2    1.80    0.66 
  -8  -5   2    1.78    0.88 
   8  -5  -2    4.19    0.76 
  -7  -5   2    2.84    0.82 
   7  -5  -2    2.87    0.74 
  -6  -5   2   12.01    0.96 
  -6  -5   2   10.29    0.99 
   6  -5  -2    9.66    0.94 
  -5  -5   2    1.44    0.44 
  -5  -5   2    1.89    0.58 
   5  -5  -2    1.75    0.55 
   5   5  -2    0.79    0.33 
   4  -5  -2   49.33    2.01 
  -4  -5   2   52.97    1.78 
   3  -5  -2   16.32    0.94 
  -3  -5   2   16.81    0.75 
  -3  -5   2   17.81    1.02 
  -2  -5   2   31.33    1.38 
  -2  -5   2   32.51    1.19 
   2  -5  -2   30.93    1.31 
   1  -5  -2   78.11    2.53 
  -1  -5   2   78.24    2.70 
  -1  -5   2   79.72    2.60 
   0  -5  -2    9.51    0.67 
   0  -5  -2    8.90    0.59 
   0  -5   2    9.39    0.61 
  -1  -5  -2   88.16    2.94 
   1  -5   2   87.94    2.89 
   1  -5   2   87.13    2.95 
  -2  -5  -2    1.20    0.35 
   2  -5   2    0.75    0.27 
   2  -5   2    0.99    0.36 
  -2  -5  -2    1.25    0.43 
   3  -5   2    7.83    0.63 
  -3  -5  -2    9.04    0.72 
  -3  -5  -2    8.87    0.77 
   3  -5   2    9.27    0.57 
  -3  -5  -2    9.24    0.44 
   4  -5   2    1.15    0.45 
  -4  -5  -2    1.15    0.27 
  -4  -5  -2    1.56    0.47 
  -4  -5  -2    0.35    0.44 
   5  -5   2    3.98    0.69 
   5   5   2    3.29    0.55 
  -6  -5  -2    3.00    0.74 
   6  -5   2    3.68    0.77 
   6   5   2    3.89    0.63 
  -7  -5  -2    2.92    0.83 
   7  -5   2    2.08    0.65 
   8  -5   2   10.17    1.09 
  -8  -5  -2    8.89    1.22 
  -9  -5  -2   -0.24    0.97 
   9  -5   2    0.17    0.65 
   9  -6  -2    3.06    0.81 
  -9  -6   2    2.01    1.11 
   8  -6  -2    0.78    0.61 
  -8  -6   2   -1.49    0.81 
   7  -6  -2    2.68    0.73 
  -7  -6   2    1.07    0.81 
  -6  -6   2    3.92    0.76 
   6  -6  -2    6.57    0.87 
  -5  -6   2    3.57    0.63 
   4  -6  -2   11.39    0.89 
  -4  -6   2   10.29    0.68 
  -3  -6   2    2.61    0.55 
   3  -6  -2    3.09    0.54 
  -3  -6   2    3.79    0.41 
   2  -6  -2   25.51    0.90 
  -2  -6   2   24.27    1.04 
   2  -6  -2   25.07    1.21 
  -2  -6   2   25.14    1.24 
  -1  -6   2   19.68    0.90 
   1  -6  -2   19.11    0.84 
  -1  -6   2   20.65    1.01 
   1  -6  -2   17.15    0.95 
   0  -6  -2    9.33    0.72 
   0  -6   2    9.38    0.64 
   0  -6   2    9.05    0.65 
  -1  -6  -2   18.11    0.97 
   1  -6   2   16.58    0.91 
  -1  -6  -2   19.54    0.97 
  -2  -6  -2   12.60    0.83 
   2  -6   2   12.85    0.82 
   2  -6   2   12.78    0.69 
  -2  -6  -2   12.26    0.87 
  -3  -6  -2   25.04    1.30 
  -3  -6  -2   23.92    1.14 
   3  -6   2   23.77    1.00 
  -3  -6  -2   24.19    0.85 
  -4  -6  -2    3.95    0.59 
   4  -6   2    3.90    0.42 
  -4  -6  -2    4.44    0.72 
   4  -6   2    1.78    0.47 
   5  -6   2   14.60    1.05 
  -5  -6  -2   13.56    1.08 
   5   6   2   13.04    0.89 
   6  -6   2    3.86    0.83 
  -6  -6  -2    3.38    0.73 
   6   6   2    2.68    0.61 
  -7  -6  -2    1.68    0.72 
   7  -6   2    0.64    0.64 
   8  -6   2    4.43    0.85 
  -8  -6  -2    1.38    0.97 
  -9  -6  -2   -0.95    1.03 
   9  -6   2    0.71    0.68 
   8  -7  -2    2.15    0.72 
  -8  -7   2    3.59    1.09 
   7  -7  -2    0.72    0.67 
  -7  -7   2    0.75    0.72 
   6  -7  -2    9.63    1.05 
  -6  -7   2    9.63    1.03 
  -5  -7   2    9.92    1.01 
   5  -7  -2   10.08    1.02 
  -4  -7   2    0.34    0.38 
  -4  -7   2    0.26    0.63 
   4  -7  -2    0.83    0.57 
  -3  -7   2   24.74    1.12 
   3  -7  -2   26.42    1.33 
  -3  -7   2   27.11    1.42 
  -2  -7   2    4.76    0.67 
   2  -7  -2    5.23    0.44 
  -2  -7   2    5.80    0.57 
  -1  -7   2   10.62    0.83 
  -1  -7   2   10.11    0.72 
   1  -7  -2   10.15    0.65 
   1  -7  -2   11.02    0.83 
   0  -7  -2    2.91    0.46 
   0  -7   2    2.16    0.45 
   0  -7   2    2.91    0.48 
   0  -7  -2    2.57    0.51 
  -1  -7  -2   23.46    1.18 
   1  -7   2   22.67    1.07 
  -1  -7  -2   23.72    1.18 
   1  -7   2   23.85    1.16 
  -2  -7  -2    5.84    0.64 
  -2  -7  -2    4.97    0.68 
   2  -7   2    3.48    0.58 
   3  -7   2    2.14    0.37 
  -3  -7  -2    2.16    0.52 
  -3  -7  -2    1.79    0.61 
   4  -7   2    5.48    0.73 
  -4  -7  -2    5.69    0.86 
  -4  -7  -2    6.39    0.71 
  -5  -7  -2    1.46    0.55 
   5  -7   2    0.75    0.68 
  -5  -7  -2    0.76    0.74 
  -6  -7  -2    1.91    0.68 
   6  -7   2    1.74    0.64 
   6   7   2    1.74    0.59 
   7  -7   2    0.60    0.63 
  -7  -7  -2    0.04    0.63 
  -8  -7  -2    4.61    1.05 
   8  -7   2    3.13    0.83 
   8  -8  -2    3.02    0.85 
  -8  -8   2    2.86    1.02 
  -7  -8   2    0.19    0.60 
   7  -8  -2    0.35    0.65 
  -6  -8   2    1.30    0.65 
   6  -8  -2    1.79    0.66 
   5  -8  -2    2.62    0.80 
  -5  -8   2    2.27    0.76 
   4  -8  -2    0.30    0.62 
  -4  -8   2   -1.04    0.67 
  -4  -8   2    0.30    0.40 
   3  -8  -2    9.54    0.93 
  -3  -8   2    9.98    1.01 
  -3  -8   2    9.07    0.72 
  -2  -8   2    5.45    0.78 
  -2  -8   2    7.61    0.68 
  -1  -8   2    5.03    0.62 
   1  -8  -2    5.04    0.69 
  -1  -8   2    5.40    0.69 
   0  -8  -2    5.13    0.62 
   0  -8   2    4.90    0.64 
   0  -8   2    6.90    0.69 
   0  -8  -2    4.64    0.68 
   1  -8   2    1.57    0.46 
  -1  -8  -2    0.77    0.52 
  -1  -8  -2    1.03    0.51 
   1  -8   2    2.34    0.55 
  -2  -8  -2   14.10    1.08 
   2  -8   2   16.38    0.88 
   2  -8   2   13.48    0.99 
  -2  -8  -2   14.57    0.98 
   3  -8   2    0.17    0.50 
  -3  -8  -2    0.45    0.47 
  -3  -8  -2    0.30    0.65 
  -4  -8  -2   11.76    0.97 
  -4  -8  -2    9.80    1.06 
   4  -8   2   12.09    0.97 
  -5  -8  -2    9.60    1.05 
  -5  -8  -2   10.69    0.95 
   5  -8   2   10.98    1.08 
   6  -8   2    0.56    0.64 
  -6  -8  -2    1.28    0.72 
  -7  -8  -2    1.23    0.71 
   7  -8   2    1.85    0.75 
  -8  -8  -2    0.43    0.73 
   8  -8   2    1.71    0.94 
  -7  -9   2    2.80    0.81 
   7  -9  -2    2.72    0.81 
   6  -9  -2    0.62    0.66 
  -6  -9   2    0.50    0.71 
  -5  -9   2    1.61    0.72 
   5  -9  -2    2.55    0.72 
   4  -9  -2    5.55    0.84 
  -4  -9   2    6.51    0.95 
   3  -9  -2    0.71    0.50 
  -3  -9   2    0.42    0.41 
  -3  -9   2    1.13    0.73 
  -2  -9   2   16.76    1.04 
  -2  -9   2   15.82    1.21 
   2  -9  -2   16.26    1.13 
  -1  -9   2    1.66    0.64 
  -1  -9   2    1.49    0.55 
   1  -9  -2    1.58    0.60 
   0  -9  -2   10.55    0.95 
   0  -9  -2   11.34    0.88 
   0  -9   2   10.28    0.92 
   0  -9   2   10.12    0.90 
  -1  -9  -2    0.02    0.52 
  -1  -9  -2    0.07    0.50 
   1  -9   2    0.44    0.47 
   1  -9   2    0.40    0.50 
  -2  -9  -2    0.33    0.50 
  -2  -9  -2   -0.32    0.61 
   2  -9   2    0.03    0.52 
   3  -9   2    0.81    0.57 
  -3  -9  -2    0.64    0.69 
  -3  -9  -2    1.85    0.57 
   4  -9   2    2.74    0.66 
  -4  -9  -2    1.44    0.58 
  -4  -9  -2    3.28    0.88 
   5  -9   2    1.44    0.62 
  -5  -9  -2    1.14    0.75 
  -5  -9  -2    1.70    0.63 
   6  -9   2    0.15    0.62 
  -6  -9  -2   -0.44    0.69 
  -7  -9  -2    2.70    0.88 
   7  -9   2    3.43    0.88 
   7 -10  -2    0.64    0.96 
  -7 -10   2    0.22    0.80 
  -6 -10   2    1.74    0.81 
   6 -10  -2    1.15    0.73 
  -5 -10   2    4.01    0.87 
   5 -10  -2    3.98    0.80 
  -4 -10   2    0.35    0.68 
   4 -10  -2    1.49    0.60 
  -3 -10   2    4.34    0.64 
   3 -10  -2    4.23    0.75 
  -3 -10   2    3.21    0.89 
  -2 -10   2    1.38    0.57 
   2 -10  -2    1.38    0.63 
  -2 -10   2    2.15    0.75 
  -1 -10   2    2.50    0.69 
  -1 -10   2    2.29    0.61 
   1 -10  -2    2.41    0.68 
   0 -10  -2    1.09    0.62 
   0 -10  -2    2.61    0.61 
   0 -10   2    1.51    0.61 
   0 -10   2    1.46    0.60 
  -1 -10  -2    5.08    0.81 
   1 -10   2    7.12    0.84 
   1 -10   2    6.97    0.76 
  -1 -10  -2    5.88    0.80 
  -2 -10  -2   -0.02    0.68 
  -2 -10  -2    1.34    0.58 
   2 -10   2    0.40    0.59 
  -3 -10  -2    4.45    0.95 
   3 -10   2    5.97    0.88 
  -3 -10  -2    5.93    0.79 
   4 -10   2    2.69    0.71 
  -4 -10  -2    2.81    0.68 
  -4 -10  -2    2.26    0.79 
   5 -10   2    2.48    0.72 
  -5 -10  -2    1.73    0.83 
  -6 -10  -2    0.53    0.76 
   6 -10   2    1.37    0.73 
   7 -10   2    2.72    1.14 
  -7 -10  -2    2.12    1.20 
   6 -11  -2    1.35    0.92 
  -6 -11   2    0.08    1.05 
   5 -11  -2    1.17    0.66 
  -5 -11   2    2.05    0.84 
   4 -11  -2    0.33    0.58 
  -4 -11   2    0.85    0.68 
  -3 -11   2    2.40    0.78 
   3 -11  -2    1.59    0.65 
  -2 -11   2    1.16    0.80 
   2 -11  -2    0.67    0.57 
  -2 -11   2    1.38    0.61 
  -1 -11   2    5.14    0.78 
  -1 -11   2    5.56    0.91 
   1 -11  -2    6.71    0.97 
   0 -11  -2    7.14    0.97 
   0 -11   2    5.21    0.84 
   0 -11   2    5.72    0.83 
   1 -11   2    1.60    0.69 
  -1 -11  -2    2.32    0.71 
  -1 -11  -2    1.19    0.68 
  -2 -11  -2    2.74    0.79 
  -2 -11  -2    2.76    0.72 
   2 -11   2    3.53    0.87 
  -3 -11  -2    1.51    0.67 
   3 -11   2    4.12    0.92 
  -3 -11  -2    2.52    0.78 
  -4 -11  -2    1.35    0.74 
  -4 -11  -2    0.85    0.65 
   4 -11   2    2.42    0.78 
   5 -11   2    0.73    0.69 
  -5 -11  -2    2.29    0.88 
  -6 -11  -2    0.65    1.10 
   6 -11   2   -0.25    0.66 
  -5 -12   2   -0.64    0.86 
   5 -12  -2    0.47    0.69 
  -4 -12   2    1.22    0.77 
   4 -12  -2    1.14    0.66 
  -3 -12   2    2.23    0.78 
   3 -12  -2    2.78    0.76 
  -2 -12   2    0.33    0.60 
   2 -12  -2    0.15    0.81 
  -2 -12   2    1.41    0.70 
   1 -12  -2    0.81    0.83 
  -1 -12   2    0.04    0.76 
  -1 -12   2    0.39    0.60 
   0 -12  -2    0.59    0.87 
   0 -12   2   -0.47    0.64 
  -1 -12  -2    0.19    0.76 
   1 -12   2    1.46    0.79 
  -2 -12  -2    2.64    0.79 
  -2 -12  -2    3.01    0.86 
   2 -12   2    2.70    0.91 
  -3 -12  -2    3.21    0.83 
  -3 -12  -2    2.38    0.87 
   3 -12   2    4.35    1.08 
  -4 -12  -2    2.06    0.87 
   4 -12   2    2.76    0.99 
  -5 -12  -2    0.87    0.83 
   5 -12   2    1.44    0.77 
   4 -13  -2    0.96    0.71 
  -4 -13   2    0.00    0.81 
   3 -13  -2    1.72    0.89 
  -3 -13   2    0.75    0.78 
   2 -13  -2   -1.44    0.84 
  -2 -13   2   -0.41    0.64 
   1 -13  -2    0.76    0.94 
  -1 -13   2    0.99    0.79 
   0 -13  -2    1.40    1.02 
   0 -13   2    0.76    0.89 
   1 -13   2    3.15    0.98 
  -1 -13  -2    3.99    1.02 
   2 -13   2    1.27    0.96 
  -2 -13  -2    0.81    0.87 
  -3 -13  -2    1.38    0.81 
  -3 -13  -2    2.10    0.96 
   3 -13   2    3.28    1.06 
  -1 -14   2    1.31    0.93 
   1 -14  -2   -0.70    0.98 
   0 -14  -2    1.49    1.05 
   0 -14   2    0.63    0.97 
  -9   0   3    1.10    0.58 
  -8   0   3    2.06    0.61 
  -8   0   3    1.58    0.66 
  -7   0   3    0.74    0.56 
  -7   0   3    1.20    0.52 
   6   0  -3   15.05    0.80 
  -6   0   3   13.68    0.91 
  -6   0   3   14.48    1.07 
   5   0  -3   32.12    1.22 
  -5   0   3   29.95    1.29 
  -5   0   3   32.89    1.45 
  -4   0   3   13.56    0.86 
   4   0  -3   15.47    0.70 
  -4   0   3   16.90    0.81 
  -3   0   3   69.17    2.34 
   3   0  -3   71.56    2.24 
  -2   0   3    5.11    0.42 
   2   0  -3    5.26    0.34 
   1   0  -3  351.62   10.44 
  -1   0   3  343.26   10.58 
   0   0  -3  225.96    6.81 
   0   0   3  222.70    6.80 
  -1   0  -3    0.12    0.08 
   1   0   3   -0.10    0.07 
   2   0   3   16.68    0.78 
  -2   0  -3   17.75    0.83 
   3   0   3   11.07    0.66 
  -3   0  -3   11.40    0.70 
  -4   0  -3   21.55    1.05 
   4   0   3   22.85    1.04 
   5   0   3    0.45    0.43 
  -5   0  -3    0.86    0.42 
  -6   0  -3   26.81    1.34 
   6   0   3   27.39    1.37 
   7   0   3    7.29    0.86 
  -7   0  -3    8.96    0.87 
   8   0   3    1.63    0.73 
  -8   0  -3    0.94    0.59 
   9   0   3    0.74    0.65 
  -9   0  -3   -0.11    0.69 
  -9  -1   3    0.98    0.66 
  -9  -1   3    0.02    0.53 
  -8  -1   3   -0.29    0.55 
  -8  -1   3   -0.18    0.58 
  -8   1   3    0.10    0.49 
   7  -1  -3    7.41    0.72 
  -7  -1   3    7.28    0.79 
  -7  -1   3    6.05    0.79 
  -7   1   3    5.54    0.80 
  -7   1   3    6.16    0.70 
   6  -1  -3    1.85    0.47 
  -6  -1   3    4.06    0.59 
  -6  -1   3    1.65    0.52 
  -6   1   3    2.96    0.48 
  -6   1   3    2.47    0.57 
  -5  -1   3    6.91    0.64 
   5  -1  -3    5.73    0.53 
  -5  -1   3    6.20    0.62 
  -5   1   3    5.57    0.62 
  -5   1   3    6.19    0.54 
   5   1  -3    5.94    0.46 
  -4  -1   3   27.93    1.17 
  -4  -1   3   26.24    1.21 
   4  -1  -3   26.99    1.07 
  -4   1   3   26.48    1.22 
  -4   1   3   27.29    1.08 
   4   1  -3   27.64    0.98 
  -3  -1   3   16.28    0.82 
   3  -1  -3   15.63    0.69 
   3   1  -3   14.79    0.57 
  -3   1   3   15.81    0.69 
   2  -1  -3   28.69    1.03 
  -2  -1   3   28.43    1.11 
  -2   1   3   28.31    1.01 
  -1  -1   3   49.70    1.55 
   1  -1  -3   52.56    1.65 
  -1  -1   3   47.63    1.67 
   0  -1  -3  299.69    9.30 
   0  -1  -3  306.51    9.22 
   0  -1   3  306.79    9.19 
   1  -1   3   28.48    1.10 
  -1  -1  -3   32.82    1.15 
   2   1   3   28.64    1.09 
  -2   1  -3   27.73    1.11 
  -3  -1  -3    7.00    0.58 
   3  -1   3    7.46    0.57 
  -3   1  -3    6.98    0.57 
   3   1   3    5.96    0.51 
  -4  -1  -3    6.70    0.63 
   4  -1   3    6.62    0.59 
   4   1   3    6.41    0.57 
  -4   1  -3    6.49    0.59 
  -5  -1  -3    5.90    0.67 
   5  -1   3    5.92    0.65 
   5   1   3    4.77    0.61 
  -5   1  -3    5.65    0.62 
  -6  -1  -3   -0.36    0.48 
   6  -1   3    0.82    0.55 
   6   1   3    0.13    0.51 
  -6   1  -3    0.34    0.46 
   7  -1   3    2.61    0.71 
  -7  -1  -3    3.21    0.68 
  -7   1  -3    3.11    0.66 
   7   1   3    2.27    0.67 
  -8  -1  -3    0.29    0.58 
   8  -1   3    0.79    0.69 
   8   1   3   -0.51    0.63 
  -8   1  -3   -0.26    0.56 
  -9  -1  -3    2.45    0.89 
   9  -1   3    3.05    0.78 
 -10  -2   3    2.57    0.76 
  -9  -2   3    2.12    0.80 
  -9  -2   3    3.05    0.70 
  -8  -2   3    3.63    0.73 
  -8  -2   3    2.84    0.72 
  -8   2   3    2.99    0.67 
  -7  -2   3    6.49    0.77 
  -7  -2   3    6.68    0.84 
   7  -2  -3    9.85    0.83 
  -7   2   3    8.18    0.92 
  -6  -2   3   26.69    1.34 
   6  -2  -3   23.29    1.19 
  -6  -2   3   22.94    1.31 
  -6   2   3   25.35    1.12 
  -6   2   3   26.12    1.41 
  -5  -2   3   14.51    0.94 
   5  -2  -3   15.40    0.85 
  -5  -2   3   13.96    0.94 
   5   2  -3   16.13    0.68 
  -5   2   3   15.52    0.76 
  -5   2   3   15.80    1.02 
  -4  -2   3   18.54    0.97 
  -4  -2   3   17.11    0.92 
  -4   2   3   18.37    0.75 
   4   2  -3   18.08    0.68 
  -4   2   3   17.72    0.97 
   3  -2  -3   13.61    0.71 
  -3  -2   3   14.49    0.81 
  -3   2   3   15.15    0.59 
   2  -2  -3   38.35    1.37 
  -2  -2   3   36.30    1.41 
  -2   2   3   37.21    1.37 
  -2   2   3   38.45    1.23 
   1  -2  -3    8.85    0.55 
  -1  -2   3    9.23    0.40 
  -1  -2   3    7.56    0.53 
  -1   2   3    9.15    0.55 
   0  -2   3  124.53    3.87 
   0  -2  -3  123.88    3.84 
   0  -2   3  123.57    3.79 
   0  -2  -3  120.00    3.83 
   0   2   3  119.63    3.67 
   1  -2   3    8.41    0.53 
  -1  -2  -3    8.46    0.60 
  -3  -2  -3   14.46    0.83 
   3  -2   3   16.98    0.87 
  -3   2  -3   18.77    0.85 
   3   2   3   18.60    0.84 
   4  -2   3    4.33    0.53 
  -4  -2  -3    4.48    0.59 
  -4   2  -3    4.01    0.48 
   4   2   3    4.31    0.49 
   5  -2   3   20.65    1.09 
  -5  -2  -3   20.12    1.16 
  -5   2  -3   21.18    1.04 
   5   2   3   18.17    1.02 
  -6  -2  -3    0.96    0.57 
   6  -2   3    0.40    0.55 
   6   2   3   -0.03    0.48 
  -6   2  -3    0.33    0.43 
   7  -2   3    7.37    0.89 
  -7  -2  -3    6.79    0.87 
   7   2   3    6.57    0.82 
  -7   2  -3    6.18    0.74 
   8  -2   3   -0.33    0.55 
  -8  -2  -3    0.60    0.69 
   8   2   3    0.67    0.66 
  -9  -2  -3    0.73    0.84 
   9  -2   3    0.67    0.64 
 -10  -3   3   -0.75    0.91 
  -9  -3   3    1.01    0.90 
  -9  -3   3    0.16    0.55 
  -8  -3   3    1.23    0.67 
  -8  -3   3    0.76    0.59 
   8  -3  -3    1.01    0.64 
   7  -3  -3   -0.01    0.54 
  -7  -3   3   -0.36    0.55 
  -7  -3   3   -0.12    0.49 
  -7   3   3   -0.11    0.54 
  -6  -3   3   10.16    0.85 
  -6  -3   3   11.61    0.96 
   6  -3  -3    9.87    0.79 
  -6   3   3    8.67    0.87 
  -5  -3   3    5.38    0.68 
   5  -3  -3    5.50    0.62 
  -5  -3   3    6.09    0.63 
   5   3  -3    4.71    0.38 
  -5   3   3    5.63    0.41 
  -4  -3   3    7.58    0.69 
   4  -3  -3    7.08    0.59 
   4   3  -3    6.97    0.37 
  -4   3   3    6.86    0.38 
   3  -3  -3   13.38    0.73 
  -3  -3   3   13.08    0.81 
   3   3  -3   13.40    0.50 
  -3   3   3   13.36    0.82 
  -2  -3   3   14.24    0.54 
  -2   3   3   14.12    0.78 
  -1  -3   3    6.22    0.39 
   1  -3  -3    6.09    0.50 
   1  -3  -3    6.58    0.41 
  -1  -3   3    7.15    0.55 
  -1   3   3    7.29    0.51 
   0  -3   3  103.56    3.28 
   0  -3  -3  105.60    3.31 
   0  -3   3  106.30    3.34 
   0   3   3   99.70    3.15 
  -1  -3  -3   13.52    0.71 
   1  -3   3   14.37    0.70 
  -1  -3  -3   13.55    0.73 
  -2  -3  -3   29.27    1.18 
  -2  -3  -3   28.75    1.24 
   3  -3   3   39.24    1.56 
  -3  -3  -3   40.98    1.56 
  -3  -3  -3   40.46    1.62 
   3   3   3   40.05    1.52 
  -4  -3  -3    7.92    0.72 
   4  -3   3    7.52    0.70 
   4   3   3    7.72    0.61 
   5  -3   3   -0.19    0.47 
  -5  -3  -3    0.42    0.47 
   5   3   3    1.15    0.44 
  -5   3  -3    0.23    0.40 
   6  -3   3    8.17    0.88 
  -6  -3  -3    8.57    0.94 
  -6   3  -3    7.57    0.72 
   6   3   3    6.46    0.76 
   7  -3   3    2.13    0.73 
  -7  -3  -3    1.61    0.69 
   7   3   3    1.23    0.63 
  -7   3  -3    1.87    0.56 
  -8  -3  -3    1.60    0.82 
   8  -3   3    2.04    0.67 
   8   3   3    2.77    0.75 
   9  -3   3    2.16    0.72 
  -9  -3  -3    1.54    0.99 
  -9  -4   3    3.96    1.04 
  -8  -4   3    1.47    0.78 
   8  -4  -3    0.65    0.64 
  -8  -4   3   -0.10    0.57 
  -7  -4   3    1.22    0.56 
   7  -4  -3    1.37    0.62 
  -7  -4   3    0.57    0.61 
  -6  -4   3    6.20    0.81 
  -6  -4   3    5.18    0.67 
   6  -4  -3    5.01    0.72 
  -5  -4   3    3.63    0.61 
  -5  -4   3    1.84    0.48 
   5  -4  -3    2.07    0.52 
  -4  -4   3    9.23    0.76 
   4  -4  -3    9.77    0.72 
   4   4  -3   10.47    0.49 
  -4   4   3    9.83    0.79 
   3  -4  -3    7.82    0.63 
  -3  -4   3    7.64    0.42 
  -3   4   3    9.26    0.72 
   2  -4  -3   17.67    0.89 
  -2  -4   3   17.43    0.70 
  -2  -4   3   18.12    0.94 
  -2   4   3   17.28    0.87 
   1  -4  -3    8.20    0.47 
   1  -4  -3    8.44    0.56 
  -1  -4   3    9.69    0.50 
   0  -4   3   35.62    1.30 
   0  -4  -3   34.87    1.30 
   0  -4   3   34.95    1.33 
  -1  -4  -3    2.45    0.38 
   1  -4   3    2.72    0.39 
   1  -4   3    2.47    0.36 
   2  -4   3   21.77    1.00 
  -2  -4  -3   22.24    1.02 
  -2  -4  -3   21.40    1.06 
   3  -4   3    3.82    0.48 
  -3  -4  -3    2.99    0.54 
  -3  -4  -3    2.54    0.46 
   4  -4   3    1.64    0.50 
  -4  -4  -3    0.26    0.25 
   4   4   3    0.58    0.39 
   5  -4   3   17.73    1.12 
   5   4   3   18.18    1.03 
   6  -4   3    2.71    0.70 
  -6  -4  -3    2.73    0.70 
   6   4   3    2.99    0.62 
   7  -4   3    9.67    1.06 
  -7  -4  -3    8.40    1.08 
   7   4   3    9.45    0.92 
   8  -4   3    5.13    0.85 
  -8  -4  -3    5.93    1.08 
  -9  -4  -3   -0.36    0.95 
   9  -4   3    1.42    0.70 
  -9  -5   3   -0.65    0.92 
  -8  -5   3    1.05    0.85 
   8  -5  -3    1.42    0.65 
  -7  -5   3    0.18    0.66 
   7  -5  -3    0.45    0.65 
  -7  -5   3    0.42    0.53 
   6  -5  -3    3.68    0.73 
  -6  -5   3    2.97    0.60 
  -6  -5   3    3.49    0.73 
  -5  -5   3    2.55    0.66 
   5  -5  -3    3.19    0.63 
  -4  -5   3    1.79    0.32 
   4  -5  -3    1.17    0.51 
   3  -5  -3    8.03    0.70 
  -3  -5   3    8.85    0.76 
  -3  -5   3    8.19    0.49 
   2  -5  -3    3.19    0.50 
  -2  -5   3    2.48    0.45 
  -2  -5   3    2.78    0.33 
  -1  -5   3   16.75    0.76 
   1  -5  -3   16.33    0.75 
   1  -5  -3   15.41    0.88 
  -1  -5   3   16.66    0.91 
   0  -5   3   10.46    0.69 
   0  -5  -3   11.48    0.71 
   0  -5  -3   12.06    0.69 
   0  -5   3   11.46    0.68 
  -1  -5  -3    5.34    0.54 
  -1  -5  -3    5.31    0.55 
   1  -5   3    5.76    0.54 
   2  -5   3    8.52    0.60 
  -2  -5  -3   11.17    0.73 
   2  -5   3   12.31    0.75 
  -2  -5  -3   13.03    0.83 
  -3  -5  -3    1.92    0.53 
  -3  -5  -3    0.94    0.41 
  -4  -5  -3    3.55    0.63 
  -4  -5  -3    3.37    0.57 
   4  -5   3    3.09    0.54 
  -5  -5  -3   -0.23    0.34 
   5  -5   3   -0.13    0.52 
   5   5   3    0.70    0.48 
  -6  -5  -3    4.81    0.81 
   6  -5   3    3.51    0.78 
   6   5   3    5.21    0.70 
  -7  -5  -3    7.09    1.02 
   7  -5   3    7.08    0.91 
   7   5   3    7.48    0.86 
  -8  -5  -3    4.44    1.07 
   8  -5   3    4.54    0.84 
  -9  -5  -3   -0.08    1.01 
   9  -5   3    2.65    0.79 
  -9  -6   3    0.35    1.01 
   9  -6  -3    0.05    0.63 
  -8  -6   3    0.87    1.04 
   8  -6  -3    1.70    0.65 
   7  -6  -3    2.57    0.75 
  -7  -6   3    1.75    0.83 
  -6  -6   3    4.73    0.66 
   6  -6  -3    4.50    0.77 
  -6  -6   3    4.26    0.81 
  -5  -6   3    7.55    0.84 
   5  -6  -3    6.68    0.83 
  -4  -6   3   -0.17    0.29 
   4  -6  -3   -0.02    0.48 
  -4  -6   3    1.21    0.32 
   3  -6  -3   49.80    1.99 
  -3  -6   3   50.19    1.74 
  -3  -6   3   50.70    2.06 
  -2  -6   3    0.59    0.31 
   2  -6  -3    0.34    0.42 
  -2  -6   3   -0.15    0.41 
   2  -6  -3    0.15    0.19 
  -1  -6   3   12.15    0.71 
  -1  -6   3   10.20    0.77 
   1  -6  -3   10.92    0.62 
   0  -6  -3    9.67    0.75 
   0  -6   3    9.32    0.64 
   0  -6   3   10.28    0.74 
   1  -6   3   14.99    0.82 
  -1  -6  -3   14.47    0.87 
   1  -6   3   14.42    0.83 
  -1  -6  -3   13.84    0.85 
  -2  -6  -3    1.34    0.45 
   2  -6   3    0.38    0.32 
  -2  -6  -3    1.67    0.50 
   2  -6   3    1.89    0.47 
  -3  -6  -3    0.25    0.42 
  -3  -6  -3    0.52    0.54 
   3  -6   3    0.11    0.29 
   3  -6   3    0.04    0.31 
  -4  -6  -3   11.97    0.88 
  -4  -6  -3    9.95    0.98 
   4  -6   3   10.77    0.72 
   5  -6   3    2.56    0.69 
  -5  -6  -3    2.89    0.76 
   5   6   3    3.40    0.61 
   6  -6   3    2.87    0.76 
  -6  -6  -3    4.61    0.80 
   6   6   3    3.71    0.69 
   7  -6   3    0.69    0.63 
  -7  -6  -3    0.04    0.63 
   8  -6   3    4.36    0.89 
  -8  -6  -3    5.02    1.16 
   8  -7  -3    0.54    0.65 
  -8  -7   3    1.31    1.00 
  -7  -7   3    2.11    0.73 
   7  -7  -3    1.87    0.70 
   6  -7  -3    1.69    0.74 
  -6  -7   3    0.99    0.63 
  -5  -7   3    6.79    0.93 
   5  -7  -3    5.09    0.83 
   4  -7  -3    0.85    0.54 
  -4  -7   3    1.20    0.66 
  -4  -7   3    0.91    0.37 
  -3  -7   3    8.52    0.65 
   3  -7  -3    8.35    0.84 
  -3  -7   3    9.14    0.91 
  -2  -7   3    5.61    0.53 
  -2  -7   3    5.43    0.72 
   2  -7  -3    5.72    0.40 
  -1  -7   3    3.66    0.58 
   1  -7  -3    4.83    0.46 
  -1  -7   3    3.86    0.51 
   0  -7  -3   14.36    0.95 
   0  -7   3   12.80    0.90 
   0  -7  -3   14.35    0.87 
   0  -7   3   14.00    0.85 
   1  -7   3   10.36    0.76 
  -1  -7  -3   10.95    0.85 
  -1  -7  -3   10.46    0.81 
   1  -7   3   10.51    0.77 
   2  -7   3    2.84    0.57 
  -2  -7  -3    1.72    0.49 
   2  -7   3    3.05    0.48 
  -2  -7  -3    2.58    0.59 
   3  -7   3    3.56    0.61 
  -3  -7  -3    3.84    0.62 
   3  -7   3    3.59    0.48 
  -3  -7  -3    2.97    0.70 
   4  -7   3    2.94    0.62 
  -4  -7  -3    2.45    0.73 
  -4  -7  -3    3.44    0.65 
  -5  -7  -3    1.49    0.79 
   5  -7   3    1.15    0.66 
  -5  -7  -3   -0.06    0.55 
   5   7   3    0.66    0.52 
   6  -7   3    0.66    0.61 
  -6  -7  -3    0.18    0.59 
   6   7   3    0.59    0.57 
   7  -7   3    4.23    0.84 
  -7  -7  -3    4.92    0.89 
   8  -7   3    3.60    0.86 
  -8  -7  -3    1.32    0.87 
   8  -8  -3    0.69    0.67 
  -8  -8   3    1.26    0.99 
   7  -8  -3    1.50    0.69 
  -7  -8   3    0.65    0.67 
   6  -8  -3    0.36    0.57 
  -6  -8   3    0.42    0.64 
   5  -8  -3    0.08    0.66 
  -5  -8   3    0.76    0.66 
   4  -8  -3   17.16    1.24 
  -4  -8   3   16.12    1.34 
  -3  -8   3   25.22    1.50 
  -3  -8   3   25.14    1.16 
   3  -8  -3   26.40    1.44 
  -2  -8   3   24.19    1.17 
  -2  -8   3   26.20    1.41 
  -1  -8   3   15.43    1.05 
   1  -8  -3   11.30    0.97 
  -1  -8   3   19.25    1.01 
   0  -8  -3    9.25    0.88 
   0  -8   3   10.24    0.85 
   0  -8   3   10.68    0.78 
   0  -8  -3   10.74    0.81 
  -1  -8  -3    4.89    0.68 
  -1  -8  -3    3.47    0.64 
   1  -8   3    4.10    0.62 
   1  -8   3    6.15    0.65 
  -2  -8  -3    4.17    0.72 
  -2  -8  -3    5.09    0.69 
   2  -8   3    3.76    0.65 
   2  -8   3    4.51    0.60 
  -3  -8  -3    2.65    0.73 
   3  -8   3    1.88    0.62 
  -3  -8  -3    2.07    0.58 
   4  -8   3   10.98    0.92 
  -4  -8  -3   14.38    1.28 
  -4  -8  -3   11.94    0.96 
  -5  -8  -3    1.19    0.69 
   5  -8   3    1.06    0.57 
  -5  -8  -3    0.62    0.58 
   6  -8   3    3.97    0.81 
  -6  -8  -3    4.01    0.90 
  -7  -8  -3    1.05    0.73 
   7  -8   3    2.29    0.79 
  -8  -8  -3    4.73    0.99 
   8  -8   3    3.28    1.13 
   7  -9  -3    2.85    0.82 
  -7  -9   3    2.97    0.79 
  -6  -9   3    0.86    0.69 
   6  -9  -3    1.03    0.66 
  -5  -9   3    2.73    0.80 
   5  -9  -3    1.61    0.62 
   4  -9  -3    0.76    0.60 
  -4  -9   3    0.47    0.76 
   3  -9  -3   -0.84    0.51 
  -3  -9   3    0.53    0.70 
  -3  -9   3   -0.11    0.41 
  -2  -9   3    7.44    0.91 
   2  -9  -3    6.17    0.79 
  -2  -9   3    7.34    0.72 
   1  -9  -3    8.86    0.91 
  -1  -9   3    8.95    0.91 
  -1  -9   3    8.37    0.79 
   0  -9  -3    1.63    0.60 
   0  -9   3    0.59    0.52 
   0  -9  -3    2.09    0.55 
   0  -9   3    1.01    0.57 
   1  -9   3    8.25    0.84 
  -1  -9  -3    8.84    0.89 
   1  -9   3    9.81    0.84 
  -1  -9  -3    9.05    0.88 
  -2  -9  -3    9.48    0.91 
   2  -9   3   10.69    0.83 
  -2  -9  -3   11.28    1.05 
   2  -9   3   10.08    0.94 
  -3  -9  -3    0.57    0.72 
   3  -9   3    0.75    0.57 
  -3  -9  -3    0.65    0.56 
  -4  -9  -3    0.60    0.76 
   4  -9   3   -0.61    0.49 
  -4  -9  -3    0.45    0.55 
  -5  -9  -3    2.71    0.71 
  -5  -9  -3    4.04    0.82 
   5  -9   3    3.41    0.75 
  -6  -9  -3    1.30    0.81 
   6  -9   3    3.12    0.81 
  -7  -9  -3    1.35    0.95 
   7  -9   3    2.00    0.90 
   7 -10  -3    2.03    0.89 
  -7 -10   3    1.58    0.83 
   6 -10  -3    0.22    0.62 
  -6 -10   3    0.67    0.76 
   5 -10  -3   -1.30    0.53 
  -5 -10   3    0.86    0.73 
   4 -10  -3   12.19    1.14 
  -4 -10   3   11.52    1.20 
  -3 -10   3    1.93    0.82 
   3 -10  -3    2.13    0.60 
  -2 -10   3   36.97    1.69 
   2 -10  -3   38.25    1.85 
  -2 -10   3   40.54    1.95 
   1 -10  -3    7.68    0.92 
  -1 -10   3    8.28    0.84 
  -1 -10   3    8.45    0.96 
   0 -10  -3    5.67    0.76 
   0 -10   3    7.01    0.85 
   0 -10   3    6.26    0.80 
   0 -10  -3    5.66    0.86 
  -1 -10  -3   -0.69    0.53 
  -1 -10  -3    0.14    0.56 
   1 -10   3    0.81    0.59 
   1 -10   3    0.30    0.51 
  -2 -10  -3    0.70    0.60 
   2 -10   3    0.22    0.55 
  -2 -10  -3   -0.51    0.62 
   3 -10   3    2.77    0.79 
  -3 -10  -3    3.51    0.73 
  -3 -10  -3    2.67    0.88 
  -4 -10  -3    0.51    0.61 
   4 -10   3   -0.53    0.55 
  -4 -10  -3    1.10    0.69 
  -5 -10  -3    4.83    0.97 
   5 -10   3    6.88    0.96 
  -5 -10  -3    4.92    0.85 
  -6 -10  -3    0.26    0.78 
   6 -10   3    1.22    0.73 
   6 -11  -3    0.43    0.88 
  -6 -11   3    0.14    1.02 
   5 -11  -3    0.71    0.65 
  -5 -11   3   -0.85    0.64 
   4 -11  -3    0.39    0.58 
  -4 -11   3    0.22    0.70 
   3 -11  -3    2.19    0.66 
  -3 -11   3    0.87    0.68 
  -2 -11   3   -0.17    0.54 
   2 -11  -3   -0.06    0.58 
  -2 -11   3    0.29    0.72 
  -1 -11   3   -0.42    0.52 
  -1 -11   3    0.52    0.69 
   1 -11  -3    0.85    0.72 
   0 -11   3    1.45    0.69 
   0 -11  -3    0.00    0.72 
   0 -11   3    1.50    0.63 
  -1 -11  -3    0.74    0.69 
   1 -11   3    2.46    0.70 
  -1 -11  -3    0.87    0.68 
   2 -11   3    0.40    0.69 
  -2 -11  -3    0.38    0.70 
  -2 -11  -3   -0.09    0.63 
  -3 -11  -3    0.71    0.64 
   3 -11   3    0.43    0.79 
  -3 -11  -3   -1.06    0.58 
   4 -11   3    0.51    0.81 
  -4 -11  -3   -0.75    0.62 
  -4 -11  -3    0.94    0.72 
  -5 -11  -3    1.36    0.82 
   5 -11   3    1.54    0.74 
   6 -11   3    1.38    0.75 
  -6 -11  -3   -0.68    1.08 
   5 -12  -3    1.46    1.02 
  -5 -12   3    1.48    1.00 
  -4 -12   3    1.69    0.78 
   4 -12  -3    0.76    0.63 
  -3 -12   3    2.58    0.87 
   3 -12  -3    4.32    0.84 
   2 -12  -3    0.68    0.77 
  -2 -12   3   -0.45    0.61 
   1 -12  -3    5.89    1.06 
  -1 -12   3    6.83    0.89 
  -1 -12   3    6.80    1.01 
   0 -12  -3    0.59    0.86 
   0 -12   3    2.01    0.73 
   1 -12   3    3.81    0.89 
  -1 -12  -3    1.13    0.85 
   2 -12   3    2.56    0.89 
  -2 -12  -3    1.24    0.72 
  -2 -12  -3    1.55    0.83 
  -3 -12  -3    0.14    0.75 
  -3 -12  -3    0.34    0.68 
   3 -12   3   -0.13    0.84 
  -4 -12  -3    3.63    0.92 
   4 -12   3    4.39    1.12 
  -4 -12  -3    4.02    1.00 
  -5 -12  -3    0.75    0.87 
   5 -12   3    0.66    0.82 
   3 -13  -3   -0.59    0.65 
  -3 -13   3    0.93    0.77 
   2 -13  -3   -0.20    0.90 
  -2 -13   3    1.38    0.76 
  -1 -13   3    0.04    0.79 
   1 -13  -3    0.62    0.96 
   0 -13  -3    1.18    0.97 
   0 -13   3    1.87    0.87 
  -1 -13  -3    0.60    0.90 
   1 -13   3    0.36    0.92 
   2 -13   3    2.22    1.04 
  -2 -13  -3    1.30    0.99 
   3 -13   3    3.84    1.10 
  -3 -13  -3    1.58    0.99 
  -3 -13  -3   -0.32    0.73 
 -10   0   4    0.43    0.63 
  -9   0   4    4.59    0.78 
  -8   0   4    0.19    0.52 
  -8   0   4   -0.19    0.55 
  -7   0   4    8.61    0.80 
  -7   0   4    7.77    0.86 
   6   0  -4    0.92    0.31 
  -6   0   4    2.59    0.51 
  -6   0   4    2.14    0.56 
  -5   0   4   12.83    0.99 
  -5   0   4   14.10    0.81 
   5   0  -4   13.80    0.69 
  -4   0   4   20.30    0.94 
   4   0  -4   21.05    0.82 
  -4   0   4   19.77    1.03 
   3   0  -4    9.56    0.48 
  -3   0   4   10.48    0.62 
  -3   0   4    9.97    0.71 
  -2   0   4   23.08    0.94 
   2   0  -4   23.87    0.83 
   1   0  -4   91.08    2.81 
  -1   0   4   89.63    2.90 
   0   0   4    2.72    0.31 
   0   0  -4    2.56    0.34 
   1   0   4    6.45    0.45 
   2   0   4   -0.34    0.16 
  -2   0  -4   -0.03    0.31 
   3   0   4    4.48    0.49 
  -3   0  -4    5.62    0.55 
  -4   0  -4    2.26    0.46 
   4   0   4    1.77    0.42 
  -5   0  -4    4.10    0.60 
   5   0   4    4.07    0.58 
   6   0   4    5.19    0.72 
  -6   0  -4    5.22    0.71 
  -7   0  -4    1.26    0.59 
   7   0   4    1.51    0.64 
   8   0   4    2.29    0.69 
  -8   0  -4    0.94    0.67 
   9   0   4    1.68    0.73 
  -9   0  -4    2.58    0.90 
 -10  -1   4    1.76    0.72 
  -9  -1   4    0.88    0.60 
  -9   1   4    1.63    0.64 
  -8  -1   4    3.30    0.75 
  -8  -1   4    4.33    0.72 
  -8   1   4    4.62    0.73 
  -7  -1   4    4.81    0.74 
  -7  -1   4    3.63    0.66 
  -7   1   4    3.06    0.68 
  -7   1   4    3.30    0.58 
  -6  -1   4    7.89    0.79 
   6  -1  -4    6.82    0.62 
  -6  -1   4    6.74    0.72 
  -6   1   4    6.71    0.62 
  -6   1   4    6.78    0.78 
  -5  -1   4   30.44    1.39 
  -5  -1   4   29.27    1.32 
   5   1  -4   30.33    1.09 
  -5   1   4   30.52    1.24 
  -5   1   4   28.15    1.39 
   4  -1  -4    4.07    0.40 
  -4  -1   4    4.22    0.50 
  -4  -1   4    4.59    0.52 
  -4   1   4    4.40    0.51 
   4   1  -4    3.81    0.30 
  -4   1   4    4.40    0.42 
  -3  -1   4    2.30    0.38 
   3  -1  -4    2.22    0.31 
  -3   1   4    1.77    0.29 
  -2  -1   4   13.99    0.72 
   2  -1  -4   13.60    0.64 
  -2   1   4   13.89    0.74 
  -2   1   4   13.07    0.61 
  -1  -1   4    1.36    0.30 
  -1  -1   4    1.55    0.20 
   1  -1  -4    1.35    0.27 
   0  -1  -4  116.92    3.62 
   0  -1   4  112.97    3.58 
  -1  -1  -4    2.96    0.37 
  -1  -1  -4    3.30    0.41 
   1  -1   4    3.25    0.37 
   3  -1   4    6.29    0.57 
  -3  -1  -4    5.32    0.55 
   3   1   4    6.35    0.55 
  -3   1  -4    6.67    0.56 
  -4  -1  -4    1.21    0.44 
   4  -1   4    1.52    0.41 
  -4   1  -4    1.62    0.41 
   4   1   4    1.67    0.41 
   5  -1   4   11.05    0.83 
  -5  -1  -4   10.75    0.87 
  -5   1  -4   10.64    0.87 
   5   1   4   11.62    0.83 
   6  -1   4    9.22    0.89 
  -6  -1  -4    8.85    0.89 
   6   1   4    9.77    0.87 
  -6   1  -4    8.33    0.81 
   7  -1   4    7.72    0.91 
  -7  -1  -4    6.55    0.84 
  -7   1  -4    7.03    0.82 
   7   1   4    5.79    0.81 
  -8  -1  -4    1.84    0.70 
   8  -1   4    0.85    0.60 
  -8   1  -4    1.06    0.64 
   8   1   4    1.35    0.75 
   9  -1   4   -0.14    0.64 
  -9  -1  -4   -0.06    0.81 
   9   1   4    1.74    0.69 
 -10  -2   4   -0.80    0.57 
  -9  -2   4    0.65    0.58 
  -9  -2   4    0.42    0.77 
  -8  -2   4    1.95    0.71 
  -8  -2   4    2.86    0.70 
  -8   2   4    1.97    0.62 
  -7  -2   4    8.97    0.90 
  -7  -2   4    8.19    0.87 
   7  -2  -4    7.75    0.75 
  -7   2   4    7.63    0.88 
   6  -2  -4    5.43    0.61 
  -6  -2   4    4.36    0.65 
  -6  -2   4    4.59    0.67 
  -6   2   4    4.27    0.67 
  -6   2   4    4.01    0.50 
  -5  -2   4   10.07    0.81 
   5  -2  -4   10.33    0.73 
  -5  -2   4   12.16    0.89 
  -5   2   4   12.97    0.92 
  -5   2   4   10.83    0.65 
   5   2  -4   11.27    0.52 
  -4  -2   4   17.10    0.97 
  -4   2   4   17.60    0.76 
   3  -2  -4    5.80    0.47 
  -3  -2   4    5.78    0.53 
  -3   2   4    5.43    0.50 
  -3   2   4    5.50    0.39 
   2  -2  -4   39.79    1.41 
  -2  -2   4   39.45    1.49 
  -2   2   4   40.00    1.44 
  -2   2   4   38.17    1.31 
   1  -2  -4    6.94    0.51 
  -1  -2   4    6.57    0.36 
  -1   2   4    6.42    0.50 
   0  -2  -4   69.42    2.29 
   0  -2   4   68.59    2.31 
   0  -2   4   70.74    2.23 
   0  -2  -4   66.48    2.28 
   1  -2   4    5.25    0.44 
  -1  -2  -4    4.80    0.46 
  -2  -2  -4   25.46    1.10 
   3  -2   4   13.34    0.76 
   3   2   4   15.13    0.79 
  -4  -2  -4    0.77    0.45 
   4  -2   4    1.82    0.44 
   4   2   4    1.26    0.40 
  -4   2  -4    0.63    0.39 
   5  -2   4   12.23    0.87 
  -5  -2  -4   10.34    0.86 
   5   2   4   11.49    0.82 
  -5   2  -4   10.91    0.82 
  -6  -2  -4   15.22    1.10 
   6  -2   4   13.66    1.06 
   6   2   4   13.37    0.98 
  -6   2  -4   12.44    0.90 
   7  -2   4    2.34    0.72 
  -7  -2  -4    2.19    0.71 
  -7   2  -4    2.94    0.63 
   7   2   4    2.22    0.69 
  -8  -2  -4    7.33    1.02 
   8  -2   4    8.11    0.94 
   8   2   4    7.08    0.94 
  -8   2  -4    6.77    0.85 
  -9  -2  -4    1.78    0.95 
   9  -2   4    3.24    0.80 
 -10  -3   4    0.73    0.98 
  -9  -3   4   -0.01    0.55 
  -9  -3   4    0.12    0.79 
  -8  -3   4    4.03    0.77 
  -8  -3   4    4.59    0.82 
  -8   3   4    2.75    0.71 
  -7  -3   4    4.00    0.69 
   7  -3  -4    4.57    0.67 
  -7  -3   4    3.02    0.68 
  -7   3   4    3.76    0.75 
  -6  -3   4   14.88    1.11 
   6  -3  -4   16.43    0.99 
  -6  -3   4   16.21    1.12 
  -6   3   4   18.89    1.23 
  -5  -3   4    0.10    0.45 
   5  -3  -4    0.52    0.43 
  -5  -3   4    0.73    0.43 
  -5   3   4    1.17    0.27 
  -5   3   4    0.16    0.21 
  -4  -3   4    7.37    0.68 
   4  -3  -4    7.19    0.62 
  -4   3   4    6.70    0.62 
  -4   3   4    8.06    0.41 
  -3  -3   4    1.76    0.41 
   3  -3  -4    2.79    0.41 
  -3   3   4    2.92    0.22 
  -3   3   4    2.10    0.40 
  -1  -3   4   20.53    0.78 
   1  -3  -4   20.54    0.82 
  -1   3   4   21.12    0.87 
   0  -3   4    2.99    0.35 
   0  -3   4    2.61    0.37 
   0  -3  -4    3.36    0.37 
   0   3   4    2.79    0.26 
  -1  -3  -4   11.36    0.67 
  -2  -3  -4    2.22    0.42 
   2  -3   4    2.42    0.41 
  -2  -3  -4    2.50    0.43 
  -3  -3  -4    4.93    0.58 
   3  -3   4    3.36    0.46 
  -3  -3  -4    4.62    0.55 
   3   3   4    4.41    0.50 
   4  -3   4    7.55    0.71 
   4   3   4    7.90    0.69 
   5  -3   4   10.85    0.89 
  -5  -3  -4   11.87    1.00 
   5   3   4   12.23    0.89 
   6  -3   4    6.67    0.84 
  -6  -3  -4    6.90    0.87 
   6   3   4    4.82    0.70 
  -7  -3  -4    1.45    0.72 
   7  -3   4    0.84    0.69 
   7   3   4    0.67    0.65 
  -7   3  -4    1.55    0.54 
   8  -3   4    3.84    0.78 
  -8  -3  -4    2.12    0.93 
   8   3   4    3.03    0.80 
  -9  -3  -4    1.10    0.94 
   9  -3   4    0.78    0.70 
  -9  -4   4    0.58    0.86 
  -8  -4   4    2.03    0.79 
   8  -4  -4    1.69    0.69 
  -8  -4   4    2.54    0.68 
  -7  -4   4    2.08    0.67 
   7  -4  -4    0.64    0.55 
  -7  -4   4    1.35    0.58 
   6  -4  -4   16.04    1.03 
  -6  -4   4   15.99    1.16 
  -6  -4   4   14.44    1.11 
  -6   4   4   14.96    1.12 
   5  -4  -4    2.55    0.55 
  -5  -4   4    2.45    0.59 
   4  -4  -4    1.47    0.45 
  -4  -4   4    2.02    0.52 
  -4   4   4    1.42    0.42 
   3  -4  -4   31.87    1.33 
  -3  -4   4   31.26    1.04 
  -3   4   4   32.00    1.35 
  -2  -4   4    0.25    0.20 
  -2  -4   4    0.75    0.36 
   2  -4  -4    0.89    0.36 
  -2   4   4    0.44    0.30 
  -1  -4   4    1.87    0.41 
  -1  -4   4    2.10    0.31 
   1  -4  -4    2.54    0.32 
   1  -4  -4    1.97    0.40 
  -1   4   4    2.49    0.32 
   0  -4  -4   24.01    0.99 
   0  -4   4   25.40    1.00 
   0   4   4   23.79    0.90 
  -1  -4  -4    7.76    0.60 
  -2  -4  -4   28.25    1.26 
  -2  -4  -4   28.05    1.24 
   2  -4   4   29.31    1.23 
  -3  -4  -4    6.92    0.68 
  -3  -4  -4    7.28    0.71 
   4  -4   4   12.06    0.82 
   4   4   4   12.03    0.81 
   5  -4   4   -0.02    0.52 
  -5  -4  -4   -0.57    0.34 
   5   4   4    1.76    0.54 
  -6  -4  -4   11.69    1.09 
   6  -4   4   13.11    1.13 
   6   4   4   10.29    0.94 
   7  -4   4    6.99    0.91 
  -7  -4  -4    6.34    1.00 
   7   4   4    5.58    0.83 
  -8  -4  -4    3.10    0.96 
   8  -4   4    2.56    0.74 
   8   4   4    3.43    0.82 
  -9  -4  -4    2.70    1.07 
   9  -4   4    3.26    0.86 
  -9  -5   4    0.95    0.96 
   8  -5  -4    2.03    0.69 
  -8  -5   4    0.34    0.87 
  -7  -5   4    3.59    0.68 
   7  -5  -4    3.94    0.73 
  -7  -5   4    4.17    0.85 
  -6  -5   4    2.35    0.70 
  -6  -5   4    1.20    0.53 
   6  -5  -4    1.29    0.57 
   5  -5  -4    3.67    0.63 
  -5  -5   4    4.38    0.69 
   4  -5  -4    5.15    0.65 
  -4   5   4    4.56    0.60 
  -3  -5   4   12.37    0.56 
  -3  -5   4   12.62    0.89 
   3  -5  -4   12.41    0.85 
  -3   5   4   12.00    0.84 
  -2  -5   4    8.19    0.71 
   2  -5  -4    7.47    0.64 
  -2  -5   4    8.75    0.51 
  -1  -5   4    1.78    0.32 
  -1  -5   4    2.39    0.45 
   1  -5  -4    2.72    0.33 
   1  -5  -4    2.39    0.45 
   0  -5   4   11.50    0.73 
   0  -5   4   11.31    0.66 
   0  -5  -4   10.03    0.65 
  -1  -5  -4   10.65    0.71 
   1  -5   4   10.68    0.69 
   1  -5   4   11.45    0.69 
  -1  -5  -4   12.12    0.79 
   2  -5   4    0.37    0.37 
   2  -5   4   -0.30    0.28 
  -2  -5  -4   -0.16    0.35 
  -2  -5  -4   -0.14    0.37 
  -3  -5  -4   16.43    0.97 
  -3  -5  -4   16.24    1.07 
  -4  -5  -4   17.37    1.05 
  -4  -5  -4   14.88    1.04 
   5  -5   4   10.36    0.96 
  -5  -5  -4    8.01    0.92 
   5   5   4   10.82    0.88 
  -6  -5  -4    4.07    0.77 
   6  -5   4    3.19    0.77 
   6   5   4    2.80    0.66 
   7  -5   4    0.17    0.57 
  -7  -5  -4    1.13    0.74 
   7   5   4    0.49    0.64 
  -8  -5  -4    5.58    1.14 
   8  -5   4    6.24    0.93 
   9  -5   4    2.84    0.86 
  -9  -5  -4    0.99    1.05 
  -9  -6   4    1.86    1.08 
   8  -6  -4    0.67    0.62 
  -8  -6   4    0.94    0.93 
   7  -6  -4    2.04    0.73 
  -7  -6   4    0.59    0.81 
  -7  -6   4    1.00    0.60 
   6  -6  -4    1.44    0.64 
  -6  -6   4    0.00    0.63 
  -6  -6   4    1.14    0.51 
  -5  -6   4    6.38    0.82 
   5  -6  -4    6.69    0.83 
   4  -6  -4    7.98    0.81 
  -3  -6   4   10.53    0.59 
   3  -6  -4   10.31    0.87 
  -3  -6   4   11.78    0.95 
  -2  -6   4   18.84    1.09 
  -2  -6   4   18.54    0.85 
   2  -6  -4   18.64    1.05 
   2  -6  -4   17.75    0.72 
   1  -6  -4    1.55    0.33 
  -1  -6   4    1.22    0.43 
   1  -6  -4    1.70    0.44 
  -1  -6   4    1.21    0.36 
   0  -6   4    9.25    0.73 
   0  -6   4   10.34    0.66 
   0  -6  -4   10.96    0.76 
   1  -6   4    7.51    0.62 
   1  -6   4    6.95    0.62 
  -1  -6  -4    6.81    0.65 
  -1  -6  -4    7.68    0.69 
   2  -6   4    2.07    0.42 
   2  -6   4    1.64    0.47 
  -2  -6  -4    1.59    0.51 
  -2  -6  -4    2.34    0.50 
  -3  -6  -4    5.62    0.72 
  -3  -6  -4    6.26    0.70 
   3  -6   4    5.81    0.66 
   3  -6   4    7.05    0.60 
  -4  -6  -4    0.99    0.54 
  -4  -6  -4    0.11    0.62 
   4  -6   4    0.22    0.29 
  -5  -6  -4    4.04    0.80 
   5  -6   4    3.84    0.76 
   5   6   4    2.31    0.62 
  -6  -6  -4   -0.36    0.56 
   6  -6   4    1.27    0.60 
   6   6   4    0.30    0.56 
   7  -6   4   10.11    1.09 
  -7  -6  -4    8.52    1.06 
   7   6   4    9.45    1.01 
  -8  -6  -4   -0.06    0.92 
   8  -6   4    0.68    0.69 
  -8  -7   4    0.63    0.98 
   8  -7  -4    1.07    0.70 
   7  -7  -4    6.05    0.85 
  -7  -7   4    4.89    0.98 
   6  -7  -4    3.16    0.77 
  -6  -7   4    2.70    0.74 
  -5  -7   4   18.58    1.28 
   5  -7  -4   18.84    1.25 
  -4  -7   4   11.09    1.07 
   4  -7  -4   11.59    1.02 
  -3  -7   4   14.19    0.77 
   3  -7  -4   14.99    1.06 
  -3  -7   4   15.87    1.17 
  -2  -7   4    6.27    0.77 
  -2  -7   4    5.89    0.55 
   2  -7  -4    5.68    0.67 
  -1  -7   4    0.96    0.49 
   1  -7  -4    1.83    0.38 
  -1  -7   4    2.09    0.42 
   0  -7   4    1.25    0.48 
   0  -7   4    1.75    0.45 
   0  -7  -4    2.82    0.56 
   0  -7  -4    2.72    0.47 
  -1  -7  -4    3.09    0.54 
  -1  -7  -4    3.99    0.57 
   1  -7   4    2.49    0.51 
   1  -7   4    2.77    0.50 
  -2  -7  -4   38.73    1.65 
  -2  -7  -4   36.54    1.68 
   2  -7   4   38.57    1.54 
   2  -7   4   36.80    1.63 
  -3  -7  -4    9.96    0.87 
  -3  -7  -4    8.48    0.93 
   3  -7   4    9.68    0.76 
   3  -7   4    8.71    0.87 
  -4  -7  -4   24.51    1.40 
  -4  -7  -4   26.66    1.57 
   4  -7   4   25.25    1.38 
  -5  -7  -4   -0.35    0.73 
  -5  -7  -4    1.22    0.63 
   5  -7   4    0.53    0.51 
   5   7   4    0.00    0.55 
  -6  -7  -4    2.89    0.75 
   6  -7   4    3.04    0.75 
   6   7   4    2.70    0.69 
  -7  -7  -4    0.03    0.70 
   7  -7   4    3.35    0.81 
   8  -7   4    0.14    0.81 
  -8  -7  -4    0.59    0.79 
   8  -8  -4    5.77    0.93 
  -8  -8   4    4.60    1.21 
   7  -8  -4    0.68    0.64 
  -7  -8   4    0.87    0.69 
  -6  -8   4    2.46    0.76 
   6  -8  -4    3.58    0.72 
  -5  -8   4    4.08    0.82 
   5  -8  -4    0.93    0.65 
  -4  -8   4    3.17    0.87 
   4  -8  -4    2.57    0.68 
   3  -8  -4   10.74    1.01 
  -3  -8   4   11.50    0.77 
  -3  -8   4   10.37    1.06 
  -2  -8   4    7.73    0.67 
  -2  -8   4    7.16    0.86 
   1  -8  -4    2.26    0.40 
   0  -8   4   15.78    0.97 
   0  -8   4   15.85    1.05 
   0  -8  -4   16.85    1.01 
   0  -8  -4   17.96    1.15 
  -1  -8  -4    6.54    0.78 
   1  -8   4    6.99    0.75 
   1  -8   4    7.21    0.72 
  -1  -8  -4    7.26    0.77 
   2  -8   4   21.17    1.13 
  -2  -8  -4   19.91    1.21 
  -2  -8  -4   22.61    1.36 
   2  -8   4   19.89    1.19 
  -3  -8  -4    1.14    0.58 
   3  -8   4    1.45    0.49 
   3  -8   4    0.70    0.54 
  -3  -8  -4    1.22    0.70 
  -4  -8  -4    4.38    0.72 
   4  -8   4    5.40    0.79 
  -4  -8  -4    4.20    0.90 
   5  -8   4   -0.07    0.50 
  -5  -8  -4   -0.35    0.64 
  -5  -8  -4    0.44    0.57 
   6  -8   4    1.13    0.66 
  -6  -8  -4    2.29    0.79 
   6   8   4    0.84    0.65 
  -7  -8  -4    0.51    0.73 
   7  -8   4    0.25    0.65 
  -7  -9   4    1.02    0.71 
   7  -9  -4    0.11    0.61 
   6  -9  -4    1.82    0.65 
  -6  -9   4    0.70    0.70 
  -5  -9   4    0.45    0.63 
   5  -9  -4    0.90    0.57 
   4  -9  -4    3.31    0.71 
  -4  -9   4    1.84    0.74 
   3  -9  -4    0.87    0.65 
  -3  -9   4    0.67    0.72 
  -2  -9   4    2.41    0.51 
  -2  -9   4    2.43    0.74 
   2  -9  -4    2.11    0.61 
  -1  -9   4    9.31    0.96 
  -1  -9   4   10.22    0.85 
   1  -9  -4   10.16    0.96 
   0  -9   4    7.89    0.83 
   0  -9   4    7.44    0.75 
   0  -9  -4    7.28    0.74 
   0  -9  -4    8.65    0.93 
   1  -9   4   12.94    0.97 
  -1  -9  -4   16.13    1.12 
  -1  -9  -4   12.40    1.07 
   1  -9   4   16.67    1.08 
   2  -9   4    6.32    0.75 
  -2  -9  -4    6.14    0.78 
   2  -9   4    6.05    0.78 
  -2  -9  -4    5.82    0.87 
  -3  -9  -4   11.68    1.17 
   3  -9   4   13.67    1.11 
  -3  -9  -4   14.68    1.16 
   4  -9   4    3.89    0.76 
  -4  -9  -4    3.21    0.72 
  -4  -9  -4    3.93    0.84 
  -5  -9  -4    3.24    0.74 
  -5  -9  -4    2.55    0.83 
   5  -9   4    2.42    0.71 
  -6  -9  -4    0.88    0.78 
   6  -9   4    1.48    0.67 
  -7  -9  -4    0.05    1.05 
   7  -9   4    2.60    1.08 
   7 -10  -4    2.69    0.89 
  -7 -10   4    2.44    0.88 
  -6 -10   4    4.54    1.00 
   6 -10  -4    3.81    0.81 
   5 -10  -4   -0.31    0.54 
  -5 -10   4   -0.06    0.72 
   4 -10  -4   -0.18    0.56 
  -4 -10   4    0.67    0.68 
  -3 -10   4    0.14    0.64 
   3 -10  -4    0.25    0.53 
  -2 -10   4    0.93    0.71 
  -2 -10   4   -0.62    0.43 
   2 -10  -4    0.81    0.56 
   1 -10  -4    1.16    0.61 
  -1 -10   4    2.42    0.74 
  -1 -10   4    2.13    0.58 
   0 -10   4    0.14    0.60 
   0 -10   4    1.02    0.54 
   0 -10  -4    0.98    0.68 
   1 -10   4    0.18    0.49 
   1 -10   4    0.10    0.56 
  -1 -10  -4    1.91    0.66 
  -1 -10  -4    0.88    0.62 
  -2 -10  -4    1.43    0.64 
   2 -10   4    0.36    0.57 
  -2 -10  -4    1.38    0.73 
  -3 -10  -4    0.08    0.75 
  -3 -10  -4    1.05    0.63 
   3 -10   4    0.46    0.70 
   4 -10   4    0.38    0.68 
  -4 -10  -4    0.88    0.71 
  -4 -10  -4    0.50    0.67 
  -5 -10  -4    5.13    1.02 
   5 -10   4    4.97    0.86 
  -5 -10  -4    3.96    0.88 
  -6 -10  -4    2.31    0.94 
   6 -10   4    1.00    0.72 
  -6 -11   4    3.44    1.19 
   6 -11  -4    2.02    0.99 
  -5 -11   4   -0.95    0.69 
   5 -11  -4    0.57    0.65 
   4 -11  -4    2.38    0.72 
  -4 -11   4    2.13    0.77 
  -3 -11   4    0.66    0.73 
   3 -11  -4    0.96    0.61 
  -2 -11   4    0.15    0.61 
   2 -11  -4    0.45    0.59 
  -1 -11   4    1.31    0.79 
  -1 -11   4    1.42    0.60 
   1 -11  -4    0.77    0.69 
   0 -11   4    4.32    0.77 
   0 -11  -4    1.82    0.81 
   0 -11   4    4.26    0.81 
  -1 -11  -4    2.57    0.84 
   1 -11   4    2.20    0.66 
  -2 -11  -4    1.36    0.75 
   2 -11   4    1.72    0.80 
  -2 -11  -4    1.74    0.76 
  -3 -11  -4    1.17    0.80 
  -3 -11  -4    1.59    0.72 
   3 -11   4    2.21    0.85 
   4 -11   4    1.38    0.92 
  -4 -11  -4    0.89    0.74 
  -4 -11  -4    0.26    0.77 
  -5 -11  -4    2.61    0.94 
  -5 -11  -4    1.70    0.88 
   5 -11   4    1.58    0.80 
   5 -12  -4    0.16    0.90 
  -5 -12   4    0.08    1.04 
  -4 -12   4   -1.59    0.65 
   4 -12  -4    0.15    0.64 
   3 -12  -4    3.63    0.80 
  -3 -12   4    3.07    0.86 
  -2 -12   4    0.68    0.66 
   2 -12  -4    0.20    0.63 
   1 -12  -4    0.69    0.87 
  -1 -12   4   -0.86    0.56 
  -1 -12   4    1.51    0.69 
   0 -12  -4    2.25    0.93 
   0 -12   4    2.72    0.77 
  -1 -12  -4    1.55    0.87 
   1 -12   4    1.74    0.79 
  -2 -12  -4    0.90    0.83 
  -2 -12  -4    2.17    0.70 
   2 -12   4    1.63    0.81 
   3 -12   4   -0.23    0.88 
  -3 -12  -4    0.93    0.91 
  -3 -12  -4    0.77    0.70 
   4 -12   4    0.23    1.01 
  -4 -12  -4    0.67    0.77 
  -4 -12  -4    0.12    0.89 
  -3 -13   4    1.56    0.81 
   3 -13  -4    2.10    0.75 
  -2 -13   4   -0.21    0.72 
   2 -13  -4    0.78    0.88 
   1 -13  -4    0.82    1.00 
   0 -13   4    1.17    0.88 
   0 -13  -4    0.72    0.98 
   1 -13   4    2.48    0.93 
  -1 -13  -4    2.09    1.02 
  -2 -13  -4    0.33    0.94 
   2 -13   4    1.80    0.98 
   3 -13   4    1.15    1.00 
  -3 -13  -4   -0.46    0.88 
 -10   0   5    1.61    0.69 
  -9   0   5    3.40    0.77 
  -8   0   5    0.31    0.53 
  -8   0   5    0.55    0.51 
  -7   0   5    8.62    0.94 
  -7   0   5    7.62    0.77 
  -6   0   5   24.85    1.38 
  -6   0   5   22.46    1.19 
  -5   0   5    7.38    0.66 
   5   0  -5    9.46    0.55 
  -5   0   5    9.06    0.77 
  -4   0   5   12.48    0.83 
  -4   0   5   10.90    0.71 
   4   0  -5   11.30    0.56 
  -3   0   5   35.70    1.36 
   3   0  -5   35.31    1.21 
   2   0  -5    1.28    0.24 
  -2   0   5    0.79    0.29 
   1   0  -5   60.94    1.98 
   0   0   5    1.75    0.30 
   1   0   5    0.46    0.29 
  -3   0  -5    0.43    0.34 
   3   0   5    0.63    0.35 
   4   0   5   -0.37    0.35 
  -4   0  -5    0.41    0.41 
   5   0   5    0.98    0.49 
  -5   0  -5    0.75    0.49 
  -6   0  -5    5.38    0.76 
   6   0   5    5.35    0.76 
   7   0   5   -0.18    0.60 
  -7   0  -5    0.37    0.58 
   8   0   5    1.58    0.63 
  -8   0  -5    1.09    0.68 
  -9   0  -5   -0.18    0.83 
   9   0   5    0.32    0.67 
 -10  -1   5    0.63    0.66 
 -10   1   5    0.52    0.67 
  -9  -1   5    5.97    0.89 
  -9   1   5    4.78    0.83 
  -8  -1   5    0.88    0.61 
  -8  -1   5    1.16    0.56 
  -8   1   5    0.60    0.56 
  -7  -1   5    3.31    0.65 
  -7  -1   5    2.60    0.69 
  -7   1   5    4.73    0.63 
  -7   1   5    4.98    0.79 
   6  -1  -5   32.96    1.38 
  -6  -1   5   36.43    1.59 
  -6  -1   5   34.79    1.64 
  -6   1   5   35.59    1.67 
  -6   1   5   33.55    1.43 
  -5  -1   5   12.97    0.94 
  -5  -1   5   11.36    0.81 
  -5   1   5   12.75    0.95 
   5   1  -5   11.29    0.55 
  -5   1   5   11.93    0.75 
   4  -1  -5   18.28    0.79 
  -4  -1   5   16.61    0.93 
  -4   1   5   17.64    0.98 
   4   1  -5   17.70    0.64 
  -4   1   5   17.29    0.84 
   3  -1  -5   10.79    0.58 
  -3  -1   5   10.08    0.67 
  -3   1   5    9.74    0.58 
  -2  -1   5   17.48    0.85 
   2  -1  -5   17.49    0.76 
  -2  -1   5   17.49    0.62 
  -2   1   5   18.10    0.77 
  -1  -1   5    3.03    0.28 
  -1  -1   5    2.90    0.39 
   1  -1  -5    3.47    0.35 
   0  -1   5   99.99    3.16 
   0  -1  -5   99.24    3.19 
   1  -1   5   66.98    2.03 
   1   1   5   51.54    1.98 
   2  -1   5    0.21    0.21 
  -2  -1  -5    0.02    0.18 
   2   1   5    1.89    0.35 
  -3  -1  -5   11.18    0.79 
   3  -1   5   10.71    0.72 
  -3   1  -5   12.10    0.77 
   3   1   5   11.70    0.73 
  -4  -1  -5   20.47    1.07 
   4  -1   5   17.31    0.95 
  -4   1  -5   18.02    0.99 
   4   1   5   17.87    0.94 
   5  -1   5   15.85    1.00 
  -5  -1  -5   14.22    0.96 
   5   1   5   16.25    1.00 
  -5   1  -5   16.42    0.99 
   6  -1   5   13.93    1.07 
  -6  -1  -5   15.54    1.09 
  -6   1  -5   12.76    0.99 
   6   1   5   16.00    1.07 
  -7  -1  -5    6.55    0.87 
   7  -1   5    7.09    0.92 
   7   1   5    7.56    0.91 
  -7   1  -5    8.00    0.88 
   8  -1   5    3.78    0.74 
  -8  -1  -5    4.17    0.92 
  -8   1  -5    2.50    0.70 
   8   1   5    4.28    0.79 
  -9  -1  -5    1.26    0.91 
   9  -1   5    1.85    0.75 
   9   1   5    0.40    0.65 
 -10  -2   5    0.26    0.63 
  -9  -2   5    0.75    0.57 
  -9  -2   5    0.84    0.78 
  -9   2   5    1.47    0.66 
  -8  -2   5    3.66    0.76 
  -8  -2   5    2.76    0.65 
  -8   2   5    2.78    0.68 
  -7  -2   5    5.48    0.80 
  -7  -2   5    4.62    0.76 
  -7   2   5    3.44    0.74 
   6  -2  -5    9.04    0.74 
  -6  -2   5   10.51    0.90 
  -6  -2   5    9.26    0.87 
  -6   2   5   10.48    0.72 
  -6   2   5    7.90    0.83 
   5  -2  -5    5.54    0.55 
  -5  -2   5    5.21    0.64 
  -5  -2   5    5.86    0.67 
  -5   2   5    5.66    0.50 
  -4  -2   5    6.67    0.61 
   4  -2  -5    2.99    0.39 
  -4   2   5    1.58    0.31 
   3  -2  -5    5.06    0.47 
  -3  -2   5    6.81    0.61 
  -3   2   5    6.93    0.46 
  -3   2   5    7.29    0.60 
  -2  -2   5    3.70    0.47 
   2  -2  -5    4.45    0.42 
  -2   2   5    4.08    0.34 
  -2   2   5    3.96    0.42 
   1  -2  -5   16.67    0.78 
  -1  -2   5   16.03    0.65 
   0  -2   5   80.76    2.56 
   0  -2  -5   74.57    2.60 
   0  -2  -5   81.79    2.63 
  -2  -2  -5   26.10    1.27 
   2  -2   5   35.70    1.32 
  -2  -2  -5   34.27    1.36 
   2   2   5   33.97    1.32 
   3  -2   5   40.24    1.54 
   3   2   5   38.11    1.53 
   4  -2   5    0.49    0.41 
  -4  -2  -5   -0.10    0.37 
  -4   2  -5    0.07    0.36 
   4   2   5    0.90    0.40 
   5  -2   5    0.16    0.49 
  -5  -2  -5    0.97    0.54 
   5   2   5    0.65    0.47 
  -5   2  -5    0.06    0.41 
  -6  -2  -5    5.48    0.80 
   6  -2   5    7.35    0.86 
  -6   2  -5    7.24    0.77 
   6   2   5    6.11    0.79 
  -7  -2  -5    2.50    0.73 
   7  -2   5    2.37    0.74 
  -7   2  -5    3.25    0.65 
   7   2   5    2.90    0.73 
   8  -2   5    2.47    0.72 
  -8  -2  -5    2.79    0.88 
  -8   2  -5    3.31    0.70 
   8   2   5    3.57    0.72 
  -9  -2  -5    0.85    1.00 
   9  -2   5    1.93    0.73 
   9   2   5    0.84    0.66 
  -9  -3   5    0.81    0.82 
  -9  -3   5    0.55    0.54 
  -8  -3   5   -0.16    0.57 
  -8  -3   5    1.65    0.67 
  -8   3   5    0.81    0.57 
   7  -3  -5    2.82    0.64 
  -7  -3   5    2.72    0.66 
  -7  -3   5    3.01    0.67 
  -7   3   5    2.12    0.65 
   6  -3  -5    0.16    0.46 
  -6  -3   5    0.93    0.58 
  -6  -3   5    0.91    0.54 
  -6   3   5    1.19    0.53 
  -5  -3   5   14.62    1.00 
   5  -3  -5   12.87    0.83 
  -5   3   5   13.57    0.64 
  -4  -3   5    2.54    0.54 
   4  -3  -5    3.07    0.48 
  -4   3   5    3.63    0.31 
  -4   3   5    3.92    0.51 
  -3  -3   5   23.75    1.18 
   3  -3  -5   23.92    1.06 
  -3   3   5   25.68    0.90 
  -3   3   5   24.63    1.14 
  -2  -3   5   22.22    0.75 
   2  -3  -5   21.81    0.96 
  -2   3   5   21.40    0.99 
   1  -3  -5    0.13    0.27 
  -1  -3   5    0.34    0.32 
  -1  -3   5    0.41    0.22 
  -1   3   5    0.02    0.22 
   0  -3  -5    6.23    0.49 
   0  -3   5    5.44    0.45 
   0  -3   5    5.90    0.52 
   0  -3  -5    5.20    0.48 
   0   3   5    5.11    0.41 
   1  -3   5    5.31    0.48 
  -1  -3  -5    3.98    0.47 
   2  -3   5   13.63    0.76 
  -2  -3  -5   15.14    0.88 
  -2  -3  -5   14.95    0.85 
  -3  -3  -5    1.94    0.47 
  -3  -3  -5    0.93    0.45 
   3   3   5    1.45    0.40 
   4  -3   5   17.84    1.03 
   4   3   5   19.25    1.03 
  -5  -3  -5    6.26    0.78 
   5  -3   5    5.81    0.76 
   5   3   5    7.21    0.75 
  -6  -3  -5    7.88    0.91 
   6  -3   5    6.61    0.88 
   6   3   5    7.35    0.86 
   7  -3   5    7.72    0.93 
  -7  -3  -5    7.33    1.02 
   7   3   5    8.95    1.00 
   8  -3   5    3.45    0.79 
  -8  -3  -5    2.49    0.91 
   8   3   5    2.66    0.68 
  -9  -3  -5    2.58    1.04 
   9  -3   5    5.12    0.94 
  -9  -4   5   -1.12    0.48 
  -9  -4   5   -0.32    0.90 
  -8  -4   5    5.23    0.96 
  -8  -4   5    6.94    0.89 
   7  -4  -5    2.35    0.64 
  -7  -4   5    1.91    0.69 
  -7  -4   5    2.56    0.67 
  -7   4   5    2.70    0.65 
  -6  -4   5    2.49    0.61 
   6  -4  -5    2.01    0.59 
  -6  -4   5    1.36    0.63 
  -6   4   5    1.27    0.51 
   5  -4  -5    0.49    0.46 
  -5  -4   5    1.02    0.49 
  -5   4   5    0.19    0.45 
  -4  -4   5   13.51    0.96 
   4  -4  -5   12.42    0.85 
  -4   4   5   14.65    0.95 
   3  -4  -5    6.91    0.63 
  -3  -4   5    5.93    0.61 
  -3   4   5    6.98    0.60 
  -2  -4   5   14.68    0.86 
  -2  -4   5   13.75    0.58 
   2  -4  -5   13.77    0.80 
  -2   4   5   13.16    0.78 
  -1  -4   5   24.98    1.14 
   1  -4  -5   25.08    0.98 
  -1  -4   5   24.08    0.95 
   1  -4  -5   24.77    1.12 
  -1   4   5   23.28    0.99 
   0  -4  -5   27.30    1.19 
   0  -4   5   27.55    1.17 
   0  -4   5   28.28    1.08 
   0  -4  -5   24.52    1.10 
   0   4   5   27.38    0.98 
   1  -4   5   77.74    2.66 
   1  -4   5   78.15    2.67 
  -1  -4  -5   78.36    2.69 
  -2  -4  -5    8.54    0.71 
  -2  -4  -5    8.03    0.71 
   2  -4   5    8.25    0.65 
  -3  -4  -5   11.27    0.83 
  -3  -4  -5   10.05    0.85 
   3  -4   5    8.48    0.70 
  -4  -4  -5   -0.36    0.29 
   4  -4   5   -0.45    0.22 
   4   4   5    3.32    0.57 
   5  -4   5    0.62    0.51 
  -5  -4  -5    0.37    0.47 
   5   4   5    1.15    0.54 
   6  -4   5    3.73    0.79 
  -6  -4  -5    2.89    0.74 
   6   4   5    2.78    0.72 
   7  -4   5    5.24    0.83 
  -7  -4  -5    4.16    0.95 
   7   4   5    3.14    0.79 
  -8  -4  -5    1.76    1.02 
   8  -4   5    1.81    0.73 
   8   4   5    2.20    0.69 
  -9  -4  -5    2.29    1.10 
   9  -4   5    1.65    0.76 
  -9  -5   5    1.02    0.97 
  -8  -5   5    2.63    0.92 
   8  -5  -5    3.52    0.81 
  -8  -5   5    3.02    0.71 
  -7  -5   5    4.14    0.90 
  -7  -5   5    4.56    0.73 
   7  -5  -5    4.28    0.78 
  -6  -5   5   13.71    1.08 
  -6  -5   5   12.88    1.16 
   6  -5  -5   13.96    1.04 
  -6   5   5   13.48    1.08 
   5  -5  -5    6.05    0.77 
  -5  -5   5    5.68    0.81 
  -5   5   5    5.14    0.70 
   4  -5  -5   14.83    0.95 
  -4   5   5   12.69    0.96 
  -3  -5   5   14.81    0.62 
   3  -5  -5   16.66    0.96 
  -3   5   5   16.05    0.96 
   2  -5  -5    1.84    0.46 
  -2  -5   5    1.74    0.28 
  -2  -5   5    1.53    0.46 
  -2   5   5    1.43    0.36 
  -1  -5   5   12.98    0.66 
   1  -5  -5   13.99    0.69 
   1  -5  -5   13.62    0.86 
  -1  -5   5   13.01    0.86 
  -1   5   5   13.09    0.73 
   0  -5   5    3.36    0.41 
   0  -5  -5    3.51    0.48 
   0  -5   5    3.57    0.49 
   1  -5   5    8.11    0.62 
  -1  -5  -5    8.31    0.65 
   1  -5   5    8.04    0.65 
  -1  -5  -5    8.27    0.69 
   2  -5   5    0.53    0.35 
  -2  -5  -5    0.92    0.45 
   2  -5   5    0.07    0.36 
  -2  -5  -5   -0.06    0.42 
  -3  -5  -5    8.16    0.78 
   3  -5   5    6.60    0.72 
  -3  -5  -5    8.29    0.84 
  -4  -5  -5   11.23    1.04 
  -4  -5  -5   10.59    0.95 
   4   5   5   12.73    0.89 
  -5  -5  -5    1.20    0.64 
   5  -5   5    0.49    0.59 
   5   5   5    0.03    0.51 
   6  -5   5    3.65    0.76 
  -6  -5  -5    3.05    0.72 
   6   5   5    3.26    0.72 
  -7  -5  -5    1.55    0.75 
   7  -5   5    2.71    0.73 
   7   5   5    2.56    0.73 
  -8  -5  -5    1.43    0.98 
   8  -5   5    3.22    0.83 
  -9  -6   5    2.58    1.11 
  -8  -6   5    0.90    0.95 
   8  -6  -5    0.77    0.61 
  -7  -6   5    5.48    0.79 
  -7  -6   5    4.56    1.00 
   7  -6  -5    6.13    0.91 
   6  -6  -5    0.79    0.64 
  -6  -6   5    0.13    0.64 
   5  -6  -5    8.35    0.87 
  -5  -6   5    7.29    0.87 
  -3  -6   5    1.01    0.28 
   3  -6  -5    0.89    0.49 
  -3  -6   5    1.52    0.55 
  -2  -6   5   18.69    1.12 
   2  -6  -5   17.20    1.00 
  -2  -6   5   17.49    0.83 
   1  -6  -5    8.13    0.73 
   1  -6  -5    7.80    0.58 
  -1  -6   5    8.54    0.76 
  -1  -6   5   10.02    0.63 
   0  -6   5   11.94    0.83 
   0  -6  -5   12.02    0.76 
   0  -6   5   11.57    0.73 
  -1  -6  -5   20.76    1.14 
   1  -6   5   21.85    1.11 
   1  -6   5   22.88    1.08 
  -1  -6  -5   20.74    1.12 
  -2  -6  -5   12.04    0.92 
   2  -6   5    9.85    0.78 
   2  -6   5   10.19    0.79 
  -2  -6  -5   10.49    0.86 
   3  -6   5    1.52    0.51 
  -3  -6  -5    1.39    0.61 
   3  -6   5    0.93    0.44 
  -3  -6  -5    0.79    0.50 
  -4  -6  -5    0.89    0.70 
   4  -6   5    1.38    0.51 
  -4  -6  -5    1.66    0.59 
   5  -6   5    5.20    0.78 
  -5  -6  -5    5.61    0.95 
   5   6   5    6.60    0.82 
   6  -6   5    0.61    0.58 
  -6  -6  -5    0.02    0.60 
   6   6   5    1.61    0.65 
   7  -6   5    1.84    0.70 
  -7  -6  -5    1.89    0.72 
   7   6   5    2.15    0.69 
   8  -6   5    0.06    0.69 
  -8  -6  -5    0.05    0.91 
  -8  -7   5    2.07    1.02 
   8  -7  -5    0.46    0.59 
  -7  -7   5    2.54    0.93 
   7  -7  -5    2.79    0.69 
   6  -7  -5    4.98    0.82 
  -6  -7   5    3.39    0.80 
  -5  -7   5    0.01    0.55 
   5  -7  -5    0.69    0.61 
   4  -7  -5    8.13    0.89 
  -4  -7   5    9.34    1.00 
  -3  -7   5    4.65    0.78 
  -3  -7   5    5.86    0.48 
   3  -7  -5    4.36    0.68 
  -2  -7   5   23.09    1.05 
  -2  -7   5   22.31    1.30 
   2  -7  -5   21.59    1.24 
   1  -7  -5    0.18    0.29 
  -1  -7   5    0.94    0.51 
  -1  -7   5    1.68    0.42 
   1  -7  -5    0.20    0.28 
   0  -7   5    3.02    0.50 
   0  -7  -5    1.08    0.43 
   0  -7   5    2.09    0.52 
   0  -7  -5    4.33    0.54 
   1  -7   5    0.31    0.42 
   1  -7   5    0.68    0.45 
  -1  -7  -5    1.18    0.52 
  -1  -7  -5    1.74    0.53 
   2  -7   5    5.98    0.65 
  -2  -7  -5    4.32    0.67 
  -2  -7  -5    4.55    0.73 
   2  -7   5    5.07    0.69 
   3  -7   5    1.76    0.51 
   3  -7   5    1.49    0.57 
  -3  -7  -5    2.30    0.65 
  -3  -7  -5    1.27    0.61 
  -4  -7  -5    4.95    0.76 
  -4  -7  -5    4.79    0.90 
   4  -7   5    4.21    0.70 
   4  -7   5    5.35    0.65 
  -5  -7  -5    2.06    0.79 
  -5  -7  -5    1.10    0.65 
   5  -7   5    2.39    0.64 
   5   7   5    1.82    0.62 
   6  -7   5   -0.44    0.57 
  -6  -7  -5   -0.69    0.53 
   6   7   5    0.22    0.62 
   7  -7   5    1.19    0.71 
  -7  -7  -5    0.50    0.69 
   7   7   5    2.65    0.68 
  -8  -7  -5    3.91    0.95 
   8  -7   5    5.39    1.20 
   8  -8  -5    2.00    0.72 
  -8  -8   5    0.91    1.05 
   7  -8  -5    0.64    0.59 
  -7  -8   5    0.15    0.60 
   6  -8  -5    2.81    0.69 
  -6  -8   5    2.44    0.76 
  -5  -8   5    0.71    0.57 
   5  -8  -5    0.88    0.63 
   4  -8  -5    1.20    0.68 
  -4  -8   5    3.07    0.84 
   3  -8  -5    9.86    0.99 
  -3  -8   5    9.02    0.99 
  -2  -8   5    1.18    0.62 
  -2  -8   5    1.23    0.41 
   2  -8  -5    0.40    0.59 
  -1  -8   5   11.93    0.79 
  -1  -8   5   12.32    1.03 
   1  -8  -5   11.94    0.75 
   0  -8  -5    1.16    0.49 
   0  -8   5    2.77    0.59 
   0  -8  -5    2.35    0.56 
   0  -8   5    2.01    0.52 
  -1  -8  -5    7.05    0.80 
   1  -8   5    6.99    0.74 
   1  -8   5    6.44    0.75 
  -1  -8  -5    6.74    0.82 
  -2  -8  -5    2.22    0.68 
  -2  -8  -5    3.03    0.67 
   2  -8   5    1.21    0.54 
   2  -8   5    3.14    0.59 
   3  -8   5    2.08    0.57 
   3  -8   5    1.74    0.60 
  -3  -8  -5    1.77    0.63 
  -3  -8  -5    2.29    0.75 
  -4  -8  -5    5.87    1.00 
  -4  -8  -5    6.66    0.85 
   4  -8   5    4.86    0.80 
   5  -8   5    2.12    0.67 
  -5  -8  -5    1.87    0.72 
  -5  -8  -5    2.08    0.79 
   6  -8   5    1.25    0.67 
  -6  -8  -5    1.95    0.77 
   6   8   5    1.65    0.60 
   7  -8   5    0.52    0.72 
  -7  -8  -5    1.10    0.76 
  -7  -9   5    0.38    0.70 
   7  -9  -5   -0.06    0.65 
  -6  -9   5   -0.01    0.69 
   6  -9  -5    0.88    0.64 
   5  -9  -5    5.22    0.82 
  -5  -9   5    4.45    0.90 
  -4  -9   5    4.65    0.86 
   4  -9  -5    3.41    0.72 
   3  -9  -5   12.14    1.16 
  -3  -9   5   13.99    1.26 
  -2  -9   5    2.15    0.52 
   2  -9  -5    1.88    0.58 
  -2  -9   5    2.15    0.75 
  -1  -9   5    7.66    0.77 
  -1  -9   5    8.01    0.91 
   1  -9  -5    7.33    0.85 
   0  -9   5    5.25    0.68 
   0  -9  -5    3.28    0.66 
   0  -9  -5    6.09    0.72 
   0  -9   5    5.50    0.79 
  -1  -9  -5    1.36    0.64 
  -1  -9  -5    1.40    0.64 
   1  -9   5    2.26    0.57 
   1  -9   5    1.50    0.61 
   2  -9   5    4.54    0.70 
  -2  -9  -5    3.59    0.72 
   2  -9   5    3.84    0.67 
  -2  -9  -5    4.30    0.82 
  -3  -9  -5    2.18    0.82 
  -3  -9  -5    3.21    0.70 
   3  -9   5    2.26    0.72 
   4  -9   5    6.09    0.91 
  -4  -9  -5    6.61    0.89 
  -4  -9  -5    4.90    0.90 
  -5  -9  -5   -0.54    0.64 
  -5  -9  -5    0.27    0.71 
   5  -9   5    0.57    0.59 
  -6  -9  -5    1.23    0.81 
   6  -9   5    1.55    0.73 
   6   9   5    0.53    0.57 
   7  -9   5    1.05    1.00 
  -7  -9  -5    2.90    1.22 
  -7 -10   5    0.04    0.74 
   7 -10  -5    0.30    0.74 
  -6 -10   5    2.18    0.84 
   6 -10  -5    1.25    0.68 
   5 -10  -5    1.01    0.64 
  -5 -10   5   -0.28    0.70 
   4 -10  -5    4.37    0.78 
  -4 -10   5    4.95    0.86 
   3 -10  -5    0.39    0.58 
  -3 -10   5    0.08    0.63 
  -2 -10   5    1.81    0.52 
   2 -10  -5    1.23    0.59 
  -2 -10   5    1.57    0.81 
  -1 -10   5    2.06    0.72 
  -1 -10   5    1.89    0.57 
   1 -10  -5    0.99    0.61 
   0 -10   5    0.32    0.49 
   0 -10   5    0.74    0.62 
   0 -10  -5   -0.01    0.61 
   1 -10   5    1.41    0.65 
   1 -10   5    1.55    0.59 
  -1 -10  -5    1.80    0.70 
  -1 -10  -5    1.52    0.71 
  -2 -10  -5   -0.39    0.64 
   2 -10   5   -0.02    0.56 
  -2 -10  -5    0.59    0.63 
  -3 -10  -5    0.15    0.68 
   3 -10   5    1.67    0.77 
  -3 -10  -5    1.84    0.80 
  -4 -10  -5   -0.40    0.64 
  -4 -10  -5   -0.30    0.74 
   4 -10   5   -0.29    0.77 
   5 -10   5    0.09    0.64 
  -5 -10  -5   -0.59    0.82 
  -5 -10  -5    1.19    0.81 
   6 -10   5    0.84    0.72 
  -6 -10  -5    0.40    1.00 
   6 -11  -5    0.28    0.94 
  -6 -11   5    0.44    1.11 
   5 -11  -5    1.49    0.71 
  -5 -11   5    1.38    0.84 
   4 -11  -5    1.60    0.68 
  -4 -11   5    2.35    0.82 
   3 -11  -5    4.69    0.84 
  -3 -11   5    5.82    0.95 
   2 -11  -5    6.73    0.92 
  -2 -11   5    7.22    0.96 
   1 -11  -5    1.99    0.72 
  -1 -11   5    2.30    0.64 
  -1 -11   5    1.61    0.80 
   0 -11   5    4.31    0.86 
   0 -11   5    3.92    0.72 
   0 -11  -5    4.43    0.93 
  -1 -11  -5   -0.23    0.76 
   1 -11   5    0.94    0.64 
  -2 -11  -5    4.72    0.91 
   2 -11   5    4.25    0.91 
  -2 -11  -5    3.89    0.94 
  -3 -11  -5    1.75    0.85 
   3 -11   5    1.34    0.85 
  -3 -11  -5    1.08    0.76 
  -4 -11  -5    3.49    0.94 
  -4 -11  -5    1.56    0.80 
   4 -11   5    2.53    0.99 
  -5 -11  -5    2.25    0.97 
   5 -11   5    2.40    0.95 
  -5 -11  -5    2.72    1.01 
   5 -12  -5    2.15    1.00 
  -5 -12   5   -0.01    1.07 
  -4 -12   5    0.18    0.83 
   4 -12  -5    0.50    0.81 
   3 -12  -5   -0.32    0.58 
  -3 -12   5   -0.08    0.72 
  -2 -12   5    0.72    0.71 
   2 -12  -5    0.97    0.64 
  -1 -12   5    0.82    0.63 
   1 -12  -5    0.25    0.82 
  -1 -12   5    0.83    0.69 
   0 -12  -5    1.73    0.94 
   0 -12   5    2.62    0.76 
   1 -12   5   -0.68    0.69 
  -1 -12  -5   -0.16    0.85 
   2 -12   5    0.58    0.78 
  -2 -12  -5    0.85    0.94 
   3 -12   5    0.50    0.89 
  -3 -12  -5   -0.45    0.67 
  -3 -12  -5    0.45    0.93 
  -4 -12  -5    1.94    1.03 
  -4 -12  -5    1.03    0.80 
   4 -12   5    0.90    0.98 
  -3 -13   5    0.09    0.76 
   3 -13  -5    0.76    0.69 
  -2 -13   5    5.00    0.94 
   2 -13  -5    4.73    0.98 
   1 -13  -5    2.48    1.05 
   0 -13   5    2.27    0.86 
   0 -13  -5    0.67    1.02 
   1 -13   5   -1.90    0.81 
  -1 -13  -5   -0.18    0.96 
  -2 -13  -5    0.76    1.04 
   2 -13   5    0.36    0.99 
 -10   0   6    0.62    0.66 
  -9   0   6    0.94    0.64 
  -8   0   6    4.58    0.77 
  -7   0   6    0.92    0.62 
  -7   0   6    0.96    0.51 
  -6   0   6   50.31    1.97 
  -6   0   6   48.62    2.11 
   5   0  -6    0.02    0.27 
  -5   0   6    0.03    0.37 
  -5   0   6    0.37    0.41 
  -4   0   6   33.71    1.46 
   4   0  -6   33.78    1.19 
  -4   0   6   33.91    1.38 
  -3   0   6   45.34    1.67 
   3   0  -6   45.06    1.50 
  -2   0   6    7.01    0.56 
   2   0  -6    7.96    0.48 
   1   0  -6   50.42    1.71 
   0   0   6  106.56    3.40 
   1   0   6   80.64    2.68 
  -2   0  -6   12.09    0.74 
   3   0   6    9.54    0.69 
  -3   0  -6    9.84    0.76 
   4   0   6   18.45    1.02 
  -4   0  -6   16.85    1.04 
   5   0   6   32.26    1.54 
  -5   0  -6   33.87    1.57 
  -6   0  -6   37.84    1.74 
   6   0   6   35.16    1.73 
   7   0   6    1.55    0.70 
  -7   0  -6    1.67    0.65 
  -8   0  -6    4.27    0.92 
   8   0   6    5.13    0.83 
  -9   0  -6    0.76    0.86 
   9   0   6    0.55    0.67 
 -10  -1   6    0.78    0.68 
 -10   1   6   -0.01    0.77 
  -9  -1   6    1.63    0.62 
  -9   1   6    0.76    0.63 
  -8  -1   6    1.70    0.62 
  -8  -1   6    1.58    0.64 
  -8   1   6    2.39    0.66 
  -7  -1   6    1.13    0.62 
  -7  -1   6    2.72    0.62 
  -7   1   6    1.12    0.61 
  -6  -1   6   12.12    1.00 
   6  -1  -6   12.64    0.80 
  -6  -1   6   12.71    0.96 
  -6   1   6   13.16    0.89 
  -6   1   6   13.96    1.08 
  -5  -1   6    3.94    0.59 
  -5  -1   6    6.01    0.69 
  -5   1   6    4.99    0.58 
  -5   1   6    5.25    0.54 
  -4  -1   6   -0.06    0.33 
   4  -1  -6    0.39    0.27 
  -4   1   6    0.40    0.29 
  -4   1   6   -0.09    0.12 
  -3  -1   6   33.10    1.37 
   3  -1  -6   33.03    1.25 
  -3   1   6   33.50    1.29 
   3   1  -6   34.41    1.10 
  -3   1   6   35.07    1.40 
  -2  -1   6    3.55    0.46 
   2  -1  -6    4.10    0.38 
  -2  -1   6    3.72    0.30 
  -2   1   6    3.66    0.39 
  -1  -1   6    7.35    0.59 
  -1  -1   6    6.41    0.43 
   1  -1  -6    6.66    0.50 
   0  -1  -6    0.63    0.32 
   0  -1   6    0.84    0.29 
  -1  -1  -6   42.03    1.64 
  -1  -1  -6   43.79    1.62 
   1  -1   6   42.81    1.58 
   1   1   6   44.25    1.59 
   2  -1   6   10.41    0.68 
  -2  -1  -6   11.33    0.75 
   3  -1   6   24.10    1.11 
  -3  -1  -6   22.13    1.12 
  -3   1  -6   24.43    1.15 
   3   1   6   24.93    1.12 
   4  -1   6    7.52    0.72 
  -4  -1  -6    6.94    0.72 
   4   1   6    9.17    0.75 
  -4   1  -6    7.37    0.72 
   5  -1   6    2.31    0.60 
  -5  -1  -6    2.88    0.66 
   5   1   6    3.99    0.65 
  -5   1  -6    2.50    0.57 
   6  -1   6    2.55    0.69 
  -6  -1  -6    3.32    0.70 
   6   1   6    2.48    0.68 
  -6   1  -6    2.80    0.63 
  -7  -1  -6    1.20    0.66 
   7  -1   6    0.01    0.61 
   7   1   6    0.18    0.65 
  -7   1  -6    0.48    0.58 
   8  -1   6    4.10    0.79 
  -8  -1  -6    2.51    0.89 
   8   1   6    4.08    0.81 
  -8   1  -6    3.52    0.78 
  -9  -1  -6    1.76    0.97 
   9  -1   6    0.06    0.66 
  -9   1  -6    1.63    0.92 
   9   1   6    0.77    0.75 
  -9  -2   6    6.30    1.00 
  -9  -2   6    2.78    0.71 
  -9   2   6    3.73    0.80 
  -8  -2   6    6.02    0.86 
  -8  -2   6    6.26    0.83 
  -8   2   6    6.20    0.87 
  -7  -2   6   20.12    1.37 
  -7  -2   6   20.86    1.28 
  -7   2   6   22.40    1.44 
  -6  -2   6   22.96    1.36 
  -6  -2   6   22.45    1.28 
   6  -2  -6   23.89    1.16 
  -6   2   6   24.24    1.10 
  -6   2   6   22.24    1.38 
  -5  -2   6   36.96    1.63 
   5  -2  -6   36.58    1.48 
  -5   2   6   37.43    1.43 
  -4  -2   6    2.29    0.47 
   4  -2  -6    1.57    0.36 
  -4   2   6    2.48    0.35 
  -4   2   6    2.06    0.43 
  -3  -2   6   20.97    1.04 
  -3   2   6   23.02    1.07 
  -3   2   6   22.30    0.90 
  -2  -2   6    3.02    0.23 
  -2  -2   6    2.79    0.45 
  -2   2   6    3.61    0.43 
   1  -2  -6    0.11    0.23 
  -1  -2   6    1.00    0.25 
   0  -2   6   87.03    2.78 
   0  -2  -6   83.43    2.83 
  -1  -2  -6    8.82    0.69 
   1  -2   6    9.27    0.61 
  -1  -2  -6    9.63    0.69 
  -2  -2  -6   17.63    0.93 
   2  -2   6   17.04    0.88 
   2   2   6   17.00    0.86 
   3  -2   6   -0.06    0.13 
  -3  -2  -6    0.48    0.27 
   3   2   6    0.62    0.38 
  -4  -2  -6    8.71    0.78 
   4  -2   6    8.22    0.73 
   4   2   6    9.13    0.76 
   5  -2   6    8.59    0.83 
  -5  -2  -6    9.31    0.90 
  -5   2  -6    7.86    0.79 
   5   2   6    9.46    0.88 
  -6  -2  -6    0.54    0.60 
   6  -2   6    1.31    0.66 
   6   2   6    1.27    0.63 
  -6   2  -6    1.57    0.58 
  -7  -2  -6    3.89    0.86 
   7  -2   6    4.41    0.76 
   7   2   6    3.53    0.84 
  -7   2  -6    6.77    0.80 
   8  -2   6   -0.13    0.58 
  -8  -2  -6    0.83    0.91 
  -8   2  -6    0.00    0.63 
   8   2   6    0.40    0.58 
   9  -2   6    0.73    0.69 
  -9  -2  -6    2.59    1.04 
   9   2   6    1.88    0.77 
  -9  -3   6    3.65    1.00 
  -9  -3   6    2.69    0.69 
  -9   3   6    2.34    0.74 
  -8  -3   6    1.28    0.69 
  -8  -3   6    0.38    0.53 
  -8   3   6    0.84    0.58 
  -7  -3   6    1.27    0.64 
  -7  -3   6    1.92    0.66 
  -7   3   6    1.23    0.57 
   6  -3  -6   10.74    0.90 
  -6  -3   6   12.90    1.02 
  -6  -3   6   11.42    1.01 
  -6   3   6   12.60    1.03 
  -5  -3   6    1.90    0.56 
   5  -3  -6    2.18    0.50 
  -5   3   6    0.37    0.32 
  -5   3   6    2.55    0.35 
  -4  -3   6    6.94    0.73 
   4  -3  -6    8.36    0.69 
  -4   3   6    7.77    0.49 
  -4   3   6    7.74    0.69 
  -3  -3   6   23.06    1.15 
   3  -3  -6   24.15    1.04 
  -3   3   6   22.70    1.12 
  -3   3   6   21.66    0.88 
  -2  -3   6   21.86    0.77 
   2  -3  -6   23.10    1.01 
  -2  -3   6   20.82    1.03 
  -2   3   6   20.50    1.00 
  -1  -3   6    5.24    0.54 
  -1  -3   6    4.96    0.39 
   1  -3  -6    4.60    0.49 
  -1   3   6    5.59    0.45 
   0  -3   6   15.79    0.91 
   0  -3   6   17.39    0.80 
   0  -3  -6   18.03    0.90 
  -1  -3  -6    2.20    0.43 
   1  -3   6    1.98    0.39 
  -1  -3  -6    2.83    0.48 
   2  -3   6   12.37    0.75 
  -2  -3  -6    9.28    0.72 
  -2  -3  -6   12.43    0.83 
  -3  -3  -6   19.38    1.08 
   3  -3   6   17.55    0.96 
   3   3   6   19.25    1.01 
  -5  -3  -6   16.36    1.12 
   5  -3   6   14.95    1.06 
   5   3   6   12.97    1.03 
   6  -3   6    2.69    0.68 
  -6  -3  -6    1.98    0.69 
   6   3   6    2.59    0.69 
   7  -3   6   11.38    1.08 
  -7  -3  -6    9.41    1.13 
   7   3   6   10.17    1.07 
   8  -3   6    0.63    0.65 
  -8  -3  -6    0.31    0.86 
   8   3   6   -0.36    0.58 
   9  -3   6    0.09    0.71 
  -9  -3  -6    0.40    1.00 
   9   3   6   -0.11    0.66 
  -9  -4   6    1.89    0.66 
  -9  -4   6    3.10    0.99 
  -8  -4   6    0.76    0.79 
  -8  -4   6   -0.02    0.50 
  -8   4   6   -0.04    0.51 
  -7  -4   6    3.78    0.74 
  -7  -4   6    4.18    0.80 
   7  -4  -6    4.67    0.75 
  -7   4   6    3.12    0.67 
  -6  -4   6    2.47    0.60 
  -6  -4   6    1.86    0.64 
   6  -4  -6    1.98    0.60 
  -6   4   6    1.13    0.51 
  -5  -4   6   16.02    1.14 
   5  -4  -6   17.96    1.07 
  -5   4   6   15.42    1.13 
  -4  -4   6    7.32    0.78 
   4  -4  -6    6.27    0.64 
  -4   4   6    5.98    0.67 
  -4   4   6    6.50    0.39 
   3  -4  -6    4.33    0.55 
  -3  -4   6    5.04    0.61 
  -3   4   6    4.54    0.36 
  -3   4   6    4.07    0.52 
  -2  -4   6    6.39    0.39 
  -2  -4   6    5.94    0.61 
   2  -4  -6    5.96    0.60 
  -2   4   6    6.78    0.54 
  -1  -4   6    0.49    0.34 
  -1  -4   6    0.80    0.27 
   1  -4  -6    1.37    0.41 
  -1   4   6    0.89    0.28 
   0  -4  -6   21.88    1.06 
   0  -4   6   21.41    0.94 
   0  -4   6   21.74    1.06 
   0   4   6   21.72    0.85 
   1  -4   6    2.32    0.43 
   1  -4   6    1.85    0.40 
  -1  -4  -6    1.29    0.32 
  -1  -4  -6    1.93    0.44 
   1   4   6    1.94    0.20 
  -2  -4  -6   12.72    0.88 
  -2  -4  -6   12.95    0.87 
   2  -4   6   12.61    0.80 
  -3  -4  -6    6.88    0.76 
   3  -4   6    7.44    0.69 
  -3  -4  -6    6.33    0.74 
   5  -4   6    7.79    0.89 
  -5  -4  -6    8.33    0.91 
   5   4   6    6.51    0.82 
   6  -4   6    2.75    0.76 
  -6  -4  -6    1.66    0.65 
   6   4   6    2.30    0.69 
  -7  -4  -6    6.66    1.07 
   7  -4   6    6.28    0.91 
   7   4   6    6.55    0.87 
   8  -4   6    0.95    0.71 
  -8  -4  -6    0.91    0.92 
   8   4   6    1.41    0.71 
  -9  -5   6    0.18    0.95 
  -8  -5   6    0.60    0.57 
  -8  -5   6    0.07    0.84 
  -7  -5   6    0.05    0.71 
  -7  -5   6    0.70    0.60 
   7  -5  -6   -0.02    0.60 
  -7   5   6    0.00    0.48 
  -6  -5   6    0.43    0.62 
   6  -5  -6    0.33    0.60 
  -6   5   6    0.17    0.50 
   5  -5  -6   -0.01    0.51 
  -5  -5   6    0.53    0.58 
  -5   5   6    0.64    0.48 
   4  -5  -6    5.18    0.66 
  -4  -5   6    3.61    0.64 
  -4   5   6    6.02    0.68 
   3  -5  -6    4.07    0.60 
  -3  -5   6    4.07    0.32 
  -3   5   6    4.47    0.31 
  -3   5   6    3.71    0.52 
  -2  -5   6    4.90    0.40 
   2  -5  -6    4.33    0.59 
  -2  -5   6    3.64    0.57 
  -2   5   6    3.65    0.45 
   1  -5  -6    0.70    0.42 
   1  -5  -6    1.21    0.33 
  -1  -5   6    0.72    0.42 
  -1  -5   6    1.00    0.31 
  -1   5   6    0.78    0.29 
   0  -5  -6    1.29    0.44 
   0  -5  -6    1.01    0.37 
   0  -5   6    1.22    0.35 
   0  -5   6    0.62    0.41 
   0   5   6    1.21    0.26 
   1  -5   6    2.06    0.45 
  -1  -5  -6    2.20    0.46 
   1  -5   6    2.66    0.46 
  -1  -5  -6    0.85    0.31 
   2  -5   6   10.47    0.79 
  -2  -5  -6   10.87    0.83 
   2  -5   6   11.69    0.81 
  -2  -5  -6   12.10    0.90 
  -3  -5  -6    1.70    0.59 
  -3  -5  -6    2.32    0.62 
   3  -5   6    2.20    0.55 
  -4  -5  -6   12.04    1.11 
  -4  -5  -6   11.32    1.01 
   4   5   6   13.33    0.96 
   5  -5   6    8.10    0.92 
  -5  -5  -6    8.32    0.94 
   5   5   6    6.66    0.84 
   6  -5   6    7.98    0.96 
  -6  -5  -6    6.76    0.93 
   6   5   6    8.20    0.94 
   7  -5   6    2.52    0.75 
  -7  -5  -6    4.30    0.88 
   7   5   6    3.74    0.76 
   8  -5   6    1.26    0.71 
  -8  -5  -6    1.82    1.03 
   8   5   6    1.23    0.71 
  -9  -6   6    0.71    1.03 
  -8  -6   6    4.03    1.09 
   8  -6  -6    3.12    0.69 
  -7  -6   6    1.62    0.92 
  -7  -6   6    2.15    0.68 
   7  -6  -6    3.00    0.76 
  -6  -6   6    4.25    0.85 
   6  -6  -6    3.95    0.78 
  -5  -6   6    6.39    0.86 
   5  -6  -6    5.86    0.83 
  -5   6   6    7.90    0.84 
   4  -6  -6   13.84    1.06 
  -4   6   6   12.52    0.98 
  -3  -6   6    2.68    0.53 
   3  -6  -6    4.94    0.66 
  -3   6   6    3.75    0.56 
  -2  -6   6    6.18    0.74 
   2  -6  -6    5.79    0.70 
  -2  -6   6    6.24    0.49 
  -2   6   6    5.88    0.57 
   1  -6  -6    1.00    0.47 
  -1  -6   6    0.94    0.36 
   1  -6  -6    0.18    0.28 
  -1  -6   6    0.57    0.46 
   0  -6   6    2.19    0.45 
   0  -6  -6    1.66    0.44 
   0  -6   6    2.22    0.50 
   1  -6   6   10.93    0.77 
   1  -6   6   10.17    0.81 
  -1  -6  -6   10.75    0.88 
  -1  -6  -6    9.88    0.83 
  -2  -6  -6    0.45    0.51 
   2  -6   6    0.87    0.47 
  -2  -6  -6    0.68    0.53 
   2  -6   6    2.21    0.51 
  -3  -6  -6    6.92    0.83 
   3  -6   6    9.73    0.79 
  -3  -6  -6    7.65    0.91 
   3  -6   6    7.66    0.81 
  -4  -6  -6    4.85    0.79 
   4  -6   6    6.72    0.77 
  -4  -6  -6    6.97    0.96 
  -5  -6  -6    1.95    0.79 
   5  -6   6    0.36    0.51 
   5   6   6    1.35    0.62 
   6  -6   6    0.83    0.61 
  -6  -6  -6    0.64    0.64 
   6   6   6    0.88    0.69 
   7  -6   6    0.33    0.64 
  -7  -6  -6    0.38    0.67 
   7   6   6    0.15    0.56 
   8  -6   6    6.47    1.15 
  -8  -6  -6    3.72    0.97 
   8  -7  -6    4.82    0.84 
  -8  -7   6    2.30    1.09 
  -7  -7   6    0.68    0.60 
   7  -7  -6    0.65    0.61 
  -7  -7   6    1.56    0.94 
  -6  -7   6   -0.81    0.54 
   6  -7  -6   -0.57    0.60 
   5  -7  -6    4.34    0.80 
  -5  -7   6    4.92    0.76 
   4  -7  -6    3.96    0.75 
  -4  -7   6    6.33    0.90 
  -3  -7   6    6.87    0.88 
   3  -7  -6    6.10    0.81 
   2  -7  -6    9.30    0.90 
  -2  -7   6    9.36    0.70 
  -2  -7   6    9.23    0.92 
   1  -7  -6    0.01    0.39 
   1  -7  -6    0.37    0.35 
  -1  -7   6    0.73    0.52 
  -1  -7   6    0.70    0.38 
   0  -7   6    1.10    0.52 
   0  -7  -6    0.95    0.44 
   0  -7   6    0.48    0.40 
   0  -7  -6   -0.25    0.22 
   1  -7   6   -0.20    0.45 
  -1  -7  -6    0.14    0.48 
  -1  -7  -6    0.42    0.48 
   1  -7   6    0.07    0.43 
   2  -7   6    6.31    0.72 
   2  -7   6    6.28    0.74 
  -2  -7  -6    5.62    0.79 
  -2  -7  -6    7.21    0.81 
  -3  -7  -6    2.94    0.77 
   3  -7   6    1.47    0.57 
  -3  -7  -6    0.68    0.59 
   3  -7   6    1.96    0.55 
   4  -7   6    3.98    0.64 
  -4  -7  -6    4.08    0.74 
  -4  -7  -6    3.44    0.89 
   4  -7   6    3.07    0.64 
  -5  -7  -6    1.48    0.71 
   5  -7   6    1.26    0.60 
  -5  -7  -6    1.46    0.67 
   5   7   6    2.18    0.69 
   6  -7   6    2.65    0.71 
  -6  -7  -6    2.57    0.80 
   6   7   6    1.87    0.63 
  -7  -7  -6   -0.07    0.63 
   7  -7   6    0.02    0.65 
   7   7   6   -0.01    0.55 
  -8  -7  -6    0.50    0.77 
   8  -7   6    0.35    1.01 
  -8  -8   6    1.51    1.12 
   8  -8  -6    2.96    0.78 
  -7  -8   6    2.96    0.95 
   7  -8  -6    2.30    0.71 
   6  -8  -6    0.20    0.53 
  -6  -8   6    0.73    0.66 
   5  -8  -6    7.46    0.89 
  -5  -8   6    7.05    0.94 
   4  -8  -6    1.20    0.69 
  -4  -8   6    1.30    0.76 
  -3  -8   6   12.26    1.18 
   3  -8  -6   14.65    1.14 
  -2  -8   6    2.37    0.70 
   2  -8  -6    2.60    0.64 
  -2  -8   6    2.14    0.46 
  -1  -8   6    5.07    0.59 
   1  -8  -6    4.29    0.69 
  -1  -8   6    5.22    0.78 
   0  -8  -6    6.80    0.68 
   0  -8   6    4.52    0.71 
   0  -8  -6    4.89    0.67 
   0  -8   6    5.61    0.65 
  -1  -8  -6    5.30    0.77 
   1  -8   6    4.92    0.73 
  -1  -8  -6    7.03    0.80 
   1  -8   6    4.68    0.68 
   2  -8   6    4.34    0.68 
  -2  -8  -6    3.40    0.71 
  -2  -8  -6    4.04    0.77 
   2  -8   6    4.20    0.67 
  -3  -8  -6    8.03    1.02 
  -3  -8  -6    6.46    0.91 
   3  -8   6    9.75    0.89 
   3  -8   6    7.89    0.91 
  -4  -8  -6    0.88    0.75 
  -4  -8  -6    1.34    0.72 
   4  -8   6    2.44    0.71 
   5  -8   6   -0.09    0.55 
  -5  -8  -6    0.45    0.74 
  -5  -8  -6    1.09    0.73 
   5   8   6    0.69    0.56 
  -6  -8  -6    1.45    0.81 
   6  -8   6    2.37    0.74 
   6   8   6    1.72    0.61 
   7  -8   6   -0.17    0.90 
  -7  -8  -6   -0.40    0.75 
   7  -9  -6    1.04    0.67 
  -7  -9   6    1.12    0.75 
   6  -9  -6    0.20    0.63 
  -6  -9   6    0.41    0.68 
   5  -9  -6    0.06    0.56 
  -5  -9   6   -0.09    0.58 
  -4  -9   6    6.17    0.93 
   4  -9  -6    5.15    0.79 
  -3  -9   6    4.20    0.89 
   3  -9  -6    3.71    0.74 
  -2  -9   6   18.10    1.02 
  -2  -9   6   17.80    1.36 
   2  -9  -6   16.91    1.25 
  -1  -9   6    1.69    0.48 
   1  -9  -6    2.62    0.61 
  -1  -9   6    2.84    0.74 
   0  -9  -6    1.84    0.59 
   0  -9   6    0.63    0.47 
   0  -9  -6    1.72    0.61 
   0  -9   6    1.86    0.66 
  -1  -9  -6    6.72    0.84 
   1  -9   6    7.31    0.78 
   1  -9   6    5.68    0.81 
  -1  -9  -6    6.56    0.87 
  -2  -9  -6    0.51    0.63 
   2  -9   6    0.49    0.57 
   2  -9   6    0.02    0.52 
  -2  -9  -6    0.55    0.66 
  -3  -9  -6    2.09    0.83 
   3  -9   6    1.85    0.71 
  -3  -9  -6    2.47    0.76 
  -4  -9  -6    1.80    0.74 
  -4  -9  -6    1.58    0.82 
   4  -9   6    0.40    0.74 
   5  -9   6    3.25    0.77 
  -5  -9  -6    2.52    0.84 
  -5  -9  -6    3.51    0.92 
   6  -9   6   -0.16    0.61 
  -6  -9  -6    0.73    0.78 
   6   9   6    0.84    0.59 
  -6 -10   6    0.05    0.79 
   6 -10  -6    0.42    0.66 
   5 -10  -6    3.02    0.76 
  -5 -10   6    3.18    0.88 
   4 -10  -6   -0.06    0.59 
  -4 -10   6    1.91    0.75 
  -3 -10   6    3.71    0.81 
   3 -10  -6    4.81    0.81 
   2 -10  -6    4.03    0.75 
  -2 -10   6    4.62    0.86 
   1 -10  -6    0.79    0.59 
  -1 -10   6    0.30    0.50 
  -1 -10   6   -0.21    0.66 
   0 -10   6    0.90    0.52 
   0 -10   6    0.95    0.68 
   0 -10  -6    1.35    0.64 
  -1 -10  -6   -1.36    0.64 
   1 -10   6    0.19    0.53 
   1 -10   6   -0.02    0.63 
  -1 -10  -6   -0.54    0.61 
  -2 -10  -6    6.05    0.93 
   2 -10   6    3.50    0.75 
  -2 -10  -6    3.61    0.85 
  -3 -10  -6    0.90    0.79 
  -3 -10  -6   -0.12    0.61 
   3 -10   6    0.22    0.74 
  -4 -10  -6    2.91    0.91 
   4 -10   6    3.59    0.98 
  -4 -10  -6    6.33    0.99 
   5 -10   6    1.50    0.88 
  -5 -10  -6    0.49    0.80 
  -5 -10  -6    1.66    0.94 
   6 -10   6   -0.23    0.70 
  -6 -10  -6    1.56    1.16 
   6  10   6    0.39    0.59 
  -5 -11   6   -0.17    0.77 
   5 -11  -6    0.13    0.67 
  -4 -11   6    1.49    0.78 
   4 -11  -6    1.95    0.71 
  -3 -11   6    0.38    0.67 
   3 -11  -6    1.36    0.66 
   2 -11  -6    3.99    0.81 
  -2 -11   6    3.40    0.81 
  -1 -11   6    2.85    0.66 
   1 -11  -6    2.45    0.72 
  -1 -11   6    3.17    0.74 
   0 -11   6    1.86    0.65 
   0 -11  -6    0.65    0.77 
   0 -11   6    3.33    0.85 
  -1 -11  -6    0.69    0.85 
   1 -11   6    1.04    0.65 
   2 -11   6    1.67    0.75 
  -2 -11  -6    1.91    0.84 
  -2 -11  -6    1.83    0.88 
  -3 -11  -6    1.19    0.75 
  -3 -11  -6    0.61    0.86 
   3 -11   6    0.18    0.78 
  -4 -11  -6    1.39    0.93 
   4 -11   6    1.90    0.96 
  -4 -11  -6    0.63    0.78 
   5 -11   6    2.89    1.09 
  -5 -11  -6    0.35    1.03 
  -5 -11  -6    1.00    0.90 
   4 -12  -6    2.62    0.98 
  -4 -12   6    1.70    0.84 
   3 -12  -6    0.75    0.62 
  -3 -12   6   -0.32    0.67 
   2 -12  -6    5.08    0.90 
  -2 -12   6    7.15    1.03 
  -1 -12   6    0.29    0.62 
   1 -12  -6    0.08    0.68 
   0 -12   6    1.66    0.78 
   0 -12   6    1.40    0.68 
   0 -12  -6    1.78    0.94 
   1 -12   6    2.19    0.84 
  -1 -12  -6    3.07    1.07 
   2 -12   6    1.11    0.81 
  -2 -12  -6    0.83    0.92 
  -3 -12  -6    4.53    0.96 
   3 -12   6    4.46    1.08 
  -3 -12  -6    4.51    1.13 
   4 -12   6   -1.09    0.92 
  -4 -12  -6    0.01    0.78 
  -4 -12  -6    2.60    1.04 
   2 -13  -6    0.76    0.73 
  -2 -13   6   -0.84    0.71 
   1 -13  -6    0.04    0.93 
  -1 -13   6    0.15    0.72 
   0 -13  -6   -0.31    0.96 
  -1 -13  -6   -0.83    0.97 
   1 -13   6   -0.06    0.90 
   2 -13   6   -0.15    0.89 
  -2 -13  -6   -0.10    1.01 
  -9   0   7    1.35    0.65 
  -8   0   7    4.85    0.78 
  -7   0   7    2.15    0.71 
  -7   0   7    2.94    0.64 
  -6   0   7    2.28    0.54 
  -6   0   7    2.11    0.61 
  -5   0   7   15.69    1.11 
  -5   0   7   16.00    0.95 
  -4   0   7    2.73    0.46 
   4   0  -7    3.38    0.33 
  -3   0   7   19.67    0.92 
   3   0  -7   17.61    0.76 
  -2   0   7   11.77    0.71 
   2   0  -7   10.65    0.59 
   1   0  -7    0.70    0.30 
   0   0   7    5.07    0.46 
   1   0   7    8.38    0.62 
   2   0   7   -0.28    0.29 
  -3   0  -7    0.86    0.40 
   3   0   7    0.21    0.31 
  -4   0  -7   14.68    1.01 
   4   0   7   15.82    0.98 
   5   0   7   16.66    1.13 
  -5   0  -7   18.32    1.16 
   6   0   7    0.88    0.64 
  -6   0  -7    0.17    0.57 
   7   0   7    8.17    0.94 
  -7   0  -7    6.28    0.90 
  -8   0  -7    2.99    0.92 
   8   0   7    2.06    0.70 
  -9   0  -7    0.11    0.90 
   9   0   7    0.53    0.73 
  -9  -1   7    0.90    0.61 
  -9   1   7   -0.12    0.57 
  -8  -1   7   10.64    1.00 
  -8  -1   7    8.48    0.99 
  -8   1   7    9.02    1.00 
  -7  -1   7    1.79    0.62 
  -7  -1   7    3.12    0.73 
  -7   1   7    3.42    0.72 
  -6  -1   7    6.55    0.73 
  -6  -1   7    6.38    0.83 
  -6   1   7    5.69    0.65 
  -6   1   7    6.85    0.81 
  -5  -1   7    8.21    0.73 
  -5  -1   7    7.23    0.74 
  -5   1   7    6.10    0.61 
  -4  -1   7    2.50    0.47 
   4  -1  -7    2.65    0.37 
   4   1  -7    2.39    0.23 
  -4   1   7    2.52    0.41 
  -3  -1   7   20.52    1.04 
  -3  -1   7   21.77    0.77 
   3  -1  -7   21.58    0.90 
  -3   1   7   21.86    0.97 
  -2  -1   7   39.89    1.36 
   2  -1  -7   40.21    1.46 
  -2  -1   7   38.84    1.56 
  -2   1   7   41.84    1.53 
  -1  -1   7  160.43    5.12 
  -1  -1   7  170.60    5.32 
   0  -1  -7   44.57    1.64 
   0  -1   7   44.21    1.58 
   1  -1   7   70.49    2.43 
   1   1   7   71.67    2.45 
  -2  -1  -7   12.61    0.81 
   2  -1   7   13.87    0.79 
  -3  -1  -7    2.61    0.46 
   3   1   7    3.96    0.53 
  -4  -1  -7    4.08    0.63 
   4  -1   7    5.94    0.63 
  -4   1  -7    4.88    0.65 
   4   1   7    4.34    0.65 
   5  -1   7   13.08    1.01 
  -5  -1  -7   12.94    1.06 
   5   1   7   14.81    1.04 
  -5   1  -7   12.31    0.99 
   6  -1   7   15.00    1.17 
  -6  -1  -7   16.25    1.19 
   6   1   7   16.96    1.21 
  -6   1  -7   16.25    1.13 
  -7  -1  -7    1.72    0.75 
   7  -1   7    2.35    0.68 
   7   1   7    2.66    0.69 
  -7   1  -7    2.83    0.71 
  -8  -1  -7    1.36    0.86 
   8  -1   7    0.39    0.65 
   8   1   7    2.31    0.73 
  -8   1  -7    1.69    0.82 
  -9  -1  -7    1.12    0.97 
   9  -1   7    0.21    0.68 
  -9   1  -7    1.78    0.98 
   9   1   7    1.34    0.75 
  -9  -2   7    4.37    0.79 
  -9   2   7    4.13    0.85 
  -8  -2   7    1.86    0.71 
  -8  -2   7   -0.26    0.51 
  -8   2   7    0.06    0.55 
  -7  -2   7    0.30    0.57 
  -7  -2   7    0.14    0.57 
  -7   2   7    1.12    0.55 
  -6  -2   7   12.38    1.07 
  -6  -2   7   11.70    0.98 
   6  -2  -7   14.00    0.88 
  -6   2   7   14.18    1.11 
  -5  -2   7    9.38    0.84 
   5  -2  -7    7.97    0.66 
  -5   2   7    8.14    0.64 
   4  -2  -7    4.35    0.48 
  -4  -2   7    4.53    0.60 
  -4   2   7    4.98    0.58 
  -4   2   7    4.78    0.46 
  -3  -2   7    2.07    0.42 
   3  -2  -7    1.74    0.35 
  -3   2   7    2.55    0.45 
  -3   2   7    2.35    0.36 
  -2  -2   7    6.71    0.63 
  -2  -2   7    6.77    0.40 
   2  -2  -7    7.94    0.54 
  -1  -2   7   44.38    1.72 
   1  -2  -7   47.51    1.69 
  -1  -2   7   45.64    1.58 
   0  -2   7   21.81    0.95 
   0  -2  -7   23.08    1.05 
  -1  -2  -7   23.47    1.12 
   1  -2   7   24.31    1.06 
  -1  -2  -7   23.59    1.14 
  -2  -2  -7    0.14    0.41 
   2  -2   7    0.66    0.36 
   2   2   7    0.37    0.25 
  -3  -2  -7    0.46    0.33 
   3  -2   7    0.77    0.36 
   3   2   7    1.24    0.40 
  -4  -2  -7    0.23    0.33 
   4  -2   7    0.30    0.28 
   4   2   7    4.18    0.62 
  -5  -2  -7   13.72    1.04 
   5  -2   7   14.36    1.05 
   5   2   7   12.16    1.05 
   6  -2   7    6.80    0.92 
  -6  -2  -7    6.99    0.90 
   6   2   7    5.43    0.84 
  -7  -2  -7    1.01    0.80 
   7  -2   7    2.51    0.71 
   7   2   7    2.63    0.70 
  -8  -2  -7    2.78    0.97 
   8  -2   7    3.04    0.78 
   8   2   7    2.26    0.73 
  -9  -2  -7    4.48    1.14 
   9  -2   7    3.63    0.89 
   9   2   7    4.70    0.91 
  -9  -3   7    3.22    0.75 
  -9  -3   7    2.90    0.97 
  -9   3   7    1.88    0.71 
  -8  -3   7    0.22    0.52 
  -8  -3   7   -0.15    0.67 
  -8   3   7    0.19    0.55 
  -7  -3   7   10.13    1.01 
  -7  -3   7   10.12    1.02 
  -7   3   7    9.54    0.98 
  -6  -3   7    2.28    0.64 
  -6  -3   7    1.56    0.60 
   6  -3  -7    1.33    0.53 
  -6   3   7    1.13    0.50 
  -5  -3   7    0.52    0.51 
   5  -3  -7    0.88    0.49 
  -5   3   7    0.92    0.48 
   4  -3  -7    9.92    0.75 
  -4  -3   7    9.14    0.83 
  -4   3   7   10.05    0.59 
  -4   3   7   11.25    0.86 
  -3  -3   7   10.62    0.82 
   3  -3  -7    9.93    0.73 
  -3   3   7    8.62    0.56 
  -3   3   7   10.56    0.80 
   2  -3  -7   47.67    1.77 
  -2  -3   7   48.53    1.87 
  -2  -3   7   47.46    1.57 
  -2   3   7   48.97    1.76 
  -1  -3   7   22.30    1.06 
  -1  -3   7   23.48    0.92 
   1  -3  -7   24.73    1.07 
  -1   3   7   21.77    0.97 
   0  -3  -7   87.64    3.02 
   0  -3   7   90.99    2.95 
   0  -3  -7   91.30    3.05 
   0  -3   7   87.62    3.08 
  -1  -3  -7   12.76    0.85 
   1  -3   7   14.00    0.77 
  -1  -3  -7   13.99    0.87 
  -2  -3  -7   59.22    2.20 
   2  -3   7   54.50    2.08 
   3  -3   7    3.17    0.54 
  -3  -3  -7    2.49    0.55 
   3   3   7    2.94    0.54 
   4   3   7    6.78    0.76 
   5  -3   7   20.70    1.20 
  -5  -3  -7   19.42    1.26 
   5   3   7   18.43    1.20 
  -6  -3  -7    1.23    0.65 
   6  -3   7    2.59    0.71 
   6   3   7    0.50    0.64 
   7  -3   7    6.60    0.91 
  -7  -3  -7    5.98    1.07 
   7   3   7    6.74    0.91 
   8  -3   7    2.37    0.79 
  -8  -3  -7    1.74    0.98 
   8   3   7    0.83    0.64 
  -9  -4   7    3.54    1.02 
  -9  -4   7    2.58    0.72 
  -9   4   7    0.24    0.68 
  -8  -4   7    0.91    0.82 
  -8  -4   7    0.67    0.55 
  -8   4   7    0.43    0.55 
  -7  -4   7    3.27    0.74 
  -7  -4   7    3.22    0.79 
  -7   4   7    2.88    0.65 
   6  -4  -7   16.39    1.07 
  -6  -4   7   15.19    1.15 
  -6   4   7   13.74    1.12 
  -5  -4   7    0.75    0.55 
   5  -4  -7    2.17    0.54 
  -5   4   7    1.33    0.50 
   4  -4  -7   13.35    0.92 
  -4  -4   7   12.96    1.00 
  -4   4   7   15.40    1.02 
  -3  -4   7    0.63    0.43 
   3  -4  -7    1.34    0.47 
  -3   4   7    0.92    0.38 
  -3   4   7    1.34    0.27 
   2  -4  -7    6.01    0.60 
  -2  -4   7    5.18    0.38 
  -2   4   7    5.22    0.50 
  -1  -4   7    5.26    0.44 
   1  -4  -7    5.38    0.59 
  -1  -4   7    5.34    0.59 
  -1   4   7    5.14    0.46 
   0  -4  -7    4.79    0.54 
   0  -4  -7    6.09    0.63 
   0  -4   7    6.26    0.63 
   0  -4   7    5.93    0.52 
   0   4   7    5.88    0.42 
   1  -4   7    6.44    0.59 
  -1  -4  -7    6.65    0.67 
   1  -4   7    7.82    0.69 
  -1  -4  -7    6.70    0.67 
   1   4   7    7.24    0.44 
   2  -4   7    5.90    0.61 
  -2  -4  -7    5.13    0.69 
  -3  -4  -7   24.50    1.36 
   3  -4   7   23.86    1.25 
  -3  -4  -7   27.07    1.37 
   3   4   7   26.42    1.30 
  -4  -4  -7    2.41    0.66 
   4   4   7    4.01    0.67 
   5  -4   7    8.73    0.93 
  -5  -4  -7    9.13    0.93 
   5   4   7    8.46    0.93 
  -6  -4  -7    4.23    0.79 
   6  -4   7    4.80    0.80 
   6   4   7    5.40    0.86 
   7  -4   7    0.85    0.65 
  -7  -4  -7    1.91    0.85 
   7   4   7    1.64    0.62 
  -8  -4  -7   10.75    1.36 
   8  -4   7    9.91    1.15 
   8   4   7    8.70    1.06 
  -9  -5   7    2.25    1.09 
  -9  -5   7    1.62    0.67 
  -8  -5   7    2.21    0.93 
  -8  -5   7    2.33    0.64 
  -8   5   7    1.70    0.66 
  -7  -5   7    0.92    0.60 
  -7  -5   7    0.56    0.78 
   7  -5  -7    0.00    0.62 
  -7   5   7    0.72    0.55 
   6  -5  -7    5.11    0.79 
  -6  -5   7    6.00    0.91 
  -6   5   7    6.40    0.81 
   5  -5  -7    6.32    0.75 
  -5  -5   7    6.38    0.84 
  -5   5   7    4.44    0.68 
   4  -5  -7    2.39    0.59 
  -4  -5   7    4.87    0.71 
  -4   5   7    3.09    0.58 
   3  -5  -7   11.37    0.91 
  -3   5   7   12.00    0.87 
  -3   5   7   11.32    0.56 
  -2  -5   7    1.73    0.30 
   2  -5  -7    2.05    0.52 
  -2  -5   7    1.14    0.49 
  -2   5   7    1.77    0.39 
  -1  -5   7    6.07    0.68 
  -1  -5   7    6.50    0.51 
   1  -5  -7    6.58    0.68 
  -1   5   7    6.59    0.52 
   0  -5   7    7.34    0.67 
   0  -5  -7    7.30    0.72 
   0  -5  -7    8.31    0.68 
   0  -5   7    6.92    0.59 
   0   5   7    7.36    0.53 
   1  -5   7    5.77    0.60 
  -1  -5  -7    6.38    0.68 
   1  -5   7    5.90    0.65 
   1   5   7    5.46    0.40 
   2  -5   7   18.61    1.05 
  -2  -5  -7   18.56    1.13 
  -2  -5  -7   20.82    1.16 
   2  -5   7   18.57    1.07 
  -3  -5  -7    1.83    0.62 
   3  -5   7    1.78    0.55 
  -3  -5  -7    2.41    0.67 
   4  -5   7    0.95    0.51 
  -4  -5  -7    0.05    0.59 
  -4  -5  -7    0.76    0.61 
   4   5   7    0.92    0.58 
  -5  -5  -7    3.87    0.73 
   5  -5   7    3.21    0.67 
   5   5   7    4.00    0.74 
  -6  -5  -7    0.16    0.58 
   6  -5   7    1.07    0.63 
   6   5   7    1.41    0.62 
   7  -5   7    4.15    0.84 
  -7  -5  -7    2.10    0.74 
   7   5   7    1.83    0.68 
   8  -5   7    1.23    0.87 
  -8  -5  -7    0.43    0.99 
   8   5   7    1.85    0.73 
  -8  -6   7    4.41    0.75 
  -8  -6   7    4.46    1.12 
  -7  -6   7    1.72    0.58 
   7  -6  -7    0.97    0.70 
  -7  -6   7    1.48    0.88 
   6  -6  -7    1.75    0.69 
  -6  -6   7    1.65    0.78 
  -6   6   7    1.75    0.67 
  -5  -6   7   26.17    1.54 
   5  -6  -7   26.79    1.42 
  -5   6   7   25.23    1.43 
   4  -6  -7    0.65    0.56 
  -4  -6   7   -0.06    0.49 
  -4   6   7   -0.12    0.44 
   3  -6  -7   18.58    1.14 
  -3   6   7   18.74    1.10 
  -2  -6   7   15.92    0.75 
   2  -6  -7   15.95    1.06 
  -2  -6   7   16.44    1.10 
  -2   6   7   14.35    0.92 
  -1  -6   7   11.77    0.97 
   1  -6  -7   12.04    0.78 
  -1  -6   7   12.95    0.73 
   1  -6  -7   12.25    0.93 
  -1   6   7   12.71    0.79 
   0  -6   7   18.53    0.94 
   0  -6   7   18.65    1.10 
   0  -6  -7   17.02    1.01 
   1  -6   7    0.91    0.47 
   1  -6   7    1.32    0.44 
  -1  -6  -7    1.27    0.49 
  -2  -6  -7   37.61    1.78 
   2  -6   7   37.08    1.65 
  -2  -6  -7   39.85    1.73 
   2  -6   7   39.71    1.71 
  -3  -6  -7    0.74    0.54 
   3  -6   7    0.69    0.52 
  -3  -6  -7    1.11    0.58 
   3  -6   7    0.54    0.53 
  -4  -6  -7   14.49    1.26 
   4  -6   7   14.55    1.08 
  -4  -6  -7   13.52    1.16 
  -5  -6  -7    1.01    0.70 
   5  -6   7    1.54    0.59 
   5   6   7    0.93    0.64 
  -6  -6  -7    2.81    0.78 
   6  -6   7    2.71    0.71 
   6   6   7    2.01    0.67 
   7  -6   7    2.61    0.79 
  -7  -6  -7    2.35    0.79 
   7   6   7    3.13    0.75 
   8  -6   7    0.53    0.94 
  -8  -6  -7    2.23    0.92 
   8   6   7   -0.01    0.64 
  -8  -7   7    6.91    1.29 
   7  -7  -7    0.48    0.59 
  -7  -7   7   -0.62    0.87 
  -6  -7   7    2.46    0.77 
   6  -7  -7    2.22    0.69 
   5  -7  -7    3.26    0.75 
  -5  -7   7    2.82    0.67 
  -4  -7   7    2.02    0.69 
   4  -7  -7    2.97    0.71 
   3  -7  -7    4.67    0.76 
  -3  -7   7    5.32    0.84 
  -2  -7   7    5.22    0.74 
  -2  -7   7    4.82    0.50 
   2  -7  -7    4.37    0.73 
  -1  -7   7   20.67    1.00 
   1  -7  -7   22.95    1.28 
  -1  -7   7   20.16    1.27 
   1  -7  -7   20.07    1.03 
   0  -7   7    3.48    0.54 
   0  -7  -7    4.25    0.60 
   0  -7   7    2.64    0.62 
  -1  -7  -7    3.40    0.63 
  -1  -7  -7    4.77    0.69 
   1  -7   7    5.68    0.72 
   1  -7   7    4.16    0.62 
  -2  -7  -7   11.64    1.03 
  -2  -7  -7   10.53    1.02 
   2  -7   7   11.02    0.92 
   2  -7   7   12.40    0.93 
   3  -7   7    0.67    0.53 
  -3  -7  -7    0.68    0.69 
   3  -7   7    0.61    0.57 
  -3  -7  -7    0.75    0.62 
   4  -7   7    8.56    0.87 
  -4  -7  -7   11.49    1.21 
  -4  -7  -7    8.55    0.99 
   4  -7   7    7.85    0.92 
  -5  -7  -7    1.59    0.70 
   5  -7   7    1.74    0.64 
   5   7   7    1.65    0.62 
  -6  -7  -7    0.85    0.74 
   6  -7   7    1.13    0.63 
   6   7   7    1.34    0.63 
   7  -7   7    0.72    0.70 
  -7  -7  -7    0.99    0.73 
   7   7   7    1.31    0.65 
   7  -8  -7    0.39    0.57 
  -7  -8   7   -0.34    0.82 
  -6  -8   7    0.09    0.61 
   6  -8  -7    0.90    0.62 
  -5  -8   7    5.77    0.86 
   5  -8  -7    4.02    0.74 
  -4  -8   7    3.31    0.77 
   4  -8  -7    2.78    0.75 
  -3  -8   7    7.28    1.00 
   3  -8  -7    6.06    0.88 
   2  -8  -7    1.55    0.70 
  -2  -8   7    1.81    0.71 
  -1  -8   7    4.08    0.77 
  -1  -8   7    3.57    0.54 
   1  -8  -7    3.45    0.72 
   0  -8  -7    1.60    0.56 
   0  -8   7    1.32    0.61 
   0  -8   7    0.81    0.44 
   0  -8  -7    1.31    0.54 
  -1  -8  -7   18.70    1.15 
  -1  -8  -7   17.34    1.15 
   1  -8   7   18.07    1.10 
   1  -8   7   18.99    1.20 
   2  -8   7    7.43    0.84 
  -2  -8  -7    7.35    0.91 
  -2  -8  -7    7.10    0.94 
   2  -8   7    7.73    0.85 
   3  -8   7    9.94    0.93 
   3  -8   7    9.46    0.98 
  -3  -8  -7   10.03    1.12 
  -3  -8  -7    9.65    1.03 
  -4  -8  -7   10.17    1.09 
   4  -8   7   10.77    1.12 
  -4  -8  -7   10.00    1.11 
   5  -8   7    1.60    0.67 
  -5  -8  -7    1.40    0.78 
  -5  -8  -7    2.09    0.92 
   5   8   7    1.21    0.56 
   6  -8   7    2.28    0.73 
  -6  -8  -7    2.24    0.87 
   6   8   7    1.95    0.66 
  -7  -8  -7    2.24    1.04 
   7  -8   7    1.87    0.78 
   7   8   7    0.96    0.67 
   7  -9  -7    0.63    0.67 
  -7  -9   7    0.54    0.75 
   6  -9  -7   -0.04    0.58 
  -6  -9   7    1.68    0.76 
  -5  -9   7    0.42    0.68 
   5  -9  -7   -0.38    0.53 
  -4  -9   7    1.24    0.71 
   4  -9  -7    0.10    0.55 
   3  -9  -7    0.90    0.60 
  -3  -9   7    0.24    0.62 
  -2  -9   7    6.41    0.94 
   2  -9  -7    5.87    0.87 
  -1  -9   7    0.88    0.45 
   1  -9  -7    1.60    0.59 
  -1  -9   7    1.43    0.71 
   0  -9  -7    0.86    0.56 
   0  -9   7    0.26    0.61 
   0  -9  -7    0.66    0.53 
   0  -9   7    1.07    0.51 
   1  -9   7    2.37    0.60 
  -1  -9  -7    5.63    0.78 
   1  -9   7    2.61    0.69 
  -1  -9  -7    5.60    0.84 
  -2  -9  -7    1.98    0.76 
  -2  -9  -7    0.59    0.72 
   2  -9   7    1.08    0.65 
   2  -9   7    1.57    0.62 
   3  -9   7    4.78    0.86 
  -3  -9  -7    2.79    0.85 
  -3  -9  -7    2.80    0.91 
   4  -9   7    1.98    0.83 
  -4  -9  -7    0.82    0.83 
  -4  -9  -7    1.64    0.76 
  -5  -9  -7    6.10    1.03 
  -5  -9  -7    6.62    1.11 
   5  -9   7    8.01    1.12 
   6  -9   7   -0.31    0.62 
  -6  -9  -7    1.07    0.96 
   6   9   7   -0.02    0.57 
   6 -10  -7    3.20    0.79 
  -6 -10   7    3.49    0.96 
   5 -10  -7    0.67    0.65 
  -5 -10   7    0.30    0.69 
   4 -10  -7    3.83    0.76 
  -4 -10   7    4.81    0.92 
  -3 -10   7    0.79    0.68 
   3 -10  -7    1.27    0.65 
   2 -10  -7    2.69    0.73 
  -2 -10   7    4.19    0.80 
  -1 -10   7    0.34    0.51 
   1 -10  -7   -0.32    0.51 
  -1 -10   7    0.86    0.72 
   0 -10   7    0.32    0.49 
   0 -10   7   -0.18    0.68 
   0 -10  -7    0.66    0.61 
  -1 -10  -7    4.88    0.82 
   1 -10   7    6.15    0.90 
  -1 -10  -7    3.33    0.88 
   1 -10   7    5.37    0.77 
   2 -10   7    0.55    0.62 
   2 -10   7   -0.63    0.64 
  -2 -10  -7    0.84    0.83 
  -2 -10  -7    0.68    0.72 
   3 -10   7    2.38    0.86 
  -3 -10  -7    3.02    0.81 
  -3 -10  -7    3.12    0.95 
   4 -10   7    2.69    0.97 
  -4 -10  -7    2.56    0.96 
  -4 -10  -7    4.18    0.95 
   5 -10   7    3.27    1.06 
  -5 -10  -7    3.54    0.95 
  -5 -10  -7    2.23    1.01 
   5 -11  -7    0.34    0.80 
  -5 -11   7   -0.27    0.95 
   4 -11  -7   -1.36    0.53 
  -4 -11   7    2.01    0.79 
   3 -11  -7   -0.71    0.60 
  -3 -11   7    0.73    0.72 
  -2 -11   7    2.88    0.76 
   2 -11  -7    1.31    0.64 
  -1 -11   7    0.35    0.61 
   1 -11  -7    0.65    0.60 
   0 -11   7    1.46    0.56 
   0 -11  -7    0.23    0.73 
   0 -11   7    0.21    0.66 
   1 -11   7    4.61    0.81 
   1 -11   7    4.58    0.87 
  -1 -11  -7    3.24    0.99 
  -2 -11  -7   -0.04    0.63 
  -2 -11  -7    1.48    0.94 
   2 -11   7    0.88    0.79 
   3 -11   7    3.47    0.96 
  -3 -11  -7    4.94    1.08 
  -3 -11  -7    2.49    0.85 
   4 -11   7    1.21    0.99 
  -4 -11  -7    1.70    1.06 
  -4 -11  -7    0.35    0.76 
  -4 -12   7    1.70    1.04 
   4 -12  -7    0.37    0.92 
  -3 -12   7    1.57    0.80 
   3 -12  -7    1.77    0.81 
   2 -12  -7    0.20    0.63 
  -2 -12   7    1.65    0.78 
   1 -12  -7    1.15    0.70 
  -1 -12   7    1.81    0.77 
   0 -12  -7    0.55    0.90 
   0 -12   7    0.92    0.73 
   0 -12   7   -0.54    0.62 
   1 -12   7    0.22    0.77 
  -1 -12  -7   -0.11    0.94 
  -2 -12  -7    0.13    0.98 
   2 -12   7    1.44    0.90 
  -3 -12  -7    1.10    0.79 
   3 -12   7    0.65    0.93 
  -3 -12  -7   -0.02    0.99 
   2 -13  -7   -0.02    0.66 
  -2 -13   7   -0.36    0.72 
  -1 -13   7    2.69    0.85 
   1 -13  -7    1.23    0.88 
   0 -13  -7    2.16    1.06 
   1 -13   7    1.45    0.96 
  -1 -13  -7    0.34    1.05 
  -9   0   8    0.44    0.57 
  -8   0   8    3.31    0.72 
  -7   0   8    0.56    0.53 
  -7   0   8    0.49    0.53 
  -6   0   8    5.41    0.79 
  -6   0   8    4.40    0.65 
  -5   0   8    0.10    0.31 
  -5   0   8    1.47    0.46 
  -4   0   8    5.92    0.59 
   4   0  -8    5.50    0.43 
  -3   0   8    1.08    0.37 
   3   0  -8    1.52    0.33 
   2   0  -8    6.57    0.52 
  -2   0   8    5.49    0.56 
  -1   0   8    4.84    0.44 
   0   0   8    1.97    0.38 
   1   0   8    1.86    0.40 
   2   0   8    4.59    0.53 
   3   0   8    0.01    0.16 
  -3   0  -8    0.74    0.43 
  -4   0  -8    0.27    0.51 
   4   0   8   -0.05    0.35 
   5   0   8    9.97    0.94 
  -5   0  -8    9.86    0.97 
  -6   0  -8    1.39    0.64 
   6   0   8    2.04    0.73 
   7   0   8    4.70    0.81 
  -7   0  -8    4.83    0.90 
   8   0   8   -0.08    0.61 
  -8   0  -8    0.58    0.84 
  -9  -1   8    0.70    0.59 
  -9   1   8   -0.02    0.55 
  -8  -1   8    2.51    0.68 
  -8  -1   8    1.29    0.66 
  -8   1   8    2.00    0.66 
  -7  -1   8   19.04    1.31 
  -7  -1   8   19.27    1.22 
  -7   1   8   19.77    1.36 
  -6  -1   8   14.19    1.13 
  -6  -1   8   15.83    1.08 
  -6   1   8   14.49    0.93 
  -6   1   8   15.48    1.21 
  -4  -1   8   20.21    1.06 
  -4   1   8   19.40    0.99 
  -4   1   8   20.03    1.13 
  -3  -1   8   13.71    0.59 
  -3  -1   8   13.94    0.89 
  -3   1   8   14.21    0.80 
  -2  -1   8    7.68    0.65 
  -2  -1   8    7.56    0.48 
  -2   1   8    8.04    0.62 
   1  -1  -8   14.70    0.81 
  -1  -1   8   15.35    0.86 
  -1  -1   8   14.90    0.72 
   0  -1   8   20.57    0.93 
   0  -1  -8   21.03    1.00 
   1  -1   8   38.26    1.51 
   1   1   8   39.55    1.54 
   2  -1   8    9.65    0.72 
  -2  -1  -8   10.35    0.84 
   2   1   8    9.95    0.68 
  -4  -1  -8    5.61    0.76 
   4   1   8    7.31    0.78 
  -5  -1  -8   17.48    1.21 
   5  -1   8   15.72    1.16 
  -5   1  -8   17.90    1.16 
   5   1   8   17.92    1.18 
   6  -1   8   13.50    1.16 
  -6  -1  -8   13.44    1.09 
  -6   1  -8   12.99    1.06 
   6   1   8   13.37    1.21 
  -7  -1  -8    4.78    0.96 
   7  -1   8    6.50    0.90 
  -7   1  -8    5.75    0.93 
   7   1   8    7.89    0.95 
  -8  -1  -8    1.52    0.91 
   8  -1   8    1.16    0.72 
   8   1   8    2.21    0.75 
  -8   1  -8    1.60    0.84 
  -9  -2   8    0.03    0.56 
  -9   2   8   -0.04    0.60 
  -8  -2   8    2.33    0.76 
  -8  -2   8    1.76    0.66 
  -8   2   8    1.52    0.63 
  -7  -2   8    0.79    0.55 
  -7  -2   8    0.59    0.59 
  -7   2   8    1.19    0.53 
  -6  -2   8    1.30    0.62 
  -6  -2   8    0.92    0.56 
  -6   2   8    1.45    0.50 
  -5  -2   8    8.02    0.81 
   5  -2  -8   10.29    0.75 
  -5   2   8    8.45    0.68 
  -5   2   8    9.46    0.87 
  -4  -2   8   12.79    0.91 
   4  -2  -8   13.89    0.82 
  -4   2   8   14.57    0.96 
  -4   2   8   13.38    0.78 
  -3  -2   8    4.90    0.61 
   3  -2  -8    5.70    0.54 
  -3  -2   8    4.38    0.30 
  -3   2   8    5.47    0.58 
  -3   2   8    5.43    0.50 
  -2  -2   8   33.41    1.19 
  -2  -2   8   32.97    1.45 
   2  -2  -8   34.90    1.36 
  -1  -2   8    3.79    0.40 
   1  -2  -8    4.53    0.52 
  -1  -2   8    3.27    0.50 
   0  -2   8   11.10    0.68 
   0  -2  -8   11.22    0.77 
   1  -2   8    1.74    0.43 
  -1  -2  -8    2.19    0.48 
  -1  -2  -8    2.56    0.52 
  -2  -2  -8   26.47    1.30 
   2  -2   8   26.68    1.20 
   3  -2   8   13.02    0.87 
   3   2   8   11.08    0.81 
  -4  -2  -8   -0.16    0.28 
   4  -2   8   -0.05    0.26 
   4   2   8    3.73    0.64 
   5  -2   8    4.28    0.76 
  -5  -2  -8    3.71    0.75 
   5   2   8    4.97    0.80 
   6  -2   8    7.78    0.91 
  -6  -2  -8    7.16    0.96 
   6   2   8    7.94    0.96 
  -7  -2  -8    0.78    0.84 
   7  -2   8    1.47    0.68 
   7   2   8    2.42    0.70 
   8  -2   8    0.58    0.66 
  -8  -2  -8    1.62    0.96 
   8   2   8    0.84    0.70 
  -9  -3   8    1.73    0.67 
  -9  -3   8    2.36    0.90 
  -9   3   8    1.67    0.77 
  -8  -3   8    2.23    0.67 
  -8  -3   8    2.93    0.86 
  -8   3   8    3.59    0.74 
  -7  -3   8    2.64    0.63 
  -7  -3   8    1.13    0.64 
  -7   3   8    0.81    0.53 
   6  -3  -8   14.55    0.95 
  -6  -3   8   13.25    1.13 
  -6   3   8   15.64    1.12 
   5  -3  -8   -0.13    0.46 
  -5  -3   8   -0.49    0.47 
  -5   3   8   -0.41    0.42 
  -4  -3   8   25.92    1.36 
   4  -3  -8   27.91    1.25 
  -4   3   8   26.48    1.11 
  -4   3   8   26.98    1.37 
   3  -3  -8    7.40    0.66 
  -3  -3   8    6.86    0.74 
  -3   3   8    7.57    0.57 
  -3   3   8    8.48    0.69 
   2  -3  -8   10.82    0.74 
  -2  -3   8   10.48    0.52 
  -2  -3   8   10.65    0.82 
  -2   3   8   10.67    0.76 
  -1  -3   8    9.35    0.56 
   1  -3  -8    8.02    0.69 
   0  -3   8    8.32    0.70 
   0  -3  -8    9.04    0.75 
   0  -3   8    8.60    0.60 
  -1  -3  -8   35.53    1.56 
   1  -3   8   37.70    1.48 
  -1  -3  -8   38.39    1.61 
   2  -3   8   10.99    0.78 
  -2  -3  -8   12.40    0.93 
  -3  -3  -8   16.92    1.12 
   3  -3   8   13.94    0.95 
   3   3   8   14.04    0.93 
  -4  -3  -8    0.65    0.45 
   4  -3   8   -0.15    0.32 
   4   3   8    2.51    0.64 
  -5  -3  -8    8.59    0.93 
   5  -3   8    9.53    0.95 
   5   3   8   10.73    1.01 
  -6  -3  -8   10.83    1.08 
   6  -3   8   11.05    1.06 
   6   3   8   11.17    1.06 
   7  -3   8    0.39    0.61 
  -7  -3  -8    1.56    0.90 
   7   3   8    0.21    0.58 
  -8  -3  -8    6.65    1.26 
   8  -3   8    6.88    1.06 
   8   3   8    6.79    0.97 
  -9  -4   8    0.19    0.91 
  -9  -4   8    1.25    0.67 
  -9   4   8    1.75    0.74 
  -8  -4   8    1.25    0.60 
  -8  -4   8   -0.29    0.79 
  -8   4   8    0.62    0.56 
  -7  -4   8    1.17    0.56 
  -7  -4   8    2.18    0.75 
  -7   4   8    1.88    0.62 
  -6  -4   8    4.18    0.78 
   6  -4  -8    4.94    0.73 
  -6   4   8    3.75    0.68 
   5  -4  -8    5.57    0.70 
  -5  -4   8    3.85    0.73 
  -5   4   8    5.38    0.71 
  -4  -4   8   21.10    1.25 
   4  -4  -8   18.87    1.08 
  -4   4   8   22.30    1.20 
   3  -4  -8   20.57    1.11 
  -3  -4   8   20.18    1.18 
  -3   4   8   20.26    1.09 
  -3   4   8   21.29    0.91 
  -2  -4   8   14.19    0.64 
   2  -4  -8   14.72    0.90 
  -2   4   8   14.49    0.87 
  -1  -4   8   11.12    0.63 
   1  -4  -8   10.76    0.82 
  -1  -4   8   11.32    0.86 
  -1   4   8   12.04    0.72 
   0  -4  -8   38.11    1.54 
   0  -4  -8   35.50    1.54 
   0  -4   8   35.32    1.57 
   0  -4   8   34.77    1.40 
   0   4   8   35.58    1.31 
  -1  -4  -8    9.13    0.80 
   1  -4   8    9.33    0.78 
  -1  -4  -8    9.29    0.79 
   1  -4   8    8.63    0.67 
   2  -4   8    2.69    0.53 
  -2  -4  -8    2.34    0.59 
   3  -4   8   14.23    0.98 
  -3  -4  -8   16.02    1.16 
  -3  -4  -8   15.63    1.07 
   3   4   8   14.82    1.03 
   4  -4   8   17.61    1.12 
  -4  -4  -8   18.66    1.36 
   4   4   8   19.85    1.22 
   5  -4   8    3.00    0.63 
  -5  -4  -8    4.93    0.81 
   5   4   8    5.03    0.82 
  -6  -4  -8    3.99    0.82 
   6  -4   8    4.78    0.82 
   6   4   8    5.80    0.82 
  -7  -4  -8   -0.23    0.77 
   7  -4   8    0.10    0.62 
   7   4   8   -0.48    0.54 
  -8  -4  -8    0.11    1.00 
   8  -4   8   -0.45    0.79 
   8   4   8   -0.12    0.63 
  -9  -5   8    3.33    1.12 
  -9  -5   8    3.53    0.75 
  -8  -5   8    0.32    0.92 
  -8  -5   8    1.07    0.58 
  -8   5   8    1.21    0.63 
  -7  -5   8    2.34    0.89 
  -7  -5   8    1.57    0.58 
  -7   5   8    1.23    0.62 
   6  -5  -8    4.67    0.78 
  -6  -5   8    5.18    0.88 
  -6   5   8    4.85    0.81 
   5  -5  -8   13.32    1.05 
  -5  -5   8   14.68    1.15 
  -5   5   8   13.20    1.05 
  -4  -5   8    3.86    0.71 
   4  -5  -8    3.98    0.66 
  -4   5   8    3.76    0.61 
   3  -5  -8    6.42    0.76 
  -3   5   8    7.54    0.52 
  -3   5   8    7.01    0.68 
  -2  -5   8    0.46    0.27 
   2  -5  -8    0.09    0.44 
  -2  -5   8   -0.45    0.29 
  -2   5   8    0.36    0.34 
  -1  -5   8    6.33    0.72 
   1  -5  -8    4.60    0.65 
  -1  -5   8    6.18    0.52 
  -1   5   8    6.36    0.54 
   0  -5   8    6.27    0.59 
   0  -5  -8    6.83    0.66 
   0  -5  -8    6.56    0.72 
   0  -5   8    6.35    0.70 
   0   5   8    4.59    0.42 
   1  -5   8   12.11    0.79 
  -1  -5  -8   11.43    0.90 
   1  -5   8   11.53    0.91 
   1   5   8   10.69    0.55 
   2  -5   8   21.42    1.18 
  -2  -5  -8   21.60    1.29 
  -3  -5  -8    7.15    0.91 
  -3  -5  -8    7.25    0.88 
   3  -5   8    7.05    0.80 
   4  -5   8   10.38    0.95 
  -4  -5  -8    9.96    1.08 
   4   5   8    9.83    0.98 
  -5  -5  -8    1.27    0.65 
   5  -5   8    0.81    0.53 
   5   5   8    0.72    0.65 
   6  -5   8    5.69    0.87 
  -6  -5  -8    6.62    0.92 
   6   5   8    5.47    0.80 
   7  -5   8    4.49    0.91 
  -7  -5  -8    4.41    0.89 
   7   5   8    5.51    0.87 
   8  -5   8    2.47    1.07 
  -8  -5  -8    0.00    1.02 
   8   5   8    2.80    0.81 
  -8  -6   8    2.41    1.09 
  -8  -6   8    2.20    0.67 
  -7  -6   8    0.13    0.82 
   7  -6  -8   -0.80    0.61 
  -7   6   8    0.45    0.67 
  -6  -6   8    0.62    0.78 
   6  -6  -8    1.32    0.68 
  -6   6   8   -0.25    0.57 
   5  -6  -8    1.78    0.65 
  -5  -6   8    2.11    0.71 
  -5   6   8    2.24    0.59 
   4  -6  -8    5.39    0.77 
  -4  -6   8    6.84    0.82 
  -4   6   8    5.14    0.69 
  -3  -6   8   15.40    1.16 
   3  -6  -8   18.31    1.16 
  -3   6   8   18.31    1.08 
   2  -6  -8   14.55    1.04 
  -2  -6   8   16.21    0.78 
  -2  -6   8   15.62    1.06 
  -2   6   8   14.64    0.92 
   1  -6  -8   28.17    1.45 
  -1  -6   8   30.12    1.24 
  -1  -6   8   30.05    1.50 
  -1   6   8   29.20    1.24 
   0  -6  -8   16.19    1.07 
   0  -6  -8   16.39    1.01 
   0  -6   8   15.22    1.09 
   0  -6   8   15.20    0.88 
   0   6   8   15.84    0.79 
  -1  -6  -8    3.44    0.63 
   1  -6   8    2.30    0.57 
   1  -6   8    2.94    0.51 
   2  -6   8    9.06    0.85 
   2  -6   8    9.40    0.89 
  -2  -6  -8   11.22    1.00 
  -2  -6  -8    9.00    0.93 
  -3  -6  -8   -1.32    0.54 
   3  -6   8    0.70    0.60 
   3  -6   8   -0.51    0.50 
  -3  -6  -8   -0.09    0.66 
  -4  -6  -8    6.94    0.96 
   4  -6   8    8.85    0.96 
  -4  -6  -8   11.31    1.12 
   4   6   8    9.47    0.98 
  -5  -6  -8    3.18    0.81 
   5  -6   8    2.60    0.69 
   5   6   8    4.43    0.73 
  -6  -6  -8    1.56    0.70 
   6  -6   8    3.60    0.78 
   6   6   8    2.17    0.67 
  -7  -6  -8    0.48    0.69 
   7  -6   8    1.30    0.72 
   7   6   8    0.52    0.67 
  -8  -7   8    0.78    1.08 
  -7  -7   8    5.81    1.13 
   7  -7  -8    4.53    0.78 
   6  -7  -8    5.33    0.82 
  -6  -7   8    4.95    0.94 
  -5  -7   8    3.57    0.78 
   5  -7  -8    3.62    0.78 
  -5   7   8    4.03    0.70 
  -4  -7   8    5.69    0.83 
   4  -7  -8    6.69    0.86 
  -4   7   8    5.58    0.71 
   3  -7  -8    1.21    0.65 
  -3  -7   8    3.07    0.78 
  -3   7   8    1.98    0.52 
  -2  -7   8   10.82    1.05 
   2  -7  -8   10.27    0.99 
  -2   7   8   12.25    0.89 
  -1  -7   8    0.87    0.61 
   1  -7  -8    0.24    0.44 
   1  -7  -8    0.33    0.57 
  -1  -7   8   -0.08    0.37 
   0  -7   8    7.27    0.84 
   0  -7  -8    8.44    0.78 
   0  -7   8    6.87    0.69 
   0  -7  -8    5.84    0.78 
  -1  -7  -8    4.48    0.72 
   1  -7   8    6.62    0.83 
  -1  -7  -8    5.25    0.79 
   1  -7   8    5.43    0.67 
   2  -7   8    6.65    0.79 
   2  -7   8    5.85    0.73 
  -2  -7  -8    6.20    0.85 
  -2  -7  -8    5.22    0.82 
   3  -7   8    1.00    0.57 
   3  -7   8   -0.42    0.51 
  -3  -7  -8    0.15    0.72 
  -3  -7  -8   -0.01    0.62 
  -4  -7  -8    0.54    0.75 
  -4  -7  -8    1.04    0.68 
   4  -7   8    0.98    0.61 
   4  -7   8    1.15    0.69 
  -5  -7  -8    2.67    0.82 
   5  -7   8    2.41    0.70 
   5   7   8    3.01    0.68 
  -6  -7  -8    1.00    0.75 
   6  -7   8    0.53    0.62 
   6   7   8    0.04    0.56 
   7  -7   8    3.34    0.84 
  -7  -7  -8    1.79    0.79 
   7   7   8    2.92    0.75 
  -7  -8   8    0.02    0.91 
   7  -8  -8    1.05    0.66 
  -6  -8   8   -0.18    0.62 
   6  -8  -8   -0.42    0.52 
  -5  -8   8    0.05    0.58 
   5  -8  -8    0.11    0.53 
   4  -8  -8    4.55    0.77 
  -4  -8   8    3.62    0.75 
  -3  -8   8    1.08    0.74 
   3  -8  -8    1.90    0.73 
  -2  -8   8   20.50    1.44 
   2  -8  -8   18.63    1.30 
  -1  -8   8    2.05    0.49 
   1  -8  -8    3.09    0.68 
  -1  -8   8    2.22    0.73 
   0  -8   8    2.60    0.54 
   0  -8  -8    2.53    0.65 
   0  -8   8    3.29    0.75 
   0  -8  -8    2.71    0.58 
  -1  -8  -8    0.51    0.49 
  -1  -8  -8    1.56    0.65 
   1  -8   8    0.69    0.62 
   1  -8   8   -0.61    0.45 
  -2  -8  -8    2.92    0.70 
   2  -8   8    1.81    0.59 
   2  -8   8    4.51    0.78 
  -2  -8  -8    2.37    0.75 
  -3  -8  -8    0.61    0.73 
   3  -8   8    0.74    0.63 
   3  -8   8   -0.25    0.58 
  -3  -8  -8    1.62    0.77 
  -4  -8  -8    0.06    0.79 
  -4  -8  -8    0.85    0.66 
   4  -8   8   -0.07    0.71 
  -5  -8  -8    2.21    0.81 
   5  -8   8    2.30    0.84 
  -5  -8  -8    2.98    0.97 
   5   8   8    1.92    0.67 
   6  -8   8    0.85    0.66 
  -6  -8  -8    1.74    0.77 
   6   8   8    1.59    0.64 
   7  -9  -8    0.78    0.68 
  -7  -9   8    0.88    0.80 
   6  -9  -8    5.06    0.85 
  -6  -9   8    5.69    0.99 
   5  -9  -8    3.93    0.79 
  -5  -9   8    4.45    0.88 
   4  -9  -8    0.58    0.59 
  -4  -9   8   -0.52    0.63 
  -3  -9   8    0.43    0.60 
   3  -9  -8    1.17    0.63 
  -2  -9   8    4.24    0.82 
   2  -9  -8    3.87    0.76 
  -1  -9   8    5.35    0.64 
   1  -9  -8    6.33    0.85 
  -1  -9   8    5.76    0.93 
   0  -9   8    2.59    0.57 
   0  -9  -8    3.02    0.70 
   0  -9   8    2.81    0.77 
   1  -9   8    6.11    0.76 
   1  -9   8    6.37    0.88 
  -1  -9  -8    6.64    0.87 
  -1  -9  -8    6.89    0.89 
   2  -9   8    3.92    0.78 
   2  -9   8    3.79    0.72 
  -2  -9  -8    4.43    0.84 
  -2  -9  -8    4.33    0.92 
   3  -9   8    5.79    0.95 
  -3  -9  -8    5.86    0.92 
   3  -9   8    6.81    0.90 
  -3  -9  -8    5.00    1.01 
   4  -9   8    3.09    0.93 
  -4  -9  -8    0.97    0.91 
  -4  -9  -8    1.07    0.72 
  -5  -9  -8    0.15    1.02 
  -5  -9  -8    0.21    0.69 
   5  -9   8    0.72    0.92 
   5   9   8    0.48    0.59 
  -6  -9  -8    2.86    1.17 
   6  -9   8    2.50    0.88 
   6   9   8    2.67    0.77 
  -6 -10   8   -0.42    0.66 
   6 -10  -8   -0.10    0.61 
  -5 -10   8    0.09    0.70 
   5 -10  -8    0.79    0.62 
  -4 -10   8    0.30    0.71 
   4 -10  -8    0.13    0.58 
  -3 -10   8    2.23    0.75 
   3 -10  -8    1.11    0.66 
  -2 -10   8    2.98    0.78 
   2 -10  -8    2.69    0.73 
  -1 -10   8    0.10    0.59 
   1 -10  -8    0.08    0.55 
   0 -10   8    1.08    0.69 
   0 -10  -8   -0.30    0.56 
   0 -10   8    1.30    0.55 
   1 -10   8    3.04    0.68 
  -1 -10  -8    1.52    0.76 
   1 -10   8    3.42    0.79 
  -2 -10  -8    0.31    0.74 
   2 -10   8    0.62    0.71 
  -2 -10  -8    0.34    0.84 
   2 -10   8    0.26    0.69 
   3 -10   8   -0.20    0.75 
  -3 -10  -8   -0.94    0.85 
  -3 -10  -8    0.03    0.63 
  -4 -10  -8    2.79    1.07 
   4 -10   8    4.99    1.10 
  -4 -10  -8    4.01    0.92 
  -5 -10  -8    0.98    1.05 
   5 -10   8   -0.10    0.95 
  -5 -10  -8   -0.67    0.75 
  -5 -11   8    2.27    1.14 
   5 -11  -8   -0.38    0.91 
   4 -11  -8   -0.48    0.64 
  -4 -11   8    2.57    0.83 
   3 -11  -8    1.38    0.69 
  -3 -11   8    1.34    0.77 
   2 -11  -8    0.79    0.62 
  -2 -11   8    1.24    0.72 
  -1 -11   8    1.49    0.73 
   1 -11  -8    1.08    0.63 
   0 -11  -8    6.45    0.97 
   0 -11   8    6.47    0.96 
   0 -11   8    6.60    0.82 
   1 -11   8    4.74    0.85 
   1 -11   8    5.02    0.87 
  -1 -11  -8    4.72    1.06 
  -2 -11  -8    0.32    0.95 
   2 -11   8    2.18    0.87 
  -2 -11  -8    2.27    0.73 
  -3 -11  -8    1.43    1.05 
  -3 -11  -8    2.61    0.82 
   3 -11   8    2.02    0.90 
   4 -11   8    2.10    1.05 
  -4 -11  -8    2.66    1.19 
  -4 -11  -8    1.33    0.82 
  -3 -12   8   -0.48    0.69 
   3 -12  -8    1.03    0.97 
   2 -12  -8    0.66    0.65 
  -2 -12   8    0.12    0.70 
   1 -12  -8    0.98    0.71 
  -1 -12   8    1.11    0.73 
   0 -12  -8    1.04    0.92 
   0 -12   8   -1.07    0.56 
  -1 -12  -8    0.41    1.00 
   1 -12   8    0.56    0.80 
   2 -12   8   -0.03    0.81 
  -2 -12  -8   -1.44    0.97 
  -3 -12  -8    1.15    1.20 
   3 -12   8    2.22    0.99 
  -9   0   9    1.76    0.71 
  -8   0   9    0.01    0.53 
  -7   0   9   17.72    1.27 
  -7   0   9   15.66    1.10 
  -6   0   9    2.12    0.56 
  -6   0   9    2.96    0.69 
  -5   0   9    4.28    0.63 
   4   0  -9    6.44    0.53 
  -4   0   9    7.60    0.71 
   3   0  -9    4.37    0.46 
  -3   0   9    4.13    0.54 
  -2   0   9    4.38    0.55 
  -1   0   9   -0.02    0.26 
   0   0   9   18.16    0.90 
   1   0   9    9.25    0.70 
   2   0   9   22.53    1.14 
   3   0   9    0.09    0.24 
  -4   0  -9    0.65    0.50 
   4   0   9    0.05    0.42 
  -5   0  -9   21.94    1.35 
   5   0   9   22.64    1.39 
   6   0   9    2.28    0.67 
  -6   0  -9    2.78    0.80 
   7   0   9    2.91    0.74 
  -7   0  -9    1.35    0.81 
   8   0   9   -0.15    0.70 
  -8   0  -9   -0.03    0.91 
  -9  -1   9    0.51    0.62 
  -9   1   9   -0.50    0.62 
  -8  -1   9    2.26    0.67 
  -8   1   9    3.33    0.72 
  -7  -1   9    0.59    0.57 
  -7  -1   9    0.15    0.51 
  -7   1   9    0.87    0.53 
  -6  -1   9   18.83    1.34 
  -6  -1   9   19.70    1.20 
  -6   1   9   19.45    1.25 
  -6   1   9   20.45    1.12 
  -5  -1   9    7.26    0.75 
  -5   1   9    6.32    0.66 
  -5   1   9    6.63    0.74 
  -4  -1   9   31.91    1.46 
  -4   1   9   30.59    1.35 
  -4   1   9   31.60    1.48 
  -3  -1   9   10.35    0.79 
   3  -1  -9    8.11    0.62 
  -3  -1   9   10.30    0.53 
  -3   1   9   10.50    0.75 
  -2  -1   9   10.41    0.81 
   2  -1  -9   10.06    0.73 
  -2  -1   9   10.19    0.59 
  -2   1   9   10.43    0.77 
  -1  -1   9    9.44    0.59 
   1  -1  -9    9.00    0.68 
   0  -1  -9   12.57    0.84 
   0  -1   9   12.21    0.75 
   0   1   9   12.58    0.76 
   1  -1   9    8.77    0.67 
   1   1   9    8.23    0.69 
   2  -1   9   16.22    0.95 
   2   1   9   16.08    0.96 
   4  -1   9    1.00    0.41 
  -4  -1  -9    1.74    0.62 
   4   1   9    1.56    0.58 
  -5  -1  -9    6.41    0.87 
   5  -1   9    7.97    0.92 
   5   1   9    6.69    0.86 
   6  -1   9    0.04    0.56 
  -6  -1  -9    1.18    0.76 
   6   1   9    0.90    0.62 
   7  -1   9    0.48    0.60 
  -7  -1  -9    0.24    0.79 
   7   1   9   -0.26    0.60 
   8  -1   9    2.42    0.81 
  -8  -1  -9    3.43    1.02 
   8   1   9    0.93    0.70 
  -9  -2   9    0.20    0.61 
  -9   2   9    1.86    0.82 
  -8  -2   9    4.63    0.88 
  -8  -2   9    2.32    0.67 
  -8   2   9    4.06    0.77 
  -7  -2   9    1.34    0.66 
  -7  -2   9    2.33    0.62 
  -7   2   9    1.08    0.55 
  -6  -2   9    3.62    0.73 
  -6  -2   9    3.66    0.69 
  -6   2   9    4.27    0.66 
   5  -2  -9    4.42    0.54 
  -5  -2   9    3.10    0.61 
  -5   2   9    3.76    0.62 
  -5   2   9    3.58    0.53 
  -4  -2   9   13.47    0.94 
   4  -2  -9   11.70    0.80 
  -4   2   9   11.72    0.77 
  -4   2   9   11.36    0.94 
  -3  -2   9    3.12    0.29 
   3  -2  -9    3.51    0.52 
  -3  -2   9    3.32    0.56 
  -3   2   9    3.64    0.48 
  -3   2   9    2.99    0.51 
  -2  -2   9    2.36    0.33 
  -2  -2   9    2.03    0.49 
   2  -2  -9    2.14    0.46 
  -1  -2   9   46.79    1.87 
  -1  -2   9   45.76    1.68 
   1  -2  -9   49.24    1.84 
   0  -2  -9    3.53    0.55 
   0  -2   9    2.85    0.43 
  -1  -2  -9   22.04    1.22 
   1  -2   9   25.53    1.14 
   1   2   9   23.18    1.16 
   2  -2   9    0.58    0.42 
  -2  -2  -9    0.38    0.50 
   2   2   9    0.82    0.38 
   3  -2   9    2.79    0.57 
  -3  -2  -9    0.52    0.40 
   3   2   9   -0.16    0.26 
   4  -2   9    1.22    0.46 
  -4  -2  -9    1.76    0.58 
   4   2   9    1.13    0.59 
   5  -2   9    4.19    0.69 
  -5  -2  -9    5.14    0.82 
   5   2   9    5.01    0.77 
  -6  -2  -9    7.15    1.02 
   6  -2   9    9.12    0.99 
   6   2   9    7.61    0.92 
   7  -2   9    0.93    0.65 
  -7  -2  -9    1.53    0.90 
   7   2   9    1.16    0.70 
  -8  -2  -9    2.58    1.06 
   8  -2   9    1.27    0.76 
   8   2   9    0.72    0.74 
  -9  -3   9    0.08    0.92 
  -9  -3   9   -0.25    0.58 
  -9   3   9    1.03    0.71 
  -8  -3   9    0.55    0.56 
  -8  -3   9    0.15    0.79 
  -8   3   9    1.00    0.60 
  -7  -3   9    2.80    0.64 
  -7  -3   9    1.78    0.68 
  -7   3   9    1.69    0.62 
  -6  -3   9    2.79    0.70 
  -6   3   9    3.16    0.64 
   5  -3  -9   10.98    0.86 
  -5  -3   9   10.62    0.97 
  -5   3   9   12.08    0.98 
   4  -3  -9    6.57    0.69 
  -4  -3   9    6.57    0.78 
  -4   3   9    7.55    0.75 
  -4   3   9    8.06    0.63 
   3  -3  -9    3.64    0.54 
  -3  -3   9    3.95    0.63 
  -3   3   9    3.68    0.45 
  -3   3   9    3.92    0.55 
   2  -3  -9    1.29    0.44 
  -2  -3   9    1.66    0.30 
  -2  -3   9    1.54    0.50 
  -2   3   9    1.68    0.39 
   1  -3  -9    5.17    0.63 
  -1  -3   9    5.27    0.46 
   0  -3   9   29.02    1.38 
   0  -3   9   27.08    1.20 
   0  -3  -9   29.27    1.35 
   1  -3   9    3.18    0.50 
  -1  -3  -9    3.17    0.62 
  -1  -3  -9    3.30    0.55 
  -2  -3  -9   39.90    1.69 
  -2  -3  -9   28.82    1.56 
   2  -3   9   39.68    1.58 
  -3  -3  -9    5.40    0.80 
   3  -3   9    4.02    0.65 
  -4  -3  -9   24.55    1.38 
   4  -3   9   22.04    1.27 
   4   3   9   23.49    1.37 
  -5  -3  -9    0.65    0.57 
   5  -3   9    1.31    0.55 
   5   3   9    0.97    0.67 
   6  -3   9    3.43    0.74 
  -6  -3  -9    2.37    0.75 
   6   3   9    3.94    0.76 
  -7  -3  -9    3.43    1.02 
   7  -3   9    3.76    0.82 
   7   3   9    3.86    0.80 
   8  -3   9   -0.58    0.84 
  -8  -3  -9    1.24    1.00 
   8   3   9   -0.06    0.69 
  -9  -4   9    3.18    1.06 
  -9  -4   9    1.31    0.67 
  -9   4   9    0.59    0.67 
  -8  -4   9    4.40    1.02 
  -8  -4   9    4.16    0.77 
  -8   4   9    2.62    0.73 
  -7  -4   9    2.40    0.82 
  -7  -4   9    1.01    0.55 
  -7   4   9    3.27    0.71 
  -6  -4   9    8.97    0.99 
   6  -4  -9    8.54    0.87 
  -6   4   9    7.04    0.86 
  -5  -4   9    3.20    0.69 
   5  -4  -9    3.06    0.64 
  -5   4   9    2.49    0.60 
  -4  -4   9    4.81    0.74 
   4  -4  -9    3.85    0.62 
  -4   4   9    3.04    0.58 
  -3  -4   9    1.17    0.53 
   3  -4  -9    0.86    0.48 
  -3   4   9    1.63    0.38 
  -3   4   9    1.36    0.43 
   2  -4  -9    6.68    0.69 
  -2  -4   9    6.14    0.46 
  -2   4   9    6.16    0.60 
   1  -4  -9    4.98    0.63 
  -1  -4   9    4.63    0.47 
  -1  -4   9    2.82    0.51 
  -1   4   9    5.36    0.52 
   0  -4   9   25.82    1.14 
   0  -4  -9   26.40    1.33 
   0  -4   9   24.56    1.33 
   0   4   9   25.58    1.05 
  -1  -4  -9   15.84    1.07 
  -1  -4  -9   13.77    1.00 
   1  -4   9   15.45    0.92 
  -2  -4  -9   12.66    1.06 
   2  -4   9   15.43    0.96 
   3  -4   9   -0.36    0.45 
  -3  -4  -9    0.08    0.55 
  -3  -4  -9    0.30    0.51 
   3   4   9    0.25    0.52 
  -4  -4  -9    9.84    1.04 
   4  -4   9    9.78    0.91 
   4   4   9   10.10    1.00 
  -5  -4  -9    1.28    0.63 
   5  -4   9    1.23    0.52 
   5   4   9    2.03    0.67 
   6  -4   9    9.04    1.00 
  -6  -4  -9    8.94    1.04 
   6   4   9    5.85    0.88 
   7  -4   9    2.28    0.78 
  -7  -4  -9    1.30    0.85 
   7   4   9    2.48    0.75 
   8  -4   9   -0.84    0.97 
  -8  -4  -9    0.99    1.06 
   8   4   9   -0.46    0.70 
  -8  -5   9    0.10    0.91 
  -8  -5   9    0.35    0.58 
  -8   5   9   -0.19    0.60 
  -7  -5   9    1.20    0.55 
  -7  -5   9    0.78    0.83 
  -7   5   9    0.91    0.67 
   6  -5  -9    1.27    0.63 
  -6  -5   9    1.30    0.76 
  -6   5   9    1.04    0.63 
  -5  -5   9   16.16    1.23 
   5  -5  -9   16.01    1.13 
  -5   5   9   16.15    1.15 
   4  -5  -9    3.97    0.68 
  -4  -5   9    3.36    0.71 
  -4   5   9    2.28    0.55 
   3  -5  -9   15.49    1.02 
  -3   5   9   14.88    0.99 
   2  -5  -9    3.60    0.65 
  -2  -5   9    3.46    0.39 
  -2   5   9    2.71    0.48 
   1  -5  -9    4.43    0.68 
  -1  -5   9    4.30    0.69 
  -1  -5   9    4.27    0.49 
  -1   5   9    5.31    0.52 
   0  -5  -9    2.83    0.55 
   0  -5   9    2.44    0.47 
   0  -5  -9    1.58    0.57 
   0  -5   9    2.27    0.59 
   0   5   9    2.07    0.34 
  -1  -5  -9   20.39    1.19 
  -1  -5  -9   14.79    1.11 
   1  -5   9   20.66    1.23 
   1  -5   9   23.05    1.12 
  -2  -5  -9   21.29    1.35 
   2  -5   9   24.63    1.25 
   3  -5   9   30.30    1.50 
  -3  -5  -9   28.22    1.57 
  -3  -5  -9   28.67    1.65 
  -4  -5  -9    9.16    1.09 
   4  -5   9   12.10    1.05 
   4   5   9   10.20    1.04 
  -5  -5  -9    2.03    0.72 
   5  -5   9    2.88    0.69 
   5   5   9    2.37    0.68 
   6  -5   9    4.13    0.80 
  -6  -5  -9    3.81    0.87 
   6   5   9    3.73    0.76 
   7  -5   9    1.06    0.70 
  -7  -5  -9   -0.34    0.64 
   7   5   9    0.65    0.63 
  -8  -6   9    1.37    0.64 
  -8  -6   9    0.25    1.01 
  -8   6   9    0.51    0.81 
  -7  -6   9    9.09    1.23 
  -7   6   9    6.48    0.99 
   6  -6  -9    7.35    0.91 
  -6  -6   9    6.40    1.09 
  -6   6   9    5.90    0.90 
   5  -6  -9    3.93    0.78 
  -5  -6   9    3.95    0.80 
  -5   6   9    3.52    0.68 
  -4  -6   9    6.33    0.82 
   4  -6  -9    7.77    0.92 
  -4   6   9    5.73    0.73 
   3  -6  -9    1.98    0.63 
  -3  -6   9    1.68    0.62 
  -3   6   9    1.77    0.50 
  -2  -6   9    9.88    1.00 
   2  -6  -9    9.34    0.90 
  -2   6   9    8.75    0.73 
  -1  -6   9    4.15    0.51 
   1  -6  -9    4.45    0.74 
  -1  -6   9    4.71    0.74 
  -1   6   9    4.37    0.50 
   0  -6  -9   30.70    1.46 
   0  -6  -9   30.55    1.54 
   0  -6   9   30.82    1.57 
   0  -6   9   28.01    1.31 
   1  -6   9    4.44    0.73 
  -1  -6  -9    4.12    0.71 
  -1  -6  -9    6.08    0.76 
   1  -6   9    4.03    0.63 
  -2  -6  -9   19.52    1.34 
   2  -6   9   20.66    1.31 
   2  -6   9   22.10    1.22 
  -2  -6  -9   22.09    1.32 
   3  -6   9    5.18    0.80 
  -3  -6  -9    6.19    0.88 
   3  -6   9    5.45    0.77 
  -3  -6  -9    5.61    0.92 
  -4  -6  -9    2.06    0.84 
   4  -6   9    2.72    0.74 
  -4  -6  -9    1.91    0.75 
   4   6   9    1.69    0.65 
   5  -6   9    2.85    0.72 
  -5  -6  -9    2.38    0.75 
   5   6   9    1.63    0.63 
  -6  -6  -9   -0.38    0.65 
   6  -6   9    0.56    0.62 
   6   6   9   -0.45    0.59 
   7  -6   9    3.09    0.82 
  -7  -6  -9    1.23    0.79 
   7   6   9    1.00    0.69 
  -8  -7   9    0.50    0.60 
  -8  -7   9    0.53    1.06 
  -7  -7   9    0.93    1.00 
   7  -7  -9    1.29    0.64 
   6  -7  -9   -0.64    0.49 
  -6  -7   9    0.69    0.79 
  -6   7   9    0.97    0.69 
   5  -7  -9    0.86    0.67 
  -5  -7   9    0.31    0.59 
  -5   7   9    1.27    0.60 
   4  -7  -9    6.02    0.88 
  -4  -7   9    6.68    0.87 
  -4   7   9    4.93    0.71 
  -3  -7   9    8.95    1.05 
   3  -7  -9    8.93    0.96 
  -3   7   9    9.96    0.83 
  -2  -7   9    2.11    0.74 
   2  -7  -9    2.81    0.73 
  -2   7   9    2.89    0.52 
  -1  -7   9    9.06    1.00 
  -1  -7   9   10.54    0.72 
   1  -7  -9    8.78    0.98 
  -1   7   9    9.50    0.70 
   0  -7  -9   12.24    0.96 
   0  -7   9   11.60    0.82 
   0  -7   9   11.71    1.05 
   0  -7  -9   11.49    1.07 
   1  -7   9   32.35    1.49 
  -1  -7  -9   31.78    1.65 
   1  -7   9   33.53    1.66 
  -1  -7  -9   31.64    1.64 
  -2  -7  -9    0.38    0.70 
   2  -7   9    0.15    0.51 
  -2  -7  -9    0.80    0.59 
   2  -7   9   -0.01    0.62 
   3  -7   9   14.08    1.14 
  -3  -7  -9   12.85    1.21 
   3  -7   9   13.29    1.07 
  -3  -7  -9   13.12    1.28 
   4  -7   9    4.11    0.85 
  -4  -7  -9    4.54    1.01 
  -4  -7  -9    4.20    0.86 
   4  -7   9    4.95    0.87 
   4   7   9    5.48    0.80 
  -5  -7  -9    7.11    1.05 
   5  -7   9    5.51    0.95 
   5   7   9    7.80    0.95 
   6  -7   9    0.67    0.64 
  -6  -7  -9    0.19    0.74 
   6   7   9    0.43    0.61 
   7  -7   9    0.14    0.65 
  -7  -7  -9   -0.02    0.79 
   7   7   9   -0.46    0.62 
   7  -8  -9    1.64    0.71 
  -7  -8   9    0.94    1.03 
  -6  -8   9    4.64    0.89 
   6  -8  -9    6.16    0.86 
  -5  -8   9    0.29    0.56 
   5  -8  -9    0.60    0.57 
  -4  -8   9    0.62    0.57 
   4  -8  -9    0.41    0.55 
  -3  -8   9    2.30    0.66 
   3  -8  -9    1.28    0.63 
  -2  -8   9    5.50    0.93 
   2  -8  -9    5.38    0.86 
  -1  -8   9    2.71    0.50 
   1  -8  -9    0.52    0.61 
  -1  -8   9    1.98    0.72 
   0  -8  -9    1.74    0.63 
   0  -8   9    1.67    0.50 
   0  -8  -9    1.37    0.59 
   0  -8   9    2.02    0.71 
  -1  -8  -9    3.65    0.75 
   1  -8   9    4.65    0.70 
  -1  -8  -9    4.82    0.76 
   1  -8   9    5.68    0.86 
  -2  -8  -9    1.07    0.68 
  -2  -8  -9    0.67    0.70 
   2  -8   9    0.28    0.63 
   2  -8   9   -0.04    0.54 
  -3  -8  -9    7.98    0.99 
   3  -8   9    7.03    0.98 
  -3  -8  -9    8.64    1.11 
   3  -8   9    7.40    0.95 
  -4  -8  -9   -1.56    0.84 
   4  -8   9    0.08    0.74 
   4  -8   9   -1.10    0.62 
  -4  -8  -9    0.26    0.68 
   5  -8   9    1.17    0.86 
  -5  -8  -9    1.88    0.82 
   5   8   9    2.43    0.69 
   6  -8   9   -0.84    0.60 
  -6  -8  -9   -0.14    0.92 
   6   8   9   -0.33    0.60 
   6  -9  -9    1.40    0.68 
  -6  -9   9    2.22    0.75 
  -5  -9   9    3.77    0.86 
   5  -9  -9    1.51    0.64 
  -4  -9   9   -0.13    0.64 
   4  -9  -9    1.11    0.61 
   3  -9  -9    4.00    0.76 
  -3  -9   9    2.81    0.76 
   2  -9  -9    0.71    0.57 
  -2  -9   9    0.32    0.61 
  -1  -9   9    2.36    0.68 
   1  -9  -9    1.34    0.63 
   0  -9   9    2.64    0.79 
   0  -9  -9    3.33    0.72 
   0  -9   9    2.41    0.58 
  -1  -9  -9    1.11    0.68 
  -1  -9  -9   -0.04    0.58 
   1  -9   9   -0.12    0.64 
   1  -9   9    0.03    0.51 
  -2  -9  -9    7.42    1.05 
   2  -9   9    7.01    0.93 
  -2  -9  -9    6.16    1.02 
   2  -9   9    6.16    0.85 
  -3  -9  -9    3.26    0.81 
  -3  -9  -9    1.44    0.92 
   3  -9   9    2.21    0.83 
   3  -9   9    2.97    0.81 
  -4  -9  -9    8.92    1.12 
  -4  -9  -9    7.62    1.23 
   4  -9   9    8.82    1.19 
  -5  -9  -9    1.00    0.77 
  -5  -9  -9    0.21    1.03 
   5  -9   9    0.71    0.92 
   5   9   9   -0.13    0.58 
   5 -10  -9    0.74    0.67 
  -5 -10   9   -0.25    0.78 
  -4 -10   9   -0.72    0.63 
   4 -10  -9   -0.13    0.64 
  -3 -10   9    5.52    0.96 
   3 -10  -9    4.44    0.83 
  -2 -10   9    1.00    0.67 
   2 -10  -9    0.61    0.62 
   1 -10  -9    6.79    0.91 
  -1 -10   9    7.17    0.97 
   0 -10   9   -0.07    0.56 
   0 -10  -9   -0.24    0.56 
   0 -10   9    0.08    0.50 
   1 -10   9    1.46    0.63 
  -1 -10  -9    1.04    0.70 
   1 -10   9    2.17    0.72 
   2 -10   9    3.00    0.83 
  -2 -10  -9    2.79    0.74 
  -2 -10  -9    0.96    0.95 
   2 -10   9    1.95    0.73 
  -3 -10  -9    0.70    0.69 
   3 -10   9    1.59    0.87 
  -3 -10  -9    1.34    0.96 
  -4 -10  -9    2.02    0.85 
  -4 -10  -9    1.62    1.10 
   4 -10   9    3.15    1.03 
  -5 -10  -9    0.19    1.17 
   5 -10   9   -0.74    0.96 
  -5 -10  -9   -0.65    0.89 
   5  10   9    0.72    0.67 
  -4 -11   9    2.04    1.06 
   4 -11  -9    1.64    0.89 
   3 -11  -9    0.22    0.65 
  -3 -11   9   -0.03    0.68 
   2 -11  -9    1.85    0.72 
  -2 -11   9    1.26    0.72 
  -1 -11   9   -0.21    0.63 
   1 -11  -9    0.26    0.61 
   0 -11   9    5.73    0.92 
   0 -11  -9    1.80    0.72 
  -1 -11  -9   -0.13    0.85 
   1 -11   9    0.11    0.70 
   1 -11   9    0.08    0.58 
  -2 -11  -9    3.25    1.16 
   2 -11   9    2.73    0.91 
   3 -11   9    3.51    0.99 
  -3 -11  -9    2.63    0.83 
  -3 -11  -9    4.08    1.23 
   3 -12  -9    0.70    0.97 
  -3 -12   9    0.50    0.99 
   2 -12  -9    2.48    0.81 
  -2 -12   9    3.57    0.95 
  -1 -12   9    2.98    0.87 
   1 -12  -9    2.94    0.85 
   0 -12  -9    4.55    0.97 
   0 -12   9    3.92    0.86 
  -1 -12  -9    2.89    1.15 
   1 -12   9    1.22    0.85 
   2 -12   9    0.81    0.91 
  -2 -12  -9    1.66    1.12 
  -9   0  10    0.26    0.76 
  -8   0  10    2.87    0.72 
  -7   0  10    2.25    0.63 
  -6   0  10    9.26    0.86 
  -6   0  10    9.20    0.91 
  -5   0  10    4.33    0.62 
  -5   0  10    3.60    0.61 
  -4   0  10   15.26    0.94 
  -3   0  10   -0.20    0.40 
   3   0 -10   -0.24    0.29 
  -2   0  10    3.28    0.54 
   2   0 -10    3.15    0.51 
  -2   0  10    2.42    0.41 
  -1   0  10   32.67    1.33 
   0   0  10    1.11    0.38 
   1   0  10   21.91    1.10 
   2   0  10    5.47    0.68 
   3   0  10   17.00    1.07 
   4   0  10    1.72    0.55 
   5   0  10    4.39    0.76 
   6   0  10    0.76    0.62 
  -6   0 -10    1.53    0.78 
   7   0  10    0.48    0.62 
  -7   0 -10    0.29    0.83 
   8   0  10    5.45    1.10 
  -9  -1  10    0.15    0.78 
  -9   1  10    2.01    0.91 
  -8  -1  10    2.18    0.68 
  -8   1  10    1.22    0.62 
  -7  -1  10    4.05    0.75 
  -7  -1  10    4.08    0.73 
  -7   1  10    3.55    0.70 
  -6  -1  10    3.25    0.68 
  -6  -1  10    4.75    0.72 
  -6   1  10    4.18    0.68 
  -6   1  10    4.37    0.61 
  -5  -1  10    3.40    0.63 
  -5   1  10    3.31    0.55 
  -5   1  10    4.95    0.68 
   4  -1 -10   14.59    0.83 
  -4  -1  10   12.19    0.93 
  -4   1  10   14.15    0.90 
   3  -1 -10    4.43    0.55 
  -3  -1  10    5.91    0.68 
  -3  -1  10    6.17    0.47 
  -3   1  10    5.33    0.61 
  -2  -1  10    2.18    0.52 
  -2  -1  10    2.39    0.37 
   2  -1 -10    1.13    0.46 
  -2   1  10    3.05    0.51 
  -1  -1  10   25.39    1.09 
   1  -1 -10   25.31    1.22 
   0  -1  10   -0.20    0.32 
   0   1  10    0.19    0.35 
   1  -1  10   13.31    0.85 
   1   1  10   12.85    0.86 
   2  -1  10    2.55    0.53 
   2   1  10    2.99    0.57 
   3  -1  10   10.35    0.91 
  -4  -1 -10    3.44    0.65 
   4  -1  10    4.38    0.69 
   4   1  10    5.19    0.76 
  -5  -1 -10    6.30    0.84 
   5  -1  10    6.29    0.81 
   5   1  10    3.89    0.77 
   6  -1  10    1.56    0.65 
  -6  -1 -10    0.77    0.80 
   6   1  10    0.98    0.58 
   7  -1  10   -0.24    0.60 
  -7  -1 -10   -0.88    0.84 
   7   1  10    0.49    0.64 
  -8  -1 -10   -0.07    0.95 
   8  -1  10   -0.67    0.90 
   8   1  10   -0.89    0.69 
  -9  -2  10    0.91    0.76 
  -9   2  10    2.08    0.93 
  -8  -2  10    1.35    0.77 
  -8  -2  10    1.27    0.63 
  -8   2  10    0.22    0.56 
  -7  -2  10    5.73    0.84 
  -7  -2  10    5.92    0.82 
  -7   2  10    4.17    0.74 
  -6  -2  10    4.08    0.71 
  -6  -2  10    5.95    0.78 
  -6   2  10    4.54    0.72 
  -5  -2  10   13.24    1.01 
  -5   2  10   13.49    1.05 
  -5   2  10   13.51    0.87 
  -4  -2  10    7.55    0.81 
   4  -2 -10    6.62    0.73 
  -4   2  10    7.66    0.80 
  -4   2  10    6.85    0.65 
   3  -2 -10   12.46    0.87 
  -3  -2  10   13.29    0.97 
  -3  -2  10   13.35    0.62 
  -3   2  10   13.07    0.85 
  -2  -2  10    2.86    0.38 
  -2  -2  10    2.08    0.52 
   2  -2 -10    1.77    0.50 
  -1  -2  10   12.26    0.70 
   1  -2 -10    9.81    0.82 
  -1  -2  10   11.32    0.84 
   0  -2  10   11.93    0.79 
   0  -2 -10   11.91    0.90 
   1  -2  10   14.82    0.94 
  -1  -2 -10   16.12    1.07 
   1   2  10   16.74    0.98 
   2  -2  10   28.55    1.41 
   2   2  10   30.23    1.42 
   3  -2  10    7.70    0.82 
  -3  -2 -10    7.96    0.90 
   4  -2  10    2.13    0.58 
  -4  -2 -10    3.51    0.69 
   4   2  10    3.18    0.66 
   5  -2  10   12.06    0.97 
  -5  -2 -10    9.84    1.04 
   5   2  10   11.42    1.08 
   6  -2  10    2.05    0.69 
  -6  -2 -10    3.49    0.88 
   6   2  10    1.50    0.66 
   7  -2  10    2.27    0.80 
  -7  -2 -10    0.80    0.91 
   7   2  10    2.12    0.76 
  -8  -2 -10    2.27    1.06 
   8  -2  10    1.48    1.01 
   8   2  10    4.04    0.94 
  -9  -3  10    0.56    0.69 
  -9   3  10   -0.35    0.60 
  -8  -3  10    0.41    0.58 
  -8  -3  10    0.19    0.77 
  -8   3  10    1.69    0.64 
  -7  -3  10    2.48    0.64 
  -7  -3  10    1.78    0.72 
  -7   3  10    2.09    0.62 
  -6  -3  10   -0.45    0.53 
  -6   3  10   -0.11    0.47 
  -5  -3  10    2.26    0.62 
   5  -3 -10    0.84    0.52 
  -5   3  10    2.94    0.63 
  -4  -3  10    4.28    0.71 
   4  -3 -10    3.78    0.59 
  -4   3  10    3.80    0.62 
  -4   3  10    4.12    0.50 
  -3  -3  10   13.45    1.00 
   3  -3 -10   13.73    0.92 
  -3   3  10   12.71    0.82 
  -3   3  10   11.59    0.93 
  -2  -3  10   11.03    0.63 
  -2  -3  10   11.35    0.94 
   2  -3 -10   12.30    0.90 
  -2   3  10   11.59    0.82 
   1  -3 -10   10.01    0.85 
  -1  -3  10    9.13    0.63 
   0  -3  10    1.64    0.43 
   0  -3  10    0.10    0.30 
   0  -3 -10    1.12    0.53 
   1  -3  10    8.58    0.72 
  -1  -3 -10    9.22    0.89 
   2  -3  10    2.18    0.54 
  -2  -3 -10    3.07    0.66 
  -2  -3 -10    1.67    0.60 
   2   3  10    0.01    0.35 
   3  -3  10    0.32    0.50 
  -3  -3 -10    0.86    0.65 
   3   3  10    0.69    0.51 
  -4  -3 -10    2.27    0.68 
   4  -3  10    2.67    0.63 
   4   3  10    2.11    0.71 
   5  -3  10    3.78    0.72 
  -5  -3 -10    2.84    0.68 
   5   3  10    3.77    0.73 
   6  -3  10    3.37    0.73 
  -6  -3 -10    3.16    0.80 
   6   3  10    3.51    0.78 
   7  -3  10    0.20    0.65 
  -7  -3 -10    1.23    0.95 
   7   3  10   -0.41    0.62 
  -8  -4  10    0.16    0.56 
  -8  -4  10    0.32    0.86 
  -8   4  10    0.54    0.61 
  -7  -4  10    4.58    0.94 
  -7  -4  10    4.40    0.74 
  -7   4  10    4.62    0.81 
  -6  -4  10    2.22    0.75 
  -6   4  10    1.88    0.68 
   5  -4 -10   21.61    1.22 
  -5  -4  10   20.37    1.32 
  -5   4  10   20.37    1.29 
   4  -4 -10    1.42    0.55 
  -4  -4  10    1.12    0.59 
  -4   4  10    0.25    0.44 
   3  -4 -10    4.12    0.65 
  -3  -4  10    5.19    0.75 
  -3   4  10    6.09    0.67 
  -3   4  10    5.64    0.55 
   2  -4 -10    4.95    0.68 
  -2  -4  10    5.78    0.46 
  -2   4  10    5.67    0.59 
   1  -4 -10   13.60    0.99 
  -1  -4  10   14.17    0.76 
  -1   4  10   14.84    0.86 
   0  -4 -10   23.42    1.30 
   0  -4  10   22.70    1.11 
   0  -4  10   24.73    1.34 
  -1  -4 -10    2.30    0.61 
  -1  -4 -10    2.22    0.67 
   1  -4  10    3.03    0.53 
  -2  -4 -10   29.94    1.55 
   2  -4  10   30.56    1.45 
  -2  -4 -10   28.36    1.49 
   3  -4  10    0.86    0.55 
  -3  -4 -10    1.12    0.71 
   3   4  10    1.14    0.61 
   4  -4  10    3.21    0.68 
  -4  -4 -10    3.26    0.87 
   4   4  10    3.22    0.78 
   5  -4  10    7.13    0.89 
  -5  -4 -10    7.70    0.97 
   5   4  10    6.27    0.88 
  -6  -4 -10    3.90    0.87 
   6  -4  10    4.80    0.81 
   6   4  10    4.74    0.85 
   7  -4  10    4.93    0.92 
  -7  -4 -10    5.14    1.03 
   7   4  10    5.59    0.95 
  -8  -5  10    1.85    1.04 
  -8  -5  10    1.63    0.65 
  -8   5  10    1.18    0.78 
  -7  -5  10    1.57    0.89 
  -7   5  10    1.01    0.76 
  -6  -5  10    1.84    0.82 
   6  -5 -10    1.46    0.68 
  -6   5  10   -0.16    0.61 
  -5  -5  10    7.56    0.99 
   5  -5 -10    8.14    0.90 
  -5   5  10    7.92    0.85 
  -4  -5  10   10.48    1.04 
   4  -5 -10   11.47    0.99 
  -4   5  10   12.84    0.97 
  -3  -5  10    7.21    0.84 
   3  -5 -10    8.26    0.84 
  -3   5  10    7.69    0.75 
   2  -5 -10   13.27    1.00 
  -2   5  10   12.59    0.90 
  -1  -5  10    9.26    0.67 
  -1  -5  10    9.92    0.97 
   1  -5 -10    9.65    0.91 
  -1   5  10   11.27    0.77 
   0  -5  10    8.11    0.86 
   0  -5  10    9.75    0.73 
   0  -5 -10    9.18    0.93 
   0   5  10    9.02    0.62 
  -1  -5 -10    2.06    0.64 
  -1  -5 -10    2.08    0.70 
   1  -5  10    3.11    0.58 
   1  -5  10    2.51    0.66 
   2  -5  10    7.52    0.80 
  -2  -5 -10    6.84    0.90 
  -2  -5 -10    6.96    0.87 
  -3  -5 -10    3.46    0.77 
   3  -5  10    5.17    0.77 
  -3  -5 -10    4.46    0.90 
   3   5  10    5.62    0.84 
   4  -5  10    4.93    0.84 
  -4  -5 -10    5.80    0.92 
   4   5  10    4.34    0.77 
   5  -5  10    2.33    0.70 
  -5  -5 -10    1.80    0.71 
   5   5  10    2.99    0.74 
  -6  -5 -10    4.97    0.93 
   6  -5  10    5.44    0.89 
   6   5  10    5.42    0.86 
   7  -5  10   -0.09    0.64 
  -7  -5 -10    0.32    0.69 
   7   5  10    0.50    0.71 
  -8  -6  10    4.53    0.81 
  -8  -6  10    3.03    1.17 
  -8   6  10    3.42    1.01 
  -7  -6  10    0.00    0.88 
  -7   6  10    0.46    0.75 
  -6  -6  10    6.59    1.10 
   6  -6 -10    8.61    1.00 
  -6   6  10    7.36    0.96 
   5  -6 -10    0.83    0.69 
  -5  -6  10    2.42    0.77 
  -5   6  10    2.54    0.65 
  -4  -6  10    6.03    0.83 
   4  -6 -10    4.75    0.77 
  -4   6  10    5.46    0.71 
   3  -6 -10    2.09    0.66 
  -3  -6  10    2.01    0.57 
  -3   6  10    2.94    0.54 
  -2  -6  10    4.20    0.79 
   2  -6 -10    3.93    0.75 
  -2   6  10    3.67    0.53 
  -1  -6  10    6.43    0.87 
  -1  -6  10    6.00    0.59 
   1  -6 -10    5.08    0.81 
  -1   6  10    6.15    0.58 
   0  -6  10    0.62    0.42 
   0  -6 -10    0.76    0.51 
   0  -6  10    0.53    0.59 
   0  -6 -10    1.33    0.67 
  -1  -6 -10   16.79    1.20 
   1  -6  10   13.56    0.95 
  -1  -6 -10   15.34    1.23 
   1  -6  10   14.29    1.20 
   2  -6  10    8.47    0.87 
   2  -6  10   10.04    1.00 
  -2  -6 -10    8.91    0.96 
  -2  -6 -10    9.50    1.03 
   3  -6  10    7.29    0.89 
  -3  -6 -10    6.27    1.01 
  -3  -6 -10    5.99    0.92 
   3  -6  10    7.55    0.95 
   4  -6  10    1.20    0.73 
  -4  -6 -10    1.78    0.74 
   4   6  10    2.55    0.67 
  -5  -6 -10   -0.40    0.69 
   5  -6  10    0.71    0.71 
   5   6  10    0.00    0.58 
  -6  -6 -10    5.21    0.97 
   6  -6  10    4.55    0.88 
   6   6  10    3.62    0.81 
   7  -6  10    3.22    0.84 
  -7  -6 -10    1.65    0.83 
   7   6  10    1.96    0.76 
  -7  -7  10    1.75    1.03 
  -7   7  10   -0.06    0.77 
  -6  -7  10    1.22    0.90 
   6  -7 -10    1.10    0.65 
  -6   7  10    1.04    0.72 
   5  -7 -10    4.37    0.78 
  -5  -7  10    2.70    0.72 
  -5   7  10    4.80    0.79 
  -4  -7  10    7.69    0.92 
   4  -7 -10    6.54    0.90 
  -4   7  10    6.31    0.78 
   3  -7 -10   10.17    1.01 
  -3  -7  10   10.37    1.05 
  -3   7  10   10.49    0.88 
  -2  -7  10   22.78    1.53 
   2  -7 -10   23.28    1.39 
  -2   7  10   22.62    1.19 
  -1  -7  10    4.86    0.86 
  -1  -7  10    3.79    0.54 
   1  -7 -10    4.38    0.83 
   0  -7 -10   11.66    1.11 
   0  -7  10   10.41    0.82 
   0  -7  10   11.87    1.12 
   0  -7 -10   10.98    0.96 
  -1  -7 -10    1.37    0.63 
   1  -7  10    1.88    0.68 
  -1  -7 -10    2.13    0.68 
   1  -7  10    1.83    0.56 
  -2  -7 -10    2.76    0.71 
   2  -7  10    0.95    0.53 
   2  -7  10    1.67    0.70 
  -2  -7 -10    1.06    0.72 
  -3  -7 -10    9.86    1.07 
  -3  -7 -10    8.32    1.06 
   3  -7  10   10.64    1.05 
   3  -7  10    8.96    1.03 
  -4  -7 -10    8.09    1.20 
   4  -7  10    6.76    0.96 
  -4  -7 -10    6.86    1.01 
   4  -7  10    5.41    0.97 
   4   7  10    5.45    0.86 
  -5  -7 -10    2.00    0.83 
   5  -7  10    2.82    0.94 
   5   7  10    2.82    0.73 
   6  -7  10    2.40    0.75 
  -6  -7 -10    0.96    0.84 
   6   7  10    1.82    0.73 
  -7  -8  10    0.76    1.09 
   6  -8 -10    0.27    0.58 
  -6  -8  10   -0.27    0.73 
   5  -8 -10    0.01    0.60 
  -5  -8  10    0.24    0.60 
  -4  -8  10    0.76    0.61 
   4  -8 -10    0.51    0.60 
   3  -8 -10    0.78    0.57 
  -3  -8  10   -0.22    0.60 
  -2  -8  10    1.63    0.68 
   2  -8 -10    2.94    0.70 
  -1  -8  10    2.78    0.79 
   1  -8 -10    3.87    0.76 
   0  -8  10    2.25    0.78 
   0  -8 -10    2.83    0.72 
   0  -8  10    2.76    0.57 
   0  -8 -10    2.83    0.66 
   1  -8  10    2.91    0.65 
   1  -8  10    4.82    0.88 
  -1  -8 -10    4.50    0.83 
  -1  -8 -10    4.67    0.80 
  -2  -8 -10    2.34    0.82 
   2  -8  10    1.34    0.76 
  -2  -8 -10    2.14    0.72 
   2  -8  10    2.59    0.65 
   3  -8  10    3.38    0.81 
  -3  -8 -10    2.43    0.80 
  -3  -8 -10    2.84    0.94 
   3  -8  10    2.67    0.81 
   4  -8  10    3.69    0.94 
   4  -8  10    1.45    0.72 
  -4  -8 -10    2.01    0.79 
  -4  -8 -10    0.95    1.01 
  -5  -8 -10    0.92    0.82 
   5  -8  10    1.22    0.92 
   5   8  10    0.84    0.66 
   6  -8  10    1.66    0.93 
  -6  -8 -10    0.62    1.15 
   6   8  10    1.13    0.72 
   6  -9 -10    0.18    0.66 
  -6  -9  10   -0.32    0.64 
   5  -9 -10    0.54    0.61 
  -5  -9  10    0.76    0.68 
   4  -9 -10    0.15    0.60 
  -4  -9  10    0.44    0.69 
  -3  -9  10    7.41    1.00 
   3  -9 -10    6.33    0.87 
   2  -9 -10    1.61    0.65 
  -2  -9  10    2.17    0.74 
   1  -9 -10    4.67    0.85 
  -1  -9  10    6.18    0.88 
   0  -9  10    1.31    0.68 
   0  -9  10    1.46    0.54 
   0  -9 -10    1.28    0.63 
   1  -9  10    1.11    0.58 
  -1  -9 -10    1.99    0.70 
   1  -9  10    2.41    0.68 
  -1  -9 -10    1.25    0.74 
  -2  -9 -10    0.76    0.72 
  -2  -9 -10    0.38    0.64 
   2  -9  10    0.30    0.63 
   2  -9  10    0.08    0.60 
   3  -9  10    1.09    0.78 
   3  -9  10    0.24    0.63 
  -3  -9 -10    1.18    0.72 
  -3  -9 -10    0.41    0.97 
  -4  -9 -10    4.33    0.95 
  -4  -9 -10    4.42    1.19 
   4  -9  10    3.64    1.01 
   5  -9  10    0.55    1.03 
  -5  -9 -10    0.95    0.93 
   5   9  10    0.93    0.65 
   5 -10 -10    0.68    0.69 
  -5 -10  10    1.45    1.06 
   4 -10 -10    1.17    0.66 
  -4 -10  10    0.90    0.78 
   3 -10 -10    0.60    0.64 
  -3 -10  10   -1.04    0.60 
   2 -10 -10    1.85    0.72 
  -2 -10  10    2.66    0.79 
   1 -10 -10   -0.01    0.62 
  -1 -10  10    0.15    0.62 
   0 -10  10    4.95    0.86 
   0 -10 -10    2.54    0.74 
  -1 -10 -10    0.15    0.65 
   1 -10  10    1.72    0.71 
   1 -10  10    1.32    0.66 
   2 -10  10    5.46    0.89 
   2 -10  10    3.70    0.86 
  -2 -10 -10    6.35    0.94 
  -2 -10 -10    3.26    1.04 
  -3 -10 -10   -0.69    1.00 
  -3 -10 -10   -0.52    0.71 
   3 -10  10   -0.32    0.79 
  -4 -10 -10    0.35    0.78 
   4 -10  10    0.53    0.96 
  -4 -10 -10    1.38    1.14 
   4 -11 -10    0.26    0.89 
  -4 -11  10    0.43    1.08 
   3 -11 -10    1.84    0.85 
  -3 -11  10    3.98    0.95 
   2 -11 -10    1.81    0.75 
  -2 -11  10    2.58    0.82 
  -1 -11  10    1.30    0.72 
   1 -11 -10    2.18    0.76 
   0 -11 -10    1.27    0.72 
   0 -11  10    1.12    0.76 
   1 -11  10    0.29    0.69 
  -1 -11 -10   -0.03    0.75 
   1 -11  10    0.36    0.69 
  -2 -11 -10    1.04    1.08 
   2 -11  10    0.28    0.79 
  -3 -11 -10    1.36    0.83 
  -3 -11 -10   -0.35    1.08 
   3 -11  10    0.98    0.93 
  -1 -12  10    1.89    0.83 
   1 -12 -10    2.04    0.79 
   0 -12  10    0.66    0.70 
   0 -12 -10    0.35    0.73 
  -9   0  11    0.09    0.79 
  -8   0  11    0.68    0.60 
  -7   0  11    0.61    0.58 
  -6   0  11   14.41    1.12 
  -6   0  11   11.82    0.97 
  -5   0  11    2.00    0.52 
  -5   0  11    1.12    0.47 
  -4   0  11   11.17    0.91 
  -3   0  11    5.42    0.50 
  -3   0  11    4.98    0.66 
   3   0 -11    5.04    0.60 
  -2   0  11    0.02    0.32 
  -2   0  11    0.48    0.45 
  -1   0  11    1.20    0.40 
   0   0  11    3.07    0.51 
   1   0  11    0.19    0.41 
   2   0  11   10.25    0.90 
   3   0  11    0.57    0.49 
   4   0  11    1.49    0.54 
   5   0  11    3.15    0.70 
   6   0  11    0.24    0.59 
   7   0  11   -0.31    0.60 
  -9  -1  11    2.82    0.95 
  -9   1  11    0.50    0.88 
  -8  -1  11    4.29    0.80 
  -8   1  11    4.77    0.84 
  -7  -1  11    1.64    0.62 
  -7  -1  11    0.57    0.62 
  -7   1  11    1.84    0.61 
  -6  -1  11    5.21    0.76 
  -6  -1  11    5.70    0.77 
  -6   1  11    5.49    0.76 
  -5  -1  11    5.58    0.72 
  -5   1  11    6.14    0.77 
  -5   1  11    4.74    0.63 
  -4  -1  11   13.84    1.01 
  -4   1  11   15.11    0.93 
  -3  -1  11   11.92    1.00 
   3  -1 -11   13.28    0.93 
  -3  -1  11   14.04    0.71 
  -3   1  11   13.53    0.93 
  -2  -1  11    2.57    0.58 
   2  -1 -11    1.82    0.54 
  -2  -1  11    2.83    0.42 
  -2   1  11    2.37    0.53 
   1  -1 -11   22.27    1.18 
  -1  -1  11   22.36    1.06 
  -1   1  11   23.55    1.12 
   0  -1  11   17.34    0.98 
   0   1  11   16.71    0.97 
   1  -1  11   13.70    0.91 
   1   1  11   13.78    0.93 
   2  -1  11    8.17    0.82 
   2   1  11   10.81    0.90 
   3  -1  11    0.17    0.52 
   3   1  11    1.89    0.59 
   4  -1  11    0.82    0.54 
   4   1  11    0.72    0.53 
   5  -1  11    5.16    0.79 
   5   1  11    4.95    0.81 
  -6  -1 -11    5.82    1.07 
   6  -1  11    6.31    0.93 
   6   1  11    6.91    0.97 
   7  -1  11    4.26    0.89 
  -7  -1 -11    2.56    1.03 
   7   1  11    4.52    0.89 
  -8  -2  11    1.11    0.60 
  -8  -2  11    1.23    0.85 
  -8   2  11   -0.58    0.49 
  -7  -2  11    0.36    0.52 
  -7  -2  11    1.04    0.67 
  -7   2  11    0.16    0.52 
  -6  -2  11    5.78    0.82 
  -6   2  11    5.72    0.79 
  -5  -2  11    4.31    0.72 
  -5   2  11    4.30    0.68 
  -5   2  11    3.39    0.57 
  -4  -2  11    9.13    0.90 
   4  -2 -11    9.63    0.76 
  -4   2  11    9.08    0.87 
  -4   2  11    9.15    0.76 
  -3  -2  11    3.95    0.66 
   3  -2 -11    3.67    0.60 
  -3   2  11    4.38    0.59 
  -2  -2  11   10.67    0.93 
  -2  -2  11   10.16    0.64 
   2  -2 -11    9.43    0.82 
  -1  -2  11   11.50    0.76 
   1  -2 -11   12.30    0.91 
  -1  -2  11   12.63    1.00 
   0  -2 -11   12.27    0.96 
   0  -2  11   11.30    0.82 
   1  -2  11    7.47    0.74 
   1   2  11    6.37    0.74 
   2  -2  11    5.61    0.73 
   2   2  11    6.98    0.78 
   3  -2  11    4.76    0.71 
   3   2  11    4.44    0.66 
   4  -2  11    7.40    0.88 
  -4  -2 -11    5.58    0.83 
   4   2  11    8.10    0.89 
   5  -2  11    0.44    0.53 
  -5  -2 -11    0.64    0.61 
   5   2  11    0.77    0.60 
  -6  -2 -11    2.02    0.84 
   6  -2  11    2.32    0.72 
   6   2  11    2.21    0.73 
   7  -2  11    0.83    0.72 
  -7  -2 -11    0.89    0.98 
   7   2  11    1.33    0.76 
  -8  -3  11    1.41    0.64 
  -8  -3  11    0.89    0.83 
  -8   3  11    0.91    0.60 
  -7  -3  11    2.68    0.83 
  -7  -3  11    4.20    0.76 
  -7   3  11    2.80    0.70 
  -6  -3  11    3.30    0.74 
  -6   3  11    3.10    0.72 
  -5  -3  11    5.63    0.80 
  -5   3  11    4.36    0.71 
  -4  -3  11    1.69    0.61 
   4  -3 -11    2.09    0.59 
  -4   3  11    2.02    0.46 
  -4   3  11    2.25    0.55 
   3  -3 -11   -0.15    0.49 
  -3  -3  11   -0.49    0.50 
  -3   3  11    0.64    0.44 
  -3   3  11   -0.36    0.40 
   2  -3 -11    7.87    0.79 
  -2  -3  11    8.13    0.58 
  -2  -3  11    7.05    0.79 
  -1  -3  11   -0.08    0.24 
  -1  -3  11   -0.42    0.33 
   1  -3 -11    0.39    0.53 
   0  -3 -11   14.22    1.06 
   0  -3  11   14.02    0.88 
   1  -3  11    1.84    0.49 
  -1  -3 -11    1.20    0.64 
   2  -3  11    6.65    0.77 
   2   3  11    5.87    0.74 
  -3  -3 -11    7.15    0.97 
   3  -3  11    6.89    0.81 
   3   3  11    6.28    0.77 
   4  -3  11    0.94    0.58 
  -4  -3 -11    2.43    0.72 
   4   3  11    1.46    0.59 
   5  -3  11    9.70    1.00 
  -5  -3 -11    9.80    1.07 
   5   3  11    7.71    0.97 
  -6  -3 -11    0.17    0.63 
   6  -3  11    0.07    0.57 
   6   3  11    0.25    0.63 
   7  -3  11    1.91    0.87 
  -7  -3 -11    1.45    0.99 
   7   3  11    1.34    0.76 
  -8  -4  11    0.75    0.61 
  -8  -4  11    0.83    0.94 
  -8   4  11   -0.12    0.63 
  -7  -4  11   -0.46    0.79 
  -7  -4  11    0.87    0.57 
  -7   4  11    0.63    0.70 
  -6  -4  11    0.32    0.70 
  -6   4  11    0.99    0.66 
   5  -4 -11   10.17    0.94 
  -5  -4  11    9.91    1.06 
  -5   4  11   10.40    0.97 
   4  -4 -11    2.52    0.65 
  -4  -4  11    2.48    0.68 
  -4   4  11    2.57    0.56 
  -3  -4  11   15.12    1.13 
   3  -4 -11   14.77    1.01 
  -3   4  11   13.85    0.98 
  -3   4  11   15.02    0.91 
  -2  -4  11    3.28    0.64 
   2  -4 -11    3.25    0.67 
  -2   4  11    3.34    0.54 
   1  -4 -11    2.37    0.66 
  -1  -4  11    1.42    0.42 
  -1  -4  11   -0.11    0.37 
  -1   4  11    1.23    0.38 
   0  -4  11    9.51    0.93 
   0  -4 -11    9.29    0.94 
   0  -4  11    9.38    0.75 
   1  -4  11   17.95    1.08 
  -1  -4 -11   17.88    1.27 
  -2  -4 -11   10.16    1.04 
  -2  -4 -11    9.02    1.02 
   2  -4  11   10.23    0.91 
   2   4  11   10.98    0.96 
   3  -4  11    4.80    0.76 
  -3  -4 -11    5.71    0.93 
   3   4  11    5.41    0.77 
  -4  -4 -11    3.43    0.80 
   4  -4  11    2.49    0.74 
   4   4  11    4.92    0.79 
  -5  -4 -11    3.64    0.79 
   5  -4  11    2.12    0.69 
   5   4  11    3.15    0.74 
  -6  -4 -11    0.96    0.71 
   6  -4  11   -0.48    0.55 
   6   4  11    0.61    0.66 
   7  -4  11    1.34    0.74 
  -7  -4 -11    2.15    0.85 
   7   4  11    0.75    0.75 
  -8  -5  11    1.47    1.01 
  -8  -5  11    1.41    0.64 
  -8   5  11    2.21    0.90 
  -7  -5  11    2.05    1.00 
  -7   5  11    1.44    0.78 
  -6  -5  11    2.51    0.92 
  -6   5  11    2.89    0.76 
   5  -5 -11    4.40    0.74 
  -5  -5  11    2.44    0.82 
  -5   5  11    3.66    0.70 
   4  -5 -11    0.39    0.57 
  -4  -5  11    0.00    0.57 
  -4   5  11   -0.35    0.41 
   3  -5 -11    1.00    0.60 
  -3  -5  11    0.75    0.52 
  -3   5  11    1.65    0.48 
  -2  -5  11   10.93    1.01 
   2  -5 -11   11.42    0.99 
  -2   5  11   11.33    0.88 
   1  -5 -11    3.89    0.78 
  -1  -5  11    5.11    0.56 
  -1  -5  11    6.36    0.87 
  -1   5  11    5.62    0.57 
   0  -5  11   24.55    1.18 
   0  -5  11   22.20    1.36 
   0  -5 -11   22.71    1.41 
  -1  -5 -11    2.60    0.73 
   1  -5  11    2.98    0.60 
   1  -5  11    2.24    0.73 
  -1  -5 -11    2.87    0.79 
  -2  -5 -11   16.27    1.28 
   2  -5  11   18.18    1.12 
  -2  -5 -11   16.69    1.33 
  -3  -5 -11    0.30    0.74 
   3  -5  11   -0.14    0.53 
  -3  -5 -11    0.01    0.62 
   3   5  11    0.22    0.50 
   4  -5  11    3.52    0.82 
  -4  -5 -11    3.17    0.84 
   4   5  11    2.11    0.68 
   5  -5  11   -0.10    0.67 
  -5  -5 -11    1.39    0.75 
   5   5  11    1.25    0.66 
   6  -5  11    1.99    0.75 
  -6  -5 -11    1.58    0.77 
   6   5  11    2.61    0.77 
  -7  -5 -11   -0.65    0.68 
   7  -5  11   -0.26    0.66 
   7   5  11   -0.31    0.79 
  -7  -6  11    0.61    0.95 
  -7   6  11    0.51    0.74 
  -6  -6  11    3.02    0.98 
  -6   6  11    3.64    0.82 
  -5  -6  11    2.28    0.84 
   5  -6 -11    2.64    0.76 
  -5   6  11    1.89    0.65 
  -4  -6  11    6.78    0.92 
   4  -6 -11    7.69    0.90 
  -4   6  11    7.75    0.81 
  -3  -6  11    1.42    0.59 
   3  -6 -11    1.41    0.69 
  -3   6  11    0.18    0.44 
   2  -6 -11    2.11    0.71 
  -2  -6  11    3.67    0.75 
  -2   6  11    2.90    0.52 
  -1  -6  11    2.59    0.78 
  -1  -6  11    2.70    0.49 
   1  -6 -11    2.56    0.73 
  -1   6  11    2.56    0.46 
   0  -6  11    2.17    0.72 
   0  -6  11    0.21    0.44 
   0  -6 -11    0.84    0.71 
   1  -6  11    9.75    0.88 
   1  -6  11   10.04    1.06 
  -1  -6 -11    8.65    0.99 
  -1  -6 -11    9.25    1.08 
  -2  -6 -11    3.98    0.87 
   2  -6  11    2.52    0.78 
   2  -6  11    2.73    0.64 
  -2  -6 -11    3.91    0.79 
  -3  -6 -11   10.88    1.13 
  -3  -6 -11    8.91    1.07 
   3  -6  11   10.42    1.12 
   3  -6  11    8.30    0.98 
   3   6  11   10.54    1.05 
  -4  -6 -11    0.30    0.72 
   4  -6  11    0.77    0.76 
   4   6  11    2.33    0.68 
  -5  -6 -11    0.51    0.67 
   5  -6  11    1.64    0.86 
   5   6  11    1.61    0.70 
   6  -6  11    0.08    0.64 
  -6  -6 -11    0.11    0.86 
   6   6  11    0.41    0.68 
  -7  -7  11   -0.84    0.95 
  -7   7  11    0.70    0.84 
   6  -7 -11    2.43    0.68 
  -6  -7  11    6.15    1.15 
  -6   7  11    2.53    0.78 
  -5  -7  11    0.45    0.63 
   5  -7 -11    0.27    0.55 
  -5   7  11    0.17    0.59 
   4  -7 -11    2.30    0.65 
  -4  -7  11    2.81    0.72 
  -4   7  11    2.56    0.61 
  -3  -7  11    4.81    0.82 
   3  -7 -11    4.72    0.79 
  -3   7  11    5.55    0.70 
  -2  -7  11    1.19    0.64 
   2  -7 -11   -0.10    0.65 
  -2   7  11   -0.55    0.38 
  -1  -7  11   12.69    1.19 
   1  -7 -11   10.54    1.09 
   0  -7 -11    1.91    0.72 
   0  -7  11    2.74    0.54 
   0  -7  11    1.04    0.75 
  -1  -7 -11    8.89    1.01 
  -1  -7 -11    9.54    1.00 
   1  -7  11    9.02    0.86 
   1  -7  11    8.49    1.04 
   2  -7  11    3.02    0.67 
   2  -7  11    1.47    0.75 
  -2  -7 -11    2.38    0.73 
  -2  -7 -11    2.57    0.85 
  -3  -7 -11    4.63    0.90 
   3  -7  11    5.66    0.90 
   3  -7  11    4.59    0.80 
  -3  -7 -11    3.77    0.84 
  -4  -7 -11    0.83    0.96 
   4  -7  11    1.33    0.89 
  -4  -7 -11    0.83    0.72 
   4  -7  11    2.46    0.74 
   4   7  11    1.80    0.69 
   5  -7  11    0.51    0.63 
  -5  -7 -11    0.76    0.79 
   5  -7  11    0.81    0.89 
   5   7  11    0.42    0.62 
  -6  -7 -11    3.51    1.25 
   6  -7  11    3.01    0.98 
   6   7  11    2.85    0.94 
  -6  -8  11    0.50    0.87 
   6  -8 -11    2.18    0.72 
  -5  -8  11    2.11    0.76 
   5  -8 -11    1.95    0.71 
  -5   8  11    1.68    0.71 
   4  -8 -11    0.83    0.58 
  -4  -8  11    1.08    0.64 
  -4   8  11    0.69    0.54 
   3  -8 -11    0.00    0.55 
  -3  -8  11    1.29    0.71 
  -3   8  11    0.57    0.49 
  -2  -8  11    1.73    0.69 
   2  -8 -11    1.99    0.65 
  -1  -8  11    0.22    0.61 
   1  -8 -11    0.68    0.61 
   0  -8  11    0.26    0.57 
   0  -8 -11    0.33    0.60 
   0  -8 -11   -0.56    0.58 
   0  -8  11    0.27    0.49 
   1  -8  11    2.23    0.69 
  -1  -8 -11    2.08    0.76 
   1  -8  11    2.10    0.61 
  -1  -8 -11    3.56    0.76 
  -2  -8 -11    4.05    0.80 
   2  -8  11    3.62    0.73 
   2  -8  11    3.83    0.77 
  -2  -8 -11    3.14    0.80 
  -3  -8 -11    1.98    0.90 
  -3  -8 -11    3.03    0.82 
   3  -8  11    2.96    0.85 
   3  -8  11    3.49    0.73 
   4  -8  11    4.83    1.03 
   4  -8  11    3.94    0.78 
  -4  -8 -11    2.56    0.84 
  -4  -8 -11    1.48    1.13 
   4   8  11    2.82    0.77 
   5  -8  11    1.76    0.99 
  -5  -8 -11    0.79    0.99 
   5   8  11    1.11    0.71 
  -5  -9  11   -0.34    0.65 
   5  -9 -11   -0.31    0.61 
   4  -9 -11    0.24    0.58 
  -4  -9  11    0.69    0.71 
  -3  -9  11    1.74    0.69 
   3  -9 -11    0.33    0.58 
   2  -9 -11    3.56    0.77 
  -2  -9  11    3.23    0.79 
  -1  -9  11    3.97    0.83 
   1  -9 -11    3.55    0.77 
   0  -9  11    2.17    0.72 
   0  -9 -11    1.68    0.73 
   1  -9  11    1.25    0.65 
   1  -9  11    2.22    0.64 
  -1  -9 -11    0.99    0.68 
  -1  -9 -11    1.37    0.73 
  -2  -9 -11    0.74    0.67 
  -2  -9 -11    0.63    0.68 
   2  -9  11    1.10    0.78 
   2  -9  11    1.23    0.64 
   3  -9  11    0.59    0.81 
  -3  -9 -11    1.24    1.00 
  -3  -9 -11    2.84    0.81 
   3  -9  11    2.29    0.75 
  -4  -9 -11    2.55    0.87 
   4  -9  11    1.10    0.93 
  -4  -9 -11    0.53    1.14 
   4 -10 -11    2.23    0.73 
  -4 -10  11    3.01    1.03 
   3 -10 -11    0.91    0.67 
  -3 -10  11    1.52    0.76 
  -2 -10  11    0.92    0.74 
   2 -10 -11    1.48    0.74 
  -1 -10  11    0.74    0.66 
   1 -10 -11   -0.05    0.65 
   0 -10  11   -0.03    0.65 
   0 -10 -11   -0.80    0.59 
   1 -10  11    0.84    0.67 
  -1 -10 -11    1.93    0.79 
   1 -10  11    2.52    0.77 
  -2 -10 -11    0.15    0.66 
   2 -10  11    0.71    0.69 
   2 -10  11   -0.59    0.75 
  -2 -10 -11    0.70    0.82 
  -3 -10 -11    1.64    0.79 
  -3 -10 -11    2.27    1.16 
   3 -10  11    1.73    0.92 
   3 -11 -11   -0.46    0.93 
  -3 -11  11    0.07    1.04 
  -2 -11  11    3.74    0.91 
   2 -11 -11    2.65    1.03 
   1 -11 -11    2.48    0.98 
  -1 -11  11    1.35    0.78 
   0 -11 -11    0.28    0.70 
   0 -11  11    0.58    0.69 
  -1 -11 -11    1.52    0.81 
   1 -11  11    1.65    0.79 
  -2 -11 -11    1.48    1.06 
   2 -11  11    1.67    0.87 
  -8   0  12    3.86    0.82 
  -7   0  12    3.34    0.72 
  -6   0  12    0.61    0.49 
  -6   0  12    0.56    0.53 
  -5   0  12    7.62    0.82 
  -4   0  12    0.67    0.51 
  -3   0  12    5.45    0.71 
  -3   0  12    6.09    0.56 
  -2   0  12    0.28    0.36 
  -2   0  12   -0.36    0.47 
  -1   0  12    0.27    0.40 
   0   0  12   21.30    1.11 
   1   0  12   -0.42    0.44 
   2   0  12    0.13    0.51 
   3   0  12    0.02    0.48 
   4   0  12    1.92    0.62 
   5   0  12   -0.09    0.54 
   6   0  12    0.12    0.61 
   7   0  12    1.73    0.92 
  -8  -1  12    0.90    0.62 
  -8   1  12    0.06    0.58 
  -7  -1  12    3.03    0.72 
  -7  -1  12    3.67    0.75 
  -7   1  12    2.73    0.67 
  -6  -1  12   -0.52    0.42 
  -6  -1  12    0.36    0.51 
  -6   1  12   -0.10    0.46 
  -5  -1  12    3.32    0.66 
  -5   1  12    3.00    0.60 
  -5   1  12    3.05    0.62 
  -4  -1  12    2.57    0.61 
  -4   1  12    1.65    0.53 
   3  -1 -12    6.63    0.70 
  -3  -1  12    8.07    0.84 
  -3   1  12    5.68    0.73 
  -2  -1  12   20.74    0.99 
  -2  -1  12   19.63    1.23 
   2  -1 -12   21.83    1.17 
  -2   1  12   18.26    1.20 
  -1  -1  12    2.37    0.59 
  -1  -1  12    3.13    0.53 
  -1   1  12    1.78    0.48 
   0  -1  12   24.88    1.23 
   0   1  12   25.82    1.26 
   1  -1  12   11.48    0.88 
   1   1  12   12.13    0.94 
   2  -1  12   32.38    1.54 
   2   1  12   30.11    1.52 
   3  -1  12    6.45    0.83 
   3   1  12    5.73    0.81 
   4  -1  12    8.25    0.93 
   4   1  12    6.14    0.85 
   5  -1  12    1.08    0.61 
   5   1  12    0.10    0.55 
   6  -1  12    0.22    0.59 
   6   1  12    0.56    0.68 
   7  -1  12    1.07    0.96 
   7   1  12    0.91    0.91 
  -8  -2  12    1.24    0.71 
  -8   2  12    0.37    0.57 
  -7  -2  12    1.06    0.74 
  -7  -2  12    0.92    0.60 
  -7   2  12    0.59    0.53 
  -6  -2  12    1.11    0.59 
  -6   2  12    1.64    0.61 
  -5  -2  12    2.43    0.64 
  -5   2  12    3.38    0.69 
  -4  -2  12   12.88    1.02 
  -4   2  12   12.86    0.91 
  -4   2  12   12.45    0.98 
  -3  -2  12    3.04    0.66 
   3  -2 -12    1.99    0.56 
  -3   2  12    2.22    0.55 
   2  -2 -12    6.90    0.79 
  -2  -2  12    7.51    0.61 
  -2  -2  12    6.63    0.82 
  -1  -2  12   37.42    1.79 
  -1  -2  12   37.31    1.54 
   1  -2 -12   38.96    1.73 
   0  -2 -12    2.02    0.72 
   0  -2  12    2.49    0.53 
   0   2  12    1.38    0.53 
   1  -2  12   22.10    1.20 
   1   2  12   21.81    1.24 
   2  -2  12    5.89    0.77 
   2   2  12    4.52    0.72 
   3  -2  12    5.89    0.81 
   3   2  12    6.35    0.82 
   4  -2  12   -0.13    0.55 
   4   2  12    0.89    0.56 
   5  -2  12    0.02    0.55 
  -5  -2 -12    0.63    0.62 
   5   2  12    1.33    0.63 
   6  -2  12    8.06    1.02 
  -6  -2 -12    7.01    1.09 
   6   2  12    9.18    1.10 
  -7  -2 -12    2.05    1.05 
   7  -2  12    0.26    0.92 
   7   2  12    2.55    1.09 
  -8  -3  12   -0.08    0.70 
  -8  -3  12    1.04    0.93 
  -8   3  12    1.62    0.66 
  -7  -3  12    0.45    0.55 
  -7  -3  12    0.43    0.81 
  -7   3  12    0.04    0.65 
  -6  -3  12    1.03    0.70 
  -6   3  12    1.66    0.70 
  -5  -3  12    4.25    0.78 
  -5   3  12    4.05    0.73 
  -4  -3  12    8.52    0.96 
   4  -3 -12    8.37    0.84 
  -4   3  12    8.57    0.85 
  -4   3  12    8.99    0.77 
  -3  -3  12   10.79    1.03 
   3  -3 -12   12.05    0.97 
  -3   3  12   10.60    0.85 
  -3   3  12    9.91    0.85 
   2  -3 -12    1.98    0.62 
  -2  -3  12    2.33    0.63 
   1  -3 -12   43.36    1.90 
  -1  -3  12   45.08    1.98 
  -1  -3  12   43.13    1.72 
   0  -3  12    5.61    0.66 
   0  -3 -12    5.00    0.81 
   0  -3  12    5.49    0.80 
  -1  -3 -12   36.97    1.84 
   1  -3  12   38.02    1.67 
   1   3  12   35.91    1.70 
   2  -3  12    3.84    0.66 
   2   3  12    4.60    0.73 
   3  -3  12   15.58    1.18 
   3   3  12   16.87    1.16 
  -4  -3 -12    7.10    0.96 
   4  -3  12    4.63    0.86 
   4   3  12    5.25    0.78 
   5  -3  12    1.45    0.63 
  -5  -3 -12    0.98    0.61 
   5   3  12    1.44    0.69 
   6  -3  12    9.72    1.09 
  -6  -3 -12    6.93    1.03 
   6   3  12    9.22    1.09 
  -7  -3 -12    3.28    1.11 
   7  -3  12    2.84    0.85 
   7   3  12    2.18    1.02 
  -8  -4  12    0.63    0.76 
  -8  -4  12    0.20    0.92 
  -8   4  12    1.21    0.81 
  -7  -4  12    2.71    0.93 
  -7   4  12    2.51    0.83 
  -6  -4  12    0.08    0.77 
  -6   4  12   -0.19    0.63 
  -5  -4  12    0.85    0.72 
  -5   4  12    0.21    0.55 
  -4  -4  12    3.14    0.77 
   4  -4 -12    2.01    0.64 
  -4   4  12    1.18    0.53 
  -3  -4  12    1.40    0.63 
   3  -4 -12    1.55    0.66 
  -3   4  12    1.76    0.49 
  -3   4  12    2.59    0.52 
  -2  -4  12   13.86    1.10 
   2  -4 -12   13.32    1.12 
  -2   4  12   16.11    0.99 
  -1  -4  12    4.14    0.55 
   1  -4 -12    4.19    0.76 
  -1  -4  12    4.22    0.73 
  -1   4  12    4.51    0.54 
   0  -4 -12   20.76    1.35 
   0  -4  12   21.57    1.13 
   0  -4  12   22.67    1.37 
   1  -4  12    1.28    0.53 
  -1  -4 -12    0.81    0.73 
   1  -4  12   -0.02    0.67 
   2  -4  12   11.82    0.96 
  -2  -4 -12   13.09    1.26 
   2   4  12   12.12    1.06 
  -3  -4 -12    0.53    0.66 
   3  -4  12    0.94    0.60 
   3   4  12   -0.02    0.49 
   4  -4  12    3.78    0.86 
  -4  -4 -12    2.74    0.75 
   4   4  12    3.37    0.73 
   5  -4  12    0.97    0.72 
  -5  -4 -12    0.09    0.68 
   5   4  12    0.38    0.63 
   6  -4  12    0.03    0.61 
  -6  -4 -12    0.39    0.63 
   6   4  12    0.54    0.68 
  -7  -5  12    2.16    1.00 
  -7   5  12    2.63    0.86 
  -6  -5  12   -0.26    0.87 
  -6   5  12    0.44    0.67 
  -5  -5  12    1.90    0.84 
   5  -5 -12    0.41    0.64 
  -5   5  12    1.61    0.62 
  -4  -5  12    0.43    0.64 
   4  -5 -12   -0.98    0.59 
  -4   5  12    0.69    0.48 
  -3  -5  12    3.29    0.71 
   3  -5 -12    2.05    0.71 
  -3   5  12    2.74    0.56 
  -2  -5  12    1.40    0.57 
   2  -5 -12    0.78    0.64 
  -2   5  12    1.14    0.44 
  -1  -5  12    9.56    1.02 
   1  -5 -12    8.45    0.99 
  -1  -5  12    9.27    0.71 
  -1   5  12    9.75    0.78 
   0  -5 -12   11.42    1.09 
   0  -5  12   10.97    0.83 
   0  -5  12   11.45    1.15 
   1  -5  12   11.05    0.90 
  -1  -5 -12    8.23    1.06 
   1  -5  12   11.20    1.15 
   2  -5  12    8.77    1.09 
  -2  -5 -12    9.64    1.08 
   2  -5  12   10.11    0.95 
  -2  -5 -12   10.99    1.14 
   3  -5  12    0.90    0.63 
  -3  -5 -12    0.47    0.65 
   3   5  12    0.14    0.52 
   4  -5  12    2.10    0.83 
  -4  -5 -12    3.92    0.87 
   4   5  12    3.46    0.77 
   5  -5  12    2.58    0.90 
  -5  -5 -12    0.99    0.76 
   5   5  12    2.43    0.75 
   6  -5  12    1.27    0.75 
  -6  -5 -12    1.80    0.79 
   6   5  12    1.51    0.87 
  -7  -6  12    0.20    0.98 
  -7   6  12    0.27    0.79 
  -6  -6  12    2.21    1.01 
  -6   6  12    0.19    0.69 
   5  -6 -12    3.24    0.77 
  -5  -6  12    1.40    0.88 
  -5   6  12    1.80    0.67 
   4  -6 -12    2.12    0.78 
  -4  -6  12    2.74    0.73 
  -4   6  12    2.88    0.63 
  -3  -6  12    3.62    0.74 
   3  -6 -12    5.01    0.87 
  -3   6  12    4.94    0.66 
   2  -6 -12    2.92    0.81 
  -2  -6  12    3.74    0.72 
  -2   6  12    2.52    0.51 
   1  -6 -12    5.51    0.91 
  -1  -6  12    5.24    0.86 
   0  -6 -12    0.19    0.70 
   0  -6  12    0.92    0.62 
   0  -6  12    0.93    0.50 
   1  -6  12   -0.36    0.63 
  -1  -6 -12    0.67    0.65 
   1  -6  12    0.58    0.52 
  -2  -6 -12    2.16    0.77 
   2  -6  12    2.85    0.69 
  -2  -6 -12    3.01    0.79 
   2  -6  12    2.61    0.70 
   3  -6  12   -0.58    0.55 
  -3  -6 -12   -0.45    0.61 
  -3  -6 -12    0.11    0.68 
   3  -6  12    0.32    0.68 
   3   6  12    0.18    0.53 
   4  -6  12    3.34    0.91 
  -4  -6 -12    2.69    0.81 
   4   6  12    2.78    0.77 
   5  -6  12    0.80    0.91 
  -5  -6 -12    2.29    0.88 
   5   6  12    3.05    0.79 
  -6  -6 -12    1.24    1.13 
   6  -6  12    1.34    0.93 
   6   6  12    1.49    0.95 
  -6  -7  12    1.50    1.02 
  -6   7  12    0.97    0.76 
  -5  -7  12    1.24    0.77 
   5  -7 -12    1.12    0.61 
  -5   7  12    1.70    0.71 
  -4  -7  12    1.12    0.65 
   4  -7 -12    0.28    0.55 
  -4   7  12    0.23    0.51 
  -3  -7  12    0.55    0.59 
   3  -7 -12    0.63    0.58 
  -3   7  12    0.79    0.50 
   2  -7 -12    3.98    0.78 
  -2  -7  12    4.16    0.81 
  -1  -7  12    0.08    0.59 
   1  -7 -12    0.31    0.60 
   0  -7  12    1.65    0.53 
   0  -7  12    3.08    0.75 
   0  -7 -12    2.29    0.74 
   1  -7  12    1.70    0.57 
  -1  -7 -12    1.58    0.72 
  -1  -7 -12    1.66    0.78 
   1  -7  12    1.59    0.65 
  -2  -7 -12    3.93    0.84 
   2  -7  12    5.09    0.82 
   2  -7  12    6.53    0.91 
  -2  -7 -12    5.55    0.87 
   3  -7  12    0.34    0.58 
  -3  -7 -12   -0.20    0.63 
  -3  -7 -12   -0.05    0.68 
   3  -7  12   -0.34    0.70 
  -4  -7 -12   -0.31    0.68 
   4  -7  12    0.19    0.61 
   4  -7  12    0.12    0.82 
   4   7  12   -0.25    0.61 
  -5  -7 -12    2.66    1.07 
   5  -7  12    0.83    0.96 
   5  -7  12   -0.17    0.71 
   5   7  12    2.05    0.87 
  -6  -8  12    1.04    0.95 
   6  -8 -12    0.04    0.63 
  -6   8  12    0.67    0.79 
   5  -8 -12    1.91    0.69 
  -5  -8  12    1.65    0.76 
  -5   8  12    2.64    0.80 
   4  -8 -12    2.15    0.71 
  -4  -8  12    2.20    0.73 
  -4   8  12    3.27    0.71 
   3  -8 -12    2.64    0.74 
  -3  -8  12    3.19    0.80 
  -2  -8  12    2.61    0.79 
   2  -8 -12    2.02    0.68 
  -1  -8  12    0.38    0.64 
   1  -8 -12    0.32    0.60 
   0  -8 -12    0.30    0.67 
   0  -8  12    0.97    0.62 
   1  -8  12    1.89    0.61 
  -1  -8 -12    2.00    0.74 
   1  -8  12    1.30    0.68 
  -1  -8 -12    1.55    0.71 
  -2  -8 -12    1.75    0.77 
   2  -8  12    1.62    0.68 
  -2  -8 -12    2.11    0.74 
   2  -8  12    2.15    0.77 
  -3  -8 -12    1.44    0.78 
   3  -8  12    1.44    0.81 
   3  -8  12    2.66    0.77 
  -3  -8 -12    2.81    0.82 
   4  -8  12    0.96    0.95 
  -4  -8 -12    1.52    0.87 
   4  -8  12    1.78    0.74 
  -4  -8 -12    0.82    1.11 
   4   8  12    0.70    0.71 
  -5  -9  12    0.66    0.72 
   5  -9 -12    1.49    0.72 
   4  -9 -12    0.04    0.58 
  -4  -9  12   -0.73    0.63 
   3  -9 -12    1.04    0.68 
  -3  -9  12    0.56    0.72 
  -2  -9  12    1.05    0.69 
   2  -9 -12    0.99    0.71 
  -1  -9  12    0.11    0.62 
   1  -9 -12   -0.12    0.63 
   0  -9 -12   -0.45    0.68 
   0  -9  12    0.29    0.60 
  -1  -9 -12    1.74    0.77 
   1  -9  12    2.39    0.73 
   1  -9  12    1.24    0.70 
  -2  -9 -12    1.80    0.76 
   2  -9  12    2.65    0.76 
  -2  -9 -12    2.45    0.75 
   2  -9  12    1.32    0.80 
  -3  -9 -12    0.48    0.74 
   3  -9  12    1.13    0.73 
  -3  -9 -12    2.01    1.02 
   3  -9  12    1.83    0.89 
   4  -9  12    0.63    0.93 
  -4  -9 -12   -0.94    0.68 
  -4  -9 -12    1.12    1.21 
   4   9  12    0.60    0.93 
  -4 -10  12   -0.39    1.04 
   4 -10 -12    0.07    0.70 
   3 -10 -12    0.57    0.72 
  -3 -10  12    1.91    0.97 
  -2 -10  12    0.56    0.75 
   2 -10 -12    1.42    0.76 
   1 -10 -12   -0.63    0.65 
  -1 -10  12    1.03    0.72 
   0 -10 -12    0.91    0.73 
   0 -10  12   -0.07    0.68 
   1 -10  12    0.94    0.73 
  -1 -10 -12   -0.20    0.74 
   2 -10  12    0.17    0.82 
  -2 -10 -12    0.55    0.75 
   2 -10  12    0.92    0.72 
  -2 -11  12    0.39    0.99 
  -1 -11  12    0.11    0.73 
   1 -11 -12   -0.75    0.95 
   0 -11  12   -0.26    0.69 
   0 -11 -12    1.94    0.84 
  -8   0  13    0.30    0.62 
  -7   0  13   -0.02    0.52 
  -6   0  13    3.12    0.69 
  -6   0  13    2.92    0.64 
  -5   0  13    2.10    0.62 
  -4   0  13    8.74    0.88 
  -3   0  13    3.44    0.65 
  -2   0  13    6.69    0.66 
  -2   0  13    6.58    0.82 
  -1   0  13    1.31    0.48 
   0   0  13    3.10    0.59 
   1   0  13    0.54    0.49 
   2   0  13    2.01    0.63 
   3   0  13   17.87    1.26 
   4   0  13    5.58    0.86 
   5   0  13    7.06    0.96 
   6   0  13   -0.22    0.61 
  -8  -1  13    0.50    0.84 
  -8   1  13    1.59    0.66 
  -7  -1  13    2.85    0.68 
  -7   1  13    4.06    0.76 
  -6  -1  13    1.53    0.55 
  -6  -1  13    0.12    0.58 
  -6   1  13    0.71    0.54 
  -5  -1  13    4.29    0.72 
  -5   1  13    4.73    0.77 
  -5   1  13    4.08    0.68 
  -4  -1  13    7.31    0.84 
  -4   1  13    5.94    0.75 
  -3  -1  13    9.27    0.92 
   3  -1 -13    8.16    0.80 
  -3   1  13    9.09    0.87 
  -2  -1  13    3.77    0.71 
  -2  -1  13    4.72    0.56 
  -2   1  13    4.83    0.73 
  -2   1  13    5.00    0.60 
  -1  -1  13    0.34    0.53 
  -1  -1  13    0.29    0.42 
  -1   1  13   -0.13    0.44 
   0  -1  13    2.07    0.52 
   0   1  13    1.20    0.53 
   1  -1  13    1.76    0.54 
   1   1  13    2.40    0.61 
   2  -1  13    0.84    0.54 
   2   1  13    0.35    0.54 
   3  -1  13    1.97    0.71 
   3   1  13    2.33    0.68 
   4  -1  13    0.85    0.66 
   4   1  13    1.09    0.58 
   5  -1  13    0.76    0.61 
   5   1  13    0.13    0.57 
   6  -1  13   -0.69    0.58 
   6   1  13    1.02    0.70 
  -8  -2  13   -0.02    0.79 
  -8   2  13   -0.69    0.50 
  -7  -2  13    3.04    0.90 
  -7  -2  13    1.88    0.66 
  -7   2  13    3.07    0.75 
  -6  -2  13   -0.18    0.61 
  -6   2  13    0.40    0.64 
  -5  -2  13    4.12    0.77 
  -5   2  13    4.98    0.78 
  -4  -2  13    3.30    0.73 
  -4   2  13    4.77    0.67 
  -4   2  13    4.01    0.66 
   3  -2 -13   21.50    1.27 
  -3  -2  13   19.15    1.29 
  -3   2  13   21.03    1.22 
  -2  -2  13   -0.51    0.34 
  -2  -2  13    0.68    0.57 
   2  -2 -13   -0.01    0.60 
   1  -2 -13   53.92    2.20 
  -1  -2  13   50.98    2.25 
  -1  -2  13   49.35    1.98 
  -1   2  13   52.32    2.07 
   0  -2  13    2.16    0.56 
   0   2  13    2.70    0.58 
   1  -2  13    9.71    0.89 
   1   2  13    9.65    0.91 
   2  -2  13    9.04    0.91 
   2   2  13    6.52    0.87 
   3  -2  13    4.15    0.81 
   3   2  13    4.16    0.74 
   4  -2  13    6.64    0.99 
   4   2  13    4.82    0.84 
   5  -2  13    6.85    0.95 
   5   2  13    6.20    0.90 
   6  -2  13    1.99    0.73 
   6   2  13    1.24    0.78 
  -8  -3  13    0.56    0.86 
  -8  -3  13    0.51    0.95 
  -8   3  13    1.58    0.77 
  -7  -3  13    0.75    0.89 
  -7  -3  13    2.65    0.71 
  -7   3  13    1.80    0.81 
  -6  -3  13    4.02    0.89 
  -6   3  13    2.82    0.81 
  -5  -3  13    8.85    1.06 
  -5   3  13    7.91    0.93 
  -4  -3  13   12.11    1.14 
  -4   3  13   12.29    1.02 
  -3  -3  13    6.86    0.87 
   3  -3 -13    6.08    0.80 
  -3   3  13    6.03    0.73 
  -3   3  13    7.14    0.75 
   2  -3 -13    0.40    0.64 
  -2  -3  13    0.65    0.52 
   1  -3 -13    2.23    0.71 
  -1  -3  13    3.30    0.70 
  -1  -3  13    2.67    0.53 
   0  -3  13    6.28    0.83 
   0  -3 -13    5.50    0.87 
   0  -3  13    5.05    0.68 
   1  -3  13    1.67    0.56 
   1   3  13    1.68    0.60 
   2  -3  13    7.99    0.87 
   2   3  13    9.28    0.97 
   3  -3  13    1.69    0.68 
   3   3  13    3.66    0.73 
   4  -3  13    1.74    0.78 
   4   3  13   -0.35    0.49 
   5  -3  13    4.39    0.92 
   5   3  13    4.63    0.87 
  -6  -3 -13    3.61    0.86 
   6  -3  13    3.19    0.84 
   6   3  13    2.26    0.89 
  -7  -4  13   -0.14    0.85 
  -7   4  13    0.67    0.77 
  -6  -4  13    2.04    0.88 
  -6   4  13    2.36    0.78 
  -5  -4  13    2.55    0.86 
  -5   4  13    5.12    0.82 
  -4  -4  13    6.62    1.01 
   4  -4 -13    6.01    0.85 
  -4   4  13    7.01    0.79 
   3  -4 -13    1.57    0.66 
  -3  -4  13    2.20    0.68 
  -3   4  13    2.83    0.55 
  -3   4  13    2.35    0.55 
  -2  -4  13    6.14    0.87 
   2  -4 -13    7.01    0.90 
  -2   4  13    6.90    0.71 
  -1  -4  13    7.34    0.70 
  -1  -4  13   10.07    0.98 
   1  -4 -13    7.62    0.98 
  -1   4  13    8.21    0.71 
   0  -4 -13    3.17    0.82 
   0  -4  13    2.71    0.57 
   0  -4  13    2.53    0.70 
   1  -4  13    0.25    0.49 
  -1  -4 -13   -0.11    0.76 
   1  -4  13    0.50    0.72 
   1   4  13   -0.02    0.57 
   2  -4  13    6.41    0.83 
   2   4  13    8.01    0.91 
   3  -4  13    0.13    0.65 
   3   4  13    0.30    0.48 
  -4  -4 -13    2.89    0.82 
   4  -4  13    2.27    0.88 
   4   4  13    3.42    0.75 
   5  -4  13    1.07    0.82 
  -5  -4 -13    1.64    0.74 
   5   4  13    0.31    0.64 
  -6  -4 -13    4.31    0.94 
   6  -4  13    5.33    0.95 
   6   4  13    6.47    1.21 
  -7  -5  13    4.01    1.08 
  -7   5  13    1.94    0.85 
  -6  -5  13    4.02    1.04 
  -6   5  13    3.20    0.83 
  -5  -5  13    3.28    0.97 
  -5   5  13    4.03    0.76 
  -4  -5  13    3.55    0.90 
   4  -5 -13    3.59    0.80 
  -4   5  13    3.39    0.66 
   3  -5 -13    1.39    0.70 
  -3  -5  13    1.04    0.59 
  -3   5  13    1.29    0.51 
   2  -5 -13    0.57    0.69 
  -2  -5  13    0.29    0.53 
  -2   5  13    0.26    0.40 
  -1  -5  13    1.00    0.59 
   1  -5 -13    2.28    0.75 
  -1   5  13    1.97    0.45 
   0  -5 -13    3.81    0.87 
   0  -5  13    3.25    0.60 
   0  -5  13    3.53    0.78 
   1  -5  13    7.74    0.94 
   1  -5  13    7.91    0.84 
  -1  -5 -13    8.04    0.98 
   2  -5  13    1.97    0.71 
  -2  -5 -13    2.57    0.80 
   2  -5  13    3.27    0.68 
   2   5  13    2.31    0.65 
  -3  -5 -13    2.08    0.75 
   3  -5  13    1.52    0.79 
   3   5  13    0.37    0.58 
   4  -5  13    1.11    0.82 
  -4  -5 -13    0.36    0.70 
   4   5  13    0.65    0.61 
   5  -5  13   -0.09    0.92 
  -5  -5 -13   -0.29    0.74 
   5   5  13    0.68    0.67 
   6  -5  13    0.06    0.88 
  -6  -5 -13    0.25    0.80 
   6   5  13    0.63    0.96 
  -6  -6  13    1.94    1.03 
  -6   6  13    1.01    0.74 
   5  -6 -13   -0.83    0.56 
  -5  -6  13    1.21    0.90 
  -5   6  13   -0.22    0.60 
   4  -6 -13    2.83    0.73 
  -4  -6  13    2.83    0.73 
  -4   6  13    2.78    0.64 
   3  -6 -13    2.28    0.68 
  -3  -6  13    2.18    0.65 
  -3   6  13    1.46    0.51 
  -2  -6  13    3.46    0.75 
   2  -6 -13    4.44    0.79 
  -1  -6  13    4.50    0.84 
   1  -6 -13    3.54    0.78 
   0  -6  13    4.39    0.81 
   0  -6 -13    3.22    0.77 
   0  -6  13    3.35    0.64 
  -1  -6 -13    1.16    0.70 
   1  -6  13    3.09    0.63 
   1  -6  13    3.40    0.78 
   2  -6  13    1.01    0.61 
  -2  -6 -13    1.90    0.80 
   2  -6  13    1.50    0.69 
   3  -6  13    5.38    0.89 
  -3  -6 -13    5.53    0.95 
   3  -6  13    5.20    0.95 
   3   6  13    6.22    0.88 
   4  -6  13    1.23    0.86 
  -4  -6 -13    1.12    0.78 
   4   6  13    2.00    0.71 
  -5  -6 -13    2.58    1.08 
   5  -6  13    2.14    0.98 
   5   6  13    1.09    0.90 
  -6  -7  13    2.62    1.09 
  -6   7  13    1.34    0.82 
  -5  -7  13    0.56    0.84 
   5  -7 -13    2.11    0.72 
  -5   7  13    1.17    0.70 
   4  -7 -13   -0.27    0.62 
  -4  -7  13    0.93    0.67 
  -4   7  13    1.41    0.61 
   3  -7 -13    0.73    0.60 
  -3  -7  13    0.60    0.61 
  -2  -7  13    2.14    0.75 
   2  -7 -13    2.23    0.71 
   1  -7 -13    0.03    0.61 
  -1  -7  13    0.93    0.66 
   0  -7 -13    0.26    0.64 
   0  -7  13    1.48    0.72 
   1  -7  13    1.51    0.67 
   1  -7  13    1.34    0.59 
  -1  -7 -13    1.00    0.72 
  -2  -7 -13    1.18    0.65 
  -2  -7 -13    1.14    0.75 
   2  -7  13    0.12    0.62 
   2  -7  13    0.31    0.69 
  -3  -7 -13    1.55    0.78 
  -3  -7 -13    0.02    0.72 
   3  -7  13    1.53    0.83 
   3  -7  13    1.60    0.71 
   3   7  13    1.36    0.65 
   4  -7  13    2.02    0.79 
  -4  -7 -13    1.33    0.81 
   4  -7  13    0.45    0.90 
   4   7  13    1.00    0.74 
  -5  -7 -13    2.84    1.18 
   5  -7  13    1.38    0.79 
   5  -7  13    0.95    1.04 
   5   7  13    1.59    0.99 
  -5  -8  13    1.79    0.80 
   5  -8 -13    1.78    0.76 
  -5   8  13    1.10    0.74 
   4  -8 -13    1.03    0.67 
  -4  -8  13    0.90    0.70 
   3  -8 -13    1.61    0.70 
  -3  -8  13    2.48    0.77 
   2  -8 -13    1.83    0.70 
  -2  -8  13    2.60    0.74 
   1  -8 -13    0.99    0.66 
  -1  -8  13    1.66    0.73 
   0  -8  13    1.46    0.72 
   0  -8 -13    0.27    0.69 
   1  -8  13   -0.32    0.59 
   1  -8  13   -0.41    0.56 
  -1  -8 -13   -0.04    0.67 
  -2  -8 -13    0.07    0.68 
   2  -8  13    1.96    0.79 
  -2  -8 -13    0.62    0.65 
   2  -8  13    1.63    0.71 
  -3  -8 -13   -0.13    0.66 
   3  -8  13    0.44    0.83 
  -3  -8 -13    1.14    0.81 
   3  -8  13    0.65    0.73 
  -4  -8 -13    2.53    0.89 
   4  -8  13    0.86    0.74 
   4  -8  13    1.35    1.00 
   4   8  13    1.36    0.96 
  -4  -9  13   -0.66    0.67 
   4  -9 -13   -0.36    0.64 
  -3  -9  13    0.88    0.78 
   3  -9 -13    0.35    0.64 
  -2  -9  13    0.98    0.71 
   2  -9 -13   -0.83    0.66 
   1  -9 -13    0.23    0.66 
  -1  -9  13    0.11    0.69 
   0  -9 -13    0.71    0.76 
   0  -9  13    1.81    0.74 
   1  -9  13    2.48    0.77 
  -1  -9 -13    2.14    0.80 
  -2  -9 -13    0.65    0.74 
  -2  -9 -13    0.36    0.73 
   2  -9  13    1.18    0.84 
   2  -9  13    1.24    0.72 
   3  -9  13    1.87    0.99 
   3  -9  13    2.63    0.81 
  -3  -9 -13    1.70    0.80 
  -3  -9 -13    1.53    0.88 
  -3 -10  13    1.15    1.07 
   3 -10 -13    0.81    0.96 
  -2 -10  13   -0.51    0.95 
   2 -10 -13   -0.48    0.96 
  -1 -10  13    0.33    0.73 
   1 -10 -13    0.70    0.96 
   0 -10  13    0.83    0.73 
   0 -10 -13    1.39    1.04 
   1 -10  13    2.86    0.87 
  -1 -10 -13    2.16    0.84 
  -7   0  14    0.81    0.57 
  -6   0  14    0.07    0.46 
  -5   0  14    0.00    0.54 
  -4   0  14    0.50    0.56 
  -3   0  14    0.47    0.54 
  -2   0  14    2.25    0.64 
  -2   0  14    0.67    0.43 
  -1   0  14    7.12    0.74 
   0   0  14    1.13    0.53 
   1   0  14    3.20    0.69 
   2   0  14    0.14    0.57 
   3   0  14    1.66    0.73 
   4   0  14    0.26    0.70 
   5   0  14    0.47    0.64 
   6   0  14    1.40    0.73 
  -7  -1  14    3.80    0.77 
  -7   1  14    4.16    0.78 
  -6  -1  14    7.36    0.94 
  -6  -1  14    6.56    0.83 
  -6   1  14    5.80    0.92 
  -5  -1  14    0.70    0.59 
  -5   1  14    0.37    0.53 
  -5   1  14    0.08    0.57 
  -4  -1  14   17.51    1.21 
  -4   1  14   18.52    1.19 
  -3  -1  14    0.44    0.56 
  -3   1  14    0.32    0.51 
  -2  -1  14    1.13    0.62 
  -2  -1  14    1.09    0.47 
  -2   1  14    1.23    0.58 
  -2   1  14    1.63    0.49 
  -1  -1  14    9.58    0.83 
  -1  -1  14    9.10    1.01 
  -1   1  14    9.05    0.82 
   0  -1  14    2.93    0.58 
   0   1  14    3.22    0.63 
   1  -1  14    5.37    0.72 
   1   1  14    5.44    0.76 
   2  -1  14    4.91    0.80 
   2   1  14    6.50    0.88 
   3  -1  14    5.79    0.95 
   3   1  14    6.53    0.98 
   4  -1  14    1.21    0.81 
   4   1  14    0.64    0.63 
   5  -1  14   -0.36    0.59 
   5   1  14    1.43    0.70 
   6  -1  14   -0.01    0.70 
   6   1  14    1.21    0.77 
  -7  -2  14    2.74    0.90 
  -7  -2  14    3.08    0.79 
  -7   2  14    2.37    0.84 
  -6  -2  14    0.85    0.74 
  -6   2  14    1.41    0.74 
  -5  -2  14    5.30    0.94 
  -5   2  14    7.35    0.92 
  -4  -2  14    0.89    0.70 
  -4   2  14    0.87    0.55 
  -4   2  14    1.47    0.57 
   3  -2 -14    0.85    0.66 
  -3  -2  14    1.85    0.70 
  -3   2  14    1.79    0.58 
  -2  -2  14    2.57    0.75 
   2  -2 -14    4.14    0.80 
  -1  -2  14    5.68    0.84 
  -1  -2  14    8.15    0.75 
  -1   2  14    5.45    0.72 
   0  -2  14    2.95    0.62 
   0   2  14    3.17    0.63 
   1  -2  14    1.40    0.58 
   1   2  14    1.71    0.64 
   2  -2  14    9.64    1.00 
   2   2  14   11.33    1.10 
   3  -2  14   -0.29    0.65 
   3   2  14    0.27    0.65 
   4  -2  14    1.91    0.86 
   4   2  14    0.82    0.64 
   5  -2  14    1.25    0.78 
   5   2  14    0.39    0.63 
   6  -2  14    0.17    0.67 
   6   2  14   -0.09    0.90 
  -7  -3  14    0.11    0.72 
  -7  -3  14    0.57    0.89 
  -7   3  14    0.72    0.78 
  -6  -3  14    0.20    0.81 
  -6   3  14    0.40    0.67 
  -5  -3  14    8.21    1.10 
  -5   3  14    8.10    0.96 
  -4  -3  14    0.90    0.73 
  -4   3  14    0.69    0.53 
  -3  -3  14   10.81    1.12 
   3  -3 -14   12.51    1.07 
  -3   3  14   12.17    0.96 
  -3   3  14   14.27    1.04 
  -2  -3  14    0.00    0.62 
   2  -3 -14    1.12    0.71 
   1  -3 -14    2.30    0.76 
  -1  -3  14    2.57    0.55 
  -1  -3  14    1.22    0.59 
   0  -3  14   12.78    1.16 
   0  -3 -14   15.56    1.25 
   0  -3  14   13.16    0.97 
   0   3  14   12.82    1.02 
   1  -3  14    0.99    0.54 
   1   3  14    1.67    0.66 
   2  -3  14   12.24    1.09 
   2   3  14   11.62    1.15 
   3  -3  14    1.79    0.74 
   3   3  14    2.19    0.69 
   4  -3  14    8.23    1.13 
   4   3  14    6.10    0.92 
   5  -3  14   -0.03    0.85 
   5   3  14    0.78    0.66 
   6  -3  14    2.15    0.81 
   6   3  14    2.11    1.09 
  -7  -4  14    2.83    1.08 
  -7   4  14    2.38    0.85 
  -6  -4  14    0.14    0.83 
  -6   4  14    1.00    0.73 
  -5  -4  14    0.36    0.79 
  -5   4  14    1.14    0.66 
  -4  -4  14    2.40    0.88 
  -4   4  14    2.49    0.63 
  -3  -4  14    3.17    0.88 
   3  -4 -14    2.95    0.76 
  -3   4  14    4.39    0.64 
  -2  -4  14    3.26    0.78 
   2  -4 -14    2.56    0.76 
  -2   4  14    3.75    0.58 
  -1  -4  14    5.13    0.79 
   1  -4 -14    2.83    0.83 
   0  -4  14    4.61    0.66 
   0  -4  14    3.92    0.73 
   0  -4 -14    3.72    0.87 
  -1  -4 -14    5.07    0.88 
   1  -4  14    3.89    0.80 
   1  -4  14    4.93    0.75 
   1   4  14    5.14    0.85 
   2  -4  14    1.15    0.61 
   2   4  14    2.76    0.78 
   3  -4  14    1.01    0.75 
   3   4  14    0.88    0.60 
   4  -4  14   -0.03    0.78 
   4   4  14    0.31    0.58 
   5  -4  14    1.04    0.96 
   5   4  14   -0.30    0.72 
  -6  -5  14    0.74    0.95 
  -6   5  14    1.03    0.74 
  -5  -5  14   -0.77    0.85 
  -5   5  14    0.92    0.67 
  -4  -5  14    3.12    0.88 
   4  -5 -14    2.99    0.81 
  -4   5  14    2.03    0.63 
  -3  -5  14    1.53    0.73 
   3  -5 -14    3.13    0.81 
  -3   5  14    1.54    0.52 
  -2  -5  14    3.22    0.75 
   2  -5 -14    3.99    0.87 
  -2   5  14    3.67    0.60 
  -1  -5  14    3.58    0.74 
   1  -5 -14    2.55    0.73 
   0  -5  14    4.29    0.66 
   0  -5 -14    5.13    0.87 
   0  -5  14    5.47    0.91 
   1  -5  14    8.05    0.85 
  -1  -5 -14    6.39    0.96 
   1  -5  14    7.31    1.00 
   2  -5  14    1.34    0.68 
   2  -5  14    1.40    0.70 
   2   5  14    1.25    0.66 
   3  -5  14    1.69    0.80 
   3   5  14    1.79    0.67 
   4  -5  14    0.08    0.82 
   4   5  14    0.13    0.61 
   5  -5  14    2.23    1.02 
  -5  -5 -14    2.19    1.11 
   5   5  14    1.93    1.01 
  -6  -6  14   -0.45    0.95 
  -6   6  14   -0.24    0.71 
  -5  -6  14   -0.21    0.91 
  -5   6  14   -0.62    0.59 
  -4  -6  14    0.30    0.75 
   4  -6 -14   -0.74    0.58 
  -4   6  14    0.27    0.55 
   3  -6 -14    2.75    0.75 
  -3  -6  14    4.21    0.83 
  -3   6  14    2.96    0.63 
   2  -6 -14    5.04    0.83 
  -2  -6  14    4.19    0.82 
   1  -6 -14    2.47    0.70 
  -1  -6  14    1.70    0.73 
   0  -6  14    3.30    0.81 
   0  -6 -14    1.73    0.77 
   1  -6  14    1.16    0.69 
   1  -6  14    1.20    0.59 
  -1  -6 -14    1.00    0.71 
   2  -6  14    0.42    0.64 
  -2  -6 -14    0.03    0.73 
   2  -6  14   -0.20    0.69 
   2   6  14    0.35    0.59 
   3  -6  14    0.51    0.78 
   3  -6  14    1.46    0.76 
   3   6  14    0.49    0.61 
   4  -6  14    1.75    0.94 
  -4  -6 -14    1.77    0.82 
   4   6  14    0.48    0.65 
  -5  -7  14   -0.33    0.91 
  -5   7  14    1.08    0.73 
   4  -7 -14    1.53    0.70 
  -4  -7  14    2.90    0.79 
  -4   7  14    1.79    0.69 
  -3  -7  14    1.97    0.73 
   3  -7 -14    0.65    0.68 
  -2  -7  14    2.13    0.70 
   2  -7 -14    1.61    0.68 
   1  -7 -14    0.51    0.68 
  -1  -7  14    1.21    0.73 
   0  -7 -14    2.20    0.78 
   0  -7  14    2.98    0.81 
   1  -7  14    2.30    0.79 
  -1  -7 -14    1.54    0.77 
   1  -7  14    1.78    0.67 
  -2  -7 -14    0.31    0.74 
   2  -7  14   -0.11    0.64 
   2  -7  14    0.04    0.76 
  -3  -7 -14    4.78    0.94 
   3  -7  14    5.12    1.04 
   3  -7  14    5.60    0.96 
   3   7  14    5.92    0.92 
  -4  -7 -14    0.93    0.95 
   4  -7  14    0.31    0.74 
   4  -7  14    0.07    0.97 
   4   7  14    0.43    0.95 
  -4  -8  14   -0.07    0.66 
   4  -8 -14    0.49    0.66 
   3  -8 -14    3.02    0.79 
  -3  -8  14    1.57    0.74 
  -2  -8  14    0.98    0.74 
   2  -8 -14    0.10    0.65 
   1  -8 -14    1.08    0.72 
  -1  -8  14    1.13    0.67 
   0  -8 -14   -0.32    0.66 
   0  -8  14    0.26    0.69 
  -1  -8 -14    0.92    0.78 
   1  -8  14    2.26    0.79 
  -2  -8 -14    0.34    0.78 
   2  -8  14    1.78    0.87 
   2  -8  14    2.41    0.78 
   3  -8  14    2.47    0.82 
   3  -8  14    2.98    0.98 
  -3  -8 -14    0.17    0.81 
  -3  -8 -14    1.48    0.78 
   3   8  14    1.72    0.74 
  -3  -9  14    0.48    1.02 
   3  -9 -14    0.97    0.75 
  -2  -9  14    1.63    1.00 
   2  -9 -14    0.60    0.71 
  -1  -9  14    0.31    0.81 
   1  -9 -14    1.12    0.84 
   0  -9  14    1.45    0.77 
   0  -9 -14    0.15    0.87 
   1  -9  14    1.41    0.74 
  -1  -9 -14    0.82    1.03 
   2  -9  14    0.26    0.80 
   2  -9  14    0.71    0.78 
  -2  -9 -14   -0.08    0.78 
  -7   0  15   -0.03    0.54 
  -6   0  15    1.96    0.69 
  -5   0  15   -0.29    0.56 
  -4   0  15    4.79    0.81 
  -3   0  15    0.08    0.59 
  -2   0  15    1.44    0.48 
  -2   0  15    0.89    0.63 
  -1   0  15    5.09    0.69 
   0   0  15   -0.10    0.51 
   1   0  15    4.82    0.77 
   2   0  15    2.25    0.77 
   3   0  15   -0.16    0.74 
   4   0  15   -0.38    0.81 
   5   0  15    0.23    0.68 
  -7  -1  15    1.13    0.64 
  -7   1  15    0.09    0.66 
  -6  -1  15    1.78    0.79 
  -6  -1  15    1.67    0.58 
  -6   1  15    1.54    0.78 
  -5  -1  15    3.95    0.89 
  -5   1  15    4.55    0.84 
  -4  -1  15    9.77    1.06 
  -4   1  15    8.97    0.95 
  -3  -1  15    5.46    0.89 
  -3   1  15    6.26    0.83 
  -2  -1  15    1.97    0.76 
  -2   1  15    1.98    0.66 
  -2   1  15    2.29    0.55 
  -1  -1  15    7.99    0.81 
  -1  -1  15    9.39    1.10 
  -1   1  15    7.77    0.82 
   0  -1  15    1.53    0.56 
   0   1  15    0.74    0.51 
   1  -1  15    0.86    0.54 
   1   1  15    0.54    0.56 
   2  -1  15    0.46    0.66 
   2   1  15   -0.08    0.68 
   3  -1  15    0.22    0.75 
   3   1  15   -0.83    0.70 
   4  -1  15    0.87    0.88 
   4   1  15    0.26    0.76 
   5  -1  15   -0.49    0.80 
   5   1  15    0.66    0.68 
  -7  -2  15    1.98    0.67 
  -7  -2  15    1.03    0.95 
  -7   2  15    3.38    0.95 
  -6  -2  15    0.15    0.77 
  -6   2  15   -0.03    0.67 
  -5  -2  15    3.89    0.92 
  -5   2  15    6.23    0.90 
  -4  -2  15    0.02    0.74 
  -4   2  15    0.27    0.55 
  -4   2  15    0.64    0.57 
  -3  -2  15    0.30    0.74 
  -3   2  15    0.96    0.60 
   2  -2 -15    2.30    0.80 
  -2  -2  15    3.59    0.87 
  -2   2  15    2.95    0.60 
  -2   2  15    2.89    0.72 
  -1  -2  15    1.15    0.55 
  -1  -2  15    1.11    0.67 
  -1   2  15    1.29    0.52 
   0  -2  15    6.35    0.78 
   0   2  15    5.97    0.80 
   1  -2  15    1.71    0.60 
   1   2  15    2.08    0.72 
   2  -2  15    4.74    0.86 
   2   2  15    5.66    0.95 
   3  -2  15    2.74    0.85 
   3   2  15    1.83    0.85 
   4  -2  15    1.92    0.90 
   4   2  15    1.53    0.72 
   5  -2  15    1.89    1.00 
   5   2  15    4.76    0.92 
  -6  -3  15    2.69    0.96 
  -6   3  15    2.50    0.83 
  -5  -3  15    1.00    0.82 
  -5   3  15    1.65    0.70 
  -4  -3  15   11.54    1.23 
  -4   3  15    8.38    0.94 
  -3  -3  15   -0.90    0.74 
   3  -3 -15   -0.37    0.66 
  -3   3  15   -0.03    0.43 
  -3   3  15    0.85    0.57 
  -2  -3  15    9.68    1.15 
   2  -3 -15    9.68    1.06 
  -1  -3  15    3.93    0.81 
   1  -3 -15    5.14    0.92 
  -1   3  15    3.97    0.69 
   0  -3  15    6.96    0.94 
   0  -3  15    6.47    0.79 
   0   3  15    6.42    0.85 
   1  -3  15    1.91    0.61 
   1   3  15    1.90    0.73 
   2  -3  15    1.67    0.69 
   2   3  15    0.93    0.77 
   3  -3  15    9.22    1.12 
   3   3  15   10.20    1.18 
   4  -3  15    0.74    0.90 
   4   3  15    0.18    0.61 
   5  -3  15    2.90    1.04 
   5   3  15    2.06    0.80 
  -6  -4  15    2.49    1.00 
  -6   4  15    3.15    0.86 
  -5  -4  15    3.34    0.97 
  -5   4  15    1.91    0.72 
  -4  -4  15    1.05    0.87 
  -4   4  15    1.34    0.62 
  -3  -4  15    2.11    0.89 
   3  -4 -15    1.35    0.78 
  -3   4  15    1.95    0.58 
  -2  -4  15    1.79    0.70 
   2  -4 -15    2.04    0.79 
  -2   4  15    2.06    0.51 
  -1  -4  15    2.18    0.70 
   1  -4 -15    2.07    0.70 
   0  -4  15    5.89    0.92 
   0  -4  15    7.65    0.82 
   0  -4 -15    6.81    0.99 
   0   4  15    7.23    0.97 
   1  -4  15    3.52    0.77 
   1  -4  15    3.27    0.71 
   1   4  15    3.14    0.83 
   2  -4  15    0.68    0.69 
   2   4  15    0.39    0.75 
   3  -4  15   -0.02    0.74 
   3   4  15    0.20    0.68 
   4  -4  15    1.20    0.90 
   4   4  15    0.36    0.64 
   5  -4  15    0.42    0.94 
   5   4  15   -0.06    0.70 
  -6  -5  15   -0.12    0.98 
  -6   5  15    1.23    0.77 
  -5  -5  15    2.84    1.08 
  -5   5  15    3.07    0.81 
  -4  -5  15    3.68    1.06 
  -4   5  15    3.87    0.76 
  -3  -5  15    6.59    1.08 
   3  -5 -15    7.65    0.96 
  -3   5  15    7.74    0.83 
   2  -5 -15    2.81    0.74 
  -2  -5  15    4.29    0.83 
   1  -5 -15    5.07    0.85 
  -1  -5  15    4.46    0.83 
   0  -5  15    2.72    0.79 
   0  -5 -15    0.14    0.67 
  -1  -5 -15    3.42    0.87 
   1  -5  15    4.68    0.77 
   1  -5  15    3.02    0.86 
   1   5  15    4.61    0.93 
   2  -5  15    3.56    0.88 
   2  -5  15    5.32    0.96 
   2   5  15    4.58    0.97 
   3  -5  15    5.68    1.04 
   3   5  15    4.58    0.87 
   4  -5  15    2.51    0.99 
   4   5  15    3.53    0.86 
  -5  -6  15    0.41    1.03 
  -5   6  15    0.78    0.71 
   4  -6 -15   -0.21    0.58 
  -4  -6  15   -1.13    0.80 
  -4   6  15   -1.11    0.55 
   3  -6 -15   -0.31    0.59 
  -3  -6  15    0.99    0.67 
  -2  -6  15    1.75    0.70 
   2  -6 -15    0.51    0.68 
   1  -6 -15   -0.47    0.61 
  -1  -6  15    1.22    0.69 
   0  -6  15    1.45    0.74 
   0  -6 -15    1.29    0.71 
   1  -6  15    0.59    0.66 
   1  -6  15    0.91    0.71 
  -1  -6 -15    2.16    0.78 
   2  -6  15   -0.06    0.70 
   2  -6  15   -0.02    0.71 
   2   6  15    0.35    0.70 
   3  -6  15   -0.34    0.81 
   3  -6  15    0.05    0.70 
   3   6  15    0.20    0.62 
   4  -6  15    2.35    1.03 
   4  -6  15    1.46    0.82 
   4   6  15    1.64    0.76 
  -4  -7  15    1.30    0.77 
   4  -7 -15    1.49    0.75 
   3  -7 -15   12.17    1.22 
  -3  -7  15   11.83    1.26 
  -2  -7  15    0.90    0.70 
   2  -7 -15    1.89    0.76 
   1  -7 -15    0.62    0.67 
  -1  -7  15    0.05    0.66 
   0  -7 -15    0.73    0.75 
   0  -7  15    0.85    0.70 
   1  -7  15    0.20    0.69 
  -1  -7 -15    0.01    0.71 
   2  -7  15    1.30    0.87 
   2  -7  15   -0.39    0.68 
  -2  -7 -15   -0.46    0.89 
   2   7  15    0.14    0.64 
   3  -7  15    0.62    0.74 
   3  -7  15    0.68    0.90 
   3   7  15    0.03    0.63 
  -3  -8  15    1.60    0.77 
   3  -8 -15    1.45    0.77 
  -2  -8  15   -0.52    0.93 
   2  -8 -15    0.48    0.72 
   1  -8 -15    1.24    0.77 
  -1  -8  15    0.69    0.85 
   0  -8  15    0.00    0.75 
   0  -8 -15   -0.34    0.85 
   1  -8  15   -0.61    0.65 
  -1  -8 -15   -0.05    0.99 
   2  -8  15    0.05    0.78 
   2  -8  15    0.96    0.78 
  -2  -8 -15    0.56    1.10 
  -1  -9  15    1.66    1.11 
   1  -9 -15    1.72    1.08 
  -6   0  16    0.40    0.72 
  -5   0  16    7.79    1.03 
  -4   0  16    3.92    0.89 
  -3   0  16    4.82    0.92 
  -2   0  16    0.41    0.76 
  -1   0  16    0.15    0.50 
  -1   0  16    0.43    0.76 
   0   0  16    7.57    0.87 
   1   0  16    1.77    0.74 
   2   0  16    7.85    1.05 
   3   0  16   -0.27    0.81 
   4   0  16    3.83    1.08 
  -6  -1  16    0.21    0.84 
  -6  -1  16   -0.02    0.55 
  -6   1  16    0.59    0.74 
  -5  -1  16    0.82    0.84 
  -5   1  16    1.59    0.71 
  -4  -1  16    0.32    0.79 
  -4   1  16   -0.14    0.63 
  -3  -1  16    1.02    0.76 
  -3   1  16    0.77    0.65 
  -2  -1  16    2.74    0.89 
  -2   1  16    3.11    0.81 
  -2   1  16    4.29    0.69 
  -1  -1  16    1.25    0.54 
  -1  -1  16    0.13    0.78 
  -1   1  16    1.10    0.56 
   0  -1  16    1.66    0.57 
   0   1  16    0.98    0.61 
   1  -1  16    1.13    0.65 
   1   1  16    0.80    0.68 
   2  -1  16    0.62    0.78 
   2   1  16    0.87    0.79 
   3  -1  16    1.07    0.83 
   3   1  16    0.96    0.85 
   4  -1  16    0.47    0.92 
   4   1  16    0.63    0.94 
  -6  -2  16    3.71    1.02 
  -6   2  16    2.40    0.84 
  -5  -2  16    7.54    1.11 
  -5   2  16    6.82    0.97 
  -4  -2  16    7.32    1.13 
  -4   2  16    8.79    0.97 
  -3  -2  16    0.80    0.82 
  -3   2  16    0.12    0.61 
  -2  -2  16   -0.25    0.78 
  -2   2  16   -0.07    0.49 
  -2   2  16    0.17    0.64 
  -1  -2  16    3.86    0.97 
  -1   2  16    4.49    0.73 
   0  -2  16    5.20    0.77 
   0  -2  16    3.76    0.85 
   0   2  16    4.07    0.80 
   1  -2  16    5.61    0.87 
   1   2  16    4.89    0.89 
   2  -2  16    8.57    1.10 
   2   2  16   10.16    1.20 
   3  -2  16    5.41    1.03 
   3   2  16    7.15    1.17 
   4  -2  16    3.45    1.02 
   4   2  16    1.75    0.94 
  -6  -3  16    0.91    1.01 
  -6   3  16    0.57    0.76 
  -5  -3  16   -0.80    0.83 
  -5   3  16    0.11    0.65 
  -4  -3  16    1.75    0.90 
  -4   3  16    1.75    0.68 
  -3  -3  16    2.16    0.91 
  -3   3  16    1.59    0.59 
  -3   3  16    2.51    0.70 
   2  -3 -16    1.12    0.82 
  -2  -3  16    1.18    0.78 
  -2   3  16    0.89    0.58 
  -1  -3  16    3.30    0.86 
  -1   3  16    4.50    0.76 
   0  -3  16    0.59    0.56 
   0  -3  16    0.33    0.55 
   0   3  16    0.61    0.70 
   1  -3  16    0.74    0.61 
   1   3  16    0.56    0.75 
   2  -3  16   -0.71    0.70 
   2   3  16    0.11    0.92 
   3  -3  16   -0.80    0.77 
   3   3  16   -0.07    0.85 
   4  -3  16    0.64    0.91 
   4   3  16    0.46    0.76 
  -5  -4  16    1.35    0.99 
  -5   4  16    0.13    0.68 
  -4  -4  16    4.14    1.08 
  -4   4  16    3.05    0.74 
  -3  -4  16    0.98    0.93 
  -3   4  16    3.44    0.67 
   2  -4 -16    1.31    0.71 
  -2  -4  16    1.23    0.77 
  -2   4  16    1.11    0.50 
  -1  -4  16    2.54    0.70 
   1  -4 -16    2.66    0.78 
  -1   4  16    3.54    0.79 
   0  -4  16    1.14    0.68 
   0   4  16    0.45    0.70 
   1  -4  16   11.08    1.23 
   1  -4  16   11.16    1.10 
   1   4  16   12.43    1.28 
   2  -4  16    4.22    0.92 
   2   4  16    3.29    0.95 
   3  -4  16    4.48    1.00 
   3   4  16    3.73    1.04 
   4  -4  16    0.37    0.91 
   4   4  16    0.10    0.68 
  -5  -5  16   -0.24    0.95 
  -5   5  16    1.21    0.74 
  -4  -5  16    0.81    0.98 
  -4   5  16    1.26    0.68 
   3  -5 -16    0.77    0.69 
  -3  -5  16    1.71    0.93 
  -3   5  16    1.31    0.61 
   2  -5 -16    3.64    0.81 
  -2  -5  16    3.14    0.80 
  -1  -5  16    7.64    1.03 
   1  -5 -16    6.22    0.99 
   0  -5  16    3.56    0.86 
   0  -5 -16    3.96    0.91 
   0   5  16    3.59    0.94 
   1  -5  16    1.34    0.76 
   1  -5  16    0.26    0.67 
   1   5  16    1.48    0.85 
   2  -5  16   -0.26    0.70 
   2  -5  16    1.27    0.84 
   2   5  16    1.13    0.94 
   3  -5  16    0.73    0.93 
   3  -5  16    1.08    0.94 
   3   5  16    1.25    0.82 
  -4  -6  16    2.64    1.10 
   3  -6 -16    0.16    0.65 
  -3  -6  16    0.87    0.72 
  -2  -6  16    1.75    0.74 
   2  -6 -16    1.52    0.72 
   1  -6 -16   -1.40    0.63 
  -1  -6  16    1.01    0.70 
   0  -6 -16    4.99    0.95 
   0  -6  16    6.73    1.03 
   1  -6  16    1.08    0.79 
  -1  -6 -16    2.37    0.87 
   1   6  16    0.99    0.88 
   2  -6  16    3.09    0.91 
   2  -6  16    3.90    1.02 
   2   6  16    3.95    1.05 
   3  -6  16    0.54    1.00 
   3  -6  16    1.18    0.93 
   3   6  16    1.13    0.70 
   3  -7 -16    0.50    0.77 
  -3  -7  16    0.58    0.73 
   2  -7 -16    0.71    0.75 
  -2  -7  16    1.44    0.77 
   1  -7 -16    1.59    0.78 
  -1  -7  16    0.75    0.93 
   0  -7 -16    3.75    0.94 
   0  -7  16    4.36    1.12 
  -1  -7 -16    4.70    1.18 
   1  -7  16    2.69    1.07 
   2  -7  16   -1.29    0.84 
  -2  -7 -16    1.28    1.16 
   2  -7  16   -1.31    0.94 
   2   7  16    1.03    0.86 
  -1  -8  16    0.96    1.10 
   1  -8 -16   -0.02    0.94 
  -5   0  17    0.12    0.83 
  -4   0  17    3.13    0.96 
  -3   0  17    1.13    0.83 
  -2   0  17    1.75    0.89 
  -1   0  17   -0.28    0.51 
  -1   0  17   -1.03    0.80 
   0   0  17   -0.19    0.62 
   1   0  17    0.15    0.75 
   2   0  17    5.70    1.06 
   3   0  17    4.81    1.12 
   4   0  17    1.32    1.05 
  -5  -1  17    5.19    1.11 
  -5   1  17    4.97    0.91 
  -4  -1  17    1.60    0.93 
  -4   1  17    4.30    0.94 
  -3  -1  17   -0.77    0.78 
  -3   1  17    0.26    0.79 
  -2  -1  17   -0.41    0.84 
  -2   1  17   -1.15    0.71 
  -1  -1  17    0.66    0.90 
  -1   1  17    0.97    0.58 
   0  -1  17    3.55    0.77 
   0   1  17    3.67    0.84 
   1  -1  17    2.69    0.85 
   1   1  17    1.90    0.82 
   2  -1  17    9.80    1.24 
   2   1  17    9.52    1.21 
   3  -1  17    0.87    0.94 
   3   1  17    0.32    0.90 
   4  -1  17    1.51    1.00 
   4   1  17    1.51    1.04 
  -5  -2  17    3.86    1.05 
  -5   2  17    4.13    0.89 
  -4  -2  17    0.90    0.92 
  -4   2  17    2.09    0.72 
  -3  -2  17    3.33    1.01 
  -3   2  17    4.25    0.94 
  -2  -2  17    1.66    0.99 
  -2   2  17    0.60    0.80 
  -1  -2  17    1.65    0.97 
  -1   2  17    1.56    0.66 
   0  -2  17    1.06    0.79 
   0  -2  17    1.31    0.64 
   0   2  17    0.81    0.75 
   1  -2  17    0.65    0.76 
   1   2  17    0.65    0.74 
   2  -2  17    6.74    1.06 
   2   2  17    7.46    1.16 
   3  -2  17    3.32    1.01 
   3   2  17    2.28    1.03 
  -5  -3  17    0.22    0.96 
  -5   3  17    0.78    0.74 
  -4  -3  17    1.76    1.00 
  -4   3  17    0.88    0.68 
  -3  -3  17    0.58    0.95 
  -3   3  17    1.16    0.61 
  -2  -3  17    0.30    0.91 
  -2   3  17   -0.04    0.73 
  -2   3  17    0.54    0.63 
  -1  -3  17    3.69    0.98 
  -1   3  17    4.64    0.88 
   0  -3  17    3.13    0.79 
   0   3  17    1.89    0.82 
   1  -3  17   10.94    1.15 
   1  -3  17    9.88    1.20 
   1   3  17   10.90    1.24 
   2  -3  17    0.58    0.79 
   2   3  17   -0.46    0.84 
   3  -3  17    4.17    1.04 
   3   3  17    2.35    1.03 
  -5   4  17    2.72    0.84 
  -4  -4  17    5.31    1.20 
  -4   4  17    3.16    0.81 
  -3  -4  17    8.38    1.29 
  -3   4  17    8.62    0.95 
   2  -4 -17    1.26    0.71 
  -2  -4  17    2.65    1.04 
  -2   4  17    1.66    0.72 
   1  -4 -17    1.03    0.74 
  -1  -4  17   -0.46    0.60 
  -1   4  17    0.60    0.72 
   0  -4  17    2.21    0.79 
   0   4  17    2.30    0.85 
   1  -4  17    4.08    0.90 
   1  -4  17    5.08    0.96 
   1   4  17    4.93    1.02 
   2  -4  17    1.06    0.84 
   2  -4  17    0.97    0.93 
   2   4  17    0.52    0.91 
   3  -4  17   -0.38    0.93 
   3   4  17    0.23    0.92 
  -4  -5  17   -1.54    0.96 
  -4   5  17   -0.14    0.68 
  -3  -5  17    1.30    1.04 
   2  -5 -17    2.78    0.84 
  -2  -5  17    3.36    0.87 
  -1  -5  17    3.59    0.85 
   1  -5 -17    2.76    0.88 
   0  -5  17    6.30    1.01 
   0  -5 -17    4.81    0.98 
   0   5  17    6.97    1.08 
   1  -5  17    3.41    1.04 
   1   5  17    2.65    0.98 
   2  -5  17    2.14    0.91 
   2  -5  17    3.87    1.20 
   2   5  17    2.86    1.05 
   3  -6 -17    1.16    0.75 
  -3  -6  17    1.04    0.89 
  -2  -6  17    1.37    0.77 
   2  -6 -17    2.06    0.84 
   1  -6 -17    1.30    0.77 
  -1  -6  17    0.71    0.72 
   0  -6  17    1.09    1.05 
   0  -6 -17    1.07    0.84 
   0   6  17    0.35    0.85 
   1  -6  17    2.67    1.12 
   1   6  17    1.55    0.93 
  -4   0  18    2.88    1.02 
  -3   0  18   -0.59    0.82 
  -2   0  18    7.12    1.23 
  -1   0  18    0.07    0.93 
   0   0  18    1.69    0.83 
   1   0  18    0.05    0.75 
   2   0  18    3.22    0.99 
  -4  -1  18    2.13    1.04 
  -4   1  18    1.59    0.94 
  -3  -1  18    1.00    1.01 
  -3   1  18    0.12    0.82 
  -2  -1  18    0.91    0.97 
  -2   1  18    2.05    0.93 
  -1  -1  18    0.70    0.97 
  -1   1  18    0.05    0.90 
  -1   1  18   -0.16    0.67 
   0  -1  18    0.62    0.74 
   0  -1  18   -0.55    0.96 
   0   1  18   -0.71    0.75 
   1  -1  18    4.84    1.02 
   1   1  18    5.16    1.02 
   2  -1  18    0.92    0.96 
   2   1  18    3.26    1.00 
  -4  -2  18    2.74    1.07 
  -4   2  18    3.64    0.83 
  -3  -2  18    0.73    1.00 
  -3   2  18    2.23    0.90 
  -2  -2  18    1.64    1.00 
  -2   2  18    1.15    0.95 
  -1  -2  18    3.44    1.12 
  -1   2  18    4.05    0.89 
   0  -2  18    0.03    0.89 
   0   2  18    2.06    0.85 
   1  -2  18    2.10    0.89 
   1   2  18    1.28    0.86 
   2  -2  18    1.38    0.90 
   2   2  18    1.61    0.97 
  -4  -3  18    1.71    1.06 
  -4   3  18    2.00    0.76 
  -3  -3  18    1.07    1.04 
  -3   3  18    2.71    0.74 
  -2  -3  18    0.90    1.01 
  -2   3  18    0.38    0.87 
  -1  -3  18    0.29    0.95 
  -1   3  18    0.16    0.71 
   0  -3  18    3.63    0.89 
   0   3  18    3.99    0.99 
   1  -3  18    2.06    0.88 
   1  -3  18    3.01    0.88 
   1   3  18    1.53    0.96 
   2  -3  18    4.29    1.06 
   2   3  18    4.57    1.09 
  -3  -4  18    0.95    1.08 
  -2  -4  18    2.43    1.04 
  -2   4  18    3.77    0.90 
  -1  -4  18    4.68    0.97 
  -1   4  18    4.24    0.98 
   0  -4  18    0.24    0.74 
   0   4  18    1.21    0.91 
   1  -4  18    0.39    0.73 
   1   4  18    0.67    0.88 
   2  -5 -18    0.94    0.83 
  -2  -5  18    3.40    1.01 
  -1  -5  18    0.12    0.72 
   1  -5 -18    2.26    0.85 
  -1   5  18    1.19    0.84 
   0  -5  18    2.59    0.86 
   0   5  18    2.85    0.95 
  -3   0  19    3.58    1.08 
  -2   0  19    3.55    1.15 
  -1   0  19    6.65    1.28 
   0   0  19    4.04    0.93 
   1   0  19   15.47    1.45 
  -3  -1  19    5.42    1.29 
  -3   1  19    4.44    1.16 
  -2  -1  19    1.79    1.07 
  -2   1  19    1.98    1.10 
  -1  -1  19    1.41    1.09 
  -1   1  19    3.89    1.14 
   0  -1  19   -0.78    1.01 
   0   1  19   -0.02    0.85 
   1  -1  19    0.13    0.87 
   1   1  19    0.34    0.95 
  -2  -2  19    3.90    1.18 
  -2   2  19    5.11    1.18 
  -1  -2  19    3.31    1.19 
   0  -2  19    4.82    1.24 
   0   2  19    6.70    1.10 
  -1  -3  19    1.73    1.12 
  -1   3  19    1.00    0.90 
   0   0   0    0.00    0.00 
;
_shelx_hkl_checksum              12090
loop_
_space_group_symop_operation_xyz
'x, y, z'
'-x, y+1/2, -z'
loop_
_atom_site_label
_atom_site_type_symbol
_atom_site_fract_x
_atom_site_fract_y
_atom_site_fract_z
_atom_site_U_iso_or_equiv
_atom_site_adp_type
_atom_site_occupancy
_atom_site_site_symmetry_order
_atom_site_calc_flag
_atom_site_refinement_flags_posn
_atom_site_refinement_flags_adp
S1 S 1.07103(15) 0.77954(13) 0.39635(7) 0.0244(3) Uani 1 1 d . .
S2 S 0.49825(16) 0.93547(15) 0.15591(9) 0.0362(4) Uani 1 1 d . .
N1 N 0.6819(5) 0.8707(5) 0.1588(3) 0.0306(11) Uani 1 1 d . .
N2 N 0.9722(6) 0.7646(5) -0.0253(3) 0.0355(11) Uani 1 1 d . .
N3 N 0.9453(6) 0.6861(5) -0.0835(3) 0.0337(11) Uani 1 1 d . .
O1 O 1.1165(5) 0.8972(3) 0.4339(2) 0.0341(9) Uani 1 1 d . .
O2 O 0.9117(4) 0.7291(4) 0.4150(2) 0.0357(10) Uani 1 1 d . .
O3 O 0.4243(4) 0.9259(5) 0.0660(3) 0.0461(11) Uani 1 1 d . .
O4 O 0.4196(5) 0.8788(4) 0.2276(3) 0.0473(12) Uani 1 1 d . .
C1 C 0.7739(6) 0.8448(6) 0.2459(3) 0.0340(14) Uani 1 1 d . .
H1A H 0.7247 0.7738 0.2747 0.041 Uiso 1 1 calc R U
H1B H 0.7729 0.9164 0.2861 0.041 Uiso 1 1 calc R U
C2 C 0.9512(6) 0.8171(5) 0.2233(3) 0.0257(12) Uani 1 1 d . .
C3 C 0.9587(6) 0.8366(5) 0.1228(3) 0.0256(12) Uani 1 1 d . .
H3 H 1.0597 0.8880 0.1145 0.031 Uiso 1 1 calc R U
C4 C 0.8014(6) 0.9121(6) 0.0954(3) 0.0317(13) Uani 1 1 d . .
H4A H 0.8249 1.0007 0.1021 0.038 Uiso 1 1 calc R U
H4B H 0.7568 0.8950 0.0329 0.038 Uiso 1 1 calc R U
C5 C 1.0803(6) 0.7882(5) 0.2803(3) 0.0239(11) Uani 1 1 d . .
H5 H 1.1849 0.7710 0.2577 0.029 Uiso 1 1 calc R U
C6 C 1.2338(6) 0.6757(5) 0.4324(3) 0.0213(10) Uani 1 1 d . .
C7 C 1.1944(7) 0.5662(5) 0.4719(3) 0.0305(13) Uani 1 1 d . .
H7 H 1.0804 0.5446 0.4772 0.037 Uiso 1 1 calc R U
C8 C 1.3234(7) 0.4897(6) 0.5030(4) 0.0377(14) Uani 1 1 d . .
H8 H 1.2985 0.4144 0.5302 0.045 Uiso 1 1 calc R U
C9 C 1.4914(8) 0.5215(6) 0.4951(5) 0.0385(14) Uani 1 1 d . .
H9 H 1.5802 0.4684 0.5172 0.046 Uiso 1 1 calc R U
C10 C 1.5271(7) 0.6312(6) 0.4548(4) 0.0347(14) Uani 1 1 d . .
H10 H 1.6409 0.6528 0.4488 0.042 Uiso 1 1 calc R U
C11 C 1.4001(6) 0.7083(5) 0.4237(3) 0.0282(12) Uani 1 1 d . .
H11 H 1.4250 0.7835 0.3964 0.034 Uiso 1 1 calc R U
C12 C 0.5222(7) 1.0915(6) 0.1823(4) 0.0358(14) Uani 1 1 d . .
C13 C 0.5411(7) 1.1757(7) 0.1154(4) 0.0404(15) Uani 1 1 d . .
H13 H 0.5493 1.1488 0.0559 0.049 Uiso 1 1 calc R U
C14 C 0.5480(9) 1.2976(7) 0.1351(4) 0.0550(19) Uani 1 1 d . .
H14 H 0.5606 1.3547 0.0886 0.066 Uiso 1 1 calc R U
C15 C 0.5371(9) 1.3400(8) 0.2208(5) 0.0577(19) Uani 1 1 d . .
C16 C 0.5257(10) 1.2532(8) 0.2875(5) 0.066(2) Uani 1 1 d . .
H16 H 0.5230 1.2798 0.3475 0.080 Uiso 1 1 calc R U
C17 C 0.5183(8) 1.1307(8) 0.2692(4) 0.0527(19) Uani 1 1 d . .
H17 H 0.5106 1.0732 0.3159 0.063 Uiso 1 1 calc R U
C18 C 0.9708(7) 0.7169(5) 0.0674(4) 0.0308(13) Uani 1 1 d . .
C19 C 0.8251(7) 0.6323(6) 0.0771(4) 0.0389(15) Uani 1 1 d . .
H19A H 0.7190 0.6750 0.0591 0.058 Uiso 1 1 calc R U
H19B H 0.8271 0.6064 0.1396 0.058 Uiso 1 1 calc R U
H19C H 0.8343 0.5605 0.0390 0.058 Uiso 1 1 calc R U
C20 C 1.1391(8) 0.6537(6) 0.0907(4) 0.0387(15) Uani 1 1 d . .
H20A H 1.1487 0.5840 0.0506 0.058 Uiso 1 1 calc R U
H20B H 1.1463 0.6247 0.1526 0.058 Uiso 1 1 calc R U
H20C H 1.2309 0.7115 0.0840 0.058 Uiso 1 1 calc R U
C21 C 0.9501(8) 0.7282(6) -0.1740(4) 0.0344(14) Uani 1 1 d . .
C22 C 0.9210(8) 0.6439(6) -0.2406(4) 0.0403(15) Uani 1 1 d . .
H22 H 0.8970 0.5618 -0.2257 0.048 Uiso 1 1 calc R U
C23 C 0.9256(9) 0.6750(7) -0.3284(4) 0.0476(17) Uani 1 1 d . .
H23 H 0.9057 0.6152 -0.3741 0.057 Uiso 1 1 calc R U
C24 C 0.9596(9) 0.7948(7) -0.3497(4) 0.0544(19) Uani 1 1 d . .
H24 H 0.9640 0.8175 -0.4104 0.065 Uiso 1 1 calc R U
C25 C 0.9871(12) 0.8813(7) -0.2835(4) 0.070(3) Uani 1 1 d . .
H25 H 1.0081 0.9639 -0.2984 0.084 Uiso 1 1 calc R U
C26 C 0.9841(9) 0.8476(7) -0.1955(4) 0.0517(19) Uani 1 1 d . .
H26 H 1.0054 0.9067 -0.1495 0.062 Uiso 1 1 calc R U
C27 C 0.5396(15) 1.4734(9) 0.2422(8) 0.109(4) Uani 1 1 d . .
H27A H 0.4439 1.4932 0.2758 0.164 Uiso 1 1 calc R U
H27B H 0.5312 1.5207 0.1866 0.164 Uiso 1 1 calc R U
H27C H 0.6452 1.4937 0.2783 0.164 Uiso 1 1 calc R U
loop_
_atom_site_aniso_label
_atom_site_aniso_U_11
_atom_site_aniso_U_22
_atom_site_aniso_U_33
_atom_site_aniso_U_23
_atom_site_aniso_U_13
_atom_site_aniso_U_12
S1 0.0237(6) 0.0330(7) 0.0165(6) 0.0006(6) 0.0027(4) 0.0017(6)
S2 0.0236(7) 0.0491(10) 0.0356(8) 0.0080(7) 0.0020(5) 0.0005(7)
N1 0.022(2) 0.047(3) 0.022(2) 0.010(2) 0.0027(17) 0.001(2)
N2 0.055(3) 0.029(3) 0.023(2) -0.001(2) 0.006(2) -0.002(2)
N3 0.046(3) 0.030(3) 0.023(2) 0.001(2) -0.003(2) 0.001(2)
O1 0.043(2) 0.030(2) 0.028(2) -0.0033(16) 0.0030(16) 0.0064(18)
O2 0.0226(18) 0.060(3) 0.026(2) 0.0098(18) 0.0057(15) 0.0009(18)
O3 0.033(2) 0.059(3) 0.044(2) 0.002(2) -0.0095(17) 0.007(2)
O4 0.027(2) 0.065(3) 0.051(3) 0.019(2) 0.0095(18) -0.001(2)
C1 0.027(3) 0.055(4) 0.020(3) 0.008(3) 0.006(2) 0.008(3)
C2 0.025(3) 0.032(3) 0.020(3) 0.003(2) 0.005(2) -0.001(2)
C3 0.028(3) 0.028(3) 0.020(3) 0.000(2) 0.002(2) -0.005(2)
C4 0.032(3) 0.039(4) 0.025(3) 0.008(2) 0.006(2) -0.004(3)
C5 0.022(2) 0.032(3) 0.019(2) -0.001(2) 0.0071(18) 0.000(3)
C6 0.025(2) 0.021(3) 0.018(2) -0.001(2) 0.0014(19) 0.003(2)
C7 0.028(3) 0.038(4) 0.025(3) 0.003(2) 0.000(2) -0.009(3)
C8 0.039(3) 0.039(4) 0.035(3) 0.014(3) 0.003(2) -0.006(3)
C9 0.038(3) 0.034(4) 0.044(3) 0.010(3) 0.006(2) 0.011(3)
C10 0.022(3) 0.045(4) 0.036(3) 0.002(3) 0.001(2) 0.006(3)
C11 0.031(3) 0.024(3) 0.029(3) 0.001(2) 0.002(2) -0.002(2)
C12 0.031(3) 0.047(4) 0.029(3) 0.004(3) 0.001(2) 0.001(3)
C13 0.041(3) 0.057(5) 0.024(3) 0.000(3) 0.003(2) 0.002(3)
C14 0.071(4) 0.057(6) 0.039(4) 0.013(3) 0.014(3) 0.001(4)
C15 0.060(4) 0.065(5) 0.049(4) -0.008(4) 0.010(3) -0.009(4)
C16 0.096(6) 0.072(7) 0.033(4) -0.002(4) 0.017(4) -0.001(5)
C17 0.058(4) 0.072(6) 0.028(3) 0.005(3) 0.009(3) -0.004(4)
C18 0.043(3) 0.029(3) 0.021(3) -0.003(2) 0.006(2) -0.003(3)
C19 0.049(4) 0.038(4) 0.029(3) 0.005(3) -0.003(3) -0.007(3)
C20 0.054(4) 0.038(4) 0.023(3) -0.004(3) 0.002(3) 0.007(3)
C21 0.053(4) 0.029(3) 0.021(3) -0.002(2) 0.005(2) 0.005(3)
C22 0.065(4) 0.029(3) 0.025(3) -0.001(2) -0.007(3) 0.006(3)
C23 0.072(5) 0.046(4) 0.023(3) -0.006(3) -0.001(3) 0.017(4)
C24 0.092(5) 0.051(5) 0.020(3) 0.004(3) 0.005(3) 0.013(4)
C25 0.145(8) 0.037(4) 0.030(4) 0.003(3) 0.012(4) -0.013(5)
C26 0.098(5) 0.031(4) 0.024(3) -0.004(3) -0.003(3) 0.001(4)
C27 0.160(10) 0.060(7) 0.120(9) -0.026(6) 0.070(8) -0.026(7)
loop_
_atom_type_symbol
_atom_type_description
_atom_type_scat_dispersion_real
_atom_type_scat_dispersion_imag
_atom_type_scat_source
C C 0.0033 0.0016 'International Tables Vol C Tables 4.2.6.8 and 6.1.1.4'
H H 0.0000 0.0000 'International Tables Vol C Tables 4.2.6.8 and 6.1.1.4'
N N 0.0061 0.0033 'International Tables Vol C Tables 4.2.6.8 and 6.1.1.4'
O O 0.0106 0.0060 'International Tables Vol C Tables 4.2.6.8 and 6.1.1.4'
S S 0.1246 0.1234 'International Tables Vol C Tables 4.2.6.8 and 6.1.1.4'
loop_
_geom_angle_atom_site_label_1
_geom_angle_atom_site_label_2
_geom_angle_atom_site_label_3
_geom_angle
O2 S1 O1 117.4(2)
O2 S1 C5 109.9(2)
O1 S1 C5 107.9(2)
O2 S1 C6 109.2(2)
O1 S1 C6 107.9(2)
C5 S1 C6 103.7(2)
O3 S2 O4 120.6(3)
O3 S2 N1 106.2(2)
O4 S2 N1 104.5(2)
O3 S2 C12 108.1(3)
O4 S2 C12 107.1(3)
N1 S2 C12 109.9(3)
C1 N1 C4 109.8(4)
C1 N1 S2 118.6(3)
C4 N1 S2 118.9(4)
N3 N2 C18 113.8(5)
N2 N3 C21 115.4(5)
N1 C1 C2 103.5(4)
C5 C2 C1 126.1(4)
C5 C2 C3 125.0(4)
C1 C2 C3 108.8(4)
C4 C3 C2 103.3(4)
C4 C3 C18 113.9(4)
C2 C3 C18 114.8(4)
N1 C4 C3 103.0(4)
C2 C5 S1 123.7(4)
C7 C6 C11 121.4(5)
C7 C6 S1 119.7(4)
C11 C6 S1 118.9(4)
C8 C7 C6 118.6(5)
C7 C8 C9 120.6(6)
C10 C9 C8 119.5(6)
C11 C10 C9 120.5(5)
C10 C11 C6 119.4(5)
C17 C12 C13 119.8(6)
C17 C12 S2 120.3(5)
C13 C12 S2 119.9(5)
C14 C13 C12 119.8(6)
C13 C14 C15 121.7(7)
C14 C15 C16 117.3(8)
C14 C15 C27 121.9(8)
C16 C15 C27 120.8(7)
C17 C16 C15 121.9(7)
C16 C17 C12 119.4(6)
N2 C18 C19 112.6(5)
N2 C18 C20 106.7(4)
C19 C18 C20 111.7(5)
N2 C18 C3 102.2(4)
C19 C18 C3 112.1(4)
C20 C18 C3 111.1(4)
C22 C21 C26 119.4(5)
C22 C21 N3 117.3(5)
C26 C21 N3 123.2(5)
C21 C22 C23 121.5(6)
C22 C23 C24 119.0(6)
C25 C24 C23 120.3(6)
C24 C25 C26 119.7(7)
C25 C26 C21 120.1(6)
loop_
_geom_bond_atom_site_label_1
_geom_bond_atom_site_label_2
_geom_bond_distance
S1 O2 1.437(4)
S1 O1 1.438(4)
S1 C5 1.757(4)
S1 C6 1.769(5)
S2 O3 1.425(4)
S2 O4 1.442(4)
S2 N1 1.622(4)
S2 C12 1.759(7)
N1 C1 1.463(6)
N1 C4 1.484(6)
N2 N3 1.230(6)
N2 C18 1.491(7)
N3 C21 1.442(7)
C1 C2 1.516(7)
C2 C5 1.310(7)
C2 C3 1.535(7)
C3 C4 1.523(7)
C3 C18 1.560(8)
C6 C7 1.387(7)
C6 C11 1.391(7)
C7 C8 1.371(8)
C8 C9 1.399(8)
C9 C10 1.387(9)
C10 C11 1.363(7)
C12 C17 1.379(8)
C12 C13 1.385(8)
C13 C14 1.366(10)
C14 C15 1.382(9)
C15 C16 1.391(10)
C15 C27 1.494(13)
C16 C17 1.369(11)
C18 C19 1.503(8)
C18 C20 1.519(8)
C21 C22 1.365(8)
C21 C26 1.380(9)
C22 C23 1.368(8)
C23 C24 1.383(10)
C24 C25 1.376(9)
C25 C26 1.377(9)
loop_
_geom_torsion_atom_site_label_1
_geom_torsion_atom_site_label_2
_geom_torsion_atom_site_label_3
_geom_torsion_atom_site_label_4
_geom_torsion
O3 S2 N1 C1 -168.0(4)
O4 S2 N1 C1 -39.4(5)
C12 S2 N1 C1 75.2(5)
O3 S2 N1 C4 54.1(5)
O4 S2 N1 C4 -177.3(4)
C12 S2 N1 C4 -62.7(5)
C18 N2 N3 C21 -178.4(5)
C4 N1 C1 C2 -24.4(6)
S2 N1 C1 C2 -165.8(4)
N1 C1 C2 C5 -179.9(6)
N1 C1 C2 C3 3.8(6)
C5 C2 C3 C4 -159.5(6)
C1 C2 C3 C4 16.8(6)
C5 C2 C3 C18 76.0(7)
C1 C2 C3 C18 -107.7(5)
C1 N1 C4 C3 35.4(6)
S2 N1 C4 C3 176.6(4)
C2 C3 C4 N1 -30.4(5)
C18 C3 C4 N1 94.8(5)
C1 C2 C5 S1 -1.4(9)
C3 C2 C5 S1 174.3(4)
O2 S1 C5 C2 37.7(6)
O1 S1 C5 C2 -91.5(5)
C6 S1 C5 C2 154.2(5)
O2 S1 C6 C7 -0.3(5)
O1 S1 C6 C7 128.3(4)
C5 S1 C6 C7 -117.4(4)
O2 S1 C6 C11 -177.7(4)
O1 S1 C6 C11 -49.1(4)
C5 S1 C6 C11 65.2(4)
C11 C6 C7 C8 0.3(8)
S1 C6 C7 C8 -177.0(4)
C6 C7 C8 C9 0.0(9)
C7 C8 C9 C10 -0.5(10)
C8 C9 C10 C11 0.6(10)
C9 C10 C11 C6 -0.3(9)
C7 C6 C11 C10 -0.2(8)
S1 C6 C11 C10 177.2(4)
O3 S2 C12 C17 151.3(5)
O4 S2 C12 C17 19.9(6)
N1 S2 C12 C17 -93.1(5)
O3 S2 C12 C13 -27.2(5)
O4 S2 C12 C13 -158.7(5)
N1 S2 C12 C13 88.4(5)
C17 C12 C13 C14 -3.0(9)
S2 C12 C13 C14 175.5(5)
C12 C13 C14 C15 0.2(10)
C13 C14 C15 C16 2.6(11)
C13 C14 C15 C27 -178.2(8)
C14 C15 C16 C17 -2.7(12)
C27 C15 C16 C17 178.1(9)
C15 C16 C17 C12 0.0(12)
C13 C12 C17 C16 2.9(10)
S2 C12 C17 C16 -175.6(6)
N3 N2 C18 C19 -44.9(7)
N3 N2 C18 C20 77.9(6)
N3 N2 C18 C3 -165.4(5)
C4 C3 C18 N2 60.1(5)
C2 C3 C18 N2 178.8(4)
C4 C3 C18 C19 -60.8(6)
C2 C3 C18 C19 58.0(6)
C4 C3 C18 C20 173.6(4)
C2 C3 C18 C20 -67.7(6)
N2 N3 C21 C22 180.0(5)
N2 N3 C21 C26 0.7(9)
C26 C21 C22 C23 0.3(10)
N3 C21 C22 C23 -179.0(6)
C21 C22 C23 C24 -0.3(10)
C22 C23 C24 C25 -0.5(11)
C23 C24 C25 C26 1.3(12)
C24 C25 C26 C21 -1.4(12)
C22 C21 C26 C25 0.6(11)
N3 C21 C26 C25 179.8(7)
