#------------------------------------------------------------------------------
#$Date: 2017-11-07 03:16:16 +0200 (Tue, 07 Nov 2017) $
#$Revision: 202799 $
#$URL: file:///home/coder/svn-repositories/cod/cif/1/54/71/1547130.cif $
#------------------------------------------------------------------------------
#
# This file is available in the Crystallography Open Database (COD),
# http://www.crystallography.net/
#
# All data on this site have been placed in the public domain by the
# contributors.
#
data_1547130
loop_
_publ_author_name
'Yang, Meng-Nan'
'Yan, Dong-Mei'
'Zhao, Quan-Qing'
'Chen, Jia-Rong'
'Xiao, Wen-Jing'
_publ_section_title
;
 Synthesis of Dihydropyrazoles via Ligand-Free Pd-Catalyzed Alkene
 Aminoarylation of Unsaturated Hydrazones with Diaryliodonium Salts.
;
_journal_issue                   19
_journal_name_full               'Organic letters'
_journal_page_first              5208
_journal_page_last               5211
_journal_paper_doi               10.1021/acs.orglett.7b02480
_journal_volume                  19
_journal_year                    2017
_chemical_formula_moiety         'C24 H23 Br N2 O2 S'
_chemical_formula_sum            'C24 H23 Br N2 O2 S'
_chemical_formula_weight         483.41
_chemical_name_systematic
;
 ? 
;
_space_group_crystal_system      monoclinic
_space_group_IT_number           14
_space_group_name_Hall           '-P 2ybc'
_space_group_name_H-M_alt        'P 1 21/c 1'
_symmetry_space_group_name_Hall  '-P 2ybc'
_symmetry_space_group_name_H-M   'P 1 21/c 1'
_atom_sites_solution_hydrogens   geom
_atom_sites_solution_primary     direct
_audit_creation_date             2017-08-09
_audit_creation_method
;
Olex2 1.2
(compiled 2017.07.20 svn.r3457 for OlexSys, GUI svn.r5370)
;
_cell_angle_alpha                90
_cell_angle_beta                 110.678(3)
_cell_angle_gamma                90
_cell_formula_units_Z            4
_cell_length_a                   13.366(3)
_cell_length_b                   15.726(3)
_cell_length_c                   11.497(2)
_cell_measurement_reflns_used    4117
_cell_measurement_temperature    298(2)
_cell_measurement_theta_max      23.28
_cell_measurement_theta_min      2.40
_cell_volume                     2260.9(8)
_computing_cell_refinement       'Bruker SAINT'
_computing_data_collection       'Bruker APEX2'
_computing_data_reduction        'Bruker SAINT'
_computing_molecular_graphics    'Olex2 (Dolomanov et al., 2009)'
_computing_publication_material  'Olex2 (Dolomanov et al., 2009)'
_computing_structure_refinement  'ShelXL (Sheldrick, 2015)'
_computing_structure_solution    'ShelXS (Sheldrick, 2008)'
_diffrn_ambient_temperature      298.15
_diffrn_measured_fraction_theta_full 0.995
_diffrn_measured_fraction_theta_max 0.995
_diffrn_measurement_device_type  'Bruker APEX-II CCD'
_diffrn_measurement_method       '\f and \w scans'
_diffrn_radiation_type           MoK\a
_diffrn_radiation_wavelength     0.71073
_diffrn_reflns_av_R_equivalents  0.0491
_diffrn_reflns_av_unetI/netI     0.0521
_diffrn_reflns_Laue_measured_fraction_full 0.995
_diffrn_reflns_Laue_measured_fraction_max 0.995
_diffrn_reflns_limit_h_max       15
_diffrn_reflns_limit_h_min       -15
_diffrn_reflns_limit_k_max       18
_diffrn_reflns_limit_k_min       -18
_diffrn_reflns_limit_l_max       13
_diffrn_reflns_limit_l_min       -12
_diffrn_reflns_number            15430
_diffrn_reflns_point_group_measured_fraction_full 0.995
_diffrn_reflns_point_group_measured_fraction_max 0.995
_diffrn_reflns_theta_full        24.990
_diffrn_reflns_theta_max         24.990
_diffrn_reflns_theta_min         1.628
_exptl_absorpt_coefficient_mu    1.933
_exptl_absorpt_correction_T_max  0.8302
_exptl_absorpt_correction_T_min  0.7603
_exptl_absorpt_correction_type   multi-scan
_exptl_absorpt_process_details   SADABS
_exptl_crystal_colour            colorless
_exptl_crystal_density_diffrn    1.420
_exptl_crystal_density_method    'not measured'
_exptl_crystal_description       block
_exptl_crystal_F_000             992
_exptl_crystal_size_max          0.15
_exptl_crystal_size_mid          0.12
_exptl_crystal_size_min          0.1
_refine_diff_density_max         0.699
_refine_diff_density_min         -0.885
_refine_diff_density_rms         0.069
_refine_ls_extinction_method     none
_refine_ls_goodness_of_fit_ref   1.035
_refine_ls_hydrogen_treatment    constr
_refine_ls_matrix_type           full
_refine_ls_number_parameters     272
_refine_ls_number_reflns         3958
_refine_ls_number_restraints     0
_refine_ls_restrained_S_all      1.035
_refine_ls_R_factor_all          0.0771
_refine_ls_R_factor_gt           0.0492
_refine_ls_shift/su_max          0.001
_refine_ls_shift/su_mean         0.000
_refine_ls_structure_factor_coef Fsqd
_refine_ls_weighting_details
'w=1/[\s^2^(Fo^2^)+(0.0941P)^2^+0.6115P] where P=(Fo^2^+2Fc^2^)/3'
_refine_ls_weighting_scheme      calc
_refine_ls_wR_factor_gt          0.1411
_refine_ls_wR_factor_ref         0.1603
_reflns_Friedel_coverage         0.000
_reflns_number_gt                2799
_reflns_number_total             3958
_reflns_threshold_expression     'I > 2\s(I)'
_iucr_refine_instructions_details
;
TITL T in P2(1)/c
    t.res
    created by SHELXL-2017/1 at 22:58:50 on 09-Aug-2017
CELL 0.71073 13.366 15.7263 11.4975 90 110.678 90
ZERR 4 0.0025 0.003 0.0021 0 0.003 0
LATT 1
SYMM -X,0.5+Y,0.5-Z
SFAC C H Br N O S
UNIT 96 92 4 8 8 4

L.S. 20
PLAN  20
SIZE 0.15 0.12 0.1
TEMP 25
BOND $H
CONF
HTAB
fmap 2
acta
REM <olex2.extras>
REM <HklSrc "%.\\T.hkl">
REM </olex2.extras>

WGHT    0.094100    0.611500
FVAR       0.10641
BR1   3    0.806491    0.631690    0.596547    11.00000    0.07615    0.11906 =
         0.08871    0.03598    0.03368   -0.02562
C1    1    0.718591    0.562796    0.655137    11.00000    0.05647    0.05620 =
         0.04121    0.00440    0.02126   -0.00966
C2    1    0.612825    0.579687    0.621373    11.00000    0.06243    0.04930 =
         0.05175    0.01963    0.02346    0.00552
AFIX  43
H2    2    0.582714    0.624210    0.567041    11.00000   -1.20000
AFIX   0
C3    1    0.550039    0.530960    0.667489    11.00000    0.04593    0.04998 =
         0.04703    0.01129    0.01476    0.00904
AFIX  43
H3    2    0.477456    0.542971    0.644093    11.00000   -1.20000
AFIX   0
C4    1    0.593260    0.464018    0.748530    11.00000    0.04652    0.03430 =
         0.03235   -0.00257    0.01659    0.00369
C5    1    0.700567    0.446803    0.778547    11.00000    0.05129    0.05009 =
         0.05000    0.01500    0.01964    0.00860
AFIX  43
H5    2    0.731071    0.401681    0.831480    11.00000   -1.20000
AFIX   0
C6    1    0.763027    0.494848    0.731932    11.00000    0.04493    0.07631 =
         0.06322    0.01044    0.02339    0.00191
AFIX  43
H6    2    0.835023    0.481792    0.751884    11.00000   -1.20000
AFIX   0
C7    1    0.527273    0.414212    0.802944    11.00000    0.04253    0.03407 =
         0.03360   -0.00482    0.01620    0.00388
C8    1    0.408023    0.407817    0.735454    11.00000    0.04094    0.06013 =
         0.03816   -0.00159    0.01464    0.00216
AFIX  23
H8A   2    0.393545    0.399252    0.647459    11.00000   -1.20000
H8B   2    0.374469    0.460724    0.745113    11.00000   -1.20000
AFIX   0
C9    1    0.360267    0.335289    0.784709    11.00000    0.04166    0.05205 =
         0.04825   -0.01404    0.01766   -0.00504
AFIX  23
H9A   2    0.283176    0.341744    0.756169    11.00000   -1.20000
H9B   2    0.376056    0.281905    0.752578    11.00000   -1.20000
AFIX   0
C10   1    0.404655    0.333311    0.925143    11.00000    0.04131    0.03556 =
         0.04637   -0.00597    0.02206   -0.00186
AFIX  13
H10   2    0.378595    0.281720    0.952945    11.00000   -1.20000
AFIX   0
C11   1    0.372000    0.410606    0.985967    11.00000    0.04898    0.04282 =
         0.04657   -0.00733    0.02007    0.00401
AFIX  23
H11A  2    0.413341    0.410600    1.074324    11.00000   -1.20000
H11B  2    0.388887    0.462333    0.950776    11.00000   -1.20000
AFIX   0
C12   1    0.256051    0.410346    0.967697    11.00000    0.05237    0.04691 =
         0.04977   -0.00819    0.02370    0.00771
C13   1    0.187649    0.469989    0.894538    11.00000    0.05604    0.08460 =
         0.08015    0.01624    0.03027    0.01959
AFIX  43
H13   2    0.213699    0.510727    0.853898    11.00000   -1.20000
AFIX   0
C14   1    0.081523    0.470454    0.880430    11.00000    0.07041    0.12623 =
         0.11510    0.03376    0.02809    0.03591
AFIX  43
H14   2    0.036439    0.512314    0.832598    11.00000   -1.20000
AFIX   0
C15   1    0.042100    0.409241    0.936835    11.00000    0.05217    0.13090 =
         0.12557    0.00115    0.03695    0.00825
AFIX  43
H15   2   -0.030538    0.408064    0.924302    11.00000   -1.20000
AFIX   0
C16   1    0.107510    0.350850    1.010157    11.00000    0.08278    0.07790 =
         0.10689   -0.00758    0.05964   -0.01098
AFIX  43
H16   2    0.080471    0.309970    1.049568    11.00000   -1.20000
AFIX   0
C17   1    0.214641    0.351468    1.027030    11.00000    0.07169    0.05981 =
         0.07760    0.00238    0.04050    0.00570
AFIX  43
H17   2    0.259810    0.311493    1.079330    11.00000   -1.20000
AFIX   0
C18   1    0.704320    0.250855    1.084678    11.00000    0.04932    0.04004 =
         0.04292    0.00856    0.01981    0.00507
C19   1    0.690086    0.190913    0.994052    11.00000    0.05590    0.05957 =
         0.06734   -0.00477    0.01503    0.01052
AFIX  43
H19   2    0.621674    0.178877    0.938850    11.00000   -1.20000
AFIX   0
C20   1    0.776391    0.148566    0.984421    11.00000    0.09312    0.06084 =
         0.06705   -0.00547    0.03490    0.02074
AFIX  43
H20   2    0.765425    0.107677    0.922714    11.00000   -1.20000
AFIX   0
C21   1    0.878183    0.164895    1.063201    11.00000    0.06472    0.07400 =
         0.07695    0.01340    0.03447    0.02103
C22   1    0.891337    0.224561    1.153423    11.00000    0.05161    0.10537 =
         0.09775   -0.00645    0.01459    0.01141
AFIX  43
H22   2    0.960043    0.236564    1.207881    11.00000   -1.20000
AFIX   0
C23   1    0.805741    0.267920    1.166687    11.00000    0.05564    0.07687 =
         0.07004   -0.01056    0.01436    0.00615
AFIX  43
H23   2    0.816584    0.307761    1.229738    11.00000   -1.20000
AFIX   0
C24   1    0.970065    0.117577    1.047889    11.00000    0.09210    0.12309 =
         0.15494    0.01367    0.07003    0.04435
AFIX 137
H24A  2    1.035746    0.136507    1.109465    11.00000   -1.50000
H24B  2    0.971953    0.128162    0.966458    11.00000   -1.50000
H24C  2    0.961357    0.057750    1.057936    11.00000   -1.50000
AFIX   0
N1    4    0.577993    0.377869    0.906359    11.00000    0.04056    0.03416 =
         0.03494    0.00208    0.01727    0.00161
N2    4    0.521674    0.326467    0.960294    11.00000    0.03767    0.03872 =
         0.04318    0.00789    0.01877    0.00350
O1    5    0.634556    0.376308    1.178970    11.00000    0.07254    0.05483 =
         0.04395   -0.00328    0.01859    0.01258
O2    5    0.531546    0.244465    1.143603    11.00000    0.06634    0.06321 =
         0.06598    0.02524    0.03822    0.00640
S1    6    0.595209    0.302669    1.104500    11.00000    0.05190    0.04203 =
         0.04122    0.00918    0.02256    0.00734
HKLF 4




REM  T in P2(1)/c
REM R1 =  0.0492 for    2799 Fo > 4sig(Fo)  and  0.0771 for all    3958 data
REM    272 parameters refined using      0 restraints

END  
     
WGHT      0.0921      0.6585 

REM No hydrogen bonds found for HTAB generation

REM Highest difference peak  0.699,  deepest hole -0.885,  1-sigma level  0.069
Q1    1   0.8298  0.5791  0.5703  11.00000  0.05    0.70
Q2    1   0.8591  0.6351  0.6750  11.00000  0.05    0.41
Q3    1   0.7205  0.7059  0.5421  11.00000  0.05    0.28
Q4    1   0.2950  0.3280  1.1139  11.00000  0.05    0.25
Q5    1   0.8999  0.5364  0.6494  11.00000  0.05    0.23
Q6    1   0.1808  0.2930  1.2017  11.00000  0.05    0.23
Q7    1  -0.0133  0.3916  0.7613  11.00000  0.05    0.21
Q8    1   0.8203  0.5158  0.7872  11.00000  0.05    0.21
Q9    1   0.6236  0.2011  0.8819  11.00000  0.05    0.21
Q10   1   0.2951  0.2537  0.9614  11.00000  0.05    0.21
Q11   1   0.0473  0.4159  0.8141  11.00000  0.05    0.20
Q12   1   0.9829  0.2741  1.1661  11.00000  0.05    0.20
Q13   1   0.6382  0.4824  0.7887  11.00000  0.05    0.20
Q14   1   0.8267  0.5793  0.6806  11.00000  0.05    0.19
Q15   1   0.5984  0.4057  1.1395  11.00000  0.05    0.19
Q16   1   0.7540  0.5579  0.7276  11.00000  0.05    0.19
Q17   1   1.0426  0.0890  1.1530  11.00000  0.05    0.19
Q18   1   0.7785  0.2958  1.0854  11.00000  0.05    0.18
Q19   1   0.0280  0.4876  0.7630  11.00000  0.05    0.18
Q20   1   0.8170  0.6171  0.4417  11.00000  0.05    0.18

  REM The information below was added by Olex2.
  REM
  REM R1 = 0.0492 for 2799 Fo > 4sig(Fo) and 0.0771 for all 15780 data
  REM n/a parameters refined using n/a restraints
  REM Highest difference peak 0.70, deepest hole -0.88
  REM Mean Shift 0, Max Shift 0.001.

  REM +++ Tabular Listing of Refinement Information +++
  REM R1_all = 0.0771
  REM R1_gt = 0.0492
  REM wR_ref = 0.1603
  REM GOOF = 1.035
  REM Shift_max = 0.001
  REM Shift_mean = 0
  REM Reflections_all = 15780
  REM Reflections_gt = 2799
  REM Parameters = n/a
  REM Hole = -0.88
  REM Peak = 0.70
  REM Flack = n/a

  
;
_cod_data_source_file            ol7b02480_si_004.cif
_cod_data_source_block           t
_cod_depositor_comments
'Adding full bibliography for 1547130--1547132.cif.'
_cod_original_cell_volume        2261.1(7)
_cod_database_code               1547130
_shelx_shelxl_version_number     2017/1
_shelx_space_group_comment
;
The symmetry employed for this shelxl refinement is uniquely defined
by the following loop, which should always be used as a source of
symmetry information in preference to the above space-group names.
They are only intended as comments.
;
_shelx_estimated_absorpt_t_max   0.830
_shelx_estimated_absorpt_t_min   0.760
_olex2_refinement_description
;
1. Fixed Uiso
 At 1.2 times of:
  All C(H) groups, All C(H,H) groups
 At 1.5 times of:
  All C(H,H,H) groups
2.a Ternary CH refined with riding coordinates:
 C10(H10)
2.b Secondary CH2 refined with riding coordinates:
 C8(H8A,H8B), C9(H9A,H9B), C11(H11A,H11B)
2.c Aromatic/amide H refined with riding coordinates:
 C2(H2), C3(H3), C5(H5), C6(H6), C13(H13), C14(H14), C15(H15), C16(H16),
 C17(H17), C19(H19), C20(H20), C22(H22), C23(H23)
2.d Idealised Me refined as rotating group:
 C24(H24A,H24B,H24C)
;
_olex2_submission_special_instructions 'No special instructions were received'
loop_
_space_group_symop_operation_xyz
'x, y, z'
'-x, y+1/2, -z+1/2'
'-x, -y, -z'
'x, -y-1/2, z-1/2'
loop_
_atom_site_label
_atom_site_type_symbol
_atom_site_fract_x
_atom_site_fract_y
_atom_site_fract_z
_atom_site_U_iso_or_equiv
_atom_site_adp_type
_atom_site_occupancy
_atom_site_site_symmetry_order
_atom_site_calc_flag
_atom_site_refinement_flags_posn
Br1 Br 0.80649(4) 0.63169(4) 0.59655(5) 0.0934(3) Uani 1 1 d .
C1 C 0.7186(3) 0.5628(2) 0.6551(3) 0.0502(9) Uani 1 1 d .
C2 C 0.6128(3) 0.5797(2) 0.6214(4) 0.0536(10) Uani 1 1 d .
H2 H 0.582714 0.624210 0.567041 0.064 Uiso 1 1 calc R
C3 C 0.5500(3) 0.5310(2) 0.6675(3) 0.0481(9) Uani 1 1 d .
H3 H 0.477456 0.542971 0.644093 0.058 Uiso 1 1 calc R
C4 C 0.5933(3) 0.46402(19) 0.7485(3) 0.0370(8) Uani 1 1 d .
C5 C 0.7006(3) 0.4468(2) 0.7785(3) 0.0500(9) Uani 1 1 d .
H5 H 0.731071 0.401681 0.831480 0.060 Uiso 1 1 calc R
C6 C 0.7630(3) 0.4948(3) 0.7319(4) 0.0603(11) Uani 1 1 d .
H6 H 0.835023 0.481792 0.751884 0.072 Uiso 1 1 calc R
C7 C 0.5273(3) 0.4142(2) 0.8029(3) 0.0360(7) Uani 1 1 d .
C8 C 0.4080(3) 0.4078(2) 0.7355(3) 0.0462(9) Uani 1 1 d .
H8A H 0.393545 0.399252 0.647459 0.055 Uiso 1 1 calc R
H8B H 0.374469 0.460724 0.745113 0.055 Uiso 1 1 calc R
C9 C 0.3603(3) 0.3353(2) 0.7847(3) 0.0468(9) Uani 1 1 d .
H9A H 0.283176 0.341744 0.756169 0.056 Uiso 1 1 calc R
H9B H 0.376056 0.281905 0.752578 0.056 Uiso 1 1 calc R
C10 C 0.4047(3) 0.3333(2) 0.9251(3) 0.0393(8) Uani 1 1 d .
H10 H 0.378595 0.281720 0.952945 0.047 Uiso 1 1 calc R
C11 C 0.3720(3) 0.4106(2) 0.9860(3) 0.0453(8) Uani 1 1 d .
H11A H 0.413341 0.410600 1.074324 0.054 Uiso 1 1 calc R
H11B H 0.388887 0.462333 0.950776 0.054 Uiso 1 1 calc R
C12 C 0.2561(3) 0.4103(2) 0.9677(3) 0.0482(9) Uani 1 1 d .
C13 C 0.1876(3) 0.4700(3) 0.8945(4) 0.0719(13) Uani 1 1 d .
H13 H 0.213699 0.510727 0.853898 0.086 Uiso 1 1 calc R
C14 C 0.0815(4) 0.4705(4) 0.8804(6) 0.105(2) Uani 1 1 d .
H14 H 0.036439 0.512314 0.832598 0.126 Uiso 1 1 calc R
C15 C 0.0421(4) 0.4092(4) 0.9368(6) 0.1014(19) Uani 1 1 d .
H15 H -0.030538 0.408064 0.924302 0.122 Uiso 1 1 calc R
C16 C 0.1075(4) 0.3508(3) 1.0102(5) 0.0822(15) Uani 1 1 d .
H16 H 0.080471 0.309970 1.049568 0.099 Uiso 1 1 calc R
C17 C 0.2146(4) 0.3515(3) 1.0270(4) 0.0659(12) Uani 1 1 d .
H17 H 0.259810 0.311493 1.079330 0.079 Uiso 1 1 calc R
C18 C 0.7043(3) 0.2509(2) 1.0847(3) 0.0431(8) Uani 1 1 d .
C19 C 0.6901(3) 0.1909(3) 0.9941(4) 0.0627(11) Uani 1 1 d .
H19 H 0.621674 0.178877 0.938850 0.075 Uiso 1 1 calc R
C20 C 0.7764(4) 0.1486(3) 0.9844(5) 0.0719(13) Uani 1 1 d .
H20 H 0.765425 0.107677 0.922714 0.086 Uiso 1 1 calc R
C21 C 0.8782(4) 0.1649(3) 1.0632(5) 0.0693(12) Uani 1 1 d .
C22 C 0.8913(4) 0.2246(4) 1.1534(5) 0.0881(16) Uani 1 1 d .
H22 H 0.960043 0.236564 1.207881 0.106 Uiso 1 1 calc R
C23 C 0.8057(3) 0.2679(3) 1.1667(4) 0.0696(12) Uani 1 1 d .
H23 H 0.816584 0.307761 1.229738 0.084 Uiso 1 1 calc R
C24 C 0.9701(5) 0.1176(4) 1.0479(7) 0.116(2) Uani 1 1 d .
H24A H 1.035746 0.136507 1.109465 0.174 Uiso 1 1 calc GR
H24B H 0.971953 0.128162 0.966458 0.174 Uiso 1 1 calc GR
H24C H 0.961357 0.057750 1.057936 0.174 Uiso 1 1 calc GR
N1 N 0.5780(2) 0.37787(16) 0.9064(2) 0.0355(6) Uani 1 1 d .
N2 N 0.5217(2) 0.32647(17) 0.9603(3) 0.0386(6) Uani 1 1 d .
O1 O 0.6346(2) 0.37631(16) 1.1790(2) 0.0576(7) Uani 1 1 d .
O2 O 0.5315(2) 0.24446(17) 1.1436(3) 0.0612(7) Uani 1 1 d .
S1 S 0.59521(7) 0.30267(6) 1.10450(8) 0.0434(3) Uani 1 1 d .
loop_
_atom_site_aniso_label
_atom_site_aniso_U_11
_atom_site_aniso_U_22
_atom_site_aniso_U_33
_atom_site_aniso_U_23
_atom_site_aniso_U_13
_atom_site_aniso_U_12
Br1 0.0762(4) 0.1191(5) 0.0887(4) 0.0360(3) 0.0337(3) -0.0256(3)
C1 0.056(2) 0.056(2) 0.041(2) 0.0044(17) 0.0213(18) -0.0097(18)
C2 0.062(3) 0.049(2) 0.052(2) 0.0196(18) 0.023(2) 0.0055(19)
C3 0.046(2) 0.050(2) 0.047(2) 0.0113(17) 0.0148(17) 0.0090(17)
C4 0.0465(19) 0.0343(17) 0.0323(17) -0.0026(13) 0.0166(15) 0.0037(15)
C5 0.051(2) 0.050(2) 0.050(2) 0.0150(17) 0.0196(18) 0.0086(18)
C6 0.045(2) 0.076(3) 0.063(3) 0.010(2) 0.023(2) 0.002(2)
C7 0.0425(18) 0.0341(17) 0.0336(18) -0.0048(14) 0.0162(15) 0.0039(14)
C8 0.0409(19) 0.060(2) 0.038(2) -0.0016(16) 0.0146(16) 0.0022(17)
C9 0.042(2) 0.052(2) 0.048(2) -0.0140(17) 0.0177(17) -0.0050(17)
C10 0.0413(18) 0.0356(17) 0.046(2) -0.0060(15) 0.0221(16) -0.0019(15)
C11 0.049(2) 0.043(2) 0.047(2) -0.0073(16) 0.0201(17) 0.0040(16)
C12 0.052(2) 0.047(2) 0.050(2) -0.0082(17) 0.0237(18) 0.0077(17)
C13 0.056(3) 0.085(3) 0.080(3) 0.016(2) 0.030(2) 0.020(2)
C14 0.070(4) 0.126(5) 0.115(5) 0.034(4) 0.028(3) 0.036(4)
C15 0.052(3) 0.131(5) 0.126(5) 0.001(4) 0.037(3) 0.008(3)
C16 0.083(4) 0.078(3) 0.107(4) -0.008(3) 0.060(3) -0.011(3)
C17 0.072(3) 0.060(3) 0.078(3) 0.002(2) 0.041(3) 0.006(2)
C18 0.049(2) 0.0400(19) 0.043(2) 0.0086(15) 0.0198(17) 0.0051(16)
C19 0.056(2) 0.060(3) 0.067(3) -0.005(2) 0.015(2) 0.011(2)
C20 0.093(4) 0.061(3) 0.067(3) -0.005(2) 0.035(3) 0.021(2)
C21 0.065(3) 0.074(3) 0.077(3) 0.013(3) 0.034(3) 0.021(2)
C22 0.052(3) 0.105(4) 0.098(4) -0.006(3) 0.015(3) 0.011(3)
C23 0.056(3) 0.077(3) 0.070(3) -0.011(2) 0.014(2) 0.006(2)
C24 0.092(4) 0.123(5) 0.155(6) 0.014(4) 0.070(4) 0.044(4)
N1 0.0406(15) 0.0342(14) 0.0349(15) 0.0021(11) 0.0173(13) 0.0016(12)
N2 0.0377(15) 0.0387(15) 0.0432(16) 0.0079(12) 0.0188(13) 0.0035(12)
O1 0.0725(19) 0.0548(16) 0.0440(15) -0.0033(12) 0.0186(14) 0.0126(13)
O2 0.0663(17) 0.0632(17) 0.0660(18) 0.0252(14) 0.0382(15) 0.0064(14)
S1 0.0519(5) 0.0420(5) 0.0412(5) 0.0092(4) 0.0226(4) 0.0073(4)
loop_
_atom_type_symbol
_atom_type_description
_atom_type_scat_dispersion_real
_atom_type_scat_dispersion_imag
_atom_type_scat_source
C C 0.0033 0.0016 'International Tables Vol C Tables 4.2.6.8 and 6.1.1.4'
H H 0.0000 0.0000 'International Tables Vol C Tables 4.2.6.8 and 6.1.1.4'
Br Br -0.2901 2.4595 'International Tables Vol C Tables 4.2.6.8 and 6.1.1.4'
N N 0.0061 0.0033 'International Tables Vol C Tables 4.2.6.8 and 6.1.1.4'
O O 0.0106 0.0060 'International Tables Vol C Tables 4.2.6.8 and 6.1.1.4'
S S 0.1246 0.1234 'International Tables Vol C Tables 4.2.6.8 and 6.1.1.4'
loop_
_geom_angle_atom_site_label_1
_geom_angle_atom_site_label_2
_geom_angle_atom_site_label_3
_geom_angle
C2 C1 Br1 120.2(3)
C2 C1 C6 120.4(3)
C6 C1 Br1 119.4(3)
C1 C2 H2 120.1
C1 C2 C3 119.9(3)
C3 C2 H2 120.1
C2 C3 H3 119.5
C2 C3 C4 121.0(3)
C4 C3 H3 119.5
C3 C4 C7 121.2(3)
C5 C4 C3 117.8(3)
C5 C4 C7 121.0(3)
C4 C5 H5 119.4
C6 C5 C4 121.2(3)
C6 C5 H5 119.4
C1 C6 H6 120.2
C5 C6 C1 119.6(4)
C5 C6 H6 120.2
C4 C7 C8 119.9(3)
N1 C7 C4 115.6(3)
N1 C7 C8 124.5(3)
C7 C8 H8A 109.3
C7 C8 H8B 109.3
C7 C8 C9 111.5(3)
H8A C8 H8B 108.0
C9 C8 H8A 109.3
C9 C8 H8B 109.3
C8 C9 H9A 109.5
C8 C9 H9B 109.5
H9A C9 H9B 108.0
C10 C9 C8 110.9(3)
C10 C9 H9A 109.5
C10 C9 H9B 109.5
C9 C10 H10 108.4
C9 C10 C11 113.7(3)
C11 C10 H10 108.4
N2 C10 C9 105.8(3)
N2 C10 H10 108.4
N2 C10 C11 112.1(3)
C10 C11 H11A 109.1
C10 C11 H11B 109.1
H11A C11 H11B 107.8
C12 C11 C10 112.4(3)
C12 C11 H11A 109.1
C12 C11 H11B 109.1
C13 C12 C11 121.3(4)
C13 C12 C17 117.8(4)
C17 C12 C11 120.8(4)
C12 C13 H13 119.5
C14 C13 C12 121.0(5)
C14 C13 H13 119.5
C13 C14 H14 120.1
C15 C14 C13 119.8(5)
C15 C14 H14 120.1
C14 C15 H15 119.8
C16 C15 C14 120.4(5)
C16 C15 H15 119.8
C15 C16 H16 120.0
C15 C16 C17 119.9(5)
C17 C16 H16 120.0
C12 C17 H17 119.5
C16 C17 C12 121.0(4)
C16 C17 H17 119.5
C19 C18 C23 119.6(4)
C19 C18 S1 121.4(3)
C23 C18 S1 118.9(3)
C18 C19 H19 119.9
C18 C19 C20 120.1(4)
C20 C19 H19 119.9
C19 C20 H20 119.2
C21 C20 C19 121.7(4)
C21 C20 H20 119.2
C20 C21 C24 119.6(5)
C22 C21 C20 117.7(4)
C22 C21 C24 122.7(5)
C21 C22 H22 118.9
C21 C22 C23 122.2(5)
C23 C22 H22 118.9
C18 C23 C22 118.7(4)
C18 C23 H23 120.7
C22 C23 H23 120.7
C21 C24 H24A 109.5
C21 C24 H24B 109.5
C21 C24 H24C 109.5
H24A C24 H24B 109.5
H24A C24 H24C 109.5
H24B C24 H24C 109.5
C7 N1 N2 118.8(3)
C10 N2 S1 119.4(2)
N1 N2 C10 121.6(3)
N1 N2 S1 110.9(2)
N2 S1 C18 101.72(15)
O1 S1 C18 107.94(17)
O1 S1 N2 112.52(15)
O1 S1 O2 117.81(18)
O2 S1 C18 111.02(16)
O2 S1 N2 104.67(16)
loop_
_geom_bond_atom_site_label_1
_geom_bond_atom_site_label_2
_geom_bond_distance
Br1 C1 1.889(4)
C1 C2 1.354(5)
C1 C6 1.380(5)
C2 H2 0.9300
C2 C3 1.374(5)
C3 H3 0.9300
C3 C4 1.389(5)
C4 C5 1.378(5)
C4 C7 1.474(5)
C5 H5 0.9300
C5 C6 1.368(5)
C6 H6 0.9300
C7 C8 1.510(5)
C7 N1 1.277(4)
C8 H8A 0.9700
C8 H8B 0.9700
C8 C9 1.511(5)
C9 H9A 0.9700
C9 H9B 0.9700
C9 C10 1.511(5)
C10 H10 0.9800
C10 C11 1.540(5)
C10 N2 1.475(4)
C11 H11A 0.9700
C11 H11B 0.9700
C11 C12 1.489(5)
C12 C13 1.371(6)
C12 C17 1.377(6)
C13 H13 0.9300
C13 C14 1.370(7)
C14 H14 0.9300
C14 C15 1.366(8)
C15 H15 0.9300
C15 C16 1.341(8)
C16 H16 0.9300
C16 C17 1.375(7)
C17 H17 0.9300
C18 C19 1.368(5)
C18 C23 1.377(5)
C18 S1 1.754(4)
C19 H19 0.9300
C19 C20 1.370(6)
C20 H20 0.9300
C20 C21 1.366(7)
C21 C22 1.363(7)
C21 C24 1.499(7)
C22 H22 0.9300
C22 C23 1.386(6)
C23 H23 0.9300
C24 H24A 0.9600
C24 H24B 0.9600
C24 H24C 0.9600
N1 N2 1.391(4)
N2 S1 1.644(3)
O1 S1 1.426(3)
O2 S1 1.426(3)
loop_
_geom_torsion_atom_site_label_1
_geom_torsion_atom_site_label_2
_geom_torsion_atom_site_label_3
_geom_torsion_atom_site_label_4
_geom_torsion
Br1 C1 C2 C3 -177.9(3)
Br1 C1 C6 C5 177.4(3)
C1 C2 C3 C4 -0.2(6)
C2 C1 C6 C5 -3.0(6)
C2 C3 C4 C5 -1.6(5)
C2 C3 C4 C7 177.0(3)
C3 C4 C5 C6 1.1(6)
C3 C4 C7 C8 26.1(5)
C3 C4 C7 N1 -154.8(3)
C4 C5 C6 C1 1.2(6)
C4 C7 C8 C9 163.3(3)
C4 C7 N1 N2 -177.0(3)
C5 C4 C7 C8 -155.3(3)
C5 C4 C7 N1 23.8(5)
C6 C1 C2 C3 2.5(6)
C7 C4 C5 C6 -177.5(3)
C7 C8 C9 C10 44.1(4)
C7 N1 N2 C10 -19.4(4)
C7 N1 N2 S1 -167.9(2)
C8 C7 N1 N2 2.1(5)
C8 C9 C10 C11 66.3(4)
C8 C9 C10 N2 -57.2(4)
C9 C10 C11 C12 69.2(4)
C9 C10 N2 N1 46.8(4)
C9 C10 N2 S1 -167.3(2)
C10 C11 C12 C13 -112.1(4)
C10 C11 C12 C17 69.9(4)
C10 N2 S1 C18 151.4(2)
C10 N2 S1 O1 -93.4(3)
C10 N2 S1 O2 35.7(3)
C11 C10 N2 N1 -77.7(4)
C11 C10 N2 S1 68.3(3)
C11 C12 C13 C14 -178.5(5)
C11 C12 C17 C16 -179.8(4)
C12 C13 C14 C15 -2.0(9)
C13 C12 C17 C16 2.1(6)
C13 C14 C15 C16 2.8(10)
C14 C15 C16 C17 -1.2(10)
C15 C16 C17 C12 -1.3(8)
C17 C12 C13 C14 -0.4(7)
C18 C19 C20 C21 -0.5(7)
C19 C18 C23 C22 1.2(7)
C19 C18 S1 N2 -45.1(3)
C19 C18 S1 O1 -163.7(3)
C19 C18 S1 O2 65.8(4)
C19 C20 C21 C22 0.7(8)
C19 C20 C21 C24 -179.3(5)
C20 C21 C22 C23 0.0(8)
C21 C22 C23 C18 -1.0(8)
C23 C18 C19 C20 -0.5(6)
C23 C18 S1 N2 138.4(3)
C23 C18 S1 O1 19.9(4)
C23 C18 S1 O2 -110.7(3)
C24 C21 C22 C23 180.0(5)
N1 C7 C8 C9 -15.7(5)
N1 N2 S1 C18 -59.4(2)
N1 N2 S1 O1 55.9(3)
N1 N2 S1 O2 -175.0(2)
N2 C10 C11 C12 -170.8(3)
S1 C18 C19 C20 -176.9(3)
S1 C18 C23 C22 177.7(4)
loop_
_refln_index_h
_refln_index_k
_refln_index_l
_refln_F_squared_meas
_refln_F_squared_sigma
0 0 -1 0.01 0.03
0 0 1 -0.08 0.01
0 0 2 123.07 6.12
0 0 -2 93.02 6.27
0 0 3 -0.08 0.02
0 0 -3 -0.15 0.08
0 0 3 -0.05 0.04
0 0 4 59.24 3.06
0 0 -4 48.33 3.16
0 0 -5 -0.01 0.06
0 0 5 0.03 0.06
0 0 5 -0.06 0.05
0 0 -6 41 2.61
0 0 6 46.99 2.51
0 0 -7 -0.1 0.17
0 0 7 0.05 0.11
0 0 7 -0.03 0.08
0 0 9 0.05 0.24
0 0 -9 0.11 0.24
0 0 -10 8 0.71
0 0 10 7.93 0.66
0 0 11 0.06 0.3
0 0 -11 0.31 0.3
0 0 -12 1.94 0.39
0 0 12 2.02 0.39
0 1 1 7.28 0.43
0 1 -1 7.33 0.43
0 1 1 7.27 0.45
0 1 -1 7.2 0.44
0 -1 1 7.35 0.45
0 -1 -1 7.55 0.44
0 1 2 1.17 0.1
0 1 -2 1.36 0.12
0 1 2 1.27 0.13
0 -1 -2 1.3 0.12
0 -1 2 1.31 0.13
0 -1 2 0.99 0.09
0 1 3 8.99 0.58
0 1 3 9.09 0.53
0 1 -3 9.93 0.57
0 -1 3 8.62 0.58
0 -1 -3 9.82 0.58
0 -1 3 8.8 0.52
0 1 -4 45.25 2.48
0 1 4 41.34 2.4
0 -1 4 42.01 2.39
0 -1 4 41.53 2.51
0 -1 -4 41.51 2.49
0 1 5 23.15 1.37
0 1 5 24.25 1.46
0 -1 5 24.58 1.36
0 -1 5 23.71 1.46
0 1 6 4.89 0.32
0 1 6 4.96 0.4
0 1 -6 5.74 0.44
0 -1 6 4.89 0.3
0 -1 -6 4.42 0.4
0 -1 6 5.25 0.44
0 1 -7 0.63 0.18
0 1 7 0.57 0.19
0 1 7 0.31 0.1
0 -1 -7 0.03 0.18
0 -1 7 0.57 0.22
0 -1 -8 1.22 0.27
0 -1 8 2.41 0.28
0 1 -9 0.19 0.23
0 1 9 0.32 0.27
0 -1 9 0.32 0.27
0 -1 -9 -0.72 0.2
0 1 -10 0.46 0.26
0 1 10 -0.19 0.29
0 -1 10 0.46 0.31
0 -1 -10 -0.28 0.26
0 1 -11 0.42 0.28
0 1 11 -0.28 0.29
0 -1 -11 -0.2 0.3
0 -1 11 0.12 0.3
0 1 -12 0.57 0.33
0 1 12 0.29 0.34
0 -1 12 -0.25 0.35
0 -1 -12 -0.21 0.32
0 2 0 10.06 0.64
0 2 0 11.36 0.66
0 2 -1 1 0.1
0 2 1 1.13 0.11
0 2 -1 1.08 0.11
0 2 1 1.21 0.1
0 -2 -1 1.06 0.11
0 2 -2 107.61 6.05
0 2 2 106.33 6.05
0 2 -2 105.18 6.2
0 2 2 106.22 6.26
0 -2 2 107.69 6.26
0 -2 -2 109.13 6.2
0 2 3 118.94 6.83
0 2 -3 121.39 7
0 2 3 119.9 7.07
0 -2 -3 125.35 7.01
0 -2 3 118.42 7.07
0 2 4 29.36 1.75
0 2 -4 30.1 1.81
0 -2 -4 32.54 1.81
0 -2 4 29.25 1.83
0 -2 4 32.13 1.74
0 2 5 62.17 3.75
0 2 -5 64.78 3.72
0 2 5 61.54 3.61
0 -2 5 63.2 3.76
0 -2 -5 66.61 3.73
0 -2 5 63.22 3.59
0 2 6 0.19 0.18
0 2 -6 0.1 0.15
0 2 6 0.07 0.1
0 -2 -6 -0.11 0.18
0 -2 6 0.13 0.16
0 2 -7 14.35 0.85
0 2 7 12.21 0.77
0 2 7 13.92 0.87
0 -2 -7 10.69 0.89
0 -2 7 13.56 0.87
0 2 8 0.09 0.12
0 2 -8 0.37 0.21
0 2 8 0.18 0.21
0 -2 -8 -0.07 0.23
0 -2 8 0.26 0.24
0 2 -9 4.28 0.39
0 2 9 3.66 0.39
0 -2 9 3.59 0.39
0 -2 -9 3.3 0.39
0 2 10 2.35 0.37
0 2 -10 2.9 0.35
0 -2 -10 1.21 0.33
0 -2 10 2.38 0.37
0 2 -11 1.2 0.33
0 2 11 0.63 0.36
0 -2 11 1 0.36
0 2 12 -0.07 0.36
0 2 -12 0.69 0.35
0 -2 -12 -1.15 0.29
0 -2 12 0.16 0.33
0 3 0 0.07 0.03
0 3 0 -0.01 0.05
0 3 0 0.06 0.03
0 3 -1 1.3 0.14
0 3 1 1.09 0.11
0 3 -1 1.26 0.11
0 3 1 1.24 0.11
0 -3 -1 1.32 0.13
0 3 -2 624.59 36.64
0 3 -2 626.47 35.74
0 3 2 644.35 35.77
0 3 2 627.06 36.95
0 -3 2 634.82 36.97
0 -3 -2 635.09 36.62
0 3 3 2.3 0.18
0 3 3 2.05 0.2
0 3 -3 2.21 0.2
0 -3 -3 2.43 0.21
0 -3 3 2.1 0.21
0 3 -4 8.05 0.51
0 3 4 8.11 0.51
0 3 5 26.76 1.58
0 3 -5 27.45 1.64
0 3 5 26.5 1.65
0 -3 5 27.48 1.66
0 -3 5 28.25 1.57
0 -3 -5 28.46 1.64
0 3 6 14.44 0.89
0 3 -6 15.85 0.94
0 3 6 14.82 0.96
0 -3 -6 15.62 0.95
0 -3 6 14.7 0.86
0 -3 6 14.62 0.96
0 3 -7 0.36 0.19
0 3 7 0.2 0.21
0 3 7 0.2 0.13
0 -3 -7 0.25 0.23
0 -3 7 0.44 0.21
0 3 -8 7.35 0.56
0 3 8 7.8 0.6
0 3 8 6.73 0.46
0 -3 -8 6.48 0.61
0 -3 8 6.65 0.56
0 3 -9 1.03 0.26
0 3 9 1.01 0.29
0 -3 -9 0.74 0.28
0 -3 9 0.8 0.29
0 3 10 0.04 0.31
0 3 -10 0.37 0.27
0 -3 10 0.07 0.3
0 -3 -10 -0.14 0.27
0 3 11 0.33 0.35
0 3 -11 0.59 0.31
0 -3 -11 -0.09 0.32
0 -3 11 -0.02 0.32
0 3 -12 1.64 0.38
0 3 12 1.37 0.41
0 -3 -12 0.17 0.36
0 -3 12 1.46 0.36
0 4 0 289.79 16.59
0 4 0 277.74 16.05
0 4 -1 43.59 2.54
0 4 1 45.69 2.55
0 4 -1 42.27 2.48
0 -4 -1 42.49 2.54
0 4 -2 189.49 10.93
0 4 2 198.73 11.31
0 4 -2 195.32 11.2
0 4 2 192.73 10.94
0 -4 -2 190.66 11.2
0 4 -3 1.38 0.13
0 4 3 1.28 0.14
0 4 3 1.5 0.14
0 4 -3 1.27 0.14
0 -4 -3 1.25 0.16
0 -4 3 1.23 0.14
0 4 4 0.91 0.13
0 4 4 0.63 0.11
0 4 -4 0.67 0.12
0 -4 -4 0.85 0.14
0 -4 4 0.95 0.15
0 4 5 5.77 0.4
0 4 5 6.43 0.45
0 4 -5 5.95 0.45
0 -4 5 5.56 0.45
0 -4 5 5.69 0.38
0 -4 -5 6.7 0.45
0 4 6 9.33 0.63
0 4 6 10.08 0.69
0 4 -6 10.09 0.69
0 -4 6 10.43 0.6
0 -4 6 10.24 0.69
0 -4 -6 10.01 0.67
0 4 7 15.82 1.02
0 4 7 14.79 0.93
0 4 -7 16.05 0.99
0 -4 -7 15.81 1.01
0 -4 7 15.53 1.02
0 4 8 1.39 0.19
0 4 8 1.41 0.28
0 4 -8 1.81 0.26
0 -4 -8 1.45 0.29
0 -4 8 1.61 0.29
0 4 -9 0.36 0.24
0 4 9 0.1 0.27
0 -4 -9 -0.04 0.27
0 -4 9 0.04 0.27
0 4 -10 5.47 0.55
0 4 10 4.67 0.49
0 -4 10 4.56 0.48
0 -4 -10 4.89 0.51
0 4 -11 6.3 0.59
0 4 11 5.14 0.53
0 -4 -11 4.29 0.51
0 -4 11 4.22 0.5
0 4 12 0.01 0.38
0 4 -12 0.24 0.35
0 -4 -12 -0.39 0.35
0 -4 12 -0.14 0.34
0 5 0 0.05 0.05
0 5 0 -0.21 0.08
0 5 -1 29.12 1.59
0 5 1 25.21 1.63
0 5 -1 29.17 1.63
0 -5 -1 27.11 1.63
0 5 -2 38.16 2.22
0 5 2 40.27 2.29
0 5 2 38.07 2.23
0 5 -3 6.15 0.39
0 5 3 6.75 0.42
0 5 3 6.51 0.42
0 -5 3 5.93 0.43
0 5 4 21.51 1.23
0 5 -4 22.61 1.21
0 5 4 18.18 1.26
0 5 -4 21.07 1.26
0 -5 4 20.46 1.27
0 -5 -4 21.74 1.26
0 5 5 88.76 5.21
0 5 5 86.71 5.04
0 5 -5 87.98 5.17
0 -5 5 88.63 5.22
0 -5 -5 90.92 5.17
0 5 6 8.1 0.53
0 5 6 8.16 0.56
0 5 -6 8.74 0.57
0 -5 6 6.53 0.49
0 -5 6 8.07 0.59
0 -5 -6 8.74 0.56
0 5 7 5.95 0.5
0 5 7 5.62 0.41
0 5 -7 5.63 0.51
0 -5 7 5.61 0.5
0 -5 -7 5.12 0.47
0 5 8 10.67 0.75
0 5 8 9.88 0.65
0 5 -8 10.59 0.75
0 -5 8 9.09 0.72
0 -5 -8 10.15 0.73
0 5 9 3.14 0.38
0 5 -9 3.55 0.36
0 -5 9 2.93 0.38
0 -5 -9 2.83 0.4
0 5 -10 0.14 0.27
0 5 10 0.15 0.31
0 -5 -10 0.26 0.31
0 -5 10 0.19 0.3
0 5 -11 0.17 0.32
0 5 11 0.34 0.35
0 -5 -11 0.36 0.37
0 -5 11 -0.13 0.32
0 5 -12 0.41 0.36
0 5 12 -0.4 0.37
0 -5 12 -0.18 0.35
0 -5 -12 0.03 0.35
0 6 1 18.95 1.02
0 6 -1 14.83 0.99
0 6 2 14.81 0.88
0 6 -2 14.91 0.87
0 6 -2 13.25 0.9
0 6 2 16.09 0.89
0 -6 -2 13.99 0.9
0 6 3 0.97 0.13
0 6 3 0.81 0.14
0 6 -3 0.9 0.12
0 6 -3 1.04 0.17
0 -6 3 0.9 0.14
0 -6 -3 1.21 0.18
0 6 4 2.1 0.2
0 6 -4 2.08 0.2
0 6 4 1.82 0.21
0 6 -4 1.96 0.22
0 -6 -4 2.08 0.23
0 -6 4 2.02 0.21
0 6 5 4.87 0.38
0 6 5 5.26 0.41
0 6 -5 4.99 0.43
0 -6 5 5.13 0.41
0 -6 -5 5.22 0.43
0 6 -6 5.29 0.47
0 6 6 5.58 0.43
0 6 6 5.44 0.46
0 -6 -6 6.11 0.46
0 -6 6 5.66 0.49
0 6 7 0.67 0.22
0 6 7 0.65 0.18
0 6 -7 0.86 0.23
0 -6 7 1.03 0.24
0 -6 -7 0.83 0.25
0 6 8 1.36 0.22
0 6 -8 1.8 0.29
0 6 8 1.24 0.28
0 -6 8 0.98 0.28
0 -6 -8 1.4 0.29
0 6 9 0.09 0.2
0 6 9 -0.06 0.27
0 6 -9 0.23 0.26
0 -6 -9 0.06 0.3
0 -6 9 0.02 0.27
0 6 10 0.87 0.34
0 6 -10 0.8 0.3
0 -6 -10 0.66 0.34
0 -6 10 0.75 0.32
0 6 -11 0.57 0.35
0 6 11 0.03 0.35
0 -6 -11 0.26 0.35
0 -6 11 -0.04 0.32
0 6 -12 0.24 0.38
0 6 12 0.42 0.39
0 -6 12 0.26 0.37
0 -6 -12 -0.02 0.4
0 7 0 -0.02 0.06
0 7 0 0.01 0.1
0 7 -1 30.16 1.72
0 7 1 28.62 1.7
0 7 -1 27.81 1.66
0 -7 -1 28.29 1.71
0 7 -2 1.1 0.15
0 7 -2 1.53 0.2
0 7 2 1.47 0.18
0 7 2 1.71 0.16
0 -7 -2 1.83 0.21
0 7 -3 -0.15 0.15
0 7 3 -0.01 0.13
0 7 -3 -0.02 0.04
0 7 3 -0.02 0.09
0 -7 -3 -0.03 0.17
0 -7 3 -0.18 0.12
0 7 4 34.95 2.05
0 7 -4 34.19 2.05
0 7 4 35.07 2
0 -7 4 33.47 2.05
0 -7 -4 33.97 2.05
0 7 -5 17.45 1.16
0 7 5 19.04 1.14
0 7 5 18.84 1.12
0 -7 -5 18.77 1.15
0 -7 5 18.3 1.16
0 7 6 1.76 0.23
0 7 -6 1.67 0.27
0 7 6 1.48 0.23
0 -7 -6 1.65 0.27
0 -7 6 1.69 0.25
0 7 7 3.63 0.36
0 7 -7 3.84 0.38
0 7 7 3.79 0.36
0 -7 7 4.41 0.43
0 -7 -7 4.26 0.41
0 7 8 6.83 0.54
0 7 -8 7.47 0.65
0 7 8 7.22 0.61
0 -7 8 7.06 0.61
0 -7 -8 7.28 0.58
0 7 9 4.32 0.43
0 7 -9 3.84 0.43
0 7 9 4.28 0.41
0 -7 9 4.06 0.44
0 -7 -9 4.73 0.47
0 7 -10 0.22 0.3
0 7 10 -0.15 0.3
0 -7 -10 -0.01 0.33
0 -7 10 0.26 0.31
0 7 11 0.79 0.36
0 7 -11 1.03 0.37
0 -7 11 0.59 0.34
0 -7 -11 0.96 0.39
0 8 0 17.65 1.06
0 8 0 17.82 1.06
0 8 -1 0.37 0.14
0 8 1 0.47 0.09
0 8 1 0.18 0.14
0 8 -1 0.42 0.17
0 -8 -1 0.1 0.17
0 8 -2 0.29 0.13
0 8 2 0.33 0.16
0 8 2 0.37 0.12
0 8 -2 0.15 0.18
0 -8 -2 0.43 0.19
0 8 -3 0.05 0.13
0 8 -3 0.16 0.18
0 8 3 0.04 0.16
0 8 3 0.03 0.04
0 -8 3 0.11 0.13
0 -8 -3 -0.04 0.17
0 8 -4 10.88 0.77
0 8 4 11.54 0.72
0 8 4 11.35 0.74
0 8 -4 11.65 0.7
0 -8 4 11.18 0.74
0 -8 -4 11.55 0.76
0 8 -5 2.71 0.24
0 8 -5 2.47 0.3
0 8 5 2.65 0.26
0 8 5 2.51 0.28
0 -8 5 2.47 0.26
0 -8 -5 2.84 0.31
0 8 6 1.43 0.23
0 8 -6 1.39 0.27
0 8 6 1.94 0.25
0 -8 6 1.82 0.25
0 -8 -6 1.82 0.28
0 8 7 3.51 0.35
0 8 7 3.6 0.35
0 8 -7 3.67 0.38
0 -8 -7 4.2 0.43
0 -8 7 3.54 0.37
0 8 8 1.13 0.27
0 8 -8 1.4 0.3
0 8 8 1.03 0.25
0 -8 8 0.79 0.28
0 -8 -8 1.25 0.3
0 8 9 1.23 0.3
0 8 9 1.3 0.27
0 8 -9 1.47 0.33
0 -8 9 0.96 0.32
0 -8 -9 1.4 0.35
0 8 10 0.15 0.31
0 8 -10 0.03 0.32
0 -8 10 -0.02 0.33
0 -8 -10 0.07 0.35
0 8 11 0.62 0.36
0 8 -11 0.47 0.38
0 -8 -11 0.72 0.4
0 -8 11 0.45 0.35
0 9 0 0 0.16
0 9 0 0.21 0.11
0 9 0 -0.05 0.08
0 9 1 0.97 0.19
0 9 -1 0.89 0.22
0 9 -1 1.17 0.19
0 9 1 1.22 0.13
0 -9 -1 0.94 0.24
0 9 -2 13.83 0.9
0 9 -2 13.43 0.84
0 9 2 13.53 0.85
0 -9 -2 13.79 0.89
0 9 3 1.73 0.24
0 9 -3 1.77 0.2
0 9 -3 1.93 0.26
0 -9 -3 1.91 0.27
0 9 -4 9.56 0.67
0 9 -4 8.56 0.58
0 9 4 9.23 0.61
0 9 4 8.93 0.62
0 -9 -4 8.79 0.65
0 -9 4 8.63 0.61
0 9 5 0.08 0.18
0 9 5 -0.03 0.15
0 9 -5 -0.01 0.16
0 9 -5 -0.43 0.21
0 -9 -5 0.22 0.24
0 -9 5 0.02 0.18
0 9 6 21.36 1.35
0 9 6 22.29 1.33
0 9 -6 21.43 1.39
0 -9 6 22.22 1.37
0 -9 -6 22.06 1.37
0 9 7 4.12 0.41
0 9 7 4.7 0.47
0 9 -7 4.94 0.45
0 -9 -7 4.92 0.48
0 -9 7 4.15 0.42
0 9 8 16.38 1.07
0 9 8 17.62 1.13
0 9 -8 17.38 1.18
0 -9 -8 17.69 1.14
0 -9 8 16.57 1.15
0 9 9 -0.17 0.26
0 9 -9 0.06 0.31
0 9 9 0.13 0.28
0 -9 9 0.03 0.29
0 -9 -9 -0.09 0.29
0 9 -10 0.07 0.35
0 9 10 0.24 0.31
0 -9 10 -0.53 0.31
0 -9 -10 0 0.35
0 9 -11 1.49 0.41
0 9 11 1.02 0.38
0 -9 11 1.29 0.38
0 -9 -11 1.33 0.43
0 10 0 2.05 0.25
0 10 0 2.56 0.23
0 10 -1 5.99 0.47
0 10 1 6.51 0.43
0 10 1 6.28 0.49
0 10 -1 6.45 0.53
0 -10 -1 6.46 0.52
0 10 2 0.73 0.13
0 10 -2 0.47 0.18
0 10 2 0.84 0.21
0 10 -2 0.69 0.21
0 -10 -2 0.55 0.25
0 10 3 3.17 0.32
0 10 3 3.02 0.32
0 10 -3 3.29 0.31
0 10 -3 2.77 0.32
0 -10 -3 3.55 0.36
0 10 4 0.4 0.2
0 10 -4 0.31 0.24
0 10 4 0.34 0.17
0 10 -4 0.29 0.17
0 -10 -4 -0.06 0.25
0 -10 4 0.37 0.18
0 10 5 2.86 0.34
0 10 -5 3.65 0.38
0 10 -5 3.58 0.34
0 10 5 3.9 0.32
0 -10 -5 3.19 0.38
0 -10 5 3.29 0.32
0 10 -6 1.17 0.29
0 10 6 0.57 0.25
0 10 6 0.71 0.21
0 -10 6 0.8 0.24
0 -10 -6 0.86 0.29
0 10 7 3.28 0.35
0 10 -7 3.37 0.41
0 10 7 3.7 0.37
0 -10 -7 3.16 0.41
0 -10 7 3.55 0.38
0 10 -8 -0.32 0.3
0 10 8 -0.01 0.26
0 10 8 -0.14 0.27
0 -10 -8 0.09 0.3
0 -10 8 0.08 0.28
0 10 9 1.85 0.35
0 10 9 2.28 0.37
0 10 -9 2.63 0.42
0 -10 9 2.12 0.36
0 -10 -9 2.94 0.4
0 10 10 0.82 0.33
0 10 -10 1.17 0.41
0 -10 -10 1.26 0.37
0 -10 10 0.34 0.34
0 11 0 -0.11 0.1
0 11 0 0.28 0.21
0 11 1 14.74 1.03
0 11 1 17.83 1.01
0 11 -1 17.22 1.02
0 11 -1 16.06 1.07
0 11 -2 0.77 0.26
0 11 -2 0.73 0.21
0 11 2 0.41 0.1
0 -11 -2 0.54 0.27
0 11 -3 -0.2 0.24
0 11 3 0.15 0.21
0 11 -3 0.06 0.19
0 -11 -3 0.3 0.27
0 -11 3 0.05 0.16
0 11 -4 2.25 0.26
0 11 -4 2.34 0.33
0 11 4 1.86 0.3
0 11 4 2.31 0.26
0 -11 -4 2.05 0.34
0 -11 4 1.88 0.25
0 11 -5 5.16 0.41
0 11 -5 5.24 0.48
0 11 5 4.53 0.48
0 11 5 4.93 0.47
0 -11 -5 5.23 0.52
0 -11 5 5.45 0.46
0 11 -6 -0.11 0.19
0 11 6 -0.2 0.25
0 11 -6 -0.59 0.27
0 11 6 0.04 0.21
0 -11 -6 0.22 0.3
0 -11 6 0.06 0.23
0 11 -7 -0.41 0.29
0 11 7 -0.11 0.26
0 11 7 -0.14 0.24
0 -11 7 -0.09 0.26
0 -11 -7 0.11 0.31
0 11 8 0.36 0.25
0 11 8 0.35 0.29
0 11 -8 0.25 0.33
0 -11 8 0.37 0.28
0 -11 -8 0.12 0.33
0 11 -9 0.32 0.38
0 11 9 0.17 0.28
0 11 9 0.5 0.29
0 -11 -9 0.06 0.34
0 -11 9 0.46 0.33
0 11 10 1.14 0.34
0 11 -10 0.88 0.43
0 -11 -10 1.87 0.41
0 -11 10 1.06 0.39
0 12 0 0.37 0.23
0 12 1 0.57 0.25
0 12 -1 0.44 0.23
0 12 -1 0.4 0.25
0 -12 -1 0.21 0.21
0 12 2 -0.04 0.07
0 12 -2 -0.03 0.27
0 12 -2 0.09 0.21
0 -12 -2 -0.1 0.28
0 12 3 0.41 0.16
0 12 3 0.4 0.24
0 12 -3 0.15 0.28
0 12 -3 0.47 0.2
0 -12 3 0.18 0.17
0 -12 -3 0.26 0.3
0 12 -4 8.81 0.6
0 12 4 8.67 0.65
0 12 -4 8.85 0.72
0 12 4 7.22 0.63
0 -12 4 8.3 0.63
0 -12 -4 8.84 0.69
0 12 5 0.06 0.27
0 12 5 0.39 0.22
0 12 -5 0.17 0.3
0 12 -5 0.25 0.22
0 -12 5 0.24 0.22
0 -12 -5 0.67 0.34
0 12 -6 3.25 0.43
0 12 6 3.48 0.35
0 12 -6 3.52 0.35
0 12 6 3.28 0.4
0 -12 6 3.51 0.37
0 -12 -6 2.97 0.43
0 12 7 0.21 0.29
0 12 7 0.39 0.23
0 12 -7 -0.12 0.34
0 -12 -7 0.35 0.34
0 -12 7 0.11 0.27
0 12 8 -0.1 0.29
0 12 -8 0.31 0.35
0 12 8 -0.06 0.27
0 -12 -8 0.13 0.36
0 -12 8 -0.1 0.3
0 12 -9 -0.15 0.37
0 12 9 0.01 0.31
0 12 9 0.47 0.31
0 -12 -9 -0.06 0.37
0 13 0 0.01 0.22
0 -13 0 -0.21 0.33
0 13 1 0.46 0.27
0 13 -1 0.74 0.26
0 -13 -1 0.72 0.34
0 13 -2 0.39 0.3
0 13 -2 0.49 0.24
0 13 2 0.72 0.26
0 -13 -2 0.55 0.3
0 13 -3 4.86 0.5
0 13 3 4.98 0.48
0 13 -3 5.12 0.47
0 -13 -3 6.29 0.57
0 13 -4 0.08 0.32
0 13 -4 0.06 0.23
0 13 4 -0.07 0.28
0 -13 -4 -0.02 0.32
0 13 5 7.81 0.65
0 13 -5 8.16 0.61
0 13 -5 7.88 0.73
0 -13 -5 6.85 0.68
0 13 -6 1.72 0.41
0 13 6 2.01 0.37
0 -13 -6 2.8 0.43
0 13 7 0.62 0.32
0 13 -7 0.17 0.35
0 -13 -7 -0.22 0.35
0 13 8 1.04 0.35
0 13 -8 1.03 0.4
0 -13 -8 1.14 0.41
0 13 -9 1.94 0.45
0 13 9 1.45 0.39
0 14 0 0.18 0.25
0 -14 0 -0.01 0.37
0 14 -1 7.97 0.64
0 14 1 7.79 0.65
0 -14 -1 7.89 0.71
0 14 -2 0.06 0.25
0 14 2 0.01 0.27
0 14 -2 -0.02 0.31
0 -14 -2 -0.01 0.35
0 14 3 4.82 0.49
0 14 -3 4.64 0.51
0 14 -3 5.09 0.48
0 -14 -3 4.5 0.52
0 14 -4 0.51 0.36
0 14 -4 0.12 0.24
0 14 4 0.58 0.32
0 -14 -4 0.31 0.37
0 14 -5 0.85 0.26
0 14 5 0.74 0.33
0 14 -5 1.37 0.38
0 -14 -5 0.79 0.39
0 14 -6 0.22 0.37
0 14 6 -0.14 0.32
0 -14 -6 -0.28 0.36
0 14 7 0.07 0.33
0 14 -7 0.47 0.39
0 -14 -7 0.52 0.39
0 14 8 0.58 0.35
0 14 -8 0.53 0.41
0 -14 -8 0.83 0.43
0 15 0 0.22 0.31
0 -15 0 -0.37 0.38
0 15 1 1.35 0.34
0 15 -1 0.45 0.28
0 -15 1 1 0.42
0 -15 -1 0.5 0.39
0 15 -2 1.91 0.33
0 15 -2 1.73 0.41
0 15 2 2 0.35
0 -15 -2 1.72 0.44
0 15 3 0.89 0.34
0 15 -3 0.52 0.37
0 15 -3 0.85 0.29
0 -15 -3 1.1 0.41
0 15 4 0.52 0.31
0 15 -4 0 0.27
0 15 -4 0.12 0.37
0 -15 -4 0.21 0.39
0 15 -5 0.95 0.4
0 15 5 0.66 0.32
0 15 -5 0.22 0.29
0 -15 -5 0.08 0.4
0 15 -6 0.91 0.41
0 15 6 0.6 0.36
0 -15 -6 0.23 0.42
0 15 -7 -0.57 0.38
0 15 7 -0.46 0.33
0 -15 -7 -0.04 0.41
0 16 0 0.38 0.33
0 -16 0 0 0.41
0 16 -1 2.09 0.38
0 16 1 2.68 0.42
0 -16 1 2.97 0.52
0 -16 -1 2.12 0.48
0 16 -2 0.47 0.31
0 16 2 0.21 0.34
0 -16 -2 0.26 0.41
0 16 -3 4.49 0.55
0 16 -3 4.9 0.47
0 16 3 4.42 0.51
0 -16 -3 5.25 0.59
0 16 -4 3.47 0.51
0 16 -4 3.41 0.41
0 16 4 3.16 0.44
0 -16 -4 3.44 0.53
0 16 -5 0.4 0.3
0 16 5 0.21 0.33
0 16 -5 -0.15 0.4
0 -16 -5 0.03 0.42
0 16 6 0.59 0.38
0 16 -6 0.67 0.44
0 -16 -6 0.84 0.45
0 17 0 0.25 0.35
0 -17 0 -0.37 0.44
0 17 1 0.24 0.37
0 17 -1 0.2 0.34
0 -17 1 0.71 0.47
0 -17 -1 0.21 0.45
0 17 -2 0.69 0.34
0 17 2 0.41 0.37
0 -17 2 0.51 0.48
0 -17 -2 0.13 0.44
0 17 3 0.3 0.37
0 17 -3 0.54 0.33
0 17 -3 0.46 0.42
0 -17 -3 0.18 0.44
0 17 -4 -0.21 0.33
0 17 -4 -0.04 0.41
0 17 4 0.45 0.35
0 -17 -4 -0.32 0.43
0 17 -5 0.19 0.43
0 17 -5 -0.41 0.33
0 17 5 -0.24 0.33
0 -17 -5 0.25 0.47
0 18 0 4.14 0.5
0 -18 0 3.36 0.59
0 18 1 0.12 0.38
0 18 -1 0.39 0.33
0 -18 -1 -0.28 0.47
0 -18 1 -0.52 0.47
0 18 2 0.24 0.38
0 18 -2 0.15 0.35
0 -18 2 0.36 0.52
0 -18 -2 -0.12 0.46
0 18 -3 0.51 0.36
0 18 3 1.14 0.38
0 -18 -3 1.17 0.5
-1 0 13 0.14 0.4
1 0 -12 2.21 0.35
-1 0 12 1.07 0.39
1 0 -11 0.1 0.25
-1 0 11 0.1 0.3
-1 0 10 0.46 0.31
1 0 -10 0.85 0.26
-1 0 9 -0.12 0.24
1 0 -9 0.16 0.2
-1 0 8 7.93 0.52
1 0 -8 9.4 0.62
-1 0 7 -0.08 0.12
1 0 -7 0.3 0.16
-1 0 7 -0.01 0.09
1 0 -6 20.31 1.18
-1 0 6 18.39 1.2
1 0 -5 0.04 0.1
-1 0 5 0.01 0.06
-1 0 5 -0.03 0.05
-1 0 4 27.78 1.55
1 0 -4 26.58 1.6
-1 0 3 -0.03 0.07
-1 0 3 0 0.04
1 0 -3 -0.02 0.06
1 0 -2 338.97 21.71
-1 0 2 397.45 21.95
-1 0 2 388.26 21.21
-1 0 1 -0.02 0.02
-1 0 0 189.5 10.3
-1 0 0 173.84 10.54
1 0 1 0 0.03
1 0 2 1000 57.34
-1 0 -2 962.29 56.87
1 0 3 0.04 0.08
1 0 3 -0.03 0.03
-1 0 -3 -0.18 0.1
1 0 4 14.34 0.97
1 0 4 17.22 0.91
-1 0 -5 -0.27 0.14
1 0 5 -0.03 0.05
1 0 5 0.22 0.15
-1 0 -6 12.47 0.96
1 0 6 17.88 0.98
1 0 7 0.06 0.17
-1 0 -7 -0.5 0.18
-1 0 -8 11.98 0.81
1 0 8 9.96 0.74
-1 0 -9 -0.8 0.23
1 0 9 0.2 0.27
-1 0 -10 2.01 0.38
1 0 10 2.82 0.39
-1 0 -11 -0.76 0.31
1 0 11 -0.03 0.33
-1 0 -12 0.26 0.37
1 0 12 0.43 0.37
-1 1 13 0.08 0.39
-1 -1 13 0.21 0.36
-1 1 12 -0.02 0.37
1 1 -12 1.58 0.33
-1 -1 12 0.21 0.33
1 -1 -12 0.84 0.32
-1 1 11 3.56 0.46
1 1 -11 3.65 0.4
-1 -1 11 3.38 0.44
1 -1 -11 3.79 0.42
-1 1 10 0.1 0.28
1 1 -10 0.4 0.24
1 -1 -10 0.46 0.26
-1 -1 10 0.37 0.28
-1 1 9 2.69 0.37
1 1 -9 3.62 0.33
-1 -1 9 2.77 0.37
1 -1 -9 2.61 0.33
1 1 -8 3.25 0.3
-1 1 8 2.96 0.25
-1 1 8 2.23 0.29
1 -1 -8 2.38 0.28
-1 -1 8 2.84 0.23
-1 1 7 0.2 0.11
1 1 -7 0.58 0.16
-1 1 7 0.02 0.18
-1 -1 7 0.27 0.18
1 -1 -7 0.01 0.16
-1 -1 7 0.17 0.09
1 1 -6 87.79 5.3
-1 1 6 94.18 5.36
-1 1 6 94.29 5.16
-1 -1 6 85.86 5.36
-1 -1 6 92.52 5.15
-1 1 5 2.6 0.25
1 1 -5 3.58 0.26
-1 1 5 2.71 0.21
-1 -1 5 2.98 0.19
1 -1 -5 2.04 0.24
-1 -1 5 2.26 0.25
1 1 -4 2.62 0.21
-1 1 4 2.42 0.18
1 -1 -4 2.09 0.22
-1 -1 4 2.38 0.17
-1 1 3 1.07 0.1
-1 1 3 0.97 0.11
1 1 -3 1 0.09
-1 -1 3 1.05 0.1
1 -1 -3 1.21 0.11
-1 -1 3 0.63 0.1
1 1 -2 27.97 1.65
-1 1 2 28.59 1.62
-1 1 2 28.97 1.68
1 -1 -2 30.26 1.65
-1 -1 2 26.29 1.62
1 1 -1 4.53 0.26
1 1 -1 4.22 0.27
1 -1 -1 4.13 0.26
-1 1 0 3.61 0.22
-1 1 0 3.62 0.21
-1 -1 0 3.48 0.22
1 -1 0 3.88 0.22
-1 1 -1 152.8 8.39
1 1 1 152.06 8.39
1 1 1 135.4 8.69
1 -1 1 152.9 8.66
1 1 2 0.19 0.05
-1 1 -2 0.07 0.08
1 1 2 0.1 0.06
-1 -1 -2 0.15 0.09
1 -1 2 0.13 0.06
-1 1 -3 18.97 1.12
1 1 3 18.48 1.07
1 -1 3 18.55 1.12
-1 -1 -3 18.82 1.13
1 1 4 0.28 0.07
-1 1 -4 0.13 0.04
1 -1 4 0.23 0.11
1 1 5 0.12 0.07
-1 1 -5 0.1 0.15
1 1 5 -0.08 0.08
1 -1 5 -0.01 0.15
-1 -1 -5 -0.38 0.16
-1 1 -6 3.76 0.35
1 1 6 3.89 0.26
-1 -1 -6 4.18 0.37
1 -1 6 4.22 0.39
1 1 7 29.52 1.62
-1 1 -7 27.52 1.74
1 -1 7 29.88 1.75
-1 -1 -7 26.14 1.74
-1 1 -8 5.58 0.53
-1 -1 -8 4.87 0.48
1 -1 8 6.4 0.53
-1 1 -9 0.22 0.27
1 1 9 0.19 0.25
-1 -1 -9 -0.32 0.24
1 -1 9 0.25 0.25
-1 1 -10 0.11 0.3
1 1 10 -0.08 0.31
-1 -1 -10 -0.56 0.28
1 -1 10 -0.15 0.3
-1 1 -11 0.37 0.33
1 1 11 -0.01 0.34
-1 -1 -11 -1.23 0.31
1 -1 11 0.11 0.3
-1 1 -12 0.93 0.38
1 1 12 0.53 0.35
1 -1 12 0.75 0.38
1 2 -12 0.33 0.3
-1 2 12 0.15 0.37
1 -2 -12 0.03 0.3
-1 -2 12 -0.1 0.36
1 2 -11 3.3 0.37
-1 2 11 2.5 0.39
-1 -2 11 2.6 0.42
1 -2 -11 1.77 0.35
-1 2 10 0.3 0.28
1 2 -10 0.67 0.25
1 -2 -10 -0.49 0.23
-1 -2 10 -0.04 0.27
-1 2 9 2.09 0.32
1 2 -9 2.56 0.29
-1 -2 9 1.87 0.32
-1 2 8 3.52 0.36
1 2 -8 4.02 0.4
-1 2 8 3.98 0.3
-1 -2 8 3.33 0.35
1 -2 -8 2.56 0.34
1 2 -7 15.36 0.91
-1 2 7 14.44 0.93
-1 2 7 14.59 0.85
-1 -2 7 14.84 0.95
1 -2 -7 11.25 0.93
-1 -2 7 14.52 0.83
-1 2 6 12.91 0.84
-1 2 6 13.25 0.78
1 2 -6 13.2 0.82
-1 -2 6 12.96 0.76
-1 -2 6 14.06 0.85
1 -2 -6 12.05 0.83
-1 2 5 30.3 1.72
-1 2 5 30.84 1.81
1 2 -5 29.67 1.77
1 -2 -5 25.95 1.77
-1 -2 5 30.56 1.81
-1 -2 5 32.85 1.72
-1 2 4 35.21 1.96
1 2 -4 34.19 2.01
1 -2 -4 36.62 2.02
-1 -2 4 33.4 2.05
-1 -2 4 32.22 1.96
-1 2 3 354.14 19.76
1 2 -3 334.81 20.23
-1 2 3 352.45 20.42
1 -2 -3 358.16 20.23
-1 -2 3 346.79 19.77
-1 -2 3 347.18 20.41
-1 2 2 105.44 6.05
-1 2 2 106.32 5.86
1 2 -2 101.12 6
1 -2 -2 101.26 6
1 2 -1 20.91 1.2
1 2 -1 19.88 1.17
-1 2 1 20.68 1.21
-1 2 1 21.02 1.2
1 2 -1 19.95 1.21
-1 2 0 9.16 0.51
-1 2 0 8.67 0.52
1 2 0 8.62 0.53
-1 -2 0 8.42 0.52
1 2 1 2.21 0.15
1 2 1 2.29 0.16
-1 2 -1 2.24 0.14
1 -2 1 2.11 0.15
-1 2 -2 8.52 0.52
1 2 2 8.75 0.56
1 2 2 9.3 0.53
-1 2 -2 9.09 0.56
1 -2 2 8.86 0.56
-1 -2 -2 9.1 0.55
1 2 3 133.24 8.79
1 2 3 153.6 8.5
-1 2 -3 157.07 8.72
1 -2 3 150.43 8.8
-1 -2 -3 157.27 8.72
1 2 4 14.06 0.73
1 2 4 12.05 0.77
-1 2 -4 10.05 0.76
-1 -2 -4 11.89 0.77
1 -2 4 13.94 0.79
1 2 5 183.61 10.99
-1 2 -5 195.63 10.89
1 2 5 182.34 10.61
1 -2 5 188.89 10.99
-1 -2 -5 188.01 10.9
-1 2 -6 1.61 0.22
1 2 6 1.44 0.14
-1 -2 -6 0.96 0.24
1 -2 6 1.23 0.22
1 2 7 2.33 0.21
1 2 7 1.98 0.27
-1 2 -7 2.41 0.29
1 -2 7 2.09 0.28
-1 -2 -7 2.35 0.32
-1 2 -8 7.65 0.59
1 2 8 5.4 0.49
-1 -2 -8 5.41 0.5
1 -2 8 5.5 0.53
-1 2 -9 1.87 0.32
1 2 9 1.91 0.33
-1 -2 -9 1.93 0.33
1 -2 9 1.65 0.3
-1 2 -10 2.5 0.38
1 2 10 2.43 0.38
1 -2 10 2.36 0.37
-1 -2 -10 1.52 0.37
1 2 11 1.97 0.37
-1 2 -11 2.05 0.38
-1 -2 -11 1.2 0.38
1 -2 11 1.85 0.38
-1 2 -12 1.17 0.39
1 2 12 0.2 0.34
1 -2 12 0.29 0.37
-1 -2 -12 -0.29 0.38
-1 3 12 -0.09 0.37
1 3 -12 0.63 0.31
-1 -3 12 -0.03 0.36
1 3 -11 0.68 0.27
-1 3 11 0.6 0.32
1 -3 -11 -0.74 0.26
-1 -3 11 0.97 0.36
1 3 -10 0.7 0.26
-1 3 10 0.24 0.31
1 -3 -10 -0.41 0.23
-1 -3 10 0.3 0.31
1 3 -9 4.57 0.46
-1 3 9 3.93 0.4
-1 -3 9 3.75 0.42
1 -3 -9 3.34 0.4
-1 3 8 1.58 0.28
1 3 -8 1.85 0.23
-1 3 8 1.79 0.2
1 -3 -8 1.42 0.28
-1 -3 8 1.41 0.29
-1 3 7 -0.05 0.13
1 3 -7 0 0.14
-1 3 7 0.15 0.2
-1 -3 7 0.25 0.21
-1 -3 7 0.1 0.07
1 -3 -7 0.15 0.18
-1 3 6 0.65 0.14
-1 3 6 0.78 0.19
1 3 -6 0.87 0.15
-1 -3 6 0.66 0.19
1 -3 -6 0.75 0.17
-1 -3 6 1.01 0.1
-1 3 5 23.66 1.31
-1 3 5 22.63 1.36
-1 -3 5 21.02 1.3
-1 -3 5 22.59 1.38
-1 3 4 43.41 2.43
1 3 -4 40.4 2.48
1 -3 -4 42.77 2.49
-1 -3 4 41 2.52
-1 -3 4 44.7 2.42
-1 3 3 364.06 20.83
-1 3 3 358.08 20.13
1 3 -3 347.92 20.64
1 -3 -3 354.05 20.65
1 3 -2 23.79 1.36
-1 3 2 23.32 1.37
1 3 -2 22.53 1.32
-1 3 2 23.26 1.33
1 -3 -2 22.99 1.36
1 3 -1 280.81 16.9
-1 3 1 298.51 16.74
1 3 -1 284.56 16.35
-1 3 1 282.19 16.87
1 3 -1 297.7 16.76
1 3 0 381.7 22.03
-1 3 0 375.34 21.84
-1 3 0 389.5 21.3
-1 -3 0 358.54 21.82
1 3 1 125.89 7.14
1 3 1 129.99 7.38
-1 3 -1 124.31 7.13
1 -3 1 124.43 7.37
-1 3 -2 114.79 6.73
-1 3 -2 116.98 6.91
1 3 2 119.97 6.74
1 3 2 121.13 6.97
-1 -3 -2 119.35 6.91
1 -3 2 122.54 6.97
1 3 3 36.54 2.11
-1 3 -3 37.02 2.09
1 -3 3 37.13 2.18
1 3 4 42.86 2.51
-1 3 -4 44.96 2.59
1 3 4 42.84 2.6
1 -3 4 43.45 2.61
-1 -3 -4 45.9 2.59
1 3 5 27.89 1.68
1 3 5 29.07 1.76
-1 3 -5 30.26 1.76
1 -3 5 28.59 1.76
-1 -3 -5 30.38 1.75
-1 3 -6 11.01 0.72
1 3 6 10 0.64
1 3 6 10.5 0.7
-1 -3 -6 11.34 0.73
1 -3 6 10.31 0.72
1 3 7 12.73 0.87
1 3 7 12.3 0.77
-1 3 -7 14.76 0.89
1 -3 7 12.83 0.86
-1 -3 -7 11.64 0.89
-1 3 -8 0.23 0.23
1 3 8 0.44 0.25
-1 -3 -8 0.49 0.29
1 -3 8 0.2 0.24
-1 3 -9 0.41 0.26
1 3 9 -0.08 0.25
1 -3 9 0.08 0.26
-1 -3 -9 -0.17 0.27
-1 3 -10 2.23 0.36
1 3 10 2.12 0.35
-1 -3 -10 1.63 0.38
1 -3 10 1.51 0.34
1 3 11 1.11 0.38
-1 3 -11 1.42 0.36
1 -3 11 0.83 0.35
-1 -3 -11 0.7 0.37
-1 3 -12 2.46 0.44
1 3 12 2.11 0.43
1 -3 12 1.39 0.4
-1 -3 -12 1.05 0.43
-1 4 12 -0.24 0.37
1 4 -12 0.42 0.32
1 -4 -12 -0.86 0.3
-1 -4 12 -0.31 0.36
-1 4 11 0.17 0.34
1 4 -11 0.47 0.27
1 -4 -11 -0.13 0.3
-1 -4 11 0.07 0.34
-1 4 10 0.05 0.29
1 4 -10 0.55 0.26
1 -4 -10 0.05 0.27
-1 -4 10 0.09 0.3
-1 4 9 3.42 0.39
1 4 -9 3.7 0.36
-1 4 9 3.86 0.34
-1 -4 9 3.56 0.41
1 -4 -9 3.24 0.41
-1 4 8 8.62 0.58
-1 4 8 9.43 0.68
1 4 -8 9.1 0.63
-1 -4 8 8.5 0.68
1 -4 -8 8.45 0.66
-1 4 7 10.41 0.68
-1 4 7 10.63 0.75
1 4 -7 10.38 0.72
1 -4 -7 10.95 0.72
-1 -4 7 11.17 0.64
-1 -4 7 10.55 0.76
1 4 -6 0.57 0.16
-1 4 6 0.63 0.14
-1 -4 6 0.6 0.19
1 -4 -6 0.61 0.17
-1 -4 6 0.61 0.11
-1 4 5 34.41 1.95
-1 4 5 34.86 2.03
1 4 -5 30.05 2
1 -4 -5 34.58 2
-1 -4 5 35.13 1.95
-1 -4 5 34.27 2.04
-1 4 4 14.47 0.88
1 -4 -4 14.47 0.88
1 4 -3 10.35 0.63
-1 4 3 9.9 0.61
-1 4 3 9.89 0.62
1 -4 -3 9.65 0.63
-1 4 2 2.67 0.22
1 4 -2 2.75 0.23
-1 4 2 2.77 0.2
1 4 -2 2.71 0.2
1 -4 -2 2.73 0.22
1 4 -1 5.85 0.38
-1 4 1 5.95 0.39
1 4 -1 5.87 0.39
-1 4 1 6.25 0.36
1 4 -1 5.63 0.37
-1 4 0 7.15 0.43
1 4 0 7.81 0.44
-1 4 0 6.45 0.44
-1 -4 0 6.37 0.44
-1 4 -1 0.11 0.05
1 4 1 0.07 0.07
-1 4 -1 0.08 0.07
1 4 1 0.23 0.08
-1 -4 -1 -0.04 0.04
1 -4 1 0.16 0.05
-1 4 -2 55.46 3.64
1 4 2 64.67 3.56
1 4 2 66.02 3.67
-1 4 -2 62.46 3.55
1 -4 2 64.12 3.67
1 4 3 4.66 0.31
-1 4 -3 3.92 0.31
-1 -4 -3 5.11 0.32
1 4 4 2.24 0.22
-1 4 -4 2.4 0.17
1 4 4 2.38 0.24
-1 4 -4 2.29 0.22
-1 -4 -4 2.41 0.23
1 -4 4 2.51 0.25
1 4 5 13.89 0.85
1 4 5 14.03 0.9
-1 4 -5 14.76 0.92
1 -4 5 14.14 0.91
-1 -4 -5 14.78 0.9
1 4 6 4.22 0.33
-1 4 -6 4.93 0.42
1 4 6 4.35 0.42
-1 -4 -6 4.67 0.4
1 -4 6 4.09 0.41
1 4 7 3.15 0.33
1 4 7 3.4 0.29
-1 4 -7 3.32 0.34
1 -4 7 2.91 0.33
-1 -4 -7 3.25 0.36
1 4 8 1.12 0.28
1 4 8 0.93 0.18
-1 4 -8 1.15 0.28
1 -4 8 1.09 0.27
-1 -4 -8 0.87 0.31
-1 4 -9 0.27 0.29
1 4 9 0.24 0.29
1 -4 9 0.34 0.25
-1 -4 -9 0.13 0.3
-1 4 -10 0.92 0.32
1 4 10 0.52 0.33
1 -4 10 0.6 0.31
-1 -4 -10 0.22 0.32
-1 4 -11 2.02 0.38
1 4 11 1.25 0.39
1 -4 11 1.28 0.37
-1 -4 -11 1.27 0.4
1 4 12 0.46 0.39
-1 4 -12 0.76 0.39
-1 -4 -12 0.31 0.37
1 -4 12 0.18 0.32
-1 5 12 1.25 0.37
1 5 -12 1.66 0.37
-1 -5 12 1.07 0.4
1 -5 -12 1.25 0.39
-1 5 11 -0.19 0.29
1 5 -11 0.03 0.29
1 -5 -11 0.46 0.34
-1 -5 11 0 0.3
-1 5 10 1.24 0.33
1 5 -10 1.3 0.29
1 -5 -10 1.19 0.34
-1 -5 10 0.72 0.3
1 5 -9 3.05 0.34
-1 5 9 2.91 0.36
-1 5 9 2.47 0.28
-1 -5 9 2.46 0.37
1 -5 -9 2.8 0.37
-1 5 8 0.2 0.19
1 5 -8 0.12 0.2
-1 5 8 0.47 0.24
-1 -5 8 0.14 0.25
1 -5 -8 0.25 0.24
1 5 -7 17.31 1.13
-1 5 7 17.9 1.09
-1 5 7 18.07 1.15
1 -5 -7 18.64 1.13
-1 -5 7 17.87 1.16
-1 -5 7 18.11 1.06
1 5 -6 37.26 2.23
-1 5 6 38.99 2.17
-1 5 6 38.22 2.25
1 -5 -6 38.44 2.23
-1 -5 6 34.22 2.16
-1 -5 6 38.67 2.27
-1 5 5 12.82 0.78
-1 5 5 12.76 0.8
1 5 -5 11.99 0.8
-1 -5 5 13.07 0.82
1 -5 -5 12.22 0.79
-1 5 4 47.48 2.51
1 -5 -4 38.17 2.56
-1 -5 4 45.71 2.6
-1 5 3 93.36 5.45
1 5 -3 93.08 5.28
-1 5 3 92.8 5.29
1 5 -2 4.89 0.35
-1 5 2 4.84 0.31
1 5 -2 4.92 0.32
-1 5 2 4.78 0.33
1 -5 -2 4.86 0.35
-1 5 1 8.4 0.53
1 5 -1 8.13 0.5
1 5 -1 8.26 0.53
1 5 -1 8.16 0.51
-1 5 0 65.85 3.56
-1 5 0 55.36 3.64
1 5 0 70.79 3.67
-1 -5 0 57.78 3.64
1 5 1 14.77 0.83
-1 5 -1 14.38 0.82
1 5 1 12.57 0.86
1 -5 1 14.27 0.83
-1 5 -2 0.18 0.08
1 5 2 0.28 0.09
1 5 2 0.18 0.1
1 -5 2 0.26 0.08
1 5 3 61.18 3.5
-1 5 -3 62.36 3.48
-1 5 -3 60.79 3.59
-1 -5 -3 62.06 3.59
1 -5 3 60.13 3.61
-1 5 -4 4.59 0.3
1 5 4 4.63 0.36
1 5 4 4.75 0.34
-1 5 -4 4.08 0.38
-1 -5 -4 4.75 0.37
1 -5 4 4.56 0.35
-1 5 -5 1.7 0.22
1 5 5 1.77 0.21
1 5 5 1.6 0.19
-1 -5 -5 1.78 0.23
1 -5 5 1.48 0.21
1 5 6 9.7 0.65
-1 5 -6 9.97 0.67
1 5 6 9.4 0.61
1 -5 6 9.1 0.57
1 -5 6 9.46 0.66
-1 -5 -6 9.93 0.67
-1 5 -7 10.15 0.73
1 5 7 9.9 0.7
1 5 7 9.42 0.62
1 -5 7 8.66 0.69
-1 -5 -7 10.16 0.69
-1 5 -8 0.39 0.26
1 5 8 0.09 0.22
1 5 8 0.28 0.17
-1 -5 -8 -0.28 0.26
1 -5 8 0.18 0.25
1 5 9 10.81 0.75
-1 5 -9 9.28 0.77
1 -5 9 8.25 0.7
-1 -5 -9 7.44 0.78
-1 5 -10 2 0.37
1 5 10 1.61 0.37
-1 -5 -10 1.64 0.39
1 -5 10 1.37 0.34
1 5 11 1.91 0.4
-1 5 -11 2.05 0.39
1 -5 11 1.18 0.35
-1 -5 -11 1.21 0.39
-1 6 12 0.08 0.37
1 6 -12 0.48 0.35
-1 -6 12 0.34 0.38
1 -6 -12 -0.3 0.37
1 6 -11 4.34 0.47
-1 6 11 4.85 0.5
-1 -6 11 4 0.5
1 -6 -11 4.64 0.53
-1 6 10 0.28 0.3
1 6 -10 0.13 0.27
-1 -6 10 0.02 0.31
1 -6 -10 0.42 0.29
-1 6 9 1.53 0.25
1 6 -9 1.17 0.27
-1 6 9 1.17 0.3
-1 -6 9 1.11 0.32
1 -6 -9 1.39 0.32
-1 6 8 25.32 1.54
-1 6 8 24.21 1.46
1 6 -8 24.42 1.53
-1 -6 8 24.02 1.55
1 -6 -8 24.74 1.51
-1 6 7 30.45 1.67
1 6 -7 27.9 1.71
-1 6 7 28.89 1.73
1 -6 -7 29.17 1.71
-1 -6 7 24.89 1.64
-1 -6 7 28.59 1.75
-1 6 6 8.44 0.58
1 6 -6 7.64 0.58
-1 6 6 8.4 0.55
-1 -6 6 7.71 0.6
1 -6 -6 8.11 0.56
-1 6 5 47.93 2.69
-1 6 5 46.84 2.77
1 6 -5 45.78 2.75
-1 -6 5 46.66 2.78
1 -6 -5 46.1 2.75
1 6 -4 1.36 0.2
-1 6 4 1.67 0.2
1 -6 -4 1.56 0.21
1 6 -3 20.48 1.24
-1 6 3 20.73 1.22
-1 6 3 20.35 1.21
1 -6 -3 20.3 1.24
1 6 -2 2.77 0.24
1 -6 -2 3.21 0.25
1 6 -1 67.38 3.94
-1 6 1 68.03 3.92
-1 6 1 66.2 3.93
-1 6 0 3.87 0.31
-1 -6 0 4.69 0.32
-1 6 -1 0.84 0.12
1 6 1 0.78 0.12
1 6 1 0.45 0.12
1 -6 1 0.82 0.09
1 6 2 2.78 0.25
-1 6 -2 2.33 0.21
1 6 2 2.45 0.25
-1 6 -2 2.38 0.25
1 -6 2 2.55 0.22
-1 -6 -2 2.54 0.24
-1 6 -3 78.2 4.58
-1 6 -3 79.08 4.45
1 6 3 78.43 4.46
1 -6 3 75.83 4.6
-1 -6 -3 80.22 4.58
-1 6 -4 2.78 0.27
1 6 4 2.88 0.27
1 6 4 2.9 0.29
-1 6 -4 2.76 0.22
1 -6 4 2.88 0.3
-1 -6 -4 2.83 0.28
-1 6 -5 6.49 0.4
1 6 5 5.98 0.44
1 6 5 6.26 0.47
-1 6 -5 6.18 0.49
-1 -6 -5 6.24 0.48
1 -6 5 5.72 0.46
1 6 6 0.24 0.17
-1 6 -6 0.38 0.21
1 6 6 0.01 0.15
-1 -6 -6 -0.08 0.2
1 -6 6 0 0.18
1 6 7 1.64 0.27
-1 6 -7 1.75 0.28
1 6 7 1.51 0.22
-1 -6 -7 1.78 0.3
1 -6 7 1.47 0.26
1 6 8 4.02 0.4
1 6 8 3.91 0.36
-1 6 -8 4.12 0.41
1 -6 8 3.61 0.39
-1 -6 -8 4.37 0.43
1 6 9 2.83 0.37
-1 6 -9 2.78 0.39
-1 -6 -9 2.28 0.39
1 -6 9 2.35 0.35
-1 6 -10 0.79 0.35
1 6 10 0.6 0.33
-1 -6 -10 0.43 0.35
1 -6 10 1 0.32
-1 6 -11 0.51 0.35
1 6 11 0.52 0.36
1 -6 11 -0.16 0.31
-1 -6 -11 0.16 0.39
1 7 -12 1.48 0.41
-1 7 12 1.39 0.41
1 -7 -12 1.68 0.44
-1 -7 12 0.95 0.4
-1 7 11 2.27 0.37
1 7 -11 1.89 0.39
-1 -7 11 1.7 0.4
1 -7 -11 2.58 0.44
1 7 -10 -0.06 0.3
-1 7 10 0.36 0.3
-1 -7 10 0.37 0.31
1 -7 -10 0.25 0.3
-1 7 9 -0.16 0.22
1 7 -9 -0.05 0.25
-1 7 9 0.35 0.27
-1 -7 9 -0.15 0.28
1 -7 -9 0.04 0.28
1 7 -8 7.45 0.57
-1 7 8 6.38 0.53
-1 7 8 6.16 0.57
1 -7 -8 7 0.57
-1 -7 8 6.39 0.59
-1 7 7 7.33 0.54
1 7 -7 6.42 0.55
-1 7 7 6.86 0.51
1 -7 -7 7.23 0.55
-1 -7 7 6.13 0.48
-1 -7 7 6.62 0.56
-1 7 6 -0.11 0.18
1 7 -6 0.1 0.19
-1 7 6 -0.1 0.16
1 -7 -6 -0.12 0.21
-1 -7 6 0.01 0.19
-1 7 5 14.8 0.9
-1 7 5 14.88 0.91
1 7 -5 13.61 0.93
1 -7 -5 13.85 0.92
-1 -7 5 14.96 0.94
1 7 -4 6.69 0.51
-1 7 4 7.08 0.5
1 -7 -4 7.12 0.51
1 7 -3 58 3.33
-1 7 3 59.69 3.33
-1 7 3 58.51 3.25
1 7 -3 50.68 3.23
1 -7 -3 56.7 3.33
1 7 -2 28.58 1.65
-1 7 2 27.9 1.63
1 7 -2 26.41 1.59
1 -7 -2 27.27 1.65
-1 7 1 2.03 0.21
-1 7 1 1.75 0.19
1 7 -1 1.63 0.18
1 7 -1 1.67 0.2
1 7 -1 1.49 0.15
-1 7 0 4.15 0.36
1 7 0 4.47 0.34
-1 7 0 4.66 0.34
1 7 0 5.14 0.33
-1 -7 0 4.24 0.35
-1 7 -1 17.01 0.99
1 7 1 16.88 1.01
1 7 1 15.9 0.99
1 7 2 0.62 0.15
-1 7 -2 0.77 0.17
1 7 2 0.96 0.14
1 -7 2 0.75 0.11
-1 -7 -2 0.96 0.19
1 7 3 28.36 1.63
-1 7 -3 26.74 1.64
1 7 3 26.96 1.59
1 -7 3 26.03 1.62
-1 -7 -3 27.59 1.64
1 7 4 6.34 0.43
-1 7 -4 4.76 0.37
-1 7 -4 5.66 0.46
1 7 4 5.68 0.4
1 -7 4 5.99 0.42
-1 -7 -4 5.74 0.43
1 7 5 0.53 0.18
1 7 5 0.5 0.18
-1 7 -5 0.74 0.13
-1 7 -5 0.63 0.21
1 -7 5 0.52 0.17
-1 -7 -5 0.5 0.22
1 7 6 21.34 1.3
-1 7 -6 20.88 1.31
1 7 6 21.15 1.25
-1 -7 -6 20.03 1.29
1 -7 6 20.64 1.3
1 7 7 9.18 0.68
-1 7 -7 9.05 0.71
1 7 7 9.33 0.63
-1 -7 -7 9.41 0.69
1 -7 7 8.6 0.67
-1 7 -8 -0.03 0.27
1 7 8 -0.01 0.25
1 7 8 -0.1 0.2
1 -7 8 -0.19 0.25
-1 -7 -8 -0.13 0.27
1 7 9 0.8 0.3
-1 7 -9 0.24 0.3
1 -7 9 0.23 0.28
-1 -7 -9 0.71 0.33
-1 7 -10 1.34 0.38
1 7 10 0.87 0.34
-1 -7 -10 1.18 0.37
1 -7 10 0.39 0.31
1 7 11 -0.01 0.35
-1 7 -11 0.56 0.4
-1 -7 -11 0.53 0.39
1 -7 11 -0.05 0.32
-1 8 11 0.45 0.34
1 8 -11 -0.4 0.31
1 -8 -11 -0.03 0.34
-1 -8 11 0 0.35
1 8 -10 4.22 0.46
-1 8 10 4.28 0.45
1 -8 -10 4.02 0.46
-1 -8 10 3.53 0.46
1 8 -9 0.42 0.29
-1 8 9 0.1 0.27
-1 8 9 0.18 0.23
1 -8 -9 -0.07 0.26
-1 -8 9 0.31 0.29
-1 8 8 7.73 0.61
1 8 -8 7.7 0.66
-1 8 8 7.6 0.59
-1 -8 8 6.56 0.63
1 -8 -8 7.44 0.59
-1 8 7 0.01 0.21
1 8 -7 0.13 0.23
-1 8 7 -0.1 0.22
-1 -8 7 -0.13 0.22
1 -8 -7 0.09 0.23
-1 8 6 7.53 0.55
1 8 -6 7.54 0.59
-1 8 6 7.21 0.55
-1 -8 6 6.7 0.57
1 -8 -6 7.69 0.56
-1 8 5 1.51 0.18
1 8 -5 1.11 0.24
-1 8 5 1.3 0.23
1 -8 -5 1.25 0.25
-1 -8 5 1.3 0.22
1 8 -4 0.73 0.15
1 8 -4 0.69 0.2
-1 8 4 1.13 0.2
-1 8 4 0.34 0.1
1 -8 -4 0.99 0.22
1 8 -3 3.93 0.39
-1 8 3 4.22 0.36
-1 8 3 4.26 0.32
1 8 -3 3.8 0.31
1 -8 -3 3.84 0.37
1 8 -2 1.98 0.2
1 8 -2 2.13 0.24
-1 8 2 1.25 0.15
1 -8 -2 2.34 0.25
1 8 -1 1.11 0.17
1 8 -1 1.21 0.21
1 8 -1 1.22 0.14
-1 8 1 1.8 0.15
-1 8 1 1.16 0.18
1 8 0 30.44 1.66
-1 8 0 28.02 1.63
-1 8 0 25.8 1.67
1 8 0 27.81 1.63
-1 -8 0 27.45 1.68
-1 8 -1 4.46 0.33
-1 8 -1 3.19 0.31
1 8 1 4.57 0.33
-1 8 -2 30.02 1.75
1 8 2 30.93 1.77
-1 8 -2 30.69 1.82
-1 -8 -2 30.23 1.81
1 -8 2 29.26 1.79
-1 8 -3 3.48 0.3
-1 8 -3 4.04 0.39
1 8 3 3.56 0.34
1 8 3 3.74 0.34
1 -8 3 3.48 0.3
-1 -8 -3 3.76 0.37
-1 8 -4 0.37 0.2
1 8 4 0.33 0.15
-1 8 -4 0.18 0.13
1 8 4 0.48 0.18
1 -8 4 0.38 0.16
-1 -8 -4 0.42 0.22
1 8 5 1.9 0.25
1 8 5 1.81 0.23
-1 8 -5 1.92 0.28
-1 -8 -5 2.27 0.29
1 -8 5 1.84 0.23
1 8 6 1.9 0.26
-1 8 -6 1.78 0.29
1 8 6 1.63 0.25
1 -8 6 1.89 0.26
-1 -8 -6 2.08 0.31
1 8 7 6.03 0.48
1 8 7 5.82 0.53
-1 8 -7 5.64 0.57
-1 -8 -7 6 0.55
1 -8 7 5.43 0.51
1 8 8 0.52 0.24
1 8 8 0.54 0.27
-1 8 -8 0.48 0.31
1 -8 8 0.42 0.26
-1 -8 -8 0.81 0.29
1 8 9 0 0.29
-1 8 -9 0.32 0.32
-1 -8 -9 0.31 0.32
1 -8 9 -0.11 0.27
1 8 10 0.25 0.33
-1 8 -10 0.25 0.36
-1 -8 -10 0.33 0.38
1 -8 10 0.28 0.31
1 8 11 0.09 0.36
-1 8 -11 1.04 0.42
1 -8 11 0.3 0.33
-1 -8 -11 0.24 0.42
1 9 -11 2.12 0.44
-1 9 11 2.55 0.41
1 -9 -11 2.55 0.46
-1 -9 11 2.31 0.44
-1 9 10 3.55 0.42
-1 9 10 3.93 0.41
1 9 -10 4.22 0.47
-1 -9 10 2.9 0.46
1 -9 -10 3.58 0.46
-1 9 9 1.39 0.3
-1 9 9 1.77 0.31
1 9 -9 1.39 0.35
-1 -9 9 1.46 0.34
1 -9 -9 1.53 0.34
1 9 -8 4.67 0.47
-1 9 8 4.92 0.52
-1 9 8 4.83 0.46
-1 -9 8 4.24 0.45
1 -9 -8 5.35 0.52
1 9 -7 1.88 0.32
-1 9 7 1.75 0.26
-1 9 7 1.88 0.31
1 -9 -7 1.62 0.31
-1 -9 7 1.72 0.3
1 9 -6 3.93 0.4
-1 9 6 4.26 0.39
-1 9 6 3.91 0.38
1 -9 -6 4.55 0.45
-1 -9 6 3.87 0.38
1 9 -5 5.44 0.48
1 9 -5 4.99 0.39
-1 9 5 4.29 0.41
-1 9 5 4.63 0.4
1 -9 -5 4.78 0.45
-1 -9 5 5.07 0.45
-1 9 4 23.06 1.64
1 9 -4 29.03 1.61
-1 9 4 29.8 1.64
1 9 -4 28.39 1.68
1 -9 -4 27.67 1.67
1 9 -3 4.74 0.45
1 9 -3 4.84 0.37
-1 9 3 4.91 0.42
-1 9 3 4.74 0.37
1 -9 -3 5.25 0.43
-1 9 2 6.65 0.46
1 9 -2 6.75 0.46
1 9 -2 7.38 0.54
1 -9 -2 6.94 0.53
1 9 -1 1.62 0.16
-1 9 1 1.97 0.18
1 9 -1 1.96 0.22
-1 9 1 1.75 0.23
1 9 -1 1.99 0.26
1 9 0 6.38 0.4
-1 9 0 4.82 0.45
1 9 0 5.72 0.41
-1 9 0 5.64 0.43
-1 -9 0 5.79 0.47
1 9 1 0.1 0.11
-1 9 -1 0 0.14
1 9 1 -0.06 0.03
-1 9 -1 0.06 0.14
-1 -9 -1 0.02 0.09
-1 9 -2 1.96 0.25
-1 9 -2 2.09 0.23
1 9 2 2.31 0.26
-1 -9 -2 2.04 0.28
1 -9 2 1.99 0.22
1 9 3 0.19 0.19
1 9 3 0.07 0.16
-1 9 -3 0.04 0.15
-1 9 -3 0.15 0.18
1 -9 3 0.23 0.13
-1 -9 -3 0.12 0.23
1 9 4 5.91 0.46
-1 9 -4 6.25 0.5
-1 9 -4 6.09 0.44
1 9 4 6.51 0.49
1 -9 4 5.98 0.47
-1 -9 -4 6.47 0.52
-1 9 -5 0.63 0.17
1 9 5 0.2 0.21
-1 9 -5 0.27 0.24
1 9 5 0.39 0.19
-1 -9 -5 0.23 0.25
1 -9 5 0.41 0.19
-1 9 -6 6.84 0.61
1 9 6 6.95 0.54
1 9 6 6.75 0.54
-1 -9 -6 6.66 0.57
1 -9 6 6.4 0.55
1 9 7 0.85 0.25
-1 9 -7 0.63 0.31
1 9 7 0.93 0.25
1 -9 7 0.73 0.25
-1 -9 -7 0.31 0.28
-1 9 -8 -0.06 0.32
1 9 8 0.08 0.24
1 9 8 0.27 0.26
1 -9 8 0.15 0.27
-1 -9 -8 0.36 0.3
-1 9 -9 0.94 0.35
1 9 9 0.71 0.31
-1 -9 -9 0.72 0.34
1 -9 9 0.5 0.29
-1 9 -10 2.22 0.43
1 9 10 1.82 0.38
-1 -9 -10 2.42 0.43
1 -9 10 2.08 0.38
1 10 -11 1.36 0.44
-1 10 11 2.18 0.41
1 -10 -11 1.57 0.42
-1 -10 11 2.05 0.43
-1 10 10 4.88 0.48
1 10 -10 4.24 0.54
-1 10 10 4.84 0.49
1 -10 -10 5.12 0.54
-1 -10 10 6.37 0.64
-1 10 9 0.19 0.29
-1 10 9 -0.03 0.26
1 10 -9 0.03 0.34
-1 -10 9 0.12 0.3
1 -10 -9 -0.03 0.32
-1 10 8 2.38 0.32
1 10 -8 1.86 0.36
-1 10 8 2.23 0.34
-1 -10 8 1.77 0.35
1 -10 -8 2.05 0.36
1 10 -7 19.25 1.28
-1 10 7 19.65 1.22
-1 10 7 19.43 1.2
-1 -10 7 18.6 1.24
1 -10 -7 18.69 1.23
-1 10 6 0.9 0.21
-1 10 6 1.02 0.27
1 10 -6 0.87 0.28
-1 -10 6 1.01 0.25
1 -10 -6 0.94 0.29
-1 10 5 2.31 0.24
1 10 -5 2.36 0.25
-1 10 5 1.87 0.3
1 10 -5 1.94 0.32
1 -10 -5 2.01 0.32
-1 -10 5 2.12 0.28
-1 10 4 0.15 0.14
1 10 -4 0.08 0.23
1 10 -4 0.12 0.16
-1 10 4 0.08 0.2
1 -10 -4 -0.03 0.24
-1 10 3 2.97 0.34
-1 10 3 4.67 0.38
1 10 -3 4.14 0.36
1 10 -3 4.57 0.46
1 -10 -3 4.57 0.42
1 10 -2 0 0.16
1 10 -2 0.03 0.22
-1 10 2 0.05 0.09
-1 10 2 0.1 0.09
1 -10 -2 -0.01 0.23
-1 10 1 9.93 0.64
1 10 -1 9.42 0.62
1 10 -1 9.65 0.63
-1 10 1 9.33 0.6
1 -10 -1 10.69 0.69
-1 10 0 5.91 0.45
1 10 0 5.61 0.4
-1 10 0 5.04 0.47
1 10 0 5.45 0.45
-1 -10 0 6.32 0.49
-1 10 -1 17.83 0.94
-1 10 -1 12.43 0.95
-1 10 -2 9.45 0.67
-1 10 -2 8.38 0.6
1 10 2 9.36 0.63
-1 -10 -2 8.54 0.65
1 -10 2 8.97 0.58
-1 10 -3 2.25 0.25
1 10 3 2.42 0.27
1 10 3 2.65 0.29
-1 10 -3 2.55 0.31
-1 -10 -3 2.22 0.31
1 -10 3 2.39 0.23
-1 10 -4 2.77 0.27
1 10 4 3.21 0.3
1 10 4 2.56 0.3
-1 10 -4 2.58 0.34
-1 -10 -4 2.91 0.36
1 -10 4 2.52 0.26
-1 10 -5 0.51 0.18
1 10 5 0.57 0.24
1 10 5 0.6 0.2
-1 10 -5 0.59 0.27
1 -10 5 1 0.2
-1 -10 -5 0.45 0.28
1 10 6 3.56 0.35
-1 10 -6 3.25 0.41
1 10 6 3.16 0.35
-1 -10 -6 3.71 0.41
1 -10 6 2.86 0.33
1 10 7 0.97 0.27
1 10 7 1.19 0.27
-1 10 -7 1.53 0.34
1 -10 7 1.23 0.28
-1 -10 -7 1.5 0.34
-1 10 -8 0.42 0.34
1 10 8 0.25 0.26
1 10 8 0.55 0.27
-1 -10 -8 0.33 0.31
1 -10 8 0.45 0.28
1 10 9 0.25 0.3
-1 10 -9 0.22 0.35
1 10 9 0.3 0.28
-1 -10 -9 0.29 0.33
1 -10 9 -0.31 0.28
1 10 10 0.27 0.34
-1 10 -10 0.69 0.41
-1 -10 -10 0.8 0.41
1 -10 10 0.47 0.33
1 11 -10 -0.29 0.37
-1 11 10 0.12 0.31
-1 11 10 0.5 0.31
1 -11 -10 0.51 0.37
-1 -11 10 -0.16 0.33
-1 11 9 -0.15 0.26
-1 11 9 0.05 0.31
1 11 -9 0.37 0.36
-1 -11 9 0.15 0.34
1 -11 -9 -0.14 0.35
-1 11 8 6.24 0.57
1 11 -8 6.55 0.66
-1 11 8 7.08 0.6
1 -11 -8 6.64 0.6
-1 -11 8 6.24 0.6
-1 11 7 1.91 0.29
1 11 -7 2.24 0.38
-1 11 7 2.31 0.34
-1 -11 7 2.1 0.34
1 -11 -7 2.01 0.35
1 11 -6 0.26 0.29
-1 11 6 0.22 0.2
-1 11 6 0.12 0.26
1 -11 -6 0.16 0.29
-1 -11 6 0.4 0.25
-1 11 5 3.06 0.28
-1 11 5 2.71 0.36
1 11 -5 3.05 0.38
1 11 -5 2.94 0.3
-1 -11 5 3.09 0.33
1 -11 -5 2.67 0.38
-1 11 4 3.78 0.38
-1 11 4 3.66 0.31
1 11 -4 3.33 0.35
1 11 -4 3.37 0.39
1 -11 -4 2.8 0.38
-1 11 3 8.08 0.63
1 11 -3 10.2 0.66
1 11 -3 11.56 0.74
1 -11 -3 10.52 0.72
1 11 -2 9.5 0.7
1 11 -2 8.37 0.63
-1 11 2 9.79 0.59
1 -11 -2 9.18 0.69
-1 11 1 10.87 0.72
1 11 -1 10.81 0.72
1 -11 -1 10.83 0.77
-1 -11 1 10.73 0.77
-1 11 0 2.65 0.3
1 11 0 2.56 0.29
1 11 1 0.89 0.12
-1 11 -1 1.9 0.25
-1 11 -1 1.14 0.08
1 11 2 0.54 0.18
-1 11 -2 1.13 0.26
-1 11 -2 1.27 0.23
1 11 2 1.6 0.18
-1 -11 -2 0.63 0.2
1 -11 2 1.35 0.16
1 11 3 5.65 0.45
-1 11 -3 5.72 0.44
1 11 3 4.22 0.46
-1 11 -3 5.91 0.54
-1 -11 -3 5.24 0.51
1 -11 3 5.38 0.41
-1 11 -4 0.77 0.21
-1 11 -4 1.13 0.29
1 11 4 0.94 0.26
1 11 4 0.78 0.23
-1 -11 -4 0.59 0.3
1 -11 4 0.68 0.19
-1 11 -5 0.17 0.19
1 11 5 -0.08 0.21
1 11 5 0.13 0.25
-1 11 -5 0.15 0.28
1 -11 5 0.05 0.2
-1 -11 -5 -0.11 0.3
-1 11 -6 0.78 0.32
1 11 6 0.56 0.24
1 11 6 1 0.28
1 -11 6 0.72 0.24
-1 -11 -6 0.88 0.35
1 11 7 2.71 0.35
1 11 7 2.59 0.34
-1 11 -7 2.48 0.43
-1 -11 -7 2.8 0.4
1 -11 7 2.89 0.35
-1 11 -8 0.31 0.35
1 11 8 0.53 0.29
1 11 8 0.25 0.27
-1 -11 -8 -0.07 0.33
1 -11 8 0.44 0.29
-1 11 -9 0.3 0.38
1 11 9 -0.14 0.29
1 11 9 0 0.3
1 -11 9 -0.23 0.3
-1 -11 -9 -0.39 0.35
1 12 -10 0.08 0.41
-1 12 10 -0.14 0.3
-1 12 10 -0.05 0.32
-1 -12 10 0.23 0.38
1 -12 -10 0.58 0.38
1 12 -9 0.22 0.36
-1 12 9 0.51 0.32
-1 12 9 0.61 0.3
-1 -12 9 0.62 0.36
1 -12 -9 0.51 0.38
-1 12 8 0.33 0.26
1 12 -8 0.09 0.36
-1 12 8 0.23 0.3
1 -12 -8 -0.15 0.33
-1 -12 8 0.42 0.32
-1 12 7 0.51 0.25
1 12 -7 0.61 0.33
-1 12 7 0.93 0.31
-1 -12 7 0.84 0.3
1 -12 -7 0.37 0.32
-1 12 6 3.29 0.4
1 12 -6 2.83 0.41
1 -12 -6 3.03 0.42
-1 -12 6 3.45 0.37
1 12 -5 1.84 0.35
1 12 -5 2 0.27
-1 12 5 1.86 0.33
-1 -12 5 2.59 0.3
1 -12 -5 1.5 0.36
1 12 -4 0.05 0.2
-1 12 4 -0.12 0.26
1 12 -4 -0.1 0.28
1 -12 -4 0.12 0.29
1 12 -3 0.17 0.2
1 12 -3 0.06 0.28
-1 12 3 0.12 0.25
1 -12 -3 0.52 0.3
1 12 -2 0.49 0.22
-1 12 2 0.25 0.13
1 12 -2 0.85 0.28
1 -12 -2 0.71 0.31
-1 12 1 2.54 0.31
1 12 -1 2.44 0.3
1 -12 -1 2.64 0.38
-1 -12 1 2.91 0.39
1 12 0 0.96 0.23
-1 12 0 0.75 0.23
1 12 1 0.08 0.1
1 12 1 0.43 0.14
-1 12 -1 0.51 0.23
-1 12 -2 1.48 0.32
1 12 2 1.01 0.25
-1 12 -2 1.81 0.27
1 12 2 1.94 0.21
-1 -12 -2 2.12 0.35
-1 12 -3 6.81 0.64
-1 12 -3 6.68 0.54
1 12 3 7.69 0.58
-1 -12 -3 7.53 0.63
-1 12 -4 0.82 0.23
1 12 4 1.06 0.28
1 12 4 0.55 0.23
-1 12 -4 0.81 0.3
-1 -12 -4 0.19 0.29
-1 12 -5 0.59 0.22
1 12 5 0.55 0.24
1 12 5 0.38 0.25
-1 12 -5 0.72 0.32
-1 -12 -5 0.08 0.33
1 12 6 0.02 0.25
1 12 6 0.23 0.27
-1 12 -6 0.01 0.34
-1 -12 -6 0.11 0.34
1 12 7 1.39 0.29
1 12 7 1.49 0.32
-1 12 -7 1.23 0.37
-1 -12 -7 1.67 0.4
1 12 8 0.71 0.31
-1 12 -8 0.5 0.39
1 12 8 0.56 0.32
-1 -12 -8 0.75 0.37
-1 12 -9 0.42 0.41
1 12 9 -0.19 0.29
1 12 9 0.11 0.3
-1 -12 -9 -0.19 0.4
1 13 -9 1.15 0.43
-1 13 9 0.76 0.36
1 -13 -9 1.83 0.44
-1 13 8 -0.01 0.32
1 13 -8 -0.3 0.37
1 -13 -8 0.35 0.36
1 13 -7 0.36 0.35
-1 13 7 0.61 0.32
1 -13 -7 0.52 0.38
1 13 -6 0.05 0.33
-1 13 6 0.1 0.31
1 -13 -6 0.44 0.35
1 13 -5 12.18 0.94
1 13 -5 13.03 0.83
-1 13 5 12.43 0.89
1 -13 -5 12.35 0.91
1 13 -4 1.32 0.34
-1 13 4 0.92 0.31
1 13 -4 0.94 0.25
1 -13 -4 1.38 0.37
1 13 -3 0.42 0.23
1 13 -3 -0.15 0.29
-1 13 3 0.27 0.28
1 -13 -3 0.07 0.32
-1 13 2 2.44 0.34
1 13 -2 2.56 0.31
1 13 -2 2.85 0.38
1 -13 -2 3.1 0.41
1 13 -1 4.53 0.46
-1 13 1 4.19 0.43
-1 -13 1 5.38 0.52
1 -13 -1 4.48 0.5
-1 13 0 -0.01 0.26
1 13 0 0.26 0.23
-1 -13 0 0.38 0.32
-1 13 -1 0.68 0.26
-1 13 -1 0.27 0.3
1 13 1 0.59 0.27
-1 -13 -1 1.4 0.35
1 13 2 0.84 0.28
-1 13 -2 0.54 0.25
-1 13 -2 0.77 0.32
-1 -13 -2 0.74 0.34
-1 13 -3 1.4 0.34
-1 13 -3 1.06 0.26
1 13 3 1.61 0.32
-1 -13 -3 1.9 0.38
-1 13 -4 4.18 0.48
1 13 4 3.92 0.4
1 13 4 4.77 0.45
-1 13 -4 4.58 0.43
-1 -13 -4 4.42 0.5
-1 13 -5 0.58 0.35
1 13 5 0.64 0.26
-1 13 -5 0.62 0.25
1 13 5 0.44 0.3
-1 -13 -5 0.7 0.37
-1 13 -6 0.9 0.38
1 13 6 1.34 0.31
1 13 6 1.59 0.34
-1 -13 -6 0.9 0.39
1 13 7 0.24 0.3
1 13 7 0.58 0.3
-1 13 -7 0.11 0.36
-1 -13 -7 0.35 0.38
1 13 8 -0.01 0.33
-1 13 -8 0.07 0.41
1 13 8 -0.04 0.29
-1 -13 -8 0.27 0.39
-1 14 8 0.64 0.36
1 14 -8 0.35 0.42
1 -14 -8 -0.18 0.39
1 14 -7 1.4 0.43
-1 14 7 1.01 0.36
1 -14 -7 1.89 0.42
-1 14 6 1.16 0.35
1 14 -6 1.72 0.39
1 -14 -6 1.43 0.41
1 14 -5 1.44 0.28
1 14 -5 1.14 0.38
-1 14 5 1.08 0.32
1 -14 -5 0.94 0.39
-1 14 4 0.65 0.28
1 14 -4 0.23 0.25
1 14 -4 0.49 0.35
1 -14 -4 0.1 0.35
1 14 -3 0.19 0.25
1 14 -3 0.26 0.33
-1 14 3 0.23 0.27
1 -14 -3 0.4 0.35
1 14 -2 -0.06 0.25
-1 14 2 0.68 0.31
1 -14 -2 0.51 0.35
1 14 -1 2.99 0.37
-1 14 1 2.75 0.38
1 -14 -1 2.93 0.45
-1 -14 1 2.53 0.46
1 14 0 3.48 0.4
-1 14 0 3.81 0.4
1 -14 0 4.01 0.5
-1 -14 0 3.43 0.47
-1 14 -1 19.99 1.25
-1 14 -1 19.35 1.3
1 14 1 19.1 1.23
-1 -14 -1 19.95 1.31
-1 14 -2 -0.03 0.26
-1 14 -2 -0.11 0.32
1 14 2 0.07 0.28
-1 -14 -2 0.23 0.36
-1 14 -3 0.09 0.34
-1 14 -3 -0.11 0.24
1 14 3 -0.17 0.29
-1 -14 -3 -0.17 0.35
1 14 4 -0.08 0.3
-1 14 -4 -0.45 0.33
-1 14 -4 -0.02 0.24
-1 -14 -4 -0.19 0.36
-1 14 -5 0.72 0.38
1 14 5 0.69 0.32
-1 14 -5 0.7 0.28
-1 -14 -5 0.6 0.4
-1 14 -6 0.26 0.38
1 14 6 -0.35 0.3
-1 -14 -6 -0.08 0.38
1 14 7 0.84 0.35
-1 14 -7 0.77 0.41
-1 -14 -7 1.5 0.43
1 14 8 -0.06 0.35
-1 14 -8 -0.29 0.42
-1 -14 -8 0.24 0.41
1 15 -7 0.21 0.4
-1 15 7 0.12 0.36
1 -15 -7 0.22 0.41
-1 15 6 0.07 0.35
1 15 -6 0.13 0.41
1 -15 -6 0.23 0.43
-1 15 5 2.49 0.43
1 15 -5 2.56 0.46
1 15 -5 2.6 0.37
1 -15 -5 3.16 0.49
1 15 -4 0.26 0.37
1 15 -4 0.4 0.29
-1 15 4 0.02 0.33
1 -15 -4 0.73 0.39
1 15 -3 3.27 0.38
1 15 -3 3.22 0.48
-1 15 3 3.14 0.43
1 -15 -3 3.24 0.49
1 15 -2 0.14 0.27
-1 15 2 0.58 0.33
-1 -15 2 0.23 0.4
1 -15 -2 -0.26 0.33
-1 15 1 0.1 0.28
1 15 -1 -0.04 0.29
1 -15 -1 0.09 0.38
-1 -15 1 -0.02 0.4
-1 15 0 6.56 0.61
1 15 0 6.48 0.6
1 -15 0 5.91 0.63
-1 -15 0 5.74 0.61
-1 15 -1 2.54 0.38
-1 15 -1 2.7 0.43
1 15 1 2.38 0.39
-1 -15 -1 2.61 0.46
1 15 2 1.42 0.35
-1 15 -2 1.23 0.31
-1 15 -2 0.97 0.39
-1 -15 -2 1.03 0.41
-1 15 -3 1.03 0.3
1 15 3 1.22 0.35
-1 15 -3 1.37 0.39
-1 -15 -3 0.98 0.41
1 15 4 1.25 0.35
-1 15 -4 0.72 0.39
-1 15 -4 0.91 0.29
-1 -15 -4 0.88 0.41
1 15 5 0.83 0.35
-1 15 -5 1.19 0.41
-1 15 -5 1.28 0.31
-1 -15 -5 1.39 0.44
-1 15 -6 0.08 0.39
1 15 6 0.13 0.34
-1 -15 -6 -0.18 0.41
1 15 7 0.08 0.34
-1 15 -7 0.09 0.4
-1 -15 -7 -0.27 0.42
1 16 -6 -0.19 0.43
-1 16 6 -0.15 0.36
1 -16 -6 -0.01 0.42
-1 16 5 3.48 0.49
1 16 -5 3.26 0.43
1 16 -5 4.14 0.54
1 -16 -5 4.49 0.56
1 16 -4 1.45 0.33
-1 16 4 1.04 0.39
1 16 -4 1.24 0.42
1 -16 -4 1.05 0.44
-1 16 3 4.75 0.51
1 16 -3 4.13 0.46
1 -16 -3 4.09 0.56
-1 16 2 1.7 0.37
1 16 -2 1.71 0.35
-1 -16 2 1.97 0.49
1 -16 -2 1.54 0.45
-1 16 1 -0.1 0.33
1 16 -1 -0.04 0.31
-1 -16 1 0.26 0.42
1 -16 -1 -0.03 0.41
-1 16 0 0.21 0.33
1 16 0 0.18 0.33
-1 -16 0 -0.1 0.41
1 -16 0 0 0.42
1 16 1 1.21 0.34
-1 16 -1 2.38 0.38
-1 -16 -1 1.5 0.46
-1 16 -2 0.4 0.31
-1 16 -2 0.4 0.37
1 16 2 0.15 0.33
-1 -16 -2 0.16 0.42
-1 16 -3 0.24 0.39
1 16 3 0.41 0.35
-1 16 -3 0.15 0.29
-1 -16 -3 0.08 0.42
1 16 4 1.54 0.38
-1 16 -4 1.35 0.44
-1 16 -4 1.47 0.33
-1 -16 -4 1.35 0.46
1 16 5 1.26 0.35
-1 16 -5 0.78 0.43
-1 -16 -5 1.32 0.48
1 16 6 -0.35 0.34
-1 16 -6 -0.16 0.42
-1 -16 -6 0.34 0.47
1 17 -5 0.44 0.35
1 17 -5 0.59 0.44
-1 17 5 0.46 0.39
1 -17 -5 -0.27 0.44
-1 17 4 0.16 0.35
1 17 -4 0.42 0.32
1 -17 -4 -0.03 0.44
1 17 -3 0.03 0.32
-1 17 3 -0.09 0.36
1 -17 -3 0.24 0.44
-1 -17 3 0.47 0.49
-1 17 2 0.99 0.39
1 17 -2 0.96 0.35
1 -17 -2 0.66 0.45
-1 -17 2 1.29 0.5
-1 17 1 0 0.36
1 17 -1 0.06 0.34
1 -17 -1 -0.02 0.44
-1 -17 1 0.38 0.45
-1 17 0 0.47 0.33
1 17 0 0.27 0.35
1 -17 0 0.07 0.44
-1 -17 0 0.32 0.44
1 17 1 0.62 0.36
-1 17 -1 0.25 0.34
-1 -17 -1 -0.1 0.44
1 -17 1 0.28 0.46
-1 17 -2 2.07 0.39
-1 17 -2 2.32 0.46
1 17 2 1.58 0.41
-1 -17 -2 1.87 0.5
1 17 3 0.57 0.33
-1 17 -3 0.22 0.41
-1 17 -3 0.33 0.32
-1 -17 -3 0.11 0.45
-1 17 -4 0.42 0.33
1 17 4 0.37 0.37
-1 17 -4 0.15 0.42
-1 -17 -4 0.23 0.46
1 18 -3 1.72 0.4
-1 18 3 1.68 0.44
-1 -18 3 2.26 0.57
1 -18 -3 1.68 0.51
1 18 -2 0.47 0.37
-1 18 2 0.72 0.37
-1 -18 2 0.81 0.51
1 -18 -2 0.96 0.5
-1 18 1 0.85 0.39
1 18 -1 0.48 0.34
1 -18 -1 0.05 0.46
-1 -18 1 0.61 0.5
-1 18 0 0.79 0.39
1 18 0 1.42 0.4
-1 -18 0 0.77 0.49
1 -18 0 1.39 0.52
1 18 1 0.86 0.36
-1 18 -1 0.15 0.33
-1 -18 -1 0.2 0.48
1 -18 1 0.2 0.5
-1 18 -2 1.64 0.4
1 18 2 2.08 0.41
1 -18 2 2.77 0.57
-1 -18 -2 1.63 0.53
1 18 3 0.23 0.38
-1 18 -3 0.28 0.43
-1 18 -3 0.53 0.36
-2 0 13 0.26 0.4
-2 0 12 0.44 0.38
2 0 -11 0.53 0.25
-2 0 11 0.15 0.31
2 0 -10 0.97 0.24
-2 0 10 0.52 0.32
2 0 -9 0.44 0.2
-2 0 9 0.05 0.24
2 0 -8 1.71 0.21
-2 0 8 1.19 0.16
-2 0 7 -0.05 0.1
-2 0 7 0.22 0.18
2 0 -7 0.23 0.15
-2 0 6 9.88 0.69
-2 0 6 10.01 0.62
2 0 -6 11.28 0.67
2 0 -5 0.11 0.09
-2 0 5 -0.02 0.07
-2 0 5 0.07 0.12
-2 0 4 26.65 1.55
2 0 -4 27.3 1.58
2 0 -3 0.01 0.04
-2 0 3 0.05 0.05
-2 0 2 47.42 2.7
2 0 -1 -0.21 0.04
-2 0 1 -0.28 0.02
-2 0 1 -0.15 0.03
2 0 0 46.13 2.79
-2 0 0 48.65 2.7
-2 0 0 47.77 2.76
-2 0 -1 -0.14 0.07
-2 0 -1 -0.07 0.04
2 0 1 -0.03 0.05
2 0 2 0.15 0.07
-2 0 -2 0.32 0.05
-2 0 -2 0.17 0.07
2 0 3 0.03 0.09
-2 0 -3 0.05 0.04
-2 0 -4 6.48 0.51
2 0 4 6.82 0.47
-2 0 -4 7.13 0.4
2 0 5 0.12 0.14
-2 0 -5 -0.29 0.16
2 0 6 1.68 0.24
-2 0 -6 1.58 0.26
-2 0 -7 -0.3 0.22
2 0 7 0.17 0.19
2 0 8 6.11 0.52
-2 0 -8 4.28 0.47
2 0 9 0.1 0.28
-2 0 -9 -0.81 0.26
-2 0 -10 0.86 0.35
2 0 10 2.34 0.37
2 0 11 0.47 0.35
-2 0 -12 -0.8 0.38
2 0 12 0.49 0.38
-2 1 13 0.31 0.4
-2 -1 13 0.16 0.37
-2 1 12 0.55 0.38
-2 -1 12 -0.12 0.37
-2 1 11 2.66 0.44
2 1 -11 3.43 0.37
2 -1 -11 3.68 0.37
-2 -1 11 2.45 0.41
2 1 -10 5.87 0.52
-2 1 10 5.47 0.54
2 -1 -10 6.46 0.55
-2 -1 10 5.35 0.56
-2 1 9 0.04 0.15
2 1 -9 0.15 0.19
-2 1 9 0.12 0.24
-2 -1 9 -0.35 0.17
2 -1 -9 0.26 0.2
2 1 -8 12.94 0.78
-2 1 8 11.92 0.83
-2 1 8 11.96 0.73
-2 -1 8 11.93 0.72
2 -1 -8 11.18 0.79
-2 1 7 3.62 0.35
2 1 -7 4.5 0.33
-2 1 7 3.49 0.29
2 -1 -7 3.66 0.36
-2 -1 7 3.39 0.27
-2 1 6 0.47 0.1
-2 1 6 0.64 0.18
2 1 -6 0.76 0.12
2 -1 -6 0.48 0.14
-2 -1 6 0.51 0.09
-2 1 5 2.6 0.21
-2 1 5 2.73 0.27
2 1 -5 3.23 0.24
-2 -1 5 3.02 0.22
-2 1 4 73.79 4.36
2 1 -4 73.68 4.3
-2 1 4 73.75 4.21
-2 -1 4 78.24 4.21
2 -1 -4 71.37 4.31
2 1 -3 3.61 0.23
-2 1 3 3.47 0.24
-2 1 3 3.42 0.27
-2 -1 3 3.5 0.25
2 -1 -3 3.99 0.24
2 1 -2 0.23 0.04
-2 1 2 0.2 0.05
-2 -1 2 0.15 0.06
2 -1 -2 0.21 0.04
-2 1 1 69.54 3.97
-2 1 1 61.86 3.88
2 -1 -1 70.3 4.01
-2 -1 1 72.42 3.97
-2 1 0 90.5 4.99
-2 1 0 92.39 5.11
2 -1 0 79.63 5.15
-2 -1 0 90.02 5.11
-2 1 -1 22.33 1.36
-2 1 -1 24.07 1.32
2 -1 1 23.61 1.37
-2 -1 -1 22.63 1.36
-2 1 -2 137.16 7.58
2 -1 2 131.06 7.84
-2 1 -4 21.38 1.41
2 1 4 23.81 1.33
2 -1 4 24.46 1.41
-2 -1 -4 23.27 1.42
-2 1 -5 29.76 1.96
-2 -1 -5 34.56 1.98
2 -1 5 33.72 1.96
-2 1 -6 30.23 2.11
-2 -1 -6 38.34 2.13
2 -1 6 36.79 2.11
-2 1 -7 0.59 0.25
2 -1 7 1.61 0.24
-2 -1 -7 1.6 0.29
2 1 8 0.08 0.22
-2 1 -8 -0.37 0.24
-2 -1 -8 -0.1 0.25
2 -1 8 0.38 0.23
2 1 9 2.9 0.37
-2 1 -9 1.64 0.36
-2 -1 -9 2.29 0.37
2 -1 9 2.79 0.36
-2 1 -10 6.79 0.69
2 1 10 9.41 0.74
2 -1 10 9.34 0.73
-2 -1 -10 9.22 0.81
2 1 11 0.3 0.31
-2 1 -11 -0.35 0.33
-2 -1 -11 -0.27 0.35
2 -1 11 -0.27 0.32
-2 1 -12 -0.74 0.38
2 1 12 0.12 0.37
-2 -1 -12 -0.58 0.37
2 -1 12 0.41 0.34
-2 2 13 0.24 0.37
-2 -2 13 -0.04 0.4
-2 2 12 -0.09 0.37
-2 -2 12 0.19 0.34
2 2 -11 0.25 0.26
-2 2 11 0.28 0.34
2 -2 -11 0.5 0.27
-2 -2 11 -0.13 0.31
-2 2 10 0.01 0.3
2 2 -10 0.42 0.22
2 -2 -10 0.42 0.22
-2 -2 10 0.06 0.27
2 2 -9 4.7 0.41
-2 2 9 4.02 0.42
-2 2 9 4.43 0.35
2 -2 -9 2.96 0.35
-2 -2 9 3.7 0.4
2 2 -8 10.11 0.65
-2 2 8 9.83 0.6
-2 2 8 9.76 0.72
-2 -2 8 7.03 0.68
-2 -2 8 9.66 0.57
-2 2 7 0.04 0.18
-2 2 7 0.17 0.13
2 2 -7 0.23 0.13
2 -2 -7 -0.23 0.15
-2 -2 7 0.28 0.21
-2 -2 7 0.02 0.09
2 2 -6 2.06 0.23
-2 2 6 2.74 0.24
-2 2 6 2.57 0.26
-2 -2 6 2.68 0.28
-2 -2 6 2.95 0.22
2 2 -5 35.53 2.16
-2 2 5 35.53 2.11
-2 2 5 37.39 2.21
-2 -2 5 35.85 2.21
2 -2 -5 38.57 2.17
-2 -2 5 38.83 2.12
-2 2 4 7.54 0.47
-2 2 4 7.14 0.43
2 2 -4 7.2 0.44
-2 -2 4 5.64 0.44
2 -2 -4 7.54 0.44
-2 2 3 78.1 4.62
2 2 -3 78.73 4.56
-2 2 3 75.73 4.46
-2 -2 3 81.57 4.47
2 -2 -3 79.32 4.56
-2 2 2 10.48 0.62
2 2 -2 10.6 0.63
2 -2 -2 10.43 0.63
-2 2 1 206.57 12.07
2 2 -1 212.4 12.5
-2 2 1 216.11 12.37
-2 -2 1 218.39 12.37
-2 2 0 1.7 0.14
-2 2 0 1.78 0.12
2 2 0 1.17 0.13
-2 -2 0 1.98 0.14
2 -2 0 1.7 0.13
2 2 1 35.42 1.94
-2 2 -1 33.85 1.86
-2 2 -1 30.71 1.92
2 2 1 33.89 1.87
2 -2 1 33.35 1.93
-2 -2 -1 29.65 1.92
2 2 2 28.07 1.66
2 2 2 28.41 1.6
-2 2 -2 28.26 1.6
2 -2 2 27.63 1.66
-2 2 -3 173.09 9.84
2 2 3 177.5 9.85
2 -2 3 172.4 10.19
-2 2 -4 11.57 0.71
2 2 4 9.47 0.68
2 2 4 10.8 0.63
2 -2 4 10.54 0.68
-2 -2 -4 11.09 0.7
2 2 5 0.23 0.1
-2 2 -5 0.28 0.17
2 2 5 0.19 0.14
2 -2 5 0.45 0.15
-2 -2 -5 -0.04 0.2
-2 2 -6 0.11 0.2
2 2 6 0.03 0.1
2 2 6 -0.01 0.16
-2 -2 -6 -0.41 0.21
2 -2 6 -0.04 0.16
-2 2 -7 3.77 0.38
2 2 7 3.68 0.27
-2 -2 -7 3.66 0.4
2 -2 7 3.99 0.42
-2 2 -8 11.5 0.88
2 2 8 12.46 0.84
-2 -2 -8 11.85 0.89
2 -2 8 12.2 0.85
-2 2 -9 1.04 0.31
2 2 9 0.88 0.3
2 -2 9 0.57 0.29
-2 -2 -9 0.66 0.31
2 2 10 0.63 0.3
-2 2 -10 0.52 0.33
-2 -2 -10 0.57 0.34
2 -2 10 0.56 0.32
2 2 11 -0.08 0.34
-2 2 -11 -0.28 0.33
2 -2 11 0.08 0.33
-2 -2 -11 0.06 0.36
-2 3 13 0.72 0.42
-2 -3 13 0.38 0.42
-2 3 12 0.95 0.35
-2 -3 12 0.31 0.38
-2 3 11 5.56 0.55
2 3 -11 6.64 0.59
2 -3 -11 3.97 0.47
-2 -3 11 6.19 0.64
-2 3 10 0.18 0.3
2 3 -10 0.46 0.22
-2 -3 10 0.13 0.28
2 -3 -10 -0.73 0.21
-2 3 9 0.25 0.24
-2 3 9 -0.2 0.16
2 3 -9 0.18 0.19
2 -3 -9 -0.31 0.21
-2 -3 9 -0.17 0.25
-2 3 8 1.63 0.21
-2 3 8 1.44 0.27
2 3 -8 1.56 0.21
-2 -3 8 1.66 0.29
2 -3 -8 1.22 0.25
-2 -3 8 1.46 0.15
-2 3 7 21.49 1.35
-2 3 7 21.81 1.27
2 3 -7 20.97 1.3
2 -3 -7 20.79 1.32
-2 -3 7 22.2 1.36
-2 -3 7 21.97 1.25
-2 3 6 5.29 0.38
-2 3 6 5.62 0.45
-2 -3 6 5.63 0.37
-2 -3 6 4.87 0.46
-2 3 5 21.82 1.32
2 3 -5 21.52 1.28
-2 3 5 21.08 1.26
-2 -3 5 21.61 1.33
2 -3 -5 21.91 1.28
-2 3 4 48.94 2.84
2 3 -4 48.51 2.9
-2 3 4 49.76 2.94
-2 -3 4 52.61 2.85
2 -3 -4 49.23 2.9
-2 3 3 90.62 5.25
2 3 -3 92.16 5.2
-2 3 3 88.44 5.08
2 -3 -3 87.3 5.2
2 3 -2 39.34 2.36
-2 3 2 36.92 2.28
-2 3 2 41.61 2.35
2 3 -2 42.27 2.33
2 -3 -2 39.66 2.33
-2 3 1 693.03 39.48
-2 3 1 684.06 38.58
2 3 -1 663.8 39.85
-2 -3 1 684.98 39.48
2 3 0 8.64 0.63
-2 3 0 10.46 0.62
2 3 0 10.27 0.6
-2 3 0 10.35 0.6
-2 -3 0 10.46 0.62
2 -3 0 10.86 0.61
-2 3 -1 15.95 0.89
-2 3 -1 13.4 0.91
2 3 1 17.37 0.93
2 3 1 16.33 0.89
-2 -3 -1 13.35 0.92
2 -3 1 15.76 0.91
2 3 2 0.2 0.08
2 3 2 0.31 0.09
-2 3 -2 0.23 0.06
-2 3 -3 48.03 2.73
2 -3 3 48.2 2.84
-2 3 -4 5.65 0.39
2 3 4 5.16 0.33
2 3 4 4.6 0.39
2 -3 4 4.73 0.38
-2 -3 -4 4.87 0.38
2 3 5 22.18 1.3
-2 3 -5 21.89 1.38
2 3 5 22.56 1.38
2 -3 5 22.72 1.37
-2 -3 -5 23.03 1.38
2 3 6 0.22 0.11
-2 3 -6 0.42 0.2
2 3 6 0.21 0.19
-2 -3 -6 -0.15 0.21
2 -3 6 0.14 0.18
2 3 7 5.44 0.48
2 3 7 4.62 0.35
-2 3 -7 5.49 0.51
-2 -3 -7 4.37 0.47
2 -3 7 5.04 0.46
2 3 8 7.14 0.62
-2 3 -8 7.83 0.65
-2 -3 -8 6.13 0.6
2 -3 8 7 0.58
2 3 9 5.8 0.57
-2 3 -9 4.48 0.48
-2 -3 -9 4.66 0.49
2 -3 9 4.67 0.47
2 3 10 0.35 0.33
-2 3 -10 0.39 0.35
-2 -3 -10 0.54 0.35
2 -3 10 0.18 0.3
-2 3 -11 0.77 0.39
2 3 11 0.72 0.37
2 -3 11 0.16 0.33
-2 -3 -11 -0.16 0.35
-2 4 12 0.37 0.37
-2 -4 12 0.42 0.38
-2 4 11 2.59 0.42
2 4 -11 2.71 0.35
-2 -4 11 2.52 0.43
2 4 -10 -0.11 0.22
-2 4 10 0.09 0.3
2 -4 -10 -0.15 0.25
-2 -4 10 -0.1 0.31
2 4 -9 2.13 0.27
-2 4 9 2.02 0.33
-2 4 9 2.29 0.26
-2 -4 9 2.51 0.36
2 -4 -9 2.28 0.32
2 4 -8 6.34 0.5
-2 4 8 6.16 0.47
-2 4 8 6.68 0.56
2 -4 -8 6.19 0.51
-2 -4 8 6.34 0.43
-2 -4 8 7.08 0.58
-2 4 7 3.63 0.32
-2 4 7 3.67 0.37
2 4 -7 3.73 0.36
2 -4 -7 3.68 0.35
-2 -4 7 3.64 0.36
-2 -4 7 4.29 0.31
-2 4 6 7.11 0.51
2 4 -6 6.56 0.47
-2 4 6 7.02 0.45
-2 -4 6 6.33 0.53
-2 -4 6 5.79 0.45
2 -4 -6 7.25 0.47
-2 4 5 0.27 0.12
2 4 -5 0.25 0.09
-2 4 5 0.32 0.14
2 -4 -5 -0.02 0.07
-2 -4 5 0.24 0.11
-2 -4 5 0.01 0.15
-2 4 4 7.2 0.47
-2 4 4 7.7 0.5
2 4 -4 7.27 0.48
2 -4 -4 7.32 0.48
2 4 -3 70.68 4.11
-2 4 3 72.24 4.14
-2 4 3 69.41 4.02
2 -4 -3 70.13 4.11
-2 4 2 68.43 3.96
2 4 -2 68.25 3.94
2 4 -2 66.44 3.97
-2 4 1 2.75 0.22
2 4 -1 3.07 0.22
2 4 -1 2.67 0.2
-2 4 1 2.63 0.2
-2 -4 1 2.54 0.22
-2 4 0 28.85 1.64
-2 4 0 29.11 1.69
2 4 0 27.09 1.7
-2 -4 0 29.36 1.69
2 4 1 0.07 0.07
2 4 1 0.11 0.09
-2 4 -1 0.04 0.07
-2 4 -1 0.1 0.08
2 -4 1 0.12 0.05
-2 -4 -1 0.12 0.1
2 4 2 2.35 0.23
2 4 2 2.98 0.22
-2 4 -2 2.72 0.2
2 -4 2 2.74 0.21
-2 4 -3 4.21 0.26
2 4 3 4.18 0.33
2 4 3 3.94 0.29
-2 4 -3 4.02 0.34
2 -4 3 4.14 0.3
-2 -4 -3 4.05 0.33
2 4 4 95.67 5.47
-2 4 -4 94.67 5.45
-2 4 -4 99.11 5.62
2 4 4 96.75 5.66
2 -4 4 95.44 5.66
-2 -4 -4 96.93 5.62
2 4 5 8.06 0.59
-2 4 -5 8.69 0.61
2 4 5 8.26 0.52
2 -4 5 8.28 0.58
-2 -4 -5 8.21 0.58
-2 4 -6 4.59 0.45
2 4 6 3.74 0.4
2 4 6 3.79 0.31
2 -4 6 3.98 0.39
-2 -4 -6 3.93 0.38
2 4 7 0.54 0.23
-2 4 -7 0.76 0.25
2 4 7 0.2 0.15
2 -4 7 0.28 0.21
-2 -4 -7 0.22 0.26
-2 4 -8 15.81 0.99
2 4 8 13.24 0.94
-2 -4 -8 13.38 1.01
2 -4 8 13.55 0.94
2 4 9 0.7 0.31
-2 4 -9 0.65 0.31
-2 -4 -9 0.39 0.33
2 -4 9 0.44 0.25
2 4 10 1 0.35
-2 4 -10 0.81 0.37
2 -4 10 0.8 0.31
-2 -4 -10 0.36 0.37
2 4 11 0.14 0.32
-2 4 -11 0.42 0.36
-2 -4 -11 -0.04 0.38
2 -4 11 -0.27 0.28
-2 5 12 0.18 0.37
-2 -5 12 0.47 0.38
-2 5 11 -0.06 0.3
2 5 -11 0 0.27
-2 -5 11 0 0.35
2 -5 -11 0.02 0.3
2 5 -10 5.18 0.5
-2 5 10 4.16 0.45
2 -5 -10 3.94 0.44
-2 -5 10 3.39 0.46
-2 5 9 -0.13 0.2
2 5 -9 0.12 0.21
-2 5 9 -0.15 0.26
-2 -5 9 -0.09 0.28
2 -5 -9 -0.28 0.24
-2 5 8 14.68 0.97
-2 5 8 14.04 0.9
2 5 -8 14.33 0.93
-2 -5 8 14.3 0.87
2 -5 -8 14.75 0.93
-2 -5 8 14.38 0.99
-2 5 7 0.45 0.17
2 5 -7 0.57 0.18
-2 5 7 0.76 0.21
2 -5 -7 0.41 0.19
-2 -5 7 0.34 0.23
-2 -5 7 0.55 0.15
2 5 -6 17.39 1.09
-2 5 6 18.18 1.08
-2 5 6 18.05 1.12
-2 -5 6 17.55 1.07
2 -5 -6 18.28 1.1
-2 -5 6 17.85 1.14
-2 5 5 5.57 0.39
-2 5 5 5.86 0.4
2 5 -5 4.27 0.39
2 -5 -5 4.97 0.37
-2 5 4 35.03 2.02
-2 5 4 34.77 2.07
-2 5 3 65.53 3.85
-2 5 3 66.43 3.74
2 5 -3 66.33 3.82
2 -5 -3 63.94 3.82
2 5 -2 0.42 0.12
2 5 -2 0.47 0.1
-2 5 2 0.41 0.07
2 5 -2 0.3 0.1
-2 5 1 0.18 0.1
2 5 -1 0.2 0.07
-2 5 1 0.1 0.08
2 5 -1 -0.05 0.07
-2 -5 1 0.19 0.12
-2 5 0 33.1 1.92
2 5 0 34.09 1.98
-2 5 0 33.14 1.97
-2 -5 0 33.41 1.97
2 5 1 0.73 0.13
2 5 1 0.87 0.12
-2 5 -1 0.97 0.11
-2 -5 -1 0.56 0.12
2 -5 1 0.89 0.08
-2 5 -2 34.79 2.02
2 5 2 35.57 2.03
2 -5 2 35.56 2.08
2 5 3 0.87 0.15
-2 5 -3 1.05 0.12
-2 5 -3 0.91 0.16
2 5 3 0.98 0.15
2 -5 3 0.86 0.13
-2 -5 -3 1.24 0.18
-2 5 -4 2.93 0.28
2 5 4 2.81 0.28
-2 5 -4 2.99 0.22
2 5 4 2.92 0.27
2 -5 4 3.08 0.3
-2 -5 -4 3.15 0.31
2 5 5 9.92 0.66
-2 5 -5 9.57 0.68
2 5 5 9.32 0.6
-2 5 -5 9.81 0.56
-2 -5 -5 9.66 0.65
2 -5 5 8.84 0.64
2 5 6 0.12 0.16
2 5 6 0.25 0.2
-2 5 -6 0.27 0.21
2 -5 6 0.12 0.18
-2 -5 -6 0.39 0.22
2 5 7 7.07 0.55
2 5 7 7.14 0.49
-2 5 -7 7.64 0.62
-2 -5 -7 7.13 0.59
2 -5 7 6.41 0.56
2 5 8 2.08 0.31
-2 5 -8 2.75 0.36
2 -5 8 1.78 0.3
-2 -5 -8 2.58 0.39
2 5 9 1.14 0.33
-2 5 -9 1.41 0.35
-2 -5 -9 1.13 0.37
2 -5 9 0.88 0.29
-2 5 -10 0.59 0.34
2 5 10 0.15 0.33
2 -5 10 0.08 0.29
-2 -5 -10 0.01 0.35
2 5 11 3.2 0.47
-2 5 -11 3.74 0.5
-2 -5 -11 3.1 0.5
2 -5 11 3.16 0.43
-2 6 12 0.29 0.37
-2 -6 12 -0.28 0.37
2 6 -11 0.17 0.29
-2 6 11 -0.08 0.33
2 -6 -11 -0.06 0.31
-2 -6 11 0.36 0.35
2 6 -10 1.37 0.3
-2 6 10 1.3 0.27
-2 6 10 1.77 0.33
-2 -6 10 0.86 0.32
2 -6 -10 1.44 0.33
-2 6 9 25.44 1.64
2 6 -9 25.34 1.61
-2 6 9 27.54 1.57
-2 -6 9 26.46 1.66
2 -6 -9 25.61 1.61
2 6 -8 9.16 0.7
-2 6 8 10.08 0.67
-2 6 8 10.13 0.72
-2 -6 8 9.53 0.74
2 -6 -8 9.71 0.67
-2 -6 8 9.46 0.63
-2 6 7 3.36 0.31
-2 6 7 3.22 0.31
2 6 -7 2.99 0.31
2 -6 -7 3.66 0.36
-2 -6 7 3.29 0.29
-2 -6 7 3.16 0.35
2 6 -6 4.89 0.44
-2 6 6 5.09 0.42
-2 6 6 5.26 0.41
-2 -6 6 4.31 0.46
-2 -6 6 5.94 0.39
2 -6 -6 4.86 0.42
2 6 -5 80.13 4.6
-2 6 5 80.25 4.49
-2 6 5 77.26 4.63
2 -6 -5 77 4.59
2 6 -4 2.17 0.22
-2 6 4 1.97 0.18
-2 6 4 2.11 0.22
2 -6 -4 2.03 0.23
-2 6 3 114.8 6.72
-2 6 3 115.02 6.53
2 6 -2 4.35 0.3
2 6 -1 0.69 0.1
-2 6 1 0.72 0.14
2 6 -1 0.43 0.09
-2 6 1 0.32 0.1
-2 -6 1 0.87 0.16
2 6 0 11.38 0.7
-2 6 0 10.97 0.71
-2 -6 0 11.22 0.71
2 6 1 84.47 4.27
-2 6 -1 64.93 4.36
2 6 1 76.57 4.41
-2 6 -1 63.05 4.25
-2 -6 -1 73.2 4.37
2 -6 1 86.6 4.38
-2 6 -2 6.18 0.39
2 6 2 5.98 0.41
2 -6 2 5.74 0.39
2 6 3 6.97 0.47
-2 6 -3 6.61 0.43
2 6 3 6.58 0.45
-2 6 -3 6.74 0.49
-2 -6 -3 6.79 0.48
2 -6 3 6.28 0.45
2 6 4 1.1 0.18
-2 6 -4 1.5 0.22
-2 6 -4 1.4 0.14
2 6 4 1.3 0.19
2 -6 4 1.2 0.18
-2 -6 -4 1.17 0.22
-2 6 -5 20.99 1.32
-2 6 -5 21.23 1.22
2 6 5 21.31 1.25
2 6 5 21.95 1.31
-2 -6 -5 20.67 1.3
2 -6 5 20.28 1.29
2 6 6 2.67 0.26
2 6 6 2.62 0.3
-2 6 -6 2.88 0.32
2 -6 6 2.56 0.28
-2 -6 -6 2.76 0.32
-2 6 -7 10.59 0.76
2 6 7 10.42 0.74
2 6 7 9.56 0.64
-2 -6 -7 10.2 0.73
2 -6 7 9.21 0.7
-2 6 -8 0.48 0.29
2 6 8 0.14 0.24
2 -6 8 -0.32 0.23
-2 -6 -8 -0.05 0.31
2 6 9 0.19 0.3
-2 6 -9 0.26 0.31
2 -6 9 0.27 0.27
-2 -6 -9 -0.03 0.33
-2 6 -10 0.19 0.36
2 6 10 0.25 0.33
2 -6 10 0.23 0.3
-2 -6 -10 0.05 0.39
-2 6 -11 1.71 0.43
2 6 11 1.32 0.4
-2 -6 -11 1.35 0.45
2 -6 11 0.99 0.36
-2 7 12 1.73 0.42
-2 -7 12 2.03 0.44
-2 7 11 -0.3 0.32
2 7 -11 0.01 0.31
2 -7 -11 0.28 0.34
-2 -7 11 -0.05 0.31
-2 7 10 0.37 0.25
-2 7 10 0.25 0.29
2 7 -10 0.04 0.28
-2 -7 10 0.26 0.33
2 -7 -10 0.35 0.3
2 7 -9 1.36 0.28
-2 7 9 1.57 0.29
-2 7 9 1.76 0.31
2 -7 -9 1.5 0.29
-2 -7 9 1.62 0.34
2 7 -8 29.01 1.77
-2 7 8 29.25 1.72
-2 7 8 29.02 1.78
-2 -7 8 27.93 1.8
2 -7 -8 28.66 1.75
-2 7 7 0.46 0.21
-2 7 7 0.03 0.19
2 7 -7 -0.16 0.21
-2 -7 7 0.04 0.23
2 -7 -7 0.01 0.21
-2 -7 7 0.25 0.17
-2 7 6 3.68 0.36
2 7 -6 3.59 0.35
-2 7 6 3.82 0.36
2 -7 -6 3.88 0.36
-2 -7 6 4.14 0.42
2 7 -5 10.65 0.76
-2 7 5 11.51 0.74
-2 7 5 11.75 0.73
2 -7 -5 11.43 0.74
-2 7 4 17.6 1.08
-2 7 4 17.54 1.08
2 7 -4 18.54 1.1
2 -7 -4 17.71 1.1
2 7 -3 -0.01 0.15
-2 7 3 0.03 0.08
2 7 -3 -0.04 0.12
-2 7 3 0.06 0.13
2 -7 -3 0.17 0.17
2 7 -2 2.89 0.29
2 7 -2 2.8 0.25
-2 7 2 2.77 0.2
2 7 -2 2.13 0.24
2 -7 -2 2.83 0.29
2 7 -1 43.78 2.6
2 7 -1 45.34 2.67
-2 7 1 45.28 2.66
-2 7 1 45.97 2.6
-2 -7 1 45.9 2.67
2 7 0 0.01 0.04
-2 7 0 0 0.14
-2 7 0 0.01 0.12
2 7 0 0.12 0.1
-2 -7 0 -0.04 0.16
2 7 1 0.33 0.14
-2 7 -1 0.08 0.12
-2 7 -1 0.13 0.14
-2 -7 -1 0.19 0.15
2 -7 1 0.19 0.07
2 7 2 2.33 0.23
-2 7 -2 2.07 0.23
2 7 2 2.51 0.24
2 -7 2 2.4 0.21
2 7 3 0.76 0.17
2 7 3 0.7 0.16
-2 7 -3 0.38 0.09
-2 7 -3 0.71 0.19
-2 -7 -3 1.07 0.22
2 -7 3 0.84 0.14
-2 7 -4 0.05 0.11
2 7 4 -0.12 0.15
2 7 4 0.08 0.15
-2 7 -4 0 0.18
2 -7 4 -0.09 0.13
-2 -7 -4 0.04 0.2
2 7 5 2.98 0.32
-2 7 -5 3.24 0.34
2 7 5 3.39 0.31
-2 7 -5 3.49 0.27
2 -7 5 3.51 0.36
-2 -7 -5 3.4 0.35
2 7 6 -0.07 0.2
-2 7 -6 0.22 0.24
2 7 6 -0.35 0.16
2 -7 6 0.18 0.2
-2 -7 -6 0.08 0.24
2 7 7 0.5 0.21
-2 7 -7 0.96 0.29
2 7 7 0.59 0.25
2 -7 7 0.84 0.24
-2 -7 -7 1 0.28
2 7 8 3.64 0.39
-2 7 -8 3.84 0.43
2 7 8 3.65 0.34
-2 -7 -8 3.45 0.43
2 -7 8 2.86 0.36
-2 7 -9 2.51 0.4
2 7 9 1.76 0.36
-2 -7 -9 1.85 0.39
2 -7 9 1.55 0.33
-2 7 -10 0.49 0.36
2 7 10 -0.03 0.34
-2 -7 -10 0.02 0.38
2 -7 10 -0.26 0.29
2 7 11 -0.08 0.37
-2 7 -11 0.65 0.44
-2 -7 -11 0.77 0.42
2 -7 11 0.07 0.32
-2 8 12 2.27 0.43
-2 -8 12 2.05 0.44
-2 8 11 0.68 0.34
2 8 -11 0.28 0.33
-2 -8 11 0.37 0.36
2 -8 -11 0.66 0.36
-2 8 10 2.91 0.36
-2 8 10 2.24 0.37
2 8 -10 2.68 0.39
-2 -8 10 2.5 0.41
2 -8 -10 3.15 0.4
-2 8 9 0.26 0.25
2 8 -9 -0.05 0.27
-2 8 9 -0.05 0.25
2 -8 -9 0.14 0.27
-2 -8 9 -0.13 0.31
-2 8 8 14.9 0.97
2 8 -8 14.43 1.02
-2 8 8 14.86 1.01
2 -8 -8 15.53 0.99
-2 -8 8 15.07 1.03
-2 8 7 0.32 0.19
-2 8 7 0.02 0.22
2 8 -7 0.26 0.23
-2 -8 7 0.44 0.25
2 -8 -7 0.36 0.24
-2 8 6 55.38 3.1
2 8 -6 52.62 3.17
-2 8 6 54.01 3.18
2 -8 -6 50.83 3.16
-2 -8 6 55.01 3.21
-2 8 5 14.98 0.94
-2 8 5 15.71 0.95
2 8 -5 15.73 0.99
2 -8 -5 14.08 0.96
2 8 -4 7.31 0.53
-2 8 4 6.2 0.46
2 8 -4 6.95 0.46
-2 8 4 7.03 0.51
2 -8 -4 6.88 0.5
2 8 -3 57.4 3.32
-2 8 3 56.1 3.24
-2 8 3 57.75 3.31
2 8 -3 54.57 3.22
2 -8 -3 55.68 3.32
2 8 -2 64.77 3.67
2 8 -2 62.66 3.58
-2 8 2 59.71 3.59
2 -8 -2 63 3.67
2 8 -1 0.51 0.1
-2 8 1 0.82 0.16
-2 8 1 0.97 0.19
2 8 -1 0.64 0.15
-2 -8 1 0.89 0.22
-2 8 0 21.84 1.24
2 8 0 18.28 1.24
-2 8 0 22.5 1.29
-2 -8 0 21.61 1.29
2 8 1 2.57 0.25
-2 8 -1 2.71 0.26
-2 8 -1 1.94 0.24
2 -8 1 2.63 0.19
-2 -8 -1 2.4 0.27
2 8 2 11.72 0.78
-2 8 -2 12.2 0.73
-2 8 -2 9.71 0.75
2 8 2 13.1 0.76
2 -8 2 12.61 0.73
2 8 3 0.22 0.17
-2 8 -3 0.3 0.14
2 8 3 0.21 0.17
-2 8 -3 0.34 0.2
2 -8 3 0.15 0.13
-2 -8 -3 0.28 0.21
2 8 4 25.23 1.51
-2 8 -4 24.95 1.52
2 8 4 24.86 1.46
2 -8 4 24.13 1.49
-2 -8 -4 24.29 1.51
2 8 5 1.05 0.22
-2 8 -5 1.29 0.27
2 8 5 1.51 0.23
-2 -8 -5 1.44 0.28
2 -8 5 1.29 0.21
2 8 6 0.12 0.19
-2 8 -6 0.24 0.26
2 8 6 -0.13 0.21
-2 -8 -6 0.27 0.25
2 -8 6 -0.09 0.2
2 8 7 2.75 0.31
2 8 7 2.91 0.35
-2 8 -7 3.57 0.4
2 -8 7 3.2 0.33
-2 -8 -7 3.16 0.38
2 8 8 3.48 0.36
-2 8 -8 3.79 0.45
2 8 8 3.64 0.4
-2 -8 -8 3.75 0.43
2 -8 8 3.48 0.38
-2 8 -9 3.82 0.47
2 8 9 3.32 0.42
2 -8 9 3.06 0.39
-2 -8 -9 3.51 0.46
2 8 10 0.41 0.35
-2 8 -10 1.73 0.42
2 -8 10 0.7 0.32
-2 -8 -10 1.29 0.43
-2 9 11 0.32 0.33
2 9 -11 0.34 0.36
-2 -9 11 0.17 0.37
2 -9 -11 0.51 0.37
-2 9 10 -0.1 0.28
-2 9 10 0.12 0.28
2 9 -10 0.22 0.33
-2 -9 10 0.11 0.34
2 -9 -10 0.02 0.31
-2 9 9 0.57 0.28
-2 9 9 0.5 0.26
2 9 -9 0.4 0.31
-2 -9 9 0.5 0.32
2 -9 -9 0.55 0.3
-2 9 8 3.84 0.38
-2 9 8 4.58 0.45
2 9 -8 3.88 0.43
-2 -9 8 3.79 0.43
2 -9 -8 4.12 0.42
2 9 -7 7.04 0.62
-2 9 7 6.47 0.55
-2 9 7 6.91 0.55
2 -9 -7 6.14 0.55
-2 -9 7 7.41 0.6
2 9 -6 0.03 0.25
-2 9 6 -0.21 0.22
-2 9 6 0.17 0.17
-2 -9 6 -0.03 0.22
2 -9 -6 0.51 0.26
-2 9 5 1.24 0.24
2 9 -5 1.16 0.25
-2 9 5 1.34 0.19
2 -9 -5 1.68 0.27
-2 9 4 0.47 0.13
2 9 -4 0.78 0.22
-2 9 4 0.68 0.22
2 9 -4 0.44 0.16
2 -9 -4 0.53 0.23
2 9 -3 0.56 0.21
-2 9 3 0.98 0.13
-2 9 3 0.64 0.19
2 9 -3 0.84 0.17
2 -9 -3 0.68 0.23
2 9 -2 4.38 0.42
2 9 -2 4.42 0.35
-2 9 2 4.99 0.3
2 9 -2 3.47 0.33
-2 9 2 4.71 0.37
2 -9 -2 4.53 0.41
2 9 -1 0.73 0.17
-2 9 1 0.52 0.21
-2 9 1 0.57 0.18
-2 -9 1 0.87 0.24
2 9 0 17.44 1.1
-2 9 0 18.73 1.11
-2 9 0 18.91 1.16
-2 -9 0 18.57 1.15
2 9 1 5.55 0.42
-2 9 -1 5.7 0.43
2 9 1 5.83 0.44
2 -9 1 5.77 0.36
-2 -9 -1 5.27 0.45
2 9 2 1.87 0.23
-2 9 -2 1.94 0.25
2 9 2 2.11 0.24
-2 9 -2 2.09 0.23
2 -9 2 1.94 0.21
-2 9 -3 0.1 0.16
2 9 3 -0.14 0.16
-2 9 -3 -0.07 0.2
2 9 3 0.06 0.19
2 -9 3 0.11 0.13
-2 -9 -3 0.14 0.23
2 9 4 0.01 0.2
-2 9 -4 -0.03 0.15
2 9 4 0.16 0.18
-2 9 -4 -0.1 0.22
2 -9 4 0.2 0.16
-2 -9 -4 0.25 0.25
-2 9 -5 0.57 0.26
2 9 5 0.62 0.21
-2 9 -5 0.46 0.16
2 9 5 0.35 0.2
-2 -9 -5 0.55 0.27
2 -9 5 0.59 0.19
-2 9 -6 1.54 0.31
2 9 6 1.32 0.26
2 9 6 1.26 0.25
-2 -9 -6 1.41 0.31
2 -9 6 1.3 0.24
2 9 7 2.44 0.33
2 9 7 2.44 0.3
-2 9 -7 2.49 0.38
2 -9 7 2.21 0.3
-2 -9 -7 2.81 0.37
-2 9 -8 0.55 0.34
2 9 8 0.11 0.27
2 9 8 0.28 0.24
-2 -9 -8 0.2 0.31
2 -9 8 -0.21 0.24
-2 9 -9 0.68 0.4
2 9 9 0.38 0.3
2 -9 9 0.28 0.28
-2 -9 -9 0.25 0.36
2 9 10 -0.01 0.33
-2 9 -10 0.52 0.41
-2 -9 -10 -0.01 0.38
2 -9 10 0.16 0.31
2 10 -11 0.77 0.39
-2 10 11 0.07 0.34
-2 -10 11 0.71 0.39
2 -10 -11 0.56 0.38
-2 10 10 4.44 0.48
2 10 -10 3.85 0.5
-2 10 10 4.92 0.47
-2 -10 10 4.48 0.52
2 -10 -10 4.71 0.5
-2 10 9 1.24 0.29
-2 10 9 2.14 0.34
2 10 -9 1.63 0.36
-2 -10 9 1.57 0.37
2 -10 -9 1.46 0.35
-2 10 8 0.24 0.27
2 10 -8 0.32 0.31
-2 10 8 0.62 0.23
-2 -10 8 0.29 0.29
2 -10 -8 0.27 0.28
-2 10 7 4.08 0.41
-2 10 7 3.86 0.41
2 10 -7 3.68 0.43
2 -10 -7 4.46 0.46
-2 -10 7 4.06 0.42
-2 10 6 17.04 1.06
-2 10 6 17.1 1.08
2 10 -6 16.83 1.11
2 -10 -6 16.51 1.09
-2 -10 6 16.65 1.11
-2 10 5 7.13 0.52
-2 10 5 7.54 0.57
2 10 -5 6.79 0.59
2 -10 -5 6.9 0.57
2 10 -4 1.54 0.22
-2 10 4 1.47 0.25
2 10 -4 1.55 0.28
-2 10 4 1.16 0.16
2 -10 -4 1.69 0.29
2 10 -3 6.68 0.48
2 10 -3 6.41 0.55
2 -10 -3 6.54 0.53
-2 10 2 6.3 0.39
-2 10 2 5.89 0.48
2 10 -2 5.67 0.45
2 10 -2 6.05 0.44
2 -10 -2 5.91 0.51
-2 10 1 0.39 0.18
2 10 -1 0.29 0.12
-2 10 1 0.32 0.22
-2 -10 1 0.11 0.24
2 10 0 10.86 0.69
-2 10 0 10.57 0.75
-2 10 0 10.83 0.71
2 10 0 10.36 0.7
-2 -10 0 10.14 0.73
2 10 1 1.35 0.22
-2 10 -1 0.9 0.19
2 10 1 2.32 0.21
-2 10 -1 1.41 0.23
-2 -10 -1 1.41 0.26
2 -10 1 1.78 0.16
2 10 2 1.95 0.26
-2 10 -2 2.18 0.24
2 10 2 1.16 0.21
2 -10 2 1.89 0.17
2 10 3 5.01 0.41
2 10 3 4.66 0.48
-2 10 -3 4.64 0.48
-2 10 -3 5.72 0.42
2 -10 3 5.27 0.38
-2 -10 -3 3.82 0.43
2 10 4 5.78 0.48
2 10 4 5.68 0.51
-2 10 -4 5.78 0.51
-2 10 -4 5.77 0.44
2 -10 4 5.19 0.44
-2 -10 -4 6.28 0.53
-2 10 -5 2.73 0.38
-2 10 -5 3.11 0.27
2 10 5 2.69 0.32
2 10 5 2.86 0.33
2 -10 5 2.96 0.28
-2 -10 -5 2.55 0.38
2 10 6 0.78 0.25
-2 10 -6 0.33 0.3
2 10 6 0.75 0.25
2 -10 6 0.68 0.23
-2 -10 -6 0.47 0.31
2 10 7 3.5 0.37
2 10 7 2.69 0.35
-2 10 -7 3.29 0.43
-2 -10 -7 2.93 0.42
2 -10 7 2.86 0.34
2 10 8 0.75 0.26
2 10 8 0.8 0.31
-2 10 -8 1.12 0.38
2 -10 8 1.12 0.28
-2 -10 -8 0.72 0.35
2 10 9 0.02 0.31
-2 10 -9 0.22 0.38
2 -10 9 -0.33 0.27
-2 -10 -9 -0.04 0.35
-2 10 -10 0.53 0.42
2 10 10 0.25 0.35
2 -10 10 0.04 0.31
-2 -10 -10 0.53 0.4
-2 11 10 3.69 0.42
-2 11 10 3.78 0.44
2 11 -10 3.26 0.49
2 -11 -10 4.03 0.49
-2 -11 10 3.48 0.48
-2 11 9 -0.14 0.25
2 11 -9 -0.31 0.31
-2 11 9 0.12 0.31
-2 -11 9 0.12 0.33
2 -11 -9 0.23 0.34
2 11 -8 1.41 0.35
-2 11 8 1.15 0.32
-2 11 8 1.29 0.26
2 -11 -8 1.38 0.35
-2 -11 8 0.89 0.34
2 11 -7 0.45 0.3
-2 11 7 0.5 0.23
-2 11 7 0.58 0.29
-2 -11 7 0.64 0.3
2 -11 -7 0.49 0.31
2 11 -6 13.83 0.95
-2 11 6 13.07 0.87
-2 11 6 12.26 0.83
-2 -11 6 12.59 0.9
2 -11 -6 11.84 0.88
-2 11 5 11.15 0.79
2 11 -5 11.72 0.82
-2 11 5 10.92 0.74
2 -11 -5 11.2 0.82
2 11 -4 27.22 1.59
-2 11 4 24.68 1.54
2 11 -4 24.97 1.51
2 -11 -4 24.98 1.58
2 11 -3 2.3 0.32
2 11 -3 2.11 0.26
2 -11 -3 1.64 0.32
-2 11 2 0.17 0.18
2 11 -2 0.07 0.19
-2 -11 2 0.21 0.28
2 -11 -2 -0.12 0.27
-2 11 1 0.42 0.24
-2 11 1 0.42 0.21
2 11 -1 0.22 0.2
2 11 -1 -0.08 0.14
-2 -11 1 -0.13 0.27
-2 11 0 24.66 1.4
2 11 0 23.41 1.4
-2 11 0 20.89 1.43
-2 -11 0 23.06 1.44
-2 11 -1 1.46 0.24
-2 11 -1 2.1 0.13
2 11 1 1.52 0.21
-2 11 -2 1.36 0.23
2 11 2 1.07 0.2
2 11 2 1.04 0.25
-2 11 -3 0.2 0.19
2 11 3 0.19 0.21
-2 11 -3 0.33 0.27
2 11 3 0.22 0.23
-2 -11 -3 0.3 0.29
-2 11 -4 0 0.26
2 11 4 0.14 0.22
-2 11 -4 0.01 0.19
2 11 4 0.08 0.24
-2 -11 -4 0.07 0.3
2 11 5 0.7 0.25
-2 11 -5 0.69 0.31
2 11 5 0.74 0.26
-2 11 -5 0.92 0.22
-2 -11 -5 0.57 0.32
2 11 6 2.49 0.34
2 11 6 2.37 0.33
-2 11 -6 2.81 0.41
-2 -11 -6 3.04 0.41
2 11 7 -0.01 0.25
-2 11 -7 0.16 0.35
2 11 7 -0.2 0.26
-2 -11 -7 0.34 0.34
-2 11 -8 0.63 0.4
2 11 8 0.66 0.29
2 11 8 0.75 0.31
-2 -11 -8 0.88 0.37
2 11 9 0.38 0.33
-2 11 -9 0.61 0.41
-2 -11 -9 0.81 0.39
-2 12 10 -0.06 0.35
2 12 -10 0.62 0.4
-2 -12 10 0.03 0.36
2 -12 -10 -0.27 0.37
-2 12 9 0.51 0.33
2 12 -9 0.36 0.38
-2 -12 9 -0.14 0.33
2 -12 -9 0.35 0.37
-2 12 8 0.79 0.33
2 12 -8 1.21 0.36
2 -12 -8 0.98 0.37
-2 -12 8 1.25 0.35
2 12 -7 0.37 0.33
-2 12 7 0.13 0.3
2 -12 -7 0.32 0.31
-2 -12 7 0.24 0.3
2 12 -6 0.18 0.3
-2 12 6 0.34 0.27
2 -12 -6 0.02 0.32
-2 -12 6 0.21 0.27
-2 12 5 0.94 0.28
2 12 -5 1.08 0.24
2 12 -5 0.88 0.32
2 -12 -5 0.83 0.34
2 12 -4 1.14 0.31
-2 12 4 0.94 0.27
2 12 -4 0.73 0.23
2 -12 -4 1.27 0.32
-2 12 3 14.65 1.09
2 12 -3 18.41 1.1
2 12 -3 19.21 1.17
2 -12 -3 18.51 1.16
-2 12 2 1.72 0.3
2 12 -2 1.59 0.27
2 -12 -2 2.06 0.36
-2 -12 2 1.65 0.36
2 12 -1 0.35 0.22
-2 12 1 0.32 0.24
2 12 -1 0.39 0.16
-2 -12 1 0.28 0.31
-2 12 0 0.38 0.24
-2 12 0 0.91 0.29
2 12 0 0.86 0.17
2 12 0 0.58 0.22
-2 -12 0 0.37 0.3
-2 12 -1 2.51 0.28
-2 -12 -1 3.3 0.34
-2 12 -2 1.13 0.3
-2 12 -2 1.14 0.25
2 12 2 0.85 0.24
2 12 2 1.12 0.2
-2 -12 -2 1.24 0.32
-2 12 -3 0.06 0.27
2 12 3 -0.02 0.19
-2 12 -3 0.11 0.21
2 12 3 -0.12 0.24
-2 -12 -3 0.12 0.31
-2 12 -4 2.2 0.36
-2 12 -4 2.02 0.28
2 12 4 2 0.32
2 12 4 2.13 0.32
-2 -12 -4 1.95 0.39
-2 12 -5 12.48 0.93
2 12 5 13.08 0.91
-2 12 -5 12.84 0.81
2 12 5 11.65 0.84
-2 -12 -5 11.75 0.88
2 12 6 -0.02 0.25
-2 12 -6 0.49 0.34
2 12 6 0.13 0.26
-2 -12 -6 0.16 0.35
-2 12 -7 0.37 0.38
2 12 7 0.58 0.3
2 12 7 0.41 0.29
-2 -12 -7 0.68 0.38
2 12 8 -0.16 0.29
-2 12 -8 0.53 0.4
2 12 8 -0.13 0.29
-2 -12 -8 -0.33 0.38
-2 12 -9 0.07 0.42
2 12 9 0.88 0.34
-2 -12 -9 1 0.41
-2 13 9 0.34 0.35
2 13 -9 0.62 0.41
-2 -13 9 -0.06 0.34
2 -13 -9 0.55 0.39
2 13 -8 2.3 0.42
-2 13 8 1.85 0.38
-2 -13 8 1.81 0.39
2 -13 -8 1.6 0.4
2 13 -7 0.33 0.34
-2 13 7 0.29 0.32
2 -13 -7 0.56 0.37
-2 -13 7 0.71 0.32
2 13 -6 1 0.35
-2 13 6 1.62 0.34
-2 -13 6 1.2 0.32
2 -13 -6 0.82 0.35
-2 13 5 5.28 0.55
2 13 -5 5.12 0.48
2 13 -5 5.2 0.52
2 -13 -5 5.71 0.57
-2 13 4 1.58 0.34
2 13 -4 1.64 0.37
2 13 -4 1.75 0.28
2 -13 -4 1.85 0.37
2 13 -3 5.59 0.5
-2 13 3 6.04 0.56
2 -13 -3 5.67 0.57
-2 13 2 4.23 0.43
2 13 -2 4.29 0.45
2 -13 -2 4.05 0.48
-2 -13 2 4.56 0.5
2 13 -1 1.17 0.27
-2 13 1 1.43 0.28
2 13 -1 1.11 0.2
-2 -13 1 1.37 0.37
2 -13 -1 1.36 0.38
-2 13 0 10.31 0.76
-2 13 0 9.81 0.69
2 13 0 9.64 0.66
2 13 0 9.2 0.68
-2 -13 0 9.97 0.76
-2 13 -1 0.42 0.3
2 13 1 0.27 0.24
-2 13 -1 0.59 0.26
2 13 1 0.32 0.17
-2 -13 -1 0.54 0.33
2 13 2 5.72 0.53
-2 13 -2 5.66 0.52
2 13 2 6.97 0.5
-2 13 -2 5.11 0.53
-2 -13 -2 5.68 0.59
2 13 3 -0.28 0.19
-2 13 -3 1.05 0.25
2 13 3 0.55 0.28
-2 13 -3 0.61 0.32
-2 -13 -3 0.52 0.36
2 13 4 -0.09 0.24
-2 13 -4 0.49 0.33
2 13 4 0.01 0.25
-2 13 -4 0.11 0.22
-2 -13 -4 0.23 0.36
2 13 5 0.56 0.28
-2 13 -5 0.14 0.34
2 13 5 0.04 0.28
-2 -13 -5 -0.48 0.35
-2 13 -6 0.45 0.37
2 13 6 0.78 0.32
2 13 6 0.71 0.3
-2 -13 -6 0.95 0.39
-2 13 -7 0.09 0.4
2 13 7 0.19 0.3
2 13 7 -0.01 0.3
-2 -13 -7 0.19 0.38
-2 13 -8 0.32 0.4
2 13 8 0.39 0.31
2 13 8 0.79 0.35
-2 -13 -8 0.68 0.4
-2 14 8 0.57 0.36
2 14 -8 0.2 0.41
2 -14 -8 0.09 0.4
2 14 -7 0.64 0.38
-2 14 7 0.01 0.34
2 -14 -7 -0.24 0.37
-2 14 6 -0.01 0.33
2 14 -6 0.17 0.35
2 -14 -6 -0.26 0.38
2 14 -5 0.31 0.37
-2 14 5 -0.28 0.31
2 14 -5 0.09 0.26
2 -14 -5 -0.01 0.35
-2 14 4 1.11 0.31
2 14 -4 1.03 0.35
2 14 -4 0.66 0.26
2 -14 -4 0.86 0.37
2 14 -3 -0.14 0.24
-2 14 3 0.35 0.27
2 -14 -3 0.24 0.36
-2 14 2 0.6 0.31
2 14 -2 0.19 0.26
-2 -14 2 0.16 0.38
2 -14 -2 -0.11 0.36
-2 14 1 0.71 0.3
2 14 -1 0.38 0.27
2 -14 -1 0.25 0.37
-2 -14 1 -0.03 0.36
2 14 0 5.45 0.53
-2 14 0 5.86 0.54
-2 14 0 4.79 0.52
-2 -14 0 5.24 0.55
2 14 1 2.32 0.34
-2 14 -1 2.14 0.38
-2 14 -1 1.95 0.31
-2 -14 -1 1.72 0.41
-2 14 -2 0.26 0.26
2 14 2 0.02 0.29
-2 14 -2 -0.1 0.32
-2 -14 -2 -0.09 0.35
-2 14 -3 2.17 0.41
-2 14 -3 2.28 0.32
2 14 3 2.04 0.35
-2 -14 -3 1.82 0.42
-2 14 -4 0.05 0.26
-2 14 -4 -0.23 0.33
2 14 4 0.49 0.3
-2 -14 -4 0.28 0.38
2 14 5 0.65 0.31
-2 14 -5 0.86 0.39
-2 -14 -5 0.67 0.4
-2 14 -6 0.16 0.38
2 14 6 0.09 0.3
-2 -14 -6 0.15 0.41
2 14 7 -0.04 0.31
-2 14 -7 -0.04 0.39
-2 -14 -7 -0.28 0.39
-2 15 8 0.45 0.38
2 15 -8 -0.31 0.4
2 -15 -8 0.03 0.4
2 15 -7 0.05 0.39
-2 15 7 0.28 0.36
2 -15 -7 0.2 0.41
-2 15 6 0.23 0.36
2 15 -6 0.02 0.38
2 -15 -6 0.32 0.39
2 15 -5 2.57 0.45
-2 15 5 2.03 0.39
2 15 -5 2.38 0.36
2 -15 -5 2.28 0.45
2 15 -4 0.63 0.3
-2 15 4 0.79 0.32
2 -15 -4 0.49 0.38
2 15 -3 0.07 0.25
-2 15 3 0 0.29
-2 -15 3 -0.28 0.41
2 -15 -3 0.18 0.37
-2 15 2 0.31 0.29
2 15 -2 0.07 0.28
-2 -15 2 -0.37 0.39
2 -15 -2 0.27 0.39
2 15 -1 6.25 0.55
-2 15 1 6.12 0.62
-2 -15 1 6.91 0.67
2 -15 -1 6.3 0.67
2 15 0 5.08 0.48
-2 15 0 4.37 0.48
-2 -15 0 5.03 0.56
-2 15 -1 0.13 0.3
2 15 1 0.1 0.3
-2 15 -1 -0.28 0.34
-2 -15 -1 -0.06 0.38
2 15 2 0.13 0.31
-2 15 -2 0.3 0.35
-2 15 -2 0.1 0.29
-2 -15 -2 -0.23 0.38
-2 15 -3 4.38 0.44
-2 15 -3 4.54 0.53
2 15 3 4.36 0.47
-2 -15 -3 4.22 0.55
-2 15 -4 1.65 0.42
2 15 4 0.99 0.34
-2 15 -4 1.7 0.32
-2 -15 -4 0.98 0.44
2 15 5 -0.01 0.31
-2 15 -5 -0.24 0.38
-2 -15 -5 -0.15 0.41
-2 15 -6 -0.14 0.39
2 15 6 0 0.32
-2 -15 -6 -0.13 0.45
2 16 -7 -0.03 0.42
-2 16 7 0.07 0.38
-2 16 6 -0.19 0.37
2 16 -6 0.08 0.44
2 -16 -6 -0.14 0.41
2 16 -5 0.4 0.32
-2 16 5 0.88 0.35
2 16 -5 1.15 0.43
2 -16 -5 1.42 0.45
-2 16 4 0.32 0.36
2 16 -4 0.74 0.32
2 -16 -4 0.47 0.41
2 16 -3 0.48 0.31
-2 16 3 0.77 0.36
2 -16 -3 1.17 0.45
-2 -16 3 1.41 0.48
2 16 -2 2.22 0.35
-2 16 2 1.57 0.37
-2 -16 2 2.42 0.49
2 -16 -2 2.1 0.47
2 16 -1 0.57 0.33
-2 16 1 0.27 0.35
-2 -16 1 0.84 0.43
2 -16 -1 0.83 0.43
2 16 0 0.15 0.29
-2 16 0 0.29 0.3
2 -16 0 -0.04 0.42
-2 -16 0 0.47 0.43
2 16 1 0.61 0.34
-2 16 -1 1.12 0.35
-2 16 -1 0.93 0.38
-2 -16 -1 0.7 0.43
-2 16 -2 0.12 0.31
-2 16 -2 -0.39 0.37
2 16 2 0.52 0.34
-2 -16 -2 -0.08 0.37
-2 16 -3 0.3 0.31
2 16 3 0.38 0.34
-2 16 -3 -0.11 0.38
-2 -16 -3 0.13 0.42
2 16 4 0.13 0.3
-2 16 -4 -0.14 0.31
-2 16 -4 0.08 0.39
-2 -16 -4 0.52 0.44
-2 16 -5 0.48 0.42
2 16 5 0.09 0.34
-2 -16 -5 0.47 0.44
-2 17 5 0.13 0.39
2 17 -5 0.04 0.32
2 -17 -5 -0.1 0.43
2 17 -4 2.01 0.38
-2 17 4 1.67 0.4
2 -17 -4 2.09 0.5
-2 -17 4 2.48 0.55
-2 17 3 -0.03 0.34
2 17 -3 0.02 0.33
-2 -17 3 -0.51 0.45
2 -17 -3 -0.48 0.45
-2 17 2 0.06 0.37
2 17 -2 -0.22 0.33
-2 -17 2 -0.26 0.44
2 -17 -2 0.56 0.44
2 17 -1 0.15 0.34
-2 17 1 0.04 0.36
2 -17 -1 -0.42 0.42
-2 -17 1 0.06 0.45
2 17 0 4 0.47
-2 17 0 4.49 0.52
-2 -17 0 4.12 0.59
2 -17 0 5.61 0.63
2 17 1 -0.23 0.34
-2 17 -1 0.02 0.35
-2 -17 -1 0.32 0.46
-2 17 -2 1.21 0.42
2 17 2 0.91 0.37
-2 17 -2 0.54 0.37
-2 -17 -2 0.81 0.46
-2 17 -3 1.92 0.47
-2 17 -3 1.64 0.37
2 17 3 1.36 0.4
-2 -17 -3 2.04 0.51
2 17 4 0.22 0.35
-2 17 -4 0.19 0.42
-2 17 -4 0.58 0.34
-2 -17 -4 0.45 0.47
2 18 -3 0.23 0.35
-2 18 3 0.04 0.36
-2 -18 3 0.02 0.51
2 -18 -3 -0.15 0.46
-2 18 2 0.43 0.4
2 18 -2 0.37 0.37
2 -18 -2 0.22 0.48
-2 -18 2 -0.02 0.49
-2 18 1 0.29 0.39
2 18 -1 0.06 0.36
-2 -18 1 0.25 0.48
2 -18 -1 0.2 0.47
-2 18 0 -0.28 0.37
2 18 0 -0.27 0.36
-2 -18 0 -0.17 0.48
2 -18 0 0.22 0.49
-2 18 -1 0 0.37
2 18 1 0.25 0.37
2 -18 1 0.03 0.5
-2 -18 -1 0.06 0.47
-2 18 -2 3.27 0.48
-2 18 -2 3.53 0.54
2 18 2 4.2 0.48
-2 -18 -2 3.05 0.58
-3 0 13 -0.03 0.37
-3 0 12 0.79 0.39
-3 0 11 0.02 0.34
-3 0 10 1.83 0.34
3 0 -10 2.21 0.27
-3 0 9 0.02 0.14
-3 0 9 -0.36 0.23
3 0 -9 0.17 0.17
-3 0 8 2.45 0.23
-3 0 8 2.59 0.33
3 0 -8 3.1 0.31
-3 0 7 0 0.19
-3 0 7 0.02 0.11
3 0 -7 0.22 0.12
-3 0 6 11.42 0.78
-3 0 6 11.27 0.71
3 0 -6 12.76 0.73
-3 0 5 0.15 0.08
3 0 -5 0.05 0.07
-3 0 5 0.02 0.13
3 0 -4 115.95 6.78
-3 0 4 118.43 6.64
-3 0 3 0.01 0.07
-3 0 2 74.5 4.76
3 0 -2 93.21 4.92
-3 0 1 -0.16 0.06
-3 0 1 -0.18 0.05
3 0 -1 -0.12 0.05
3 0 0 63.45 3.76
-3 0 0 63.86 3.72
-3 0 0 64.55 3.64
-3 0 -1 -0.15 0.09
3 0 1 -0.06 0.07
-3 0 -1 -0.16 0.06
-3 0 -2 0.93 0.1
3 0 2 0.9 0.12
-3 0 -3 -0.04 0.06
3 0 3 -0.01 0.09
3 0 4 29.08 1.79
-3 0 -4 28.8 1.8
-3 0 -4 31.09 1.7
-3 0 -5 -0.13 0.18
3 0 5 0.12 0.16
-3 0 -6 1.09 0.25
3 0 6 0.77 0.22
-3 0 -7 -0.28 0.25
3 0 7 -0.2 0.22
3 0 8 1.65 0.3
-3 0 -8 1.66 0.35
3 0 9 -0.07 0.26
-3 0 -9 -0.06 0.31
-3 0 -10 0.02 0.37
3 0 10 0.18 0.32
-3 0 -11 -0.64 0.36
3 0 11 0.4 0.35
-3 1 13 0.71 0.42
-3 -1 13 1.1 0.43
-3 1 12 2 0.44
-3 -1 12 2.07 0.44
-3 1 11 0.96 0.34
-3 -1 11 1.11 0.34
3 1 -10 0.43 0.2
-3 1 10 0.54 0.29
-3 -1 10 0.62 0.32
3 -1 -10 0.86 0.21
-3 1 9 3.82 0.36
3 1 -9 4.77 0.4
-3 1 9 3.43 0.42
-3 -1 9 3.87 0.34
3 -1 -9 5.51 0.43
3 1 -8 11.49 0.73
-3 1 8 10.86 0.7
-3 1 8 12.17 0.83
-3 -1 8 10.7 0.7
3 -1 -8 12.42 0.75
-3 1 7 0.13 0.11
-3 1 7 -0.14 0.19
3 1 -7 0.09 0.11
3 -1 -7 0.19 0.12
-3 -1 7 -0.11 0.17
-3 -1 7 0.09 0.1
-3 1 6 24.01 1.43
3 1 -6 23.83 1.37
-3 1 6 23.14 1.35
-3 -1 6 22.3 1.43
3 -1 -6 23.05 1.39
-3 -1 6 23.15 1.35
3 1 -5 7.36 0.45
-3 1 5 7.27 0.46
-3 1 5 7.54 0.5
3 -1 -5 6.31 0.47
-3 -1 5 8.17 0.46
3 1 -4 11.44 0.66
-3 1 4 11.35 0.66
3 -1 -4 9.53 0.66
-3 -1 4 12.2 0.67
3 1 -3 10.35 0.59
-3 1 3 11.01 0.6
3 -1 -3 10.44 0.6
-3 -1 3 8.41 0.61
-3 1 2 46.65 2.65
-3 -1 2 44.52 2.62
-3 -1 2 46.01 2.65
-3 1 1 0.25 0.05
-3 1 1 0.32 0.06
3 1 -1 0.29 0.06
-3 -1 1 0.27 0.06
-3 -1 1 0.2 0.07
3 -1 -1 0.32 0.06
-3 1 0 78.88 4.46
-3 1 0 79.58 4.35
3 -1 0 71.8 4.5
-3 -1 0 78.82 4.45
-3 -1 0 74.57 4.35
-3 1 -1 99.69 5.4
-3 1 -1 92.72 5.54
3 1 1 91.21 5.58
3 -1 1 94.95 5.58
-3 -1 -1 101.71 5.54
-3 -1 -1 91.36 5.39
-3 1 -2 13.41 0.72
3 1 2 10.68 0.75
3 -1 2 12.94 0.76
3 1 3 2.82 0.25
-3 1 -3 3.19 0.19
-3 -1 -3 2.7 0.23
3 -1 3 2.84 0.26
3 1 4 119.18 6.84
-3 1 -4 102.97 6.79
-3 -1 -4 122.87 6.8
3 -1 4 120.95 6.84
3 1 5 3.69 0.36
-3 1 -5 3.2 0.35
3 -1 5 3.81 0.36
-3 -1 -5 4.01 0.37
-3 1 -6 0.55 0.25
3 1 6 1.04 0.2
3 -1 6 1.07 0.2
-3 -1 -6 0.91 0.26
-3 1 -7 7.34 0.67
3 1 7 6.12 0.56
3 -1 7 9.32 0.6
-3 -1 -7 9.54 0.68
3 1 8 7.26 0.57
-3 1 -8 5.31 0.56
3 -1 8 7.15 0.59
-3 -1 -8 7.25 0.66
3 1 9 0.05 0.27
-3 1 -9 -0.5 0.3
3 -1 9 -0.05 0.25
-3 -1 -9 0.26 0.32
-3 1 -10 1.67 0.43
3 1 10 3.19 0.42
3 -1 10 2.69 0.38
-3 -1 -10 3.63 0.47
-3 1 -11 0.04 0.37
3 1 11 0.54 0.35
3 -1 11 0.71 0.36
-3 -1 -11 0.47 0.39
-3 2 13 3.27 0.52
-3 -2 13 3.3 0.52
-3 2 12 0.1 0.37
-3 -2 12 0.47 0.38
-3 2 11 -0.09 0.31
-3 -2 11 0.14 0.32
-3 2 10 0.57 0.32
3 2 -10 1.1 0.22
-3 -2 10 0.68 0.3
3 -2 -10 1.19 0.24
-3 2 9 4.69 0.44
-3 2 9 4.81 0.37
3 2 -9 4.65 0.41
-3 -2 9 3.92 0.33
-3 -2 9 2.99 0.39
3 -2 -9 5.08 0.44
-3 2 8 0.09 0.14
3 2 -8 0.27 0.15
-3 2 8 0.07 0.21
-3 -2 8 0.05 0.11
3 -2 -8 0.18 0.16
-3 -2 8 -0.01 0.05
-3 2 7 35.41 2.13
-3 2 7 35.16 2.02
-3 -2 7 34.7 2.02
-3 2 6 3.56 0.28
-3 2 6 3.42 0.37
3 2 -6 3.63 0.28
-3 -2 6 4.14 0.28
3 -2 -6 2.84 0.29
3 2 -5 4.98 0.33
-3 2 5 4.77 0.37
-3 2 5 4.88 0.34
3 -2 -5 5.08 0.34
-3 -2 5 4.67 0.35
-3 2 4 0.09 0.08
-3 2 4 0.1 0.11
3 2 -4 0.1 0.07
3 -2 -4 0.08 0.08
-3 -2 4 -0.07 0.09
3 2 -3 73.34 4.22
-3 2 3 71.11 4.14
-3 -2 3 75.04 4.15
3 -2 -3 72.01 4.22
-3 2 2 17.12 0.99
3 2 -2 13.96 1
-3 -2 2 17.87 0.99
-3 -2 2 18.06 0.98
-3 2 1 37.84 2.15
-3 2 1 37.41 2.2
3 -2 -1 37.39 2.21
-3 -2 1 37.43 2.2
-3 2 0 10.23 0.6
-3 2 0 10.31 0.62
3 -2 0 10.17 0.63
-3 -2 0 10.16 0.62
-3 2 -1 16.25 0.96
-3 2 -1 17.27 1
-3 -2 -1 16.78 1
3 -2 1 16.25 0.99
-3 2 -2 12.36 0.7
3 -2 2 11.8 0.74
-3 2 -3 8.77 0.58
-3 -2 -3 9.38 0.58
3 2 4 0 0.05
-3 2 -4 0.22 0.17
3 -2 4 0.62 0.14
-3 -2 -4 0.67 0.2
-3 2 -5 17.99 1.19
-3 -2 -5 17.87 1.19
3 -2 5 20.49 1.17
-3 2 -6 3.41 0.39
-3 -2 -6 4.56 0.43
3 -2 6 4.62 0.41
-3 2 -7 2.66 0.37
3 -2 7 3.19 0.33
-3 -2 -7 3.27 0.39
-3 2 -8 0.55 0.33
3 2 8 1.7 0.31
-3 -2 -8 2.11 0.36
3 -2 8 1.43 0.27
-3 2 -9 -0.42 0.32
3 2 9 0.07 0.29
-3 -2 -9 0.2 0.31
3 -2 9 0.11 0.28
3 2 10 2.32 0.38
-3 2 -10 0.1 0.36
3 -2 10 1.96 0.36
-3 -2 -10 1.64 0.4
-3 2 -11 -0.79 0.38
3 2 11 -0.03 0.34
-3 -2 -11 -0.36 0.41
3 -2 11 0.13 0.33
-3 3 13 0.97 0.42
-3 -3 13 1.15 0.44
-3 3 12 1.37 0.41
-3 -3 12 1.15 0.41
-3 3 11 0.51 0.35
-3 -3 11 0.97 0.37
-3 3 10 2.19 0.27
3 3 -10 2.29 0.28
-3 3 10 2.04 0.37
-3 -3 10 2.35 0.37
3 -3 -10 2.09 0.3
3 3 -9 18.05 1.11
-3 3 9 17.31 1.19
-3 3 9 18.45 1.08
-3 -3 9 17.79 1.06
-3 -3 9 17.3 1.18
-3 3 8 12.51 0.86
-3 3 8 12.92 0.79
3 3 -8 12.24 0.8
-3 -3 8 12.83 0.77
-3 -3 8 13.05 0.9
-3 3 7 3.62 0.35
-3 3 7 3.19 0.31
-3 -3 7 3.85 0.4
-3 -3 7 4.29 0.31
3 3 -6 6.72 0.44
-3 3 6 6.54 0.43
-3 3 6 6.74 0.49
-3 -3 6 5.45 0.49
-3 -3 6 6.11 0.44
3 -3 -6 6.58 0.44
-3 3 5 38.32 2.48
-3 3 5 43.23 2.39
3 3 -5 45.13 2.44
-3 -3 5 36.6 2.4
3 -3 -5 44.87 2.44
-3 3 4 0.55 0.11
3 3 -4 0.6 0.1
-3 3 4 0.58 0.12
-3 -3 4 0.45 0.12
3 -3 -4 0.67 0.11
-3 3 3 136.65 7.94
-3 3 3 130.78 7.69
3 3 -3 136.14 7.86
-3 -3 3 140.39 7.69
3 -3 -3 134.65 7.86
3 3 -2 118.87 7.06
-3 3 2 120.8 6.99
-3 -3 2 122.12 6.99
-3 3 1 0.18 0.08
-3 3 1 0.13 0.07
3 3 -1 0.28 0.08
-3 -3 1 0.16 0.09
3 -3 -1 0.17 0.05
-3 3 0 1.45 0.13
-3 3 0 1.3 0.13
3 3 0 1.09 0.14
3 -3 0 1.66 0.15
-3 -3 0 1.61 0.16
-3 3 -1 65.74 3.83
3 3 1 66.43 3.87
-3 3 -1 65.33 3.73
-3 -3 -1 65.97 3.83
3 -3 1 65.34 3.85
-3 3 -2 28.5 1.6
3 3 2 27.6 1.61
3 -3 2 27.84 1.66
3 3 3 1.88 0.17
3 3 3 2.06 0.19
-3 3 -3 1.29 0.17
-3 3 -3 1.81 0.14
-3 -3 -3 1.21 0.17
3 -3 3 1.82 0.17
3 3 4 2.88 0.24
-3 3 -4 3.27 0.29
3 3 4 2.91 0.31
3 -3 4 2.81 0.29
-3 -3 -4 3.16 0.3
3 3 5 33.52 1.91
3 3 5 33.78 2
-3 3 -5 33.88 2.01
3 -3 5 32.51 2
-3 -3 -5 32.46 2
-3 3 -6 -0.15 0.22
3 3 6 -0.13 0.13
3 -3 6 0.32 0.19
-3 -3 -6 -0.21 0.25
-3 3 -7 14.62 0.99
3 3 7 12.2 0.93
3 -3 7 14.98 0.94
-3 -3 -7 14.6 1.01
-3 3 -8 1.01 0.32
3 3 8 1.3 0.3
-3 -3 -8 1.21 0.34
3 -3 8 1.22 0.29
3 3 9 -0.29 0.26
-3 3 -9 -0.07 0.31
3 -3 9 -0.1 0.27
-3 -3 -9 0.26 0.32
3 3 10 0.63 0.34
-3 3 -10 -0.17 0.36
-3 -3 -10 0.94 0.36
3 -3 10 1.09 0.32
-3 3 -11 0.52 0.43
3 3 11 1.31 0.39
3 -3 11 1.41 0.36
-3 -3 -11 1.06 0.41
-3 4 13 0.2 0.39
-3 -4 13 0.17 0.41
-3 4 12 0.39 0.37
-3 -4 12 0.29 0.39
-3 4 11 0.02 0.3
-3 -4 11 -0.03 0.34
-3 4 10 5.57 0.5
3 4 -10 6.2 0.54
-3 4 10 6.04 0.62
-3 -4 10 6.54 0.64
3 4 -9 2.89 0.3
-3 4 9 3.4 0.31
-3 4 9 3.77 0.38
3 -4 -9 2.16 0.33
-3 -4 9 2.61 0.39
-3 4 8 5.94 0.44
-3 4 8 6.37 0.54
3 4 -8 5.62 0.45
3 -4 -8 5.62 0.48
-3 -4 8 5.52 0.56
-3 -4 8 5.86 0.42
3 4 -7 5.35 0.42
-3 4 7 5.09 0.42
-3 4 7 5.87 0.48
-3 -4 7 5.54 0.4
3 -4 -7 4.9 0.41
-3 -4 7 5.28 0.51
-3 4 6 10.4 0.66
-3 4 6 10.3 0.61
-3 -4 6 7.66 0.62
-3 4 5 4.26 0.38
3 4 -5 5.21 0.37
-3 4 5 5.49 0.38
-3 -4 5 5.8 0.39
3 -4 -5 5.46 0.37
-3 4 4 12.66 0.79
3 4 -4 13.08 0.8
-3 4 4 13.41 0.82
3 -4 -4 12.93 0.8
-3 -4 4 13.65 0.8
3 4 -3 15.45 0.92
-3 4 3 14.59 0.9
-3 4 3 15.48 0.92
3 -4 -3 15.19 0.91
-3 4 2 0.67 0.11
3 4 -2 0.57 0.1
-3 4 2 0.85 0.09
-3 -4 2 0.8 0.13
3 4 -1 0.21 0.09
-3 4 1 0.05 0.08
-3 4 1 0.13 0.09
-3 -4 1 0.26 0.11
-3 4 0 6.48 0.41
3 4 0 6.61 0.41
-3 4 0 6.35 0.43
-3 -4 0 6.77 0.43
3 -4 0 6.21 0.4
-3 4 -1 6.79 0.45
-3 4 -1 6.77 0.41
3 4 1 6.57 0.42
3 -4 1 6.69 0.41
-3 -4 -1 6.74 0.45
3 4 2 110.93 6.46
-3 4 -2 110.59 6.24
3 4 2 111.56 6.25
3 -4 2 107.67 6.45
-3 4 -3 -0.08 0.07
3 4 3 -0.1 0.11
3 4 3 0.04 0.12
-3 4 -3 0.08 0.13
-3 -4 -3 -0.04 0.13
3 -4 3 0.02 0.11
3 4 4 0.21 0.12
-3 4 -4 0.18 0.17
3 4 4 0.15 0.15
-3 4 -4 0.12 0.07
3 -4 4 -0.08 0.13
-3 -4 -4 0.15 0.17
3 4 5 11.33 0.77
3 4 5 11.52 0.72
-3 4 -5 12.91 0.81
3 -4 5 11.29 0.76
-3 -4 -5 12.01 0.79
3 4 6 45.58 2.67
-3 4 -6 45.83 2.67
3 4 6 44.03 2.55
-3 -4 -6 44.05 2.66
3 -4 6 42.8 2.66
3 4 7 -0.03 0.21
-3 4 -7 0.06 0.26
3 4 7 -0.1 0.15
3 -4 7 -0.12 0.22
-3 -4 -7 -0.03 0.29
3 4 8 1.85 0.3
-3 4 -8 2.05 0.36
-3 -4 -8 1.74 0.38
3 -4 8 1.52 0.3
-3 4 -9 0.72 0.34
3 4 9 0.52 0.31
3 -4 9 0.02 0.27
-3 -4 -9 0.43 0.34
3 4 10 1.59 0.38
-3 4 -10 1.67 0.4
-3 -4 -10 1.66 0.41
3 -4 10 0.86 0.32
3 4 11 0.36 0.38
-3 4 -11 0.41 0.4
3 -4 11 0.36 0.33
-3 -4 -11 0.82 0.4
-3 5 12 0.33 0.37
-3 -5 12 0.49 0.4
-3 5 11 11.19 0.88
-3 -5 11 11.2 0.9
3 5 -10 4.86 0.48
-3 5 10 4.67 0.47
-3 5 10 5.12 0.47
3 -5 -10 3.77 0.43
-3 -5 10 5.01 0.51
-3 5 9 1.89 0.31
-3 5 9 1.58 0.27
3 5 -9 1.64 0.27
-3 -5 9 1.63 0.34
3 -5 -9 1.68 0.28
3 5 -8 0.63 0.2
-3 5 8 0.77 0.2
-3 5 8 0.87 0.24
-3 -5 8 0.51 0.27
-3 -5 8 0.63 0.16
3 -5 -8 0.72 0.22
-3 5 7 14.68 0.91
3 5 -7 14.38 0.92
-3 5 7 14.44 0.95
3 -5 -7 14.96 0.91
-3 -5 7 14.35 0.97
3 5 -6 34.09 2.17
-3 5 6 37.51 2.21
-3 5 6 37.71 2.14
3 -5 -6 36.13 2.17
-3 -5 6 38.66 2.14
-3 5 5 0.89 0.16
-3 5 5 0.51 0.13
-3 -5 5 1.24 0.16
-3 5 4 12.65 0.75
-3 5 4 11.64 0.73
3 5 -4 12.41 0.74
3 -5 -4 10.99 0.74
3 5 -3 62.08 3.57
-3 5 3 62.64 3.6
-3 5 3 60.33 3.5
3 -5 -3 60.01 3.58
-3 5 2 93.45 5.33
-3 5 2 92.58 5.36
-3 -5 2 88.98 5.33
3 5 -1 40.63 2.33
-3 5 1 38.25 2.3
-3 -5 1 38.78 2.3
3 5 0 27.01 1.47
-3 5 0 26.64 1.51
-3 5 0 24.58 1.47
3 -5 0 22.29 1.49
-3 -5 0 26.93 1.51
3 5 1 18.93 1.1
-3 5 -1 18.17 1.14
-3 5 -1 19.21 1.1
-3 -5 -1 18.85 1.14
3 -5 1 18.72 1.11
3 5 2 28.94 1.69
3 5 2 28.18 1.63
-3 5 -2 27.34 1.62
3 -5 2 28.07 1.66
-3 5 -3 0.72 0.17
3 5 3 1 0.15
3 5 3 0.72 0.16
-3 5 -3 0.73 0.11
3 -5 3 0.61 0.13
-3 -5 -3 0.66 0.16
-3 5 -4 15.29 0.96
-3 5 -4 14.62 0.87
3 5 4 14.57 0.94
3 5 4 15.33 0.9
-3 -5 -4 14.74 0.94
3 -5 4 14.69 0.92
3 5 5 0.78 0.17
-3 5 -5 1.39 0.24
-3 5 -5 1.03 0.1
3 5 5 0.98 0.19
3 -5 5 0.85 0.18
-3 -5 -5 0.88 0.23
3 5 6 0.19 0.22
3 5 6 -0.09 0.15
-3 5 -6 0.19 0.23
-3 -5 -6 0.11 0.25
3 -5 6 0.32 0.19
-3 5 -7 3.07 0.37
3 5 7 2.84 0.26
3 5 7 2.95 0.34
-3 -5 -7 2.07 0.36
3 -5 7 2.15 0.3
3 5 8 0.43 0.29
-3 5 -8 0.57 0.32
-3 -5 -8 -0.05 0.33
3 -5 8 0.16 0.25
3 5 9 0.44 0.32
-3 5 -9 0.44 0.33
-3 -5 -9 0.27 0.38
3 -5 9 -0.03 0.26
-3 5 -10 0.84 0.38
3 5 10 0.77 0.36
-3 -5 -10 0.39 0.38
3 -5 10 0.65 0.31
-3 5 -11 0.92 0.42
3 5 11 1.11 0.37
-3 -5 -11 0.73 0.41
3 -5 11 0.68 0.34
-3 6 12 -0.04 0.35
-3 -6 12 0.01 0.38
-3 6 11 4.92 0.51
-3 -6 11 4.9 0.55
-3 6 10 0.76 0.26
3 6 -10 0.64 0.27
-3 -6 10 0.8 0.31
3 -6 -10 0.51 0.27
3 6 -9 1.49 0.28
-3 6 9 1.44 0.3
-3 6 9 1.2 0.26
-3 -6 9 1.61 0.34
3 -6 -9 1.71 0.29
-3 6 8 0.44 0.22
3 6 -8 0.29 0.21
-3 6 8 0.38 0.23
-3 -6 8 0.48 0.17
3 -6 -8 0.49 0.21
-3 -6 8 0.3 0.27
3 6 -7 28.52 1.68
-3 6 7 28.43 1.64
-3 6 7 27.34 1.7
-3 -6 7 28.41 1.73
-3 -6 7 25.96 1.65
3 -6 -7 27.79 1.67
3 6 -6 0.62 0.19
-3 6 6 0.81 0.19
-3 6 6 0.79 0.18
-3 -6 6 1.04 0.18
3 -6 -6 0.71 0.19
3 6 -5 8.02 0.57
-3 6 5 8.69 0.56
3 -6 -5 8.18 0.55
-3 6 4 3.46 0.28
-3 6 4 3.68 0.31
3 -6 -4 2.5 0.26
-3 6 3 119.71 6.72
-3 6 3 109.95 6.53
-3 6 2 47.55 2.76
-3 6 2 48.56 2.77
-3 6 2 45.44 2.7
-3 -6 2 46.74 2.76
-3 6 1 22.53 1.33
-3 6 1 21.93 1.29
-3 -6 1 21.76 1.33
-3 6 0 20.62 1.23
3 6 0 19.98 1.18
-3 -6 0 20.04 1.22
-3 6 -1 0.03 0.05
-3 6 -1 -0.04 0.14
3 6 1 -0.02 0.12
3 6 1 -0.02 0.12
3 -6 1 -0.02 0.06
-3 -6 -1 -0.12 0.16
3 6 2 8.54 0.52
3 6 2 8.75 0.57
-3 6 -2 7.88 0.5
3 -6 2 8 0.5
-3 -6 -2 6.56 0.52
3 6 3 50.15 2.92
-3 6 -3 49.69 2.8
3 6 3 51.3 2.82
-3 6 -3 45.75 2.9
3 -6 3 48.59 2.9
3 6 4 0.42 0.16
-3 6 -4 0.86 0.19
-3 6 -4 0.54 0.12
3 6 4 0.5 0.17
3 -6 4 0.65 0.15
-3 -6 -4 0.62 0.21
3 6 5 20.82 1.25
-3 6 -5 20.6 1.21
-3 6 -5 21.85 1.33
3 6 5 21.1 1.31
3 -6 5 20.76 1.29
-3 -6 -5 21.16 1.31
-3 6 -6 4.48 0.43
3 6 6 4.5 0.37
3 6 6 4.31 0.41
-3 -6 -6 3.81 0.41
3 -6 6 4.57 0.43
-3 6 -7 3.61 0.4
3 6 7 2.9 0.36
3 6 7 3.54 0.33
-3 -6 -7 3.56 0.41
3 -6 7 2.57 0.33
3 6 8 1.56 0.3
-3 6 -8 1.69 0.36
3 -6 8 1.49 0.29
-3 -6 -8 1.23 0.36
-3 6 -9 2.9 0.43
3 6 9 2.12 0.38
3 -6 9 2.2 0.35
-3 -6 -9 2.32 0.45
3 6 10 0.06 0.34
-3 6 -10 0.16 0.4
3 -6 10 0.13 0.29
-3 -6 -10 0.35 0.39
-3 7 12 -0.18 0.35
-3 -7 12 -0.34 0.37
-3 7 11 0.41 0.33
-3 -7 11 1.05 0.39
-3 7 10 1.55 0.29
3 7 -10 1.42 0.31
-3 7 10 1.28 0.31
-3 -7 10 1.47 0.37
3 -7 -10 1.27 0.31
3 7 -9 1.27 0.28
-3 7 9 1.18 0.27
-3 7 9 1.04 0.28
-3 -7 9 1.22 0.31
3 -7 -9 1.21 0.27
-3 7 8 30.25 1.79
3 7 -8 30.21 1.78
-3 7 8 30.23 1.74
3 -7 -8 29.64 1.77
-3 -7 8 30.51 1.84
-3 -7 8 24.28 1.73
-3 7 7 1.03 0.23
3 7 -7 0.87 0.23
-3 7 7 0.95 0.21
-3 -7 7 1.04 0.2
3 -7 -7 0.92 0.23
-3 -7 7 1.08 0.28
-3 7 6 15.56 0.97
-3 7 6 15.98 0.99
3 7 -6 15.69 0.99
3 -7 -6 15.32 0.99
3 7 -5 2.45 0.26
-3 7 5 2.07 0.26
3 -7 -5 2.41 0.26
-3 7 4 1.04 0.14
-3 7 4 1.15 0.2
3 7 -4 1.02 0.2
3 -7 -4 1.48 0.21
3 7 -3 23.5 1.45
-3 7 3 24.23 1.42
3 -7 -3 24.24 1.45
3 7 -2 3.16 0.29
-3 7 2 3.35 0.29
-3 7 2 3.57 0.32
3 7 -2 3.22 0.27
-3 -7 2 3.11 0.31
3 7 -1 2.08 0.19
3 7 -1 1.39 0.16
-3 7 1 1.67 0.21
-3 7 1 1.91 0.19
-3 -7 1 2.09 0.23
-3 7 0 0.44 0.14
3 7 0 0.61 0.13
3 7 0 0.53 0.13
-3 7 0 0.45 0.16
-3 -7 0 0.36 0.18
-3 7 -1 18.4 1.1
3 7 1 17.58 1.05
-3 7 -1 18.32 1.05
3 7 1 15.84 1.1
3 -7 1 17.61 1.05
-3 -7 -1 18.59 1.1
3 7 2 1.02 0.17
-3 7 -2 0.44 0.14
3 7 2 0.61 0.18
-3 7 -2 0.42 0.11
3 -7 2 0.86 0.11
-3 -7 -2 0.72 0.19
3 7 3 12.93 0.79
3 7 3 13.24 0.83
-3 7 -3 11.5 0.83
3 -7 3 12.91 0.79
-3 7 -4 1.02 0.23
3 7 4 0.82 0.18
-3 7 -4 0.97 0.15
3 7 4 0.81 0.2
-3 -7 -4 0.9 0.24
3 -7 4 1.02 0.17
3 7 5 2.7 0.27
-3 7 -5 2.63 0.25
-3 7 -5 2.76 0.33
3 7 5 2.44 0.28
3 -7 5 2.54 0.26
-3 -7 -5 2.71 0.32
3 7 6 -0.01 0.17
-3 7 -6 0.05 0.26
3 7 6 0.06 0.22
-3 -7 -6 0.11 0.26
3 -7 6 0.03 0.19
3 7 7 -0.1 0.22
3 7 7 -0.08 0.19
-3 7 -7 0.26 0.29
3 -7 7 0.03 0.22
-3 -7 -7 0.16 0.29
3 7 8 -0.06 0.28
-3 7 -8 0.54 0.33
-3 -7 -8 -0.01 0.33
3 -7 8 0.06 0.25
3 7 9 0.19 0.31
-3 7 -9 0.42 0.37
3 -7 9 -0.09 0.27
-3 -7 -9 -0.26 0.35
-3 7 -10 0.9 0.41
3 7 10 0.8 0.37
3 -7 10 0.58 0.32
-3 -7 -10 1.06 0.42
-3 8 12 0.43 0.39
-3 -8 12 0.76 0.42
-3 8 11 2.29 0.38
-3 -8 11 1.26 0.41
-3 8 10 1.35 0.31
3 8 -10 1.12 0.32
-3 8 10 1 0.32
3 -8 -10 1.37 0.32
-3 -8 10 1.12 0.37
-3 8 9 3.27 0.39
-3 8 9 3.73 0.39
3 8 -9 3.38 0.39
3 -8 -9 3.77 0.39
-3 -8 9 3.3 0.43
-3 8 8 44.42 2.63
-3 8 8 45 2.7
3 8 -8 45.95 2.69
-3 -8 8 46.22 2.74
-3 -8 8 42.07 2.61
3 -8 -8 45.82 2.68
3 8 -7 9.8 0.71
-3 8 7 9.42 0.68
-3 8 7 9.13 0.67
-3 -8 7 10.17 0.74
-3 -8 7 10.22 0.67
3 -8 -7 8.96 0.66
-3 8 6 -0.08 0.19
3 8 -6 0.14 0.21
-3 8 6 -0.13 0.15
3 -8 -6 0 0.2
3 8 -5 27.37 1.63
-3 8 5 26.45 1.59
3 -8 -5 26.74 1.62
3 8 -4 62 3.66
-3 8 4 63.25 3.58
-3 8 4 61.63 3.66
3 -8 -4 62.05 3.66
-3 8 3 5.32 0.35
3 8 -3 5.01 0.45
3 8 -3 5.41 0.39
3 -8 -3 4.95 0.43
3 8 -2 16.56 1.05
-3 8 2 17.06 1.06
3 8 -2 16.67 1.02
-3 8 2 16.74 1.04
-3 -8 2 18.18 1.07
-3 8 1 28.09 1.68
3 8 -1 28.97 1.72
3 8 -1 27.47 1.67
-3 8 1 29.37 1.73
-3 -8 1 29.52 1.73
-3 8 0 40.71 2.41
-3 8 0 41.54 2.48
3 8 0 43.23 2.49
-3 -8 0 41.35 2.48
3 8 1 0.36 0.15
-3 8 -1 -0.01 0.14
-3 8 -1 -0.06 0.17
3 8 1 -0.24 0.12
3 -8 1 0.05 0.06
-3 -8 -1 0.18 0.2
3 8 2 30.25 1.74
-3 8 -2 31.79 1.74
3 8 2 30.49 1.82
-3 -8 -2 25.63 1.79
3 -8 2 30.5 1.76
-3 8 -3 0.28 0.2
-3 8 -3 0.38 0.15
3 8 3 0.26 0.17
3 8 3 0.3 0.19
3 -8 3 0.35 0.12
-3 -8 -3 0.04 0.16
3 8 4 1.19 0.21
-3 8 -4 1.19 0.25
-3 8 -4 0.61 0.13
3 8 4 1.08 0.22
3 -8 4 1.27 0.18
-3 -8 -4 1.39 0.26
-3 8 -5 0.67 0.26
3 8 5 0.83 0.22
3 8 5 0.67 0.2
3 -8 5 0.58 0.19
-3 -8 -5 0.94 0.27
3 8 6 9.89 0.71
-3 8 -6 9.28 0.76
3 8 6 8.93 0.63
3 -8 6 9.29 0.67
-3 -8 -6 9.76 0.71
3 8 7 0.27 0.22
-3 8 -7 0.28 0.31
3 8 7 0.04 0.26
-3 -8 -7 0.24 0.3
3 -8 7 0.09 0.23
-3 8 -8 3.66 0.46
3 8 8 3.12 0.38
3 -8 8 3.39 0.38
-3 -8 -8 3.65 0.46
3 8 9 2.68 0.4
-3 8 -9 2.16 0.44
3 -8 9 1.88 0.35
-3 -8 -9 1.46 0.44
-3 8 -10 1.22 0.43
3 8 10 0.71 0.36
3 -8 10 0.53 0.33
-3 -8 -10 0.4 0.42
-3 9 11 0.75 0.33
-3 9 11 0.6 0.31
-3 -9 11 0.12 0.38
3 9 -10 1.35 0.34
-3 9 10 0.98 0.32
-3 9 10 1.54 0.34
3 -9 -10 1.42 0.33
-3 -9 10 0.99 0.38
-3 9 9 0.25 0.29
3 9 -9 0.22 0.29
-3 9 9 0.27 0.26
3 -9 -9 0.24 0.28
-3 -9 9 0.18 0.32
-3 9 8 0.28 0.23
-3 9 8 0.53 0.27
3 9 -8 0.56 0.28
3 -9 -8 0.32 0.27
-3 -9 8 0.37 0.22
-3 -9 8 0.35 0.3
-3 9 7 0.35 0.25
-3 9 7 0.37 0.2
3 9 -7 -0.24 0.25
3 -9 -7 0.3 0.24
-3 -9 7 0.01 0.27
-3 9 6 7.81 0.59
3 9 -6 7.25 0.6
-3 9 6 7.37 0.54
3 -9 -6 7.77 0.57
3 9 -5 9.29 0.7
-3 9 5 9.07 0.64
3 -9 -5 9.54 0.66
3 9 -4 8.24 0.64
-3 9 4 8.32 0.56
-3 9 4 9.34 0.62
3 -9 -4 8.52 0.63
-3 9 3 4.16 0.33
3 9 -3 5.13 0.37
3 9 -3 5.52 0.44
3 -9 -3 4.97 0.43
3 9 -2 6.91 0.49
3 9 -2 6.79 0.51
-3 9 2 7.27 0.52
-3 9 2 7.36 0.54
-3 -9 2 7.08 0.55
3 9 -1 9.24 0.62
-3 9 1 9.28 0.63
3 9 -1 9.49 0.63
-3 9 1 9.87 0.67
-3 -9 1 9.37 0.66
-3 9 0 0.31 0.2
-3 9 0 0.63 0.19
3 9 0 0.64 0.15
-3 -9 0 0.57 0.23
3 9 1 3.12 0.31
-3 9 -1 3.98 0.4
-3 9 -1 4.09 0.35
3 9 1 3.92 0.35
-3 -9 -1 3.95 0.4
3 9 2 16.24 1.03
-3 9 -2 17.37 1.03
3 9 2 17.27 1.09
3 -9 2 16.87 1.01
3 9 3 0.15 0.19
3 9 3 0.07 0.22
-3 9 -3 0.04 0.16
3 -9 3 -0.04 0.12
-3 -9 -3 -0.15 0.04
-3 9 -4 1.3 0.2
-3 9 -4 1.32 0.28
3 9 4 1.18 0.23
3 9 4 1.28 0.26
-3 -9 -4 1.36 0.29
3 -9 4 1.06 0.19
3 9 5 -0.13 0.21
-3 9 -5 0.24 0.27
3 9 5 0.06 0.2
-3 -9 -5 0.02 0.27
3 -9 5 0.08 0.17
3 9 6 0.5 0.22
3 9 6 0.61 0.25
-3 9 -6 0.29 0.3
3 -9 6 0.26 0.21
-3 -9 -6 0.58 0.29
-3 9 -7 -0.11 0.32
3 9 7 0.22 0.22
3 9 7 -0.05 0.26
-3 -9 -7 0.49 0.32
3 -9 7 0.29 0.24
-3 9 -8 1.53 0.41
3 9 8 1.1 0.27
3 9 8 1.07 0.32
3 -9 8 1.35 0.3
-3 -9 -8 1.69 0.38
-3 9 -9 0.31 0.4
3 9 9 0.62 0.34
3 -9 9 0.08 0.3
-3 -9 -9 0.38 0.39
-3 9 -10 -0.03 0.43
-3 -9 -10 0.75 0.42
-3 10 11 0.07 0.32
-3 10 11 -0.02 0.32
-3 -10 11 0.27 0.39
-3 10 10 0.26 0.28
-3 10 10 0.61 0.31
3 10 -10 0.26 0.34
3 -10 -10 0.53 0.33
-3 -10 10 0.14 0.36
-3 10 9 -0.08 0.26
3 10 -9 0.32 0.31
-3 10 9 0.46 0.32
-3 -10 9 -0.02 0.32
3 -10 -9 -0.07 0.3
3 10 -8 11.45 0.87
-3 10 8 10.8 0.81
-3 10 8 11.43 0.8
-3 -10 8 11.36 0.87
-3 -10 8 12.26 0.78
3 -10 -8 10.62 0.8
3 10 -7 -0.09 0.27
-3 10 7 0.27 0.27
-3 10 7 0 0.2
-3 -10 7 -0.05 0.29
3 -10 -7 0.36 0.26
-3 10 6 24.46 1.53
3 10 -6 25.95 1.58
-3 10 6 25.67 1.54
3 -10 -6 24.74 1.55
-3 10 5 -0.22 0.1
3 10 -5 0.25 0.25
-3 10 5 0.27 0.22
3 -10 -5 0.31 0.24
-3 10 4 7.9 0.67
-3 10 4 10.5 0.65
3 10 -4 12.22 0.76
3 -10 -4 10.38 0.72
3 10 -3 10.39 0.67
3 -10 -3 9.69 0.72
3 10 -2 -0.02 0.18
-3 10 2 0.05 0.2
-3 10 2 0.05 0.21
3 10 -2 0 0.14
-3 -10 2 -0.14 0.24
3 10 -1 5.11 0.44
-3 10 1 5.35 0.46
-3 10 1 5.64 0.5
3 10 -1 5.96 0.44
-3 -10 1 5.35 0.48
-3 10 0 7.76 0.58
-3 10 0 8.31 0.64
3 10 0 9.63 0.61
-3 -10 0 8.34 0.63
3 10 1 1.01 0.19
3 10 1 0.91 0.2
-3 10 -1 0.95 0.23
-3 10 -1 1.02 0.21
-3 -10 -1 0.64 0.26
3 10 2 19.02 1.34
-3 10 -2 23.16 1.3
3 10 2 22.44 1.3
3 10 3 7.25 0.54
-3 10 -3 7.46 0.53
3 10 3 6.74 0.62
3 -10 3 6.93 0.48
3 10 4 0.29 0.22
3 10 4 0.25 0.23
-3 10 -4 0.26 0.2
-3 10 -4 0.17 0.27
-3 -10 -4 0.57 0.26
3 -10 4 -0.01 0.16
3 10 5 1.28 0.26
3 10 5 1.03 0.27
-3 10 -5 1.16 0.32
3 -10 5 1 0.22
-3 -10 -5 1.46 0.33
3 10 6 2.45 0.31
-3 10 -6 2.27 0.39
3 10 6 2.2 0.33
3 -10 6 2.34 0.3
-3 -10 -6 2.67 0.39
-3 10 -7 0.28 0.34
3 10 7 0.39 0.26
3 10 7 0.59 0.28
3 -10 7 0.63 0.26
-3 -10 -7 1.05 0.35
3 10 8 -0.01 0.26
3 10 8 -0.07 0.29
-3 10 -8 0.22 0.37
-3 -10 -8 0.47 0.36
3 -10 8 -0.1 0.27
-3 10 -9 0.76 0.43
3 10 9 0.61 0.34
3 -10 9 0.61 0.3
-3 -10 -9 1.24 0.41
3 11 -10 0.99 0.38
-3 11 10 0.75 0.35
3 -11 -10 1.13 0.37
-3 -11 10 0.85 0.4
-3 11 9 1.92 0.37
3 11 -9 1.56 0.38
3 -11 -9 2 0.38
-3 -11 9 1.74 0.39
3 11 -8 0.24 0.31
-3 11 8 0.24 0.3
3 -11 -8 0.11 0.31
-3 -11 8 0.17 0.34
3 11 -7 2.62 0.38
-3 11 7 2.43 0.38
3 -11 -7 2.83 0.38
-3 -11 7 3.24 0.4
-3 11 6 9.74 0.7
3 11 -6 9.17 0.72
3 -11 -6 8.63 0.69
3 11 -5 0.3 0.27
-3 11 5 0.37 0.27
3 -11 -5 0.89 0.28
3 11 -4 1.3 0.24
-3 11 4 1.02 0.27
3 11 -4 0.8 0.29
3 -11 -4 1.47 0.32
3 11 -3 8.37 0.59
3 -11 -3 8.45 0.65
-3 -11 3 7.92 0.64
3 11 -2 16.47 1.06
3 11 -2 16.94 1.05
-3 11 2 17.28 1.07
-3 -11 2 16.97 1.1
-3 11 1 8.27 0.61
3 11 -1 8.38 0.58
-3 11 1 8.52 0.65
3 11 -1 8.17 0.57
-3 -11 1 8.02 0.64
3 11 0 9.4 0.65
-3 11 0 9.07 0.7
-3 11 0 9.13 0.65
-3 -11 0 9.23 0.69
-3 11 -1 0.39 0.23
-3 11 -1 1.16 0.24
3 11 1 0.68 0.18
3 11 1 1.17 0.2
-3 -11 -1 0.87 0.29
3 11 2 2.06 0.25
-3 11 -2 2.05 0.26
3 11 2 1.06 0.22
-3 -11 -2 0.66 0.19
3 11 3 0.35 0.23
-3 11 -3 0.23 0.21
-3 11 -3 0.22 0.27
3 11 3 -0.03 0.23
-3 -11 -3 0.1 0.3
3 11 4 1.6 0.27
-3 11 -4 1.11 0.23
3 11 4 0.85 0.29
-3 11 -4 1.17 0.29
-3 -11 -4 1.22 0.31
3 11 5 0.62 0.29
3 11 5 0.56 0.25
-3 11 -5 0.58 0.33
-3 -11 -5 0.62 0.33
-3 11 -6 5.54 0.59
3 11 6 6.13 0.59
3 11 6 6.39 0.52
-3 -11 -6 6.75 0.63
3 11 7 0.45 0.29
-3 11 -7 0.23 0.37
3 11 7 0.02 0.26
-3 -11 -7 0.23 0.35
3 11 8 0.4 0.32
3 11 8 0.13 0.29
-3 11 -8 0.2 0.43
-3 -11 -8 0.39 0.37
3 11 9 -0.21 0.34
-3 11 -9 0.59 0.44
-3 -11 -9 0.21 0.4
-3 12 10 1.28 0.38
3 12 -10 1.27 0.41
3 -12 -10 1.26 0.4
-3 -12 10 1.31 0.42
-3 12 9 1.34 0.37
3 12 -9 1.16 0.4
3 -12 -9 1.58 0.39
-3 -12 9 1.82 0.4
-3 12 8 0.11 0.31
3 12 -8 0.07 0.31
3 -12 -8 0.49 0.34
-3 -12 8 0.09 0.35
3 12 -7 0.17 0.33
-3 12 7 0.24 0.31
3 -12 -7 -0.15 0.33
-3 -12 7 0.13 0.3
-3 12 6 1.3 0.31
3 12 -6 1.36 0.33
3 -12 -6 1.46 0.36
-3 12 5 2.3 0.34
3 12 -5 2.24 0.38
3 -12 -5 2.33 0.37
-3 12 4 7.35 0.58
3 12 -4 8.04 0.65
3 12 -4 6.66 0.56
3 -12 -4 7.43 0.62
-3 12 3 1.88 0.3
3 12 -3 1.75 0.26
3 -12 -3 1.97 0.35
-3 -12 3 2.19 0.37
-3 12 2 1.53 0.27
3 12 -2 1.6 0.27
3 12 -2 1.4 0.22
-3 -12 2 1.75 0.35
3 -12 -2 1.28 0.36
3 12 -1 13.7 0.89
-3 12 1 13.05 0.88
-3 12 1 13.71 0.94
3 12 -1 13.79 0.89
-3 -12 1 13.55 0.94
3 12 0 0.25 0.2
-3 12 0 0.16 0.23
3 12 0 0.31 0.17
-3 12 0 0.17 0.27
-3 -12 0 -0.22 0.28
3 12 1 1.75 0.23
3 12 1 1.19 0.27
-3 12 -1 1.26 0.27
-3 12 -1 1.29 0.29
-3 -12 -1 1.07 0.33
-3 12 -2 0.45 0.23
3 12 2 0.13 0.2
-3 12 -2 0.7 0.26
3 12 2 0.42 0.25
-3 -12 -2 0.71 0.33
-3 12 -3 7.82 0.67
3 12 3 7.14 0.58
-3 12 -3 8.29 0.59
3 12 3 6.16 0.59
-3 -12 -3 7.93 0.66
-3 12 -4 -0.09 0.22
3 12 4 -0.17 0.27
-3 12 -4 0.03 0.3
3 12 4 0 0.23
-3 -12 -4 0.26 0.33
3 12 5 1.99 0.35
-3 12 -5 2.08 0.4
3 12 5 2.08 0.32
-3 -12 -5 2.44 0.42
3 12 6 2.53 0.37
-3 12 -6 2.73 0.46
3 12 6 3.22 0.4
-3 -12 -6 3.14 0.45
3 12 7 0.01 0.3
-3 12 -7 0.04 0.38
3 12 7 0.46 0.27
-3 -12 -7 0.31 0.37
3 12 8 0.41 0.33
3 12 8 -0.03 0.28
-3 12 -8 0.1 0.42
-3 -12 -8 0.04 0.39
3 13 -9 -0.13 0.38
-3 13 9 0.18 0.35
-3 -13 9 0.11 0.36
3 -13 -9 -0.24 0.37
-3 13 8 0.14 0.34
3 13 -8 0.12 0.38
-3 -13 8 0.49 0.37
3 -13 -8 0.83 0.38
-3 13 7 -0.11 0.32
3 13 -7 -0.03 0.35
3 -13 -7 -0.13 0.33
-3 -13 7 0.26 0.34
-3 13 6 7.38 0.64
3 13 -6 8.06 0.75
3 -13 -6 6.62 0.67
3 13 -5 1.11 0.33
-3 13 5 1.27 0.31
3 -13 -5 1.07 0.34
3 13 -4 2.73 0.33
-3 13 4 2.54 0.38
3 -13 -4 2.81 0.41
3 13 -3 8.06 0.62
-3 13 3 7.72 0.66
-3 -13 3 8.07 0.69
3 -13 -3 8.26 0.71
3 13 -2 1.67 0.24
3 13 -2 1.47 0.29
-3 13 2 1.8 0.33
3 -13 -2 1.95 0.38
-3 -13 2 1.83 0.38
3 13 -1 -0.2 0.22
3 13 -1 0.06 0.18
-3 13 1 0.33 0.29
-3 13 1 0.12 0.24
-3 -13 1 -0.04 0.32
-3 13 0 7.96 0.68
-3 13 0 8.52 0.64
3 13 0 8.45 0.6
3 13 0 7.99 0.6
-3 -13 0 7.32 0.68
-3 13 -1 0.01 0.25
-3 13 -1 0.17 0.3
3 13 1 0.21 0.26
3 13 1 0.39 0.19
-3 -13 -1 0.23 0.33
-3 13 -2 0.55 0.31
3 13 2 0.64 0.22
3 13 2 0.86 0.28
-3 13 -2 0.67 0.25
-3 -13 -2 0.82 0.35
-3 13 -3 0.28 0.26
-3 13 -3 -0.2 0.31
3 13 3 0.09 0.26
3 13 3 -0.42 0.21
-3 -13 -3 -0.07 0.34
3 13 4 3.2 0.37
-3 13 -4 3.15 0.45
3 13 4 3.61 0.41
-3 13 -4 3.48 0.36
-3 -13 -4 3.37 0.47
3 13 5 0.7 0.32
-3 13 -5 0.88 0.36
3 13 5 0.49 0.29
-3 -13 -5 0.8 0.4
-3 13 -6 0.43 0.38
3 13 6 0.4 0.28
3 13 6 0.88 0.32
-3 -13 -6 0.26 0.39
-3 13 -7 0.18 0.41
3 13 7 0.12 0.31
3 13 7 0.15 0.33
-3 -13 -7 0.49 0.42
-3 14 9 1.89 0.42
3 14 -9 1.9 0.47
3 -14 -9 1.59 0.45
-3 14 8 0.19 0.36
3 14 -8 0.32 0.4
3 -14 -8 0.46 0.38
3 14 -7 0.43 0.39
-3 14 7 0.49 0.36
3 -14 -7 0.69 0.39
3 14 -6 -0.07 0.34
-3 14 6 -0.28 0.33
3 -14 -6 -0.31 0.35
3 14 -5 5.23 0.55
-3 14 5 5.52 0.54
3 -14 -5 5 0.54
-3 14 4 0.67 0.3
3 14 -4 0.38 0.24
3 -14 -4 0.65 0.36
-3 -14 4 0.76 0.4
-3 14 3 0.57 0.33
3 14 -3 1.3 0.3
3 -14 -3 1.17 0.38
-3 -14 3 1.46 0.41
3 14 -2 0.32 0.27
-3 14 2 0.89 0.29
3 -14 -2 0.7 0.38
-3 -14 2 0.25 0.36
3 14 -1 2.06 0.34
-3 14 1 1.87 0.33
-3 -14 1 2.22 0.41
-3 14 0 0.28 0.33
-3 14 0 0.44 0.29
3 14 0 0.24 0.26
-3 -14 0 0.56 0.37
3 14 1 3.53 0.33
3 14 1 2.93 0.38
-3 14 -1 2.97 0.37
-3 14 -1 2.46 0.42
-3 -14 -1 2.69 0.45
-3 14 -2 0.17 0.29
3 14 2 0.27 0.29
-3 14 -2 0.5 0.34
3 14 2 1.1 0.24
-3 -14 -2 0.49 0.38
-3 14 -3 -0.13 0.26
3 14 3 -0.09 0.28
3 14 3 -0.7 0.21
-3 14 -3 0.28 0.35
-3 -14 -3 -0.07 0.37
-3 14 -4 0.56 0.27
-3 14 -4 0.58 0.37
3 14 4 0.32 0.27
3 14 4 0.76 0.3
-3 -14 -4 0.51 0.4
3 14 5 1.33 0.33
-3 14 -5 1.61 0.42
3 14 5 1.67 0.36
-3 -14 -5 1.1 0.43
-3 14 -6 0.07 0.39
3 14 6 0.48 0.35
3 14 6 0.26 0.3
-3 -14 -6 0.72 0.42
-3 14 -7 -0.41 0.42
3 14 7 0.29 0.33
3 14 7 0.49 0.35
-3 -14 -7 0.53 0.43
3 15 -8 0.65 0.44
-3 15 8 0.84 0.39
3 -15 -8 0.27 0.4
-3 15 7 0.66 0.34
3 15 -7 -0.12 0.39
3 -15 -7 0.2 0.42
-3 15 6 -0.23 0.31
3 15 -6 -0.12 0.39
3 -15 -6 -0.09 0.37
-3 15 5 0.49 0.36
3 -15 -5 0.12 0.38
3 15 -4 0.66 0.29
-3 15 4 0.53 0.34
-3 -15 4 1.17 0.44
3 -15 -4 0.45 0.38
3 15 -3 2.23 0.33
-3 15 3 1.96 0.36
3 -15 -3 1.89 0.44
-3 -15 3 2.2 0.47
3 15 -2 -0.29 0.25
-3 15 2 0.14 0.32
-3 -15 2 0.1 0.39
3 -15 -2 0.23 0.39
3 15 -1 1.62 0.35
-3 15 1 1.67 0.37
-3 -15 1 1.72 0.43
3 15 0 1.1 0.32
-3 15 0 1.34 0.34
-3 15 0 0.84 0.36
-3 -15 0 0.68 0.4
3 15 1 3.94 0.45
-3 15 -1 4.17 0.45
-3 15 -1 4.5 0.51
-3 -15 -1 4.38 0.54
-3 15 -2 0.29 0.32
-3 15 -2 0.33 0.36
3 15 2 0.23 0.28
-3 -15 -2 -0.1 0.39
3 15 3 0.65 0.32
-3 15 -3 0.68 0.38
-3 15 -3 0.84 0.32
-3 -15 -3 0.41 0.42
-3 15 -4 1.91 0.34
3 15 4 1.61 0.36
-3 15 -4 1.49 0.42
-3 -15 -4 1.6 0.46
3 15 5 0.86 0.31
-3 15 -5 0.81 0.41
-3 -15 -5 0.28 0.43
3 15 6 -0.16 0.31
-3 15 -6 0.44 0.43
-3 -15 -6 0.15 0.44
-3 16 7 0.08 0.38
3 16 -7 -0.12 0.43
3 -16 -7 0.27 0.46
-3 16 6 1.05 0.4
3 -16 -6 0.68 0.46
-3 16 5 -0.43 0.32
-3 -16 5 0.87 0.48
3 -16 -5 0.35 0.41
3 16 -4 0.17 0.31
-3 16 4 0.23 0.36
3 -16 -4 0.05 0.4
-3 -16 4 0.07 0.48
3 16 -3 1.78 0.36
-3 16 3 1.72 0.4
3 -16 -3 1.79 0.46
-3 -16 3 2.22 0.52
-3 16 2 -0.01 0.34
3 16 -2 0.36 0.29
-3 -16 2 -0.3 0.42
3 -16 -2 -0.09 0.4
3 16 -1 1.95 0.38
-3 16 1 1.96 0.38
3 -16 -1 2.85 0.51
-3 -16 1 2.39 0.49
-3 16 0 0.64 0.35
-3 16 0 0.4 0.38
3 16 0 0.59 0.34
-3 -16 0 0.74 0.44
3 16 1 0.9 0.32
-3 16 -1 1.07 0.4
-3 16 -1 0.89 0.35
-3 -16 -1 1 0.4
-3 16 -2 0.09 0.38
3 16 2 -0.15 0.32
-3 16 -2 -0.21 0.31
-3 -16 -2 -0.29 0.42
3 16 3 0.45 0.34
-3 16 -3 0.07 0.39
-3 16 -3 -0.05 0.31
-3 -16 -3 -0.49 0.42
3 16 4 0.4 0.33
-3 16 -4 0.41 0.41
-3 -16 -4 0.1 0.47
-3 16 -5 -0.03 0.42
3 16 5 0.04 0.33
-3 -16 -5 0.18 0.46
-3 17 5 -0.06 0.38
3 -17 -5 0.02 0.43
-3 -17 5 0.05 0.5
-3 17 4 0.64 0.39
3 17 -4 -0.08 0.33
3 -17 -4 0.21 0.44
-3 -17 4 1.03 0.51
-3 17 3 0.4 0.38
3 17 -3 0.81 0.35
3 -17 -3 1.06 0.49
-3 -17 3 -0.08 0.47
3 17 -2 0.87 0.35
-3 17 2 0.57 0.38
3 -17 -2 1.08 0.47
-3 -17 2 0.6 0.47
-3 17 1 0.42 0.38
3 17 -1 -0.01 0.33
-3 -17 1 0.45 0.46
3 -17 -1 0.3 0.45
-3 17 0 1.66 0.41
3 17 0 1.58 0.36
-3 -17 0 1.71 0.52
3 17 1 0.22 0.35
-3 17 -1 0.27 0.39
-3 17 -1 0.6 0.36
-3 -17 -1 0.04 0.44
-3 17 -2 0.81 0.36
-3 17 -2 0.87 0.42
3 17 2 0.21 0.32
-3 -17 -2 0.51 0.46
3 17 3 2.62 0.44
-3 17 -3 3.02 0.45
-3 17 -3 3.22 0.51
-3 -17 -3 2.62 0.55
3 18 -3 0.23 0.33
-3 18 3 0.25 0.37
3 -18 -3 -0.2 0.46
-3 -18 3 -0.16 0.49
3 18 -2 0.21 0.37
-3 18 2 0.15 0.4
-3 -18 2 0.08 0.49
3 -18 -2 -0.19 0.47
3 18 -1 0.02 0.36
-3 18 1 0.44 0.4
3 -18 -1 0 0.48
-3 -18 1 0.78 0.5
3 18 0 -0.01 0.33
-3 18 0 0.28 0.39
3 -18 0 -0.13 0.48
-3 -18 0 -0.54 0.47
-3 18 -1 0.02 0.36
-3 18 -1 -0.27 0.41
3 18 1 0 0.37
-3 -18 -1 0.09 0.48
-4 0 13 -0.11 0.41
-4 0 12 0.11 0.38
-4 0 11 0.17 0.35
-4 0 10 5.15 0.51
-4 0 10 5 0.41
-4 0 9 -0.06 0.26
4 0 -9 0.11 0.15
-4 0 9 -0.1 0.15
4 0 -8 47.6 2.78
-4 0 8 48.78 2.87
-4 0 8 46.24 2.72
4 0 -7 0.04 0.1
-4 0 7 0.08 0.11
-4 0 7 -0.03 0.2
-4 0 6 17.64 1.02
-4 0 6 16.28 1.08
4 0 -6 17.24 1.01
-4 0 5 0.01 0.09
4 0 -5 0 0.05
-4 0 4 30.3 1.75
-4 0 3 0.01 0.08
-4 0 2 203.39 11.89
4 0 -2 207.23 12
-4 0 1 -0.09 0.08
4 0 -1 0.1 0.08
-4 0 1 0 0.07
-4 0 0 9.89 0.6
-4 0 0 9.89 0.62
4 0 0 9.73 0.62
-4 0 -1 0.02 0.08
-4 0 -1 -0.1 0.11
4 0 1 0.06 0.09
-4 0 -2 50.08 2.89
-4 0 -2 51.44 2.8
4 0 2 45.52 2.89
-4 0 -3 0.05 0.12
-4 0 -3 0.02 0.08
4 0 3 0.12 0.11
-4 0 -4 0.2 0.09
-4 0 -4 0.15 0.18
4 0 4 0.45 0.14
-4 0 -5 -0.26 0.08
-4 0 -5 -0.09 0.21
4 0 5 0.04 0.16
4 0 6 31.39 1.97
-4 0 -6 33.46 1.98
4 0 7 -0.23 0.21
-4 0 -7 -0.33 0.24
4 0 8 1.69 0.32
-4 0 -8 1.71 0.37
-4 0 -9 -0.28 0.35
4 0 9 0.17 0.29
-4 0 -10 0.71 0.42
4 0 10 0.27 0.33
4 0 11 -0.3 0.31
-4 0 -11 -0.07 0.41
-4 1 13 2.34 0.49
-4 -1 13 2.75 0.5
-4 1 12 -0.07 0.38
-4 -1 12 -0.09 0.34
-4 1 11 2.03 0.41
-4 -1 11 2.06 0.38
-4 1 10 0.61 0.33
-4 1 10 0.92 0.2
-4 -1 10 0.85 0.33
4 1 -9 1.07 0.17
-4 1 9 0.83 0.27
4 -1 -9 1.25 0.18
-4 -1 9 1.11 0.17
-4 -1 9 0.5 0.27
-4 1 8 0.36 0.24
4 1 -8 0.12 0.13
-4 1 8 0.15 0.13
-4 -1 8 0.02 0.18
4 -1 -8 0.32 0.13
-4 -1 8 0.22 0.13
-4 1 7 1.39 0.17
4 1 -7 1.63 0.15
-4 1 7 1.35 0.23
-4 -1 7 1.48 0.17
4 -1 -7 1.56 0.16
-4 -1 7 1.22 0.25
4 1 -6 23.55 1.45
-4 1 6 24.12 1.44
-4 1 6 24.7 1.53
-4 -1 6 25.84 1.45
4 -1 -6 25.79 1.46
-4 1 5 1.98 0.19
4 1 -5 2.06 0.17
4 -1 -5 2.68 0.19
-4 -1 5 2.2 0.23
-4 1 4 4.38 0.3
-4 -1 4 3.82 0.31
-4 1 3 28.41 1.54
4 1 -3 26.53 1.59
-4 -1 3 25.09 1.55
-4 1 2 0.12 0.05
4 1 -2 0.19 0.08
-4 1 2 0.02 0.05
4 -1 -2 0 0.07
-4 -1 2 0.18 0.06
-4 1 1 90.63 5.18
-4 1 1 91.06 5.3
4 1 -1 92.42 5.36
-4 -1 1 87.57 5.19
4 -1 -1 91.77 5.35
-4 -1 1 94.34 5.3
4 1 0 13.77 0.85
-4 1 0 12.53 0.82
-4 1 0 13.73 0.81
-4 -1 0 13.95 0.83
-4 -1 0 13.79 0.81
4 -1 0 13.83 0.84
-4 1 -1 4.49 0.39
4 1 1 6.06 0.39
-4 1 -1 5.22 0.35
-4 -1 -1 5.5 0.4
-4 -1 -1 5.75 0.36
4 -1 1 5.59 0.37
-4 1 -2 40.21 2.38
4 1 2 42.9 2.47
-4 1 -2 39.11 2.47
-4 -1 -2 42.12 2.47
-4 -1 -2 42.79 2.38
4 -1 2 43.26 2.47
4 1 3 34.73 2.06
-4 1 -3 33.55 1.97
4 -1 3 35.51 2.06
-4 -1 -3 34.45 1.98
4 1 4 0.27 0.16
-4 1 -4 -0.24 0.18
-4 1 -4 0.24 0.07
4 -1 4 0.08 0.13
-4 -1 -4 0 0.19
-4 -1 -4 0.06 0.08
4 1 5 0.77 0.19
-4 1 -5 1.06 0.26
-4 -1 -5 1.16 0.13
4 -1 5 1.25 0.21
-4 -1 -5 0.97 0.25
-4 1 -6 3.55 0.41
4 1 6 4 0.39
4 -1 6 4.45 0.39
-4 -1 -6 4.18 0.42
-4 1 -7 1.12 0.32
4 1 7 1.63 0.28
4 -1 7 1.45 0.26
-4 -1 -7 1.43 0.32
4 1 8 0.08 0.27
-4 1 -8 0.02 0.31
-4 -1 -8 0.52 0.31
4 -1 8 0.02 0.23
4 1 9 1.6 0.32
-4 1 -9 1.49 0.4
-4 -1 -9 1.81 0.43
4 -1 9 1.18 0.33
-4 1 -10 -0.13 0.38
4 1 10 0.05 0.29
-4 -1 -10 0.31 0.41
4 -1 10 0.05 0.28
4 1 11 0.51 0.37
-4 1 -11 0.35 0.42
4 -1 11 0.34 0.35
-4 -1 -11 0.64 0.41
-4 2 13 0.49 0.41
-4 -2 13 0.6 0.42
-4 2 12 0.81 0.4
-4 -2 12 0.55 0.39
-4 2 11 13.19 1
-4 -2 11 13.04 0.97
-4 2 10 0.66 0.29
-4 2 10 0.46 0.2
-4 -2 10 0.62 0.32
-4 2 9 8.02 0.69
-4 2 9 9.39 0.62
4 2 -9 9.07 0.62
-4 -2 9 9.3 0.6
4 -2 -9 9.61 0.63
-4 2 8 1.53 0.28
-4 2 8 1.6 0.2
4 2 -8 1.82 0.18
-4 -2 8 1.71 0.19
-4 2 7 2.24 0.24
4 2 -7 2.67 0.26
-4 2 7 2.81 0.31
4 -2 -7 3.46 0.29
-4 -2 7 2.94 0.28
4 2 -6 5.75 0.4
-4 2 6 6.35 0.46
-4 2 6 5.85 0.42
-4 -2 6 6.26 0.43
-4 2 5 118.62 6.71
4 2 -5 123.71 6.85
-4 2 5 119.31 6.94
4 -2 -5 123.46 6.85
-4 -2 5 105.65 6.72
4 2 -4 0.63 0.08
-4 2 4 0.55 0.11
4 -2 -4 0.78 0.09
-4 -2 4 0.44 0.13
-4 2 3 1.05 0.12
-4 2 3 1.05 0.1
-4 -2 3 1.14 0.12
-4 -2 3 1.16 0.15
-4 2 2 31.3 1.84
4 -2 -2 31.39 1.87
-4 -2 2 32.01 1.84
-4 2 1 224.06 12.56
-4 2 1 221.66 12.85
4 -2 -1 233.07 13.01
-4 -2 1 216.02 12.56
-4 -2 1 215.46 12.85
-4 2 0 10.53 0.61
-4 2 0 10.39 0.63
-4 -2 0 10.18 0.62
4 -2 0 10.09 0.63
-4 -2 0 9.38 0.6
-4 2 -1 143.56 8.39
-4 2 -1 149.75 8.18
4 -2 1 140.63 8.45
-4 -2 -1 143.94 8.38
-4 2 -2 2.88 0.29
-4 2 -2 3.39 0.23
-4 -2 -2 3.37 0.28
4 -2 2 3.14 0.26
-4 2 -3 3.74 0.36
4 2 3 5.14 0.35
-4 -2 -3 5.08 0.36
4 2 4 0.52 0.14
-4 2 -4 0.71 0.08
-4 2 -4 0.52 0.2
4 -2 4 0.7 0.16
-4 -2 -4 0.61 0.22
4 2 5 11.79 0.91
-4 2 -5 13.31 0.96
-4 -2 -5 16.6 0.99
4 -2 5 16.32 0.93
-4 2 -6 4.06 0.45
4 -2 6 4.88 0.42
-4 -2 -6 5.36 0.47
4 2 7 7.59 0.6
-4 2 -7 5.32 0.57
-4 -2 -7 7.45 0.67
4 -2 7 7.46 0.57
4 2 8 -0.01 0.25
-4 2 -8 -0.71 0.29
4 -2 8 0.61 0.27
-4 -2 -8 0.37 0.3
4 2 9 3.48 0.4
-4 2 -9 2.31 0.45
-4 -2 -9 4.07 0.47
4 -2 9 2.97 0.39
4 2 10 0.7 0.35
-4 2 -10 -0.21 0.38
4 -2 10 0.63 0.3
-4 -2 -10 0.77 0.4
-4 2 -11 -0.88 0.41
4 2 11 -0.23 0.32
4 -2 11 -0.36 0.29
-4 -2 -11 0.27 0.41
-4 3 13 0.28 0.37
-4 -3 13 0.31 0.39
-4 3 12 0.61 0.39
-4 -3 12 1.04 0.37
-4 3 11 7.62 0.72
-4 -3 11 9.38 0.79
-4 3 10 3.13 0.31
-4 3 10 3 0.39
-4 -3 10 3.04 0.43
4 3 -9 1.78 0.23
-4 3 9 1.72 0.32
-4 3 9 1.76 0.24
4 -3 -9 1.96 0.25
-4 -3 9 1.91 0.34
-4 -3 9 1.88 0.21
-4 3 8 0.59 0.18
-4 3 8 0.49 0.24
-4 -3 8 0.78 0.15
-4 -3 8 0.19 0.13
-4 3 7 6.99 0.55
4 3 -7 7.25 0.47
-4 3 7 6.79 0.47
4 -3 -7 5.98 0.46
-4 -3 7 6.69 0.54
-4 -3 7 7.44 0.48
-4 3 6 34.69 2.05
4 3 -6 37.32 2.08
-4 3 6 36.58 2.14
-4 -3 6 31.22 2.06
4 -3 -6 37.16 2.08
4 3 -5 1.34 0.14
-4 3 5 1.11 0.16
-4 3 5 1.17 0.18
-4 -3 5 1.65 0.19
4 -3 -5 1.49 0.15
4 3 -4 1.01 0.11
-4 3 4 0.93 0.14
4 -3 -4 0.93 0.12
-4 -3 4 1 0.16
-4 3 3 23.52 1.42
-4 -3 3 24.06 1.42
-4 -3 3 24.96 1.41
-4 3 2 6.08 0.4
-4 -3 2 6.24 0.39
-4 3 1 30 1.82
-4 3 1 31.2 1.79
-4 -3 1 30.52 1.82
4 -3 -1 32.6 1.83
-4 3 0 63.66 3.7
-4 3 0 62.62 3.61
-4 -3 0 63.72 3.7
4 -3 0 64.01 3.73
-4 3 -1 1.31 0.13
-4 3 -1 1.45 0.16
-4 -3 -1 1.22 0.16
4 -3 1 1.4 0.13
-4 3 -2 1.55 0.19
4 3 2 1.05 0.16
-4 3 -2 1.51 0.15
4 -3 2 1.3 0.14
-4 -3 -2 1.3 0.18
-4 3 -3 33.93 1.88
4 3 3 31.63 1.97
4 -3 3 33.12 1.96
-4 3 -4 31.51 1.64
4 3 4 24.12 1.73
-4 3 -4 29.02 1.75
4 -3 4 30.44 1.73
-4 -3 -4 28.46 1.74
-4 3 -5 4.22 0.41
4 -3 5 4.5 0.4
-4 -3 -5 4.4 0.43
4 3 6 -0.12 0.04
-4 3 -6 -0.27 0.24
-4 -3 -6 -0.17 0.27
4 -3 6 -0.12 0.2
-4 3 -7 0.13 0.28
4 3 7 0.11 0.25
4 -3 7 0.29 0.23
-4 -3 -7 -0.44 0.28
4 3 8 0.96 0.31
-4 3 -8 0.05 0.32
4 -3 8 0.57 0.27
-4 -3 -8 1.03 0.35
-4 3 -9 1.95 0.48
4 3 9 4.16 0.45
-4 -3 -9 5.09 0.51
4 -3 9 4.05 0.42
4 3 10 0.12 0.35
-4 3 -10 -0.97 0.35
-4 -3 -10 0.21 0.37
4 -3 10 0.23 0.31
-4 4 13 0.68 0.4
-4 -4 13 0.78 0.41
-4 4 12 0.03 0.33
-4 -4 12 -0.06 0.35
-4 4 11 0.53 0.34
-4 -4 11 0.03 0.35
-4 4 10 0.4 0.3
-4 4 10 0.51 0.23
-4 -4 10 0.83 0.32
4 4 -9 14.23 0.94
-4 4 9 14.63 1.02
-4 4 9 15.05 0.93
-4 -4 9 14.71 0.91
-4 -4 9 15.05 1.02
-4 4 8 16.02 1.03
4 4 -8 14.87 0.95
-4 4 8 15.15 0.95
4 -4 -8 14.24 0.96
-4 -4 8 16.16 0.94
-4 -4 8 15.64 1.05
-4 4 7 0.6 0.17
-4 4 7 0.79 0.21
-4 -4 7 0.45 0.16
-4 4 6 24.42 1.43
-4 4 6 24.9 1.49
4 4 -6 25.2 1.45
4 -4 -6 24.88 1.44
-4 -4 6 21.62 1.44
4 4 -5 7.8 0.51
-4 4 5 7.65 0.52
4 -4 -5 7.92 0.51
-4 -4 5 8.7 0.55
4 4 -4 49.15 2.92
-4 4 4 50.56 2.96
-4 4 4 48.17 2.87
-4 -4 4 53.36 2.88
4 -4 -4 49.76 2.93
4 4 -3 4.98 0.4
-4 4 3 5.65 0.38
-4 -4 3 5.87 0.37
-4 4 2 43.23 2.57
-4 -4 2 44.57 2.57
-4 4 1 7.99 0.52
4 -4 -1 7.87 0.5
-4 -4 1 8.68 0.53
-4 4 0 5.45 0.36
-4 4 0 5.52 0.39
-4 -4 0 5.29 0.38
4 -4 0 5.38 0.36
-4 4 -1 9.67 0.58
4 4 1 9.06 0.64
-4 4 -1 9.62 0.62
4 -4 1 9.37 0.59
-4 -4 -1 9.69 0.61
4 4 2 2.07 0.21
-4 4 -2 1.92 0.19
-4 4 -2 1.88 0.2
-4 -4 -2 2.07 0.22
4 -4 2 1.84 0.2
4 4 3 3.49 0.32
-4 4 -3 3.74 0.26
4 -4 3 3.48 0.29
-4 4 -4 14.53 0.92
-4 4 -4 13.9 0.81
4 4 4 13.76 0.88
4 -4 4 14.4 0.87
-4 -4 -4 12.67 0.87
4 4 5 0.6 0.21
-4 4 -5 0.52 0.24
4 -4 5 0.59 0.18
-4 -4 -5 0.89 0.26
4 4 6 1.42 0.26
-4 4 -6 1.5 0.3
4 -4 6 1.54 0.25
-4 -4 -6 1.21 0.32
4 4 7 3.11 0.36
-4 4 -7 3.28 0.39
4 -4 7 2.65 0.32
-4 -4 -7 2.52 0.42
-4 4 -8 2.56 0.42
4 4 8 3.32 0.39
-4 -4 -8 2.96 0.45
4 -4 8 3.19 0.36
4 4 9 0.51 0.33
-4 4 -9 0.07 0.36
4 -4 9 0.31 0.26
-4 -4 -9 0.38 0.38
-4 4 -10 -0.52 0.4
4 4 10 0.52 0.33
4 -4 10 0.45 0.32
-4 -4 -10 0.65 0.39
-4 5 13 2.39 0.47
-4 -5 13 2.6 0.51
-4 5 12 0.18 0.36
-4 -5 12 0.44 0.4
-4 5 11 1.66 0.37
-4 -5 11 1.61 0.41
-4 5 10 -0.04 0.24
-4 5 10 0.23 0.29
-4 -5 10 0.09 0.29
-4 5 9 43.23 2.59
-4 5 9 44.18 2.49
4 5 -9 42.77 2.53
-4 -5 9 43.62 2.47
-4 -5 9 43.91 2.62
4 -5 -9 38.23 2.53
-4 5 8 -0.02 0.18
4 5 -8 -0.02 0.18
-4 5 8 0.21 0.22
4 -5 -8 0.24 0.19
-4 -5 8 0.3 0.27
-4 -5 8 0.08 0.16
-4 5 7 4.26 0.37
4 5 -7 3.92 0.36
-4 5 7 4.64 0.44
-4 -5 7 3.37 0.34
4 -5 -7 4.13 0.34
-4 5 6 0.07 0.15
-4 5 6 0.16 0.15
-4 -5 6 0.23 0.16
-4 5 5 7.74 0.5
4 5 -5 7.15 0.5
-4 -5 5 8.34 0.52
4 -5 -5 6.76 0.49
-4 5 4 54.12 3.17
4 5 -4 55.16 3.23
-4 5 4 56.7 3.27
4 -5 -4 55.36 3.24
-4 5 3 160.51 9.4
4 5 -3 160.03 9.5
-4 5 3 166.52 9.48
-4 -5 3 161.48 9.4
4 5 -2 2.74 0.26
-4 5 2 2.37 0.22
-4 5 2 2.41 0.22
-4 -5 2 2.5 0.23
-4 5 1 8.02 0.51
-4 5 1 7.43 0.49
4 5 -1 8.43 0.52
-4 -5 1 7.75 0.51
4 -5 -1 7.28 0.47
-4 5 0 28.44 1.67
4 -5 0 26.03 1.65
-4 -5 0 29.82 1.67
-4 5 -1 19.54 1.32
4 5 1 24.11 1.4
-4 5 -1 23.75 1.37
4 -5 1 23.01 1.35
-4 -5 -1 23.52 1.37
-4 5 -2 8.93 0.56
4 5 2 9.13 0.64
-4 5 -2 9.35 0.62
4 5 2 8.82 0.57
4 -5 2 8.97 0.57
-4 -5 -2 9.17 0.61
4 5 3 29.05 1.68
-4 5 -3 29.4 1.66
4 5 3 28.53 1.75
4 -5 3 28.51 1.72
4 5 4 3.84 0.31
4 5 4 3.66 0.38
-4 5 -4 3.39 0.26
-4 5 -4 4.17 0.41
-4 -5 -4 3.06 0.32
4 -5 4 3.77 0.32
-4 5 -5 2.51 0.31
4 5 5 2.15 0.27
4 5 5 2.07 0.22
4 -5 5 1.94 0.24
-4 -5 -5 1.6 0.27
-4 5 -6 2.54 0.36
4 5 6 2.12 0.28
-4 -5 -6 2.17 0.35
4 -5 6 2.35 0.28
-4 5 -7 7.33 0.67
4 5 7 5.94 0.54
4 -5 7 6.68 0.53
-4 -5 -7 5.28 0.57
-4 5 -8 0.47 0.35
4 5 8 0.85 0.31
-4 -5 -8 0.21 0.36
4 -5 8 0.5 0.26
-4 5 -9 0.6 0.38
4 5 9 0.46 0.33
-4 -5 -9 -0.17 0.36
4 -5 9 -0.03 0.28
4 5 10 0.1 0.35
-4 5 -10 0.17 0.39
-4 -5 -10 0.93 0.4
4 -5 10 0.11 0.3
-4 6 12 1.05 0.37
-4 -6 12 0.99 0.42
-4 6 11 1.13 0.3
-4 6 11 1.52 0.35
-4 -6 11 0.71 0.39
-4 6 10 0.19 0.29
-4 6 10 0.05 0.24
-4 -6 10 0.28 0.33
-4 6 9 6.43 0.58
4 6 -9 6 0.53
-4 6 9 6.24 0.51
-4 -6 9 6.12 0.48
-4 -6 9 6.67 0.6
4 -6 -9 6.1 0.5
-4 6 8 0.44 0.21
4 6 -8 0.43 0.21
-4 6 8 0.4 0.23
-4 -6 8 0.27 0.19
4 -6 -8 0.23 0.2
-4 -6 8 0.53 0.29
4 6 -7 -0.05 0.17
-4 6 7 0.03 0.18
-4 6 7 0.16 0.18
4 -6 -7 -0.09 0.17
-4 -6 7 -0.11 0.18
-4 6 6 1.25 0.21
4 6 -6 1.3 0.19
-4 6 6 1.18 0.2
-4 -6 6 1.73 0.22
4 -6 -6 1.24 0.2
4 -6 -5 36.98 2.18
-4 6 4 11.95 0.72
-4 6 4 10.87 0.72
-4 6 3 21.74 1.27
4 6 -3 20.82 1.3
-4 6 3 21.43 1.28
-4 -6 3 21.14 1.28
-4 6 2 20.98 1.26
4 6 -2 21.03 1.27
-4 6 2 20.83 1.23
-4 6 2 20.56 1.23
-4 -6 2 20.7 1.26
4 6 -1 28.58 1.59
-4 6 1 25.12 1.52
-4 6 1 25.33 1.56
-4 -6 1 25.68 1.56
4 6 0 2.9 0.28
4 6 0 3.49 0.27
-4 6 0 3.8 0.28
-4 6 0 3.79 0.32
4 -6 0 3 0.23
-4 -6 0 3.77 0.32
4 6 1 4.53 0.35
4 6 1 4.41 0.41
-4 6 -1 4.92 0.39
-4 -6 -1 4.37 0.38
4 -6 1 4.36 0.3
4 6 2 7.8 0.59
4 6 2 8.79 0.54
-4 6 -2 8.17 0.59
4 -6 2 7.87 0.52
-4 -6 -2 8.71 0.58
4 6 3 4.6 0.43
-4 6 -3 4.62 0.33
4 6 3 4.6 0.36
4 -6 3 4.57 0.36
-4 6 -4 0.13 0.12
-4 6 -4 0.25 0.11
4 6 4 0.4 0.19
4 6 4 0.14 0.16
4 -6 4 0.25 0.15
-4 -6 -4 -0.04 0.08
4 6 5 4.29 0.37
4 6 5 4.16 0.44
-4 6 -5 4.08 0.41
-4 -6 -5 4.12 0.4
4 -6 5 3.88 0.37
-4 6 -6 1.99 0.34
4 6 6 1.41 0.26
4 6 6 1.76 0.24
4 -6 6 1.63 0.25
-4 -6 -6 1.9 0.33
-4 6 -7 16.32 1.08
4 6 7 15.06 1.02
4 -6 7 13.94 0.97
-4 -6 -7 14.28 1.03
-4 6 -8 4.99 0.54
4 6 8 4.86 0.48
-4 -6 -8 4.35 0.55
4 -6 8 5.01 0.49
4 6 9 0.27 0.33
-4 6 -9 0.26 0.37
4 -6 9 -0.28 0.28
-4 -6 -9 -0.11 0.41
4 6 10 -0.17 0.35
-4 6 -10 0.23 0.41
4 -6 10 -0.16 0.32
-4 -6 -10 0.32 0.41
-4 7 12 0.54 0.36
-4 -7 12 0.92 0.42
-4 7 11 0.15 0.31
-4 7 11 0.2 0.29
-4 -7 11 0.32 0.38
-4 7 10 1.34 0.29
-4 7 10 1.3 0.32
-4 -7 10 1.12 0.34
-4 7 9 0.66 0.26
-4 7 9 0.48 0.27
4 7 -9 0.87 0.27
-4 -7 9 0.65 0.33
4 -7 -9 0.6 0.24
-4 -7 9 0.56 0.22
-4 7 8 0.64 0.22
-4 7 8 0.16 0.22
4 7 -8 0.45 0.22
-4 -7 8 0.16 0.21
4 -7 -8 0.45 0.22
-4 -7 8 0.02 0.29
-4 7 7 31.58 1.9
4 7 -7 31.68 1.88
-4 7 7 29.96 1.84
-4 -7 7 32 1.85
4 -7 -7 31 1.87
-4 7 6 47.07 2.79
-4 7 6 47.87 2.86
4 7 -6 46.9 2.84
4 -7 -6 47.5 2.84
-4 -7 6 51.15 2.79
-4 7 5 1.15 0.22
4 7 -5 1.33 0.21
4 -7 -5 1.53 0.22
4 7 -4 4.99 0.41
-4 7 4 5.34 0.37
-4 7 4 5.17 0.39
4 -7 -4 5.08 0.42
-4 7 3 8.29 0.51
-4 7 3 8.07 0.56
4 7 -3 8.33 0.57
-4 -7 3 8.18 0.56
-4 7 2 11.81 0.77
-4 7 2 12.77 0.79
4 7 -2 12.76 0.8
-4 -7 2 12.34 0.79
4 7 -1 80.08 4.48
-4 7 1 73.19 4.34
-4 7 1 74.91 4.44
-4 -7 1 75.69 4.44
-4 7 0 7.49 0.55
-4 7 0 7.55 0.51
4 7 0 6.97 0.55
4 7 0 7.96 0.52
-4 -7 0 8.35 0.55
4 7 1 17.44 1.04
4 7 1 16.86 1.09
-4 7 -1 16.61 1.08
-4 7 -1 16.9 1.03
4 -7 1 17.32 1.02
-4 -7 -1 18.09 1.08
-4 7 -2 1.38 0.21
4 7 2 1.27 0.2
4 7 2 1.16 0.23
-4 7 -2 1.45 0.18
4 -7 2 1.38 0.14
-4 -7 -2 1.36 0.24
4 7 3 25.49 1.57
4 7 3 26.09 1.51
4 -7 3 25.06 1.53
4 7 4 5.5 0.5
4 7 4 6.14 0.44
-4 7 -4 5.26 0.39
4 -7 4 6 0.43
4 7 5 2.05 0.29
-4 7 -5 2.29 0.34
4 7 5 2.18 0.25
4 -7 5 2.32 0.25
-4 -7 -5 2.01 0.3
4 7 6 1.52 0.24
4 7 6 1.28 0.26
-4 7 -6 1.82 0.34
4 -7 6 1.6 0.24
-4 -7 -6 1.33 0.32
4 7 7 2.73 0.37
-4 7 -7 2.93 0.42
4 7 7 2.83 0.31
4 -7 7 2.42 0.32
-4 -7 -7 2.94 0.43
4 7 8 0.19 0.28
-4 7 -8 0.63 0.37
4 -7 8 0.08 0.26
-4 -7 -8 0.02 0.35
4 7 9 0.31 0.34
-4 7 -9 0.46 0.39
4 -7 9 0.65 0.29
-4 -7 -9 0.23 0.4
4 7 10 -0.21 0.36
-4 7 -10 0.4 0.43
-4 -7 -10 0.58 0.42
4 -7 10 0.38 0.32
-4 8 12 0.29 0.35
-4 -8 12 0.13 0.41
-4 8 11 0.36 0.33
-4 8 11 0.37 0.32
-4 -8 11 0.73 0.39
-4 8 10 -0.17 0.28
-4 8 10 0.03 0.27
-4 -8 10 -0.1 0.34
-4 8 9 0.83 0.26
4 8 -9 0.7 0.27
-4 8 9 0.82 0.27
4 -8 -9 0.6 0.27
-4 -8 9 1.16 0.35
4 8 -8 3.93 0.39
-4 8 8 3.56 0.38
-4 8 8 3.56 0.36
4 -8 -8 4.21 0.41
-4 -8 8 3.53 0.44
-4 -8 8 3.89 0.38
4 8 -7 9.64 0.71
-4 8 7 9.51 0.69
-4 8 7 9.82 0.69
-4 -8 7 10.21 0.68
4 -8 -7 9.74 0.68
-4 8 6 11.91 0.79
-4 8 6 11.64 0.76
4 8 -6 11.66 0.79
4 -8 -6 11.53 0.77
-4 8 5 2.18 0.28
4 8 -5 2.27 0.27
4 -8 -5 2.29 0.28
-4 8 4 2.35 0.2
-4 8 4 2.28 0.27
4 -8 -4 2.84 0.29
-4 8 3 18.39 1.19
-4 8 3 20.63 1.18
4 8 -3 19.64 1.23
-4 -8 3 20.37 1.22
4 8 -2 10.4 0.7
-4 8 2 10.77 0.71
-4 8 2 10.77 0.7
-4 -8 2 10.52 0.7
-4 8 1 28.76 1.76
-4 8 1 28.94 1.72
4 8 -1 30.09 1.77
-4 -8 1 29.24 1.76
4 8 0 9.25 0.6
-4 8 0 9.49 0.65
-4 8 0 9.57 0.61
4 8 0 8.96 0.65
-4 -8 0 9.24 0.65
4 8 1 1.6 0.23
4 8 1 1.64 0.23
-4 8 -1 1.69 0.21
-4 8 -1 1.65 0.25
4 -8 1 2.2 0.17
-4 -8 -1 1.63 0.27
-4 8 -2 0.77 0.17
4 8 2 0.91 0.2
-4 8 -2 0.47 0.22
4 8 2 0.7 0.22
-4 -8 -2 0.55 0.24
4 -8 2 0.68 0.11
-4 8 -3 1.69 0.21
4 8 3 1.72 0.24
4 8 3 1.8 0.26
4 -8 3 1.81 0.18
4 8 4 1.66 0.27
4 8 4 1.78 0.24
-4 8 -4 1.21 0.19
4 -8 4 1.73 0.21
4 8 5 0.05 0.22
-4 8 -5 0.15 0.27
4 8 5 -0.17 0.19
4 -8 5 0.03 0.18
-4 -8 -5 -0.07 0.26
4 8 6 2.84 0.35
-4 8 -6 2.75 0.4
4 8 6 3.03 0.31
-4 -8 -6 3.02 0.39
4 -8 6 2.6 0.31
-4 8 -7 0.22 0.34
4 8 7 0.28 0.28
4 8 7 -0.06 0.23
-4 -8 -7 -0.08 0.32
4 -8 7 0.11 0.24
4 8 8 0.37 0.32
-4 8 -8 0.6 0.38
-4 -8 -8 0.09 0.37
4 -8 8 0.34 0.26
4 8 9 -0.01 0.34
-4 8 -9 0.49 0.44
4 -8 9 0.36 0.31
-4 -8 -9 0.48 0.4
-4 9 11 0.19 0.33
-4 9 11 -0.11 0.3
-4 -9 11 0.19 0.39
-4 9 10 8.48 0.69
-4 9 10 8.4 0.7
-4 -9 10 9.22 0.79
-4 9 9 2.53 0.36
4 9 -9 2.69 0.36
-4 9 9 2.52 0.33
-4 -9 9 2.12 0.41
4 -9 -9 3.07 0.37
-4 9 8 1.44 0.27
4 9 -8 1.65 0.31
-4 9 8 1.79 0.31
-4 -9 8 1.88 0.36
-4 -9 8 2.26 0.31
4 -9 -8 1.75 0.31
4 9 -7 2.65 0.34
-4 9 7 2.84 0.3
-4 9 7 3.05 0.36
-4 -9 7 3.84 0.34
4 -9 -7 2.96 0.35
-4 9 6 8.01 0.58
4 9 -6 8.87 0.64
-4 9 6 8.31 0.62
4 -9 -6 8.03 0.62
-4 9 5 0.59 0.21
-4 9 5 0.23 0.1
4 9 -5 0.68 0.23
4 -9 -5 0.54 0.24
-4 9 4 19.15 1.16
4 -9 -4 19.32 1.2
4 9 -3 12.72 0.82
-4 9 3 11.94 0.74
-4 9 3 12.66 0.79
-4 -9 3 12.66 0.83
-4 9 2 16.73 1.02
4 9 -2 16.21 1.03
4 9 -2 16.3 1
-4 9 2 16.66 1.05
-4 -9 2 16.39 1.05
4 9 -1 3.5 0.31
4 9 -1 3.67 0.35
-4 9 1 3.51 0.33
-4 9 1 2.99 0.3
-4 -9 1 2.9 0.33
-4 9 0 23.64 1.44
4 9 0 24.66 1.44
4 9 0 24.59 1.49
-4 9 0 23.94 1.49
-4 -9 0 23.84 1.48
-4 9 -1 -0.06 0.17
4 9 1 -0.24 0.16
-4 9 -1 -0.14 0.2
4 9 1 -0.4 0.15
-4 -9 -1 -0.19 0.24
-4 9 -2 0.11 0.18
4 9 2 0.12 0.2
4 9 2 0.18 0.21
-4 9 -2 -0.13 0.19
-4 -9 -2 0.2 0.25
4 -9 2 -0.03 0.09
-4 9 -3 0.54 0.19
4 9 3 0.72 0.24
4 9 3 0.7 0.22
4 -9 3 0.7 0.14
4 9 4 19.1 1.15
-4 9 -4 18.4 1.23
-4 9 -4 19.56 1.13
4 9 4 19.05 1.23
-4 -9 -4 16.71 1.2
4 -9 4 19.52 1.16
-4 9 -5 0.31 0.3
4 9 5 0.57 0.23
4 9 5 0.77 0.27
-4 -9 -5 0.78 0.31
4 -9 5 0.67 0.2
4 9 6 2.56 0.34
-4 9 -6 2.58 0.41
4 9 6 2.17 0.3
4 -9 6 2.38 0.29
-4 -9 -6 2.11 0.38
4 9 7 -0.03 0.28
-4 9 -7 0.31 0.35
4 9 7 0.01 0.23
4 -9 7 0.05 0.23
-4 -9 -7 0.45 0.35
4 9 8 0.1 0.31
-4 9 -8 0.3 0.39
4 -9 8 -0.01 0.27
-4 -9 -8 0.15 0.36
4 9 9 0.47 0.35
-4 9 -9 0.38 0.43
-4 -9 -9 1.15 0.42
4 -9 9 0.68 0.3
-4 10 11 0.84 0.36
-4 10 11 0.49 0.34
-4 -10 11 0.52 0.41
-4 10 10 1.55 0.32
-4 10 10 1.52 0.37
-4 -10 10 2.08 0.43
-4 10 9 0.63 0.31
4 10 -9 0.69 0.31
-4 10 9 0.65 0.27
-4 -10 9 0.64 0.36
4 -10 -9 0.5 0.3
-4 10 8 1.87 0.34
4 10 -8 2.1 0.34
-4 10 8 1.79 0.28
-4 -10 8 1.53 0.36
-4 -10 8 2.23 0.31
4 -10 -8 1.95 0.33
-4 10 7 -0.03 0.24
4 10 -7 0.13 0.27
-4 10 7 -0.06 0.19
4 -10 -7 0.03 0.27
4 10 -6 0.24 0.26
-4 10 6 0.23 0.23
-4 10 6 0.36 0.18
4 -10 -6 0.61 0.27
4 10 -5 12.22 0.84
-4 10 5 12.78 0.84
4 -10 -5 12.38 0.85
-4 -10 4 24.26 1.49
4 -10 -4 23.88 1.5
4 10 -3 6.94 0.52
4 -10 -3 6.12 0.54
-4 -10 3 6.71 0.54
-4 10 2 3.47 0.35
-4 10 2 3.61 0.36
4 10 -2 3.35 0.36
4 10 -2 3.88 0.37
-4 -10 2 3.65 0.38
-4 10 1 4.27 0.44
4 10 -1 4.34 0.39
-4 10 1 3.94 0.37
-4 -10 1 3.98 0.42
-4 10 0 6.97 0.59
-4 10 0 7.12 0.55
4 10 0 8.29 0.57
-4 -10 0 7.08 0.58
-4 10 -1 7.87 0.62
-4 10 -1 7.41 0.56
4 10 1 7.89 0.57
-4 -10 -1 7.85 0.61
-4 10 -2 0.36 0.19
4 10 2 0.47 0.21
4 10 2 0.35 0.22
-4 10 -2 0.15 0.19
-4 -10 -2 0.47 0.27
4 10 3 -0.22 0.22
-4 10 -3 0 0.24
-4 10 -3 0.09 0.19
4 10 3 0.01 0.22
-4 -10 -3 0.3 0.27
-4 10 -4 0.86 0.31
4 10 4 0.53 0.27
-4 10 -4 0.82 0.21
4 10 4 0.33 0.23
-4 -10 -4 0.99 0.32
4 10 5 3.9 0.42
4 10 5 3.51 0.36
-4 10 -5 4.02 0.46
-4 -10 -5 3.71 0.44
4 10 6 0.07 0.27
-4 10 -6 0.02 0.33
4 10 6 0.01 0.25
-4 -10 -6 0.11 0.33
4 10 7 0.84 0.32
4 10 7 0.66 0.27
-4 10 -7 1.13 0.41
-4 -10 -7 0.96 0.37
4 10 8 0.4 0.33
-4 10 -8 1.31 0.44
-4 -10 -8 0.55 0.39
4 10 9 -0.16 0.35
-4 10 -9 0.56 0.44
-4 -10 -9 0.31 0.42
-4 11 11 -0.25 0.36
-4 11 10 0.55 0.34
-4 -11 10 0.58 0.41
-4 11 9 1.88 0.37
4 11 -9 1.18 0.36
4 -11 -9 1.27 0.35
-4 -11 9 1.87 0.41
-4 11 8 0.03 0.3
4 11 -8 -0.06 0.3
-4 -11 8 0.23 0.26
-4 -11 8 -0.09 0.32
4 -11 -8 -0.07 0.3
4 11 -7 12.91 0.9
-4 11 7 12.4 0.86
4 -11 -7 11.21 0.85
4 11 -6 10.17 0.76
-4 11 6 10.19 0.73
4 -11 -6 10.15 0.74
-4 11 5 -0.26 0.23
4 11 -5 -0.26 0.26
4 -11 -5 0.2 0.27
-4 11 4 1.62 0.27
-4 -11 4 2.59 0.36
4 -11 -4 3 0.35
-4 11 3 7.56 0.59
4 11 -3 7.94 0.61
-4 -11 3 8.54 0.63
4 -11 -3 8.02 0.63
-4 11 2 2.63 0.33
4 11 -2 2.39 0.3
4 11 -2 2.52 0.27
-4 11 2 2.7 0.32
-4 -11 2 2.67 0.36
-4 11 1 11.65 0.79
4 11 -1 12.11 0.79
-4 11 1 11.15 0.81
-4 -11 1 10.98 0.81
4 11 0 -0.09 0.04
4 11 0 0.12 0.18
-4 11 0 -0.11 0.25
-4 11 0 0.12 0.22
-4 -11 0 0.12 0.28
4 11 1 0.06 0.18
-4 11 -1 0.06 0.22
4 11 1 -0.09 0.22
-4 11 -1 -0.09 0.25
-4 -11 -1 0.22 0.29
4 11 2 1.96 0.29
4 11 2 1.58 0.27
-4 11 -2 1.59 0.32
-4 11 -2 1.55 0.26
-4 -11 -2 1.85 0.33
4 11 3 5.17 0.53
-4 11 -3 4.92 0.49
-4 11 -3 4.92 0.46
4 11 3 5.17 0.47
-4 -11 -3 5.67 0.54
-4 11 -4 0.6 0.33
-4 11 -4 0.65 0.24
4 11 4 0.39 0.28
4 11 4 0.52 0.25
-4 -11 -4 0.7 0.34
4 11 5 0.16 0.25
-4 11 -5 0.14 0.33
4 11 5 -0.46 0.27
-4 -11 -5 0.1 0.34
4 11 6 1.14 0.29
4 11 6 1.5 0.34
-4 11 -6 1.32 0.4
-4 -11 -6 1.29 0.37
-4 11 -7 3.34 0.51
4 11 7 2.56 0.36
4 11 7 2.59 0.4
-4 -11 -7 2.65 0.45
-4 11 -8 1.99 0.49
4 11 8 1.98 0.39
-4 -11 -8 2.39 0.46
-4 12 10 -0.41 0.36
-4 -12 10 -0.83 0.37
-4 12 9 0.25 0.34
4 12 -9 -0.28 0.34
-4 -12 9 0.47 0.37
4 -12 -9 0 0.35
-4 12 8 2.23 0.41
4 12 -8 2.52 0.39
4 -12 -8 2.93 0.41
-4 -12 8 2.9 0.43
4 12 -7 -0.12 0.29
-4 12 7 0.21 0.31
4 -12 -7 0.04 0.32
4 12 -6 0.38 0.29
-4 12 6 0.15 0.3
4 -12 -6 0.5 0.3
-4 12 5 0.5 0.28
4 -12 -5 0.3 0.3
-4 12 4 4.06 0.42
4 -12 -4 4.48 0.47
-4 -12 4 4.88 0.49
-4 12 3 8.3 0.64
4 12 -3 8.86 0.63
4 -12 -3 8.01 0.68
-4 -12 3 8.64 0.68
4 12 -2 9.37 0.68
-4 12 2 9.56 0.72
4 12 -2 9.87 0.67
-4 12 2 9.36 0.68
-4 -12 2 9.14 0.72
-4 12 1 6.69 0.57
4 12 -1 6.3 0.51
4 12 -1 5.94 0.48
-4 12 1 5.11 0.49
-4 -12 1 6.04 0.56
-4 12 0 2.85 0.34
-4 12 0 2.59 0.37
4 12 0 2.73 0.33
4 12 0 2.65 0.29
-4 -12 0 3.35 0.4
-4 12 -1 -0.1 0.23
4 12 1 0.24 0.25
-4 12 -1 0 0.27
4 12 1 0.3 0.21
-4 -12 -1 -0.38 0.3
4 12 2 0.99 0.28
4 12 2 2.4 0.32
-4 12 -2 2.28 0.36
-4 12 -2 2.48 0.3
-4 -12 -2 2.22 0.38
4 12 3 1.09 0.29
4 12 3 1.02 0.28
-4 12 -3 1.06 0.25
-4 12 -3 1.25 0.34
-4 -12 -3 0.75 0.35
4 12 4 0.2 0.27
-4 12 -4 0.48 0.25
4 12 4 -0.04 0.27
-4 12 -4 0.16 0.33
-4 -12 -4 0.68 0.36
-4 12 -5 0.02 0.35
4 12 5 0.37 0.27
4 12 5 0.01 0.3
-4 -12 -5 0.69 0.36
4 12 6 0.26 0.34
4 12 6 0.09 0.29
-4 12 -6 0.28 0.39
-4 -12 -6 0.18 0.37
4 12 7 0.1 0.35
-4 12 -7 0.21 0.43
4 12 7 0.42 0.29
-4 -12 -7 0.6 0.4
-4 12 -8 0.72 0.47
-4 -12 -8 1.09 0.43
-4 13 9 0.36 0.35
4 13 -9 -0.03 0.37
4 -13 -9 -0.03 0.38
-4 -13 9 0.17 0.38
4 13 -8 0.75 0.38
-4 13 8 1.28 0.37
-4 -13 8 1.45 0.39
4 -13 -8 1.43 0.37
-4 13 7 0.73 0.35
4 13 -7 0.78 0.36
4 -13 -7 0.73 0.35
4 13 -6 0.66 0.33
-4 13 6 0.52 0.3
4 -13 -6 0.92 0.34
-4 13 5 -0.03 0.31
4 -13 -5 0.1 0.34
-4 -13 5 0.47 0.37
-4 13 4 0.39 0.3
-4 -13 4 0.28 0.36
4 -13 -4 0.36 0.34
4 13 -3 2.65 0.34
-4 13 3 2.84 0.38
-4 -13 3 2.91 0.42
4 -13 -3 2.49 0.42
4 13 -2 2.7 0.32
-4 13 2 2.8 0.37
4 13 -2 2.39 0.29
-4 -13 2 2.51 0.41
-4 13 1 0.96 0.33
-4 13 1 1.29 0.31
4 13 -1 1.28 0.29
4 13 -1 1.49 0.23
-4 -13 1 1.28 0.36
-4 13 0 0.25 0.27
-4 13 0 0.4 0.27
4 13 0 0.63 0.27
4 13 0 0.48 0.21
-4 -13 0 0.61 0.34
-4 13 -1 1.31 0.29
4 13 1 1.58 0.26
-4 13 -1 1.32 0.34
4 13 1 0.98 0.3
-4 -13 -1 0.84 0.36
4 13 2 0.55 0.26
4 13 2 -0.13 0.21
-4 13 -2 1.1 0.27
-4 13 -2 0.57 0.32
-4 -13 -2 0.73 0.37
4 13 3 0 0.25
4 13 3 0.08 0.24
-4 13 -3 0.07 0.26
-4 13 -3 0.46 0.3
-4 -13 -3 0.09 0.35
-4 13 -4 0.4 0.35
4 13 4 0.06 0.29
4 13 4 0.05 0.28
-4 -13 -4 -0.06 0.37
4 13 5 1.31 0.35
-4 13 -5 1.07 0.41
4 13 5 1.61 0.33
-4 -13 -5 1.18 0.42
-4 13 -6 0.24 0.4
4 13 6 0.06 0.29
4 13 6 -0.11 0.34
-4 -13 -6 0.23 0.41
-4 13 -7 0.19 0.43
4 13 7 0.49 0.38
4 13 7 0.42 0.31
-4 -13 -7 0.69 0.42
-4 14 9 0.87 0.4
4 14 -9 0.54 0.42
4 -14 -9 0.24 0.42
-4 14 8 0.89 0.38
4 14 -8 0.48 0.4
4 -14 -8 0.51 0.4
-4 -14 8 0.35 0.39
-4 14 7 1.42 0.39
4 14 -7 1.51 0.41
4 -14 -7 2.21 0.42
-4 14 6 1.59 0.36
4 -14 -6 1.92 0.4
-4 14 5 6.92 0.66
-4 -14 5 7.42 0.71
4 -14 -5 7.19 0.7
-4 14 4 1.91 0.36
-4 -14 4 2.69 0.45
4 -14 -4 2.44 0.42
-4 14 3 1.86 0.33
4 14 -3 1.57 0.3
4 -14 -3 1.7 0.39
-4 -14 3 1.51 0.4
4 14 -2 0.18 0.26
4 14 -2 -0.05 0.21
-4 14 2 -0.17 0.26
-4 -14 2 0.29 0.36
-4 14 1 9.21 0.7
4 14 -1 8.56 0.67
4 14 -1 9.55 0.69
-4 14 1 8.39 0.74
-4 -14 1 10.07 0.76
-4 14 0 0.69 0.33
-4 14 0 0.46 0.27
4 14 0 0.73 0.3
4 14 0 0.73 0.22
-4 -14 0 0.16 0.36
4 14 1 0.88 0.23
-4 14 -1 0.57 0.29
4 14 1 0.77 0.28
-4 14 -1 0.59 0.35
-4 -14 -1 0.49 0.38
4 14 2 0.82 0.32
-4 14 -2 1.33 0.31
4 14 2 1.58 0.29
-4 14 -2 1.27 0.38
-4 -14 -2 1.1 0.41
-4 14 -3 0.04 0.29
-4 14 -3 0.16 0.35
4 14 3 -0.29 0.26
4 14 3 0.01 0.29
-4 -14 -3 0.08 0.38
-4 14 -4 0.56 0.38
4 14 4 0.08 0.3
4 14 4 -0.2 0.29
-4 -14 -4 0.45 0.4
4 14 5 3.93 0.45
4 14 5 5.26 0.52
-4 14 -5 4.38 0.56
-4 -14 -5 4.43 0.56
-4 14 -6 -0.2 0.4
4 14 6 0.21 0.35
4 14 6 0.04 0.31
-4 -14 -6 -0.03 0.42
4 15 -8 0.96 0.42
-4 15 8 1.25 0.42
4 -15 -8 1.24 0.46
4 15 -7 0.24 0.4
-4 15 7 -0.24 0.33
4 -15 -7 0.18 0.4
-4 15 6 -0.09 0.32
-4 -15 6 0.73 0.48
4 -15 -6 -0.32 0.37
-4 15 5 -0.02 0.34
4 -15 -5 0.43 0.4
-4 -15 5 0.09 0.46
-4 15 4 1.91 0.37
4 -15 -4 1.26 0.42
-4 -15 4 1.98 0.49
4 15 -3 -0.16 0.26
-4 15 3 -0.08 0.33
4 -15 -3 -0.16 0.38
-4 -15 3 0 0.39
4 15 -2 -0.01 0.29
-4 15 2 0.03 0.33
-4 -15 2 0.31 0.39
4 -15 -2 0.1 0.39
-4 15 1 0.93 0.31
4 15 -1 0.86 0.32
-4 15 1 0.65 0.36
-4 -15 1 0.84 0.4
-4 15 0 -0.08 0.34
4 15 0 -0.13 0.29
-4 15 0 -0.19 0.3
-4 -15 0 0.09 0.38
-4 15 -1 2.31 0.43
4 15 1 2.31 0.36
-4 15 -1 2.35 0.38
-4 -15 -1 2.61 0.47
-4 15 -2 0.36 0.36
-4 15 -2 -0.06 0.31
4 15 2 -0.02 0.31
-4 -15 -2 -0.24 0.4
4 15 3 0.59 0.33
-4 15 -3 0.2 0.38
-4 15 -3 0.57 0.31
-4 -15 -3 0.46 0.42
-4 15 -4 0.54 0.4
4 15 4 0.86 0.34
-4 -15 -4 0.72 0.44
-4 15 -5 0.57 0.42
4 15 5 0.11 0.31
-4 -15 -5 0.47 0.44
-4 16 6 -0.08 0.37
4 -16 -6 0.39 0.42
-4 -16 6 0.39 0.47
-4 16 5 1.73 0.42
-4 -16 5 2.02 0.51
4 -16 -5 1.69 0.46
-4 16 4 0.93 0.35
4 -16 -4 0.84 0.43
-4 -16 4 0.94 0.46
-4 16 3 0.45 0.33
4 16 -3 0.4 0.32
-4 -16 3 0.15 0.42
4 -16 -3 -0.01 0.41
4 16 -2 0 0.32
-4 16 2 0.17 0.32
4 -16 -2 -0.37 0.4
-4 -16 2 -0.34 0.4
4 16 -1 2.72 0.39
-4 16 1 2.51 0.4
-4 -16 1 3.23 0.5
-4 16 0 -0.35 0.32
4 16 0 0.09 0.29
-4 16 0 0.31 0.37
-4 -16 0 -0.21 0.41
-4 16 -1 0.14 0.33
4 16 1 -0.07 0.3
-4 16 -1 0.15 0.37
-4 -16 -1 -0.57 0.4
-4 16 -2 -0.13 0.38
4 16 2 0.16 0.33
-4 16 -2 0.27 0.33
-4 -16 -2 -0.49 0.43
4 16 3 0.6 0.35
-4 16 -3 1.11 0.37
-4 16 -3 0.96 0.42
-4 -16 -3 0.86 0.47
-4 16 -4 0.89 0.43
4 16 4 0.83 0.35
-4 -16 -4 0.65 0.46
-4 17 5 0.85 0.38
4 -17 -5 0.66 0.47
-4 -17 5 1.17 0.51
-4 17 4 0.17 0.38
4 -17 -4 -0.33 0.45
-4 -17 4 0.18 0.49
4 17 -3 0.09 0.3
-4 17 3 -0.06 0.37
-4 -17 3 0.28 0.49
4 -17 -3 -0.31 0.43
4 17 -2 -0.31 0.33
-4 17 2 0.24 0.37
-4 -17 2 -0.64 0.47
4 -17 -2 -0.52 0.46
-4 17 1 0.21 0.37
4 17 -1 0.23 0.32
-4 -17 1 0.68 0.46
4 -17 -1 0.46 0.47
-4 17 0 -0.01 0.36
4 17 0 -0.16 0.34
-4 17 0 -0.28 0.37
-4 -17 0 0 0.46
-4 17 -1 0.03 0.36
-4 17 -1 -0.44 0.38
4 17 1 0.22 0.34
-4 -17 -1 0.07 0.46
4 17 2 0.71 0.37
-4 17 -2 0.51 0.42
-4 17 -2 0.35 0.36
-4 -17 -2 0.18 0.48
-4 17 -3 1.72 0.48
4 18 -2 1.16 0.4
-4 18 2 0.8 0.42
4 -18 -2 0.58 0.49
-4 -18 2 1.85 0.55
4 18 -1 0.27 0.37
-4 18 1 0.25 0.4
-4 -18 1 0.57 0.49
4 -18 -1 0.18 0.48
-5 0 13 0.05 0.41
-5 0 12 8.11 0.81
-5 0 11 0.03 0.31
-5 0 10 16.94 1.14
-5 0 10 16.43 1.03
-5 0 9 0.14 0.27
-5 0 9 0.05 0.15
5 0 -8 0.62 0.12
-5 0 8 0.6 0.25
-5 0 8 0.72 0.16
5 0 -7 -0.03 0.08
-5 0 7 0.22 0.13
-5 0 7 0.17 0.21
-5 0 6 99.22 5.65
-5 0 5 0.07 0.12
-5 0 4 54.77 3.14
-5 0 3 0.02 0.04
-5 0 3 -0.18 0.06
5 0 -3 -0.25 0.09
5 0 -2 26.06 1.48
-5 0 2 23.21 1.44
5 0 -1 -0.07 0.1
-5 0 1 0 0.07
-5 0 1 -0.13 0.09
-5 0 0 296.93 16.48
-5 0 0 293.44 16.89
5 0 0 283.41 17.05
5 0 1 0.02 0.13
-5 0 -1 0.13 0.14
-5 0 -1 0.01 0.1
-5 0 -2 0.2 0.11
-5 0 -2 0.11 0.16
5 0 2 0.15 0.13
-5 0 -3 -0.25 0.17
-5 0 -3 0.06 0.1
5 0 3 -0.04 0.14
5 0 4 28.58 1.83
-5 0 -4 31.96 1.75
5 0 5 0.26 0.19
-5 0 -6 55.94 3.15
5 0 6 49.31 3.13
-5 0 -7 -0.01 0.3
5 0 7 -0.04 0.22
5 0 8 4.9 0.49
-5 0 -8 5.28 0.55
-5 0 -9 -0.2 0.36
5 0 9 0.2 0.28
-5 0 -10 2.51 0.49
5 0 10 2.06 0.4
-5 1 13 0.23 0.41
-5 -1 13 0.15 0.42
-5 1 12 0.08 0.38
-5 -1 12 0 0.38
-5 1 11 0.08 0.35
-5 -1 11 0.53 0.36
-5 1 10 6.59 0.5
-5 1 10 7.07 0.66
-5 -1 10 6.52 0.67
-5 -1 10 6.21 0.48
-5 1 9 5.51 0.57
-5 1 9 5.59 0.42
-5 -1 9 5.5 0.55
-5 -1 9 5.36 0.42
-5 1 8 16.29 1.15
-5 1 8 18.12 1.06
5 1 -8 17.08 1.05
-5 -1 8 17.75 1.15
-5 -1 8 17.72 1.06
5 -1 -8 17.66 1.05
-5 1 7 19.23 1.27
-5 1 7 19.75 1.19
5 1 -7 19.57 1.17
-5 -1 7 20.83 1.19
5 -1 -7 20.06 1.18
-5 1 6 1.99 0.21
5 -1 -6 2.19 0.17
-5 -1 6 2.32 0.22
-5 1 5 0.28 0.11
-5 -1 5 0.25 0.11
-5 1 4 61.19 3.21
-5 -1 4 50.98 3.21
-5 1 3 10.49 0.61
5 1 -3 10.59 0.66
5 -1 -3 10.7 0.65
-5 -1 3 10.87 0.62
-5 -1 3 8.71 0.65
-5 1 2 34.88 2
5 1 -2 34.27 2.04
5 -1 -2 33.31 2.03
-5 -1 2 34.37 2
-5 1 1 2.69 0.24
5 1 -1 2.62 0.25
-5 -1 1 3.04 0.25
5 -1 -1 2.79 0.26
5 1 0 17.72 1.01
-5 1 0 14.67 0.96
-5 1 0 14.14 0.99
5 -1 0 17.94 1
-5 -1 0 17.02 1
-5 1 -1 32.44 1.96
5 1 1 33.74 1.99
-5 1 -1 29.46 1.9
5 -1 1 34.11 1.97
-5 -1 -1 34.11 1.91
-5 -1 -1 34.33 1.97
5 1 2 21.58 1.35
-5 1 -2 23.45 1.36
-5 1 -2 19.4 1.28
-5 -1 -2 22.84 1.29
-5 -1 -2 23.37 1.36
5 -1 2 22.48 1.34
-5 1 -3 14.11 0.88
5 1 3 13.53 0.86
-5 -1 -3 13.08 0.81
5 -1 3 13.73 0.85
-5 -1 -3 13.04 0.88
5 1 4 7.97 0.55
-5 1 -4 6.36 0.46
-5 -1 -4 8.09 0.49
5 -1 4 8.33 0.54
5 1 5 1.89 0.26
5 -1 5 1.89 0.25
-5 -1 -5 2.03 0.19
-5 1 -6 4.34 0.45
5 1 6 4.03 0.41
5 -1 6 4.03 0.4
-5 -1 -6 3.61 0.42
5 1 7 0.32 0.27
-5 1 -7 0.19 0.31
5 -1 7 0.29 0.25
-5 -1 -7 0.25 0.3
-5 1 -8 0.17 0.34
5 1 8 0.26 0.29
5 -1 8 0.31 0.28
-5 -1 -8 0.49 0.35
-5 1 -9 0.55 0.4
5 1 9 0.6 0.33
-5 -1 -9 0.8 0.39
5 -1 9 0.26 0.31
-5 1 -10 -0.34 0.4
5 1 10 0.21 0.32
5 -1 10 0.03 0.33
-5 -1 -10 0.46 0.44
-5 2 13 1.34 0.41
-5 -2 13 1.03 0.45
-5 2 12 1.17 0.41
-5 -2 12 1.65 0.43
-5 2 11 4.91 0.46
-5 2 11 5.31 0.53
-5 -2 11 5.15 0.56
-5 2 10 4.77 0.49
-5 2 10 4.31 0.41
-5 -2 10 4.93 0.49
-5 -2 10 4.34 0.38
-5 2 9 3.49 0.38
-5 2 9 3.71 0.36
-5 -2 9 3.86 0.34
-5 -2 9 2.82 0.39
5 2 -8 0.39 0.14
-5 2 8 0.32 0.21
-5 2 8 0.15 0.15
-5 -2 8 0.33 0.14
5 -2 -8 0.56 0.13
-5 -2 8 0.19 0.05
-5 2 7 14.37 0.98
5 2 -7 14.33 0.89
-5 2 7 14.16 0.9
-5 -2 7 15.91 0.91
5 -2 -7 15.14 0.9
-5 2 6 7.66 0.5
-5 2 6 7.94 0.56
5 2 -6 7.43 0.46
-5 -2 6 6.85 0.51
5 -2 -6 7.5 0.47
-5 2 5 0.43 0.13
-5 -2 5 0.18 0.14
-5 -2 5 0.54 0.09
5 -2 -5 0.48 0.08
-5 2 4 19.29 1.11
5 -2 -4 18.77 1.1
-5 -2 4 18.54 1.09
-5 -2 4 18.12 1.12
5 2 -3 78.99 5.02
-5 2 3 87.72 4.95
-5 -2 3 89.72 4.88
-5 -2 3 85.26 4.95
5 2 -2 0.58 0.11
-5 2 2 0.35 0.08
-5 -2 2 0.19 0.09
5 -2 -2 0.26 0.09
-5 2 1 21.57 1.23
5 2 -1 19.23 1.26
5 -2 -1 21.11 1.24
-5 -2 1 20.73 1.23
-5 2 0 1.01 0.14
-5 2 0 0.84 0.12
5 2 0 0.92 0.16
5 -2 0 0.96 0.14
-5 -2 0 0.98 0.14
-5 2 -1 52.79 3.2
-5 2 -1 56.88 3.11
5 2 1 51.43 3.24
-5 -2 -1 56.6 3.2
5 -2 1 55.04 3.22
-5 2 -2 1.44 0.21
-5 2 -2 2.56 0.2
5 2 2 1.83 0.2
-5 -2 -2 1.95 0.23
-5 -2 -2 1.12 0.14
5 -2 2 1.75 0.18
5 2 3 56.15 3.23
-5 2 -3 50.67 3.22
-5 2 -3 58.43 3.1
-5 -2 -3 56.45 3.23
-5 -2 -3 47.65 3.1
5 -2 3 57.26 3.22
5 2 4 4.59 0.38
-5 2 -4 4.66 0.3
5 -2 4 4.75 0.39
-5 -2 -4 4.15 0.32
5 -2 5 1.98 0.26
-5 -2 -5 2.15 0.14
-5 -2 -5 1.62 0.18
-5 2 -6 0.99 0.28
5 2 6 1.15 0.26
5 -2 6 1.02 0.25
-5 -2 -6 1.23 0.31
5 2 7 1.01 0.27
-5 2 -7 1.03 0.34
5 -2 7 1.33 0.26
-5 -2 -7 1.66 0.35
5 2 8 0.62 0.31
-5 2 -8 0.15 0.35
-5 -2 -8 0.79 0.33
5 -2 8 0.45 0.28
-5 2 -9 2.12 0.46
5 2 9 2.59 0.4
5 -2 9 2.84 0.38
-5 -2 -9 2.63 0.45
-5 2 -10 0.55 0.43
5 2 10 0.54 0.36
-5 -2 -10 0.84 0.42
5 -2 10 0.96 0.34
-5 3 13 0.05 0.4
-5 -3 13 -0.18 0.42
-5 3 12 3.93 0.51
-5 -3 12 3.9 0.51
-5 3 11 0.37 0.34
-5 3 11 0.07 0.23
-5 -3 11 0.28 0.33
-5 3 10 5.23 0.52
-5 3 10 5.51 0.48
-5 -3 10 5.45 0.44
-5 -3 10 5.49 0.54
-5 3 9 0.15 0.18
-5 3 9 -0.15 0.25
-5 -3 9 0.19 0.16
-5 -3 9 -0.17 0.27
-5 3 8 16.56 1.06
5 3 -8 15.78 0.97
-5 3 8 15.58 0.98
5 -3 -8 14.46 0.98
-5 -3 8 17.56 0.99
-5 3 7 0.92 0.21
-5 3 7 0.63 0.16
5 3 -7 0.76 0.14
5 -3 -7 0.14 0.13
-5 -3 7 0.97 0.18
-5 3 6 2.19 0.24
-5 3 6 1.83 0.2
5 3 -6 1.99 0.2
5 -3 -6 1.85 0.2
-5 -3 6 1.78 0.22
-5 3 5 5.77 0.42
-5 -3 5 6.17 0.46
5 -3 -5 5.95 0.39
-5 3 4 47.58 2.81
-5 -3 4 49.59 2.85
5 -3 -4 49.06 2.85
-5 -3 4 49.42 2.83
-5 3 3 5.04 0.35
-5 -3 3 5.46 0.35
-5 -3 3 5.43 0.38
-5 3 2 4.62 0.31
-5 3 2 3.75 0.3
-5 -3 2 4.11 0.29
5 -3 -2 4.03 0.3
-5 3 1 4.24 0.31
-5 -3 1 3.89 0.31
-5 -3 1 3.99 0.3
5 -3 -1 4.32 0.3
-5 3 0 0.3 0.12
-5 3 0 0.29 0.08
5 -3 0 0.27 0.11
-5 -3 0 0.12 0.13
-5 3 -1 0.9 0.16
-5 3 -1 0.81 0.12
5 -3 1 0.62 0.13
-5 -3 -1 0.92 0.16
-5 3 -2 19.31 1.09
-5 3 -2 18.49 1.16
5 -3 2 17.84 1.13
-5 -3 -2 18.72 1.14
-5 3 -3 0.58 0.11
-5 3 -3 0.49 0.18
-5 -3 -3 0.89 0.22
5 -3 3 0.55 0.14
-5 3 -4 26.7 1.5
5 -3 4 25.47 1.58
5 -3 5 0.93 0.21
-5 3 -6 6.26 0.67
5 3 6 7.26 0.57
-5 -3 -6 7.46 0.68
5 -3 6 8.33 0.58
5 3 7 0.29 0.27
-5 3 -7 -0.05 0.3
-5 -3 -7 0.48 0.32
5 -3 7 0.96 0.25
-5 3 -8 0.72 0.37
5 3 8 0.87 0.31
-5 -3 -8 1.15 0.36
5 -3 8 0.96 0.29
5 3 9 0.47 0.33
-5 3 -9 -0.45 0.37
5 -3 9 0.58 0.3
-5 -3 -9 1.11 0.38
-5 3 -10 -1.05 0.41
5 3 10 0.15 0.35
5 -3 10 0.29 0.32
-5 -3 -10 0.43 0.4
-5 4 13 1.72 0.45
-5 -4 13 1.8 0.48
-5 4 12 1.35 0.42
-5 -4 12 1.83 0.44
-5 4 11 -0.14 0.32
-5 4 11 -0.11 0.24
-5 -4 11 0.31 0.36
-5 4 10 4.61 0.46
-5 4 10 4.87 0.49
-5 -4 10 4.01 0.5
-5 -4 10 5.26 0.42
-5 4 9 2.28 0.27
-5 4 9 1.68 0.33
-5 -4 9 2.48 0.26
-5 -4 9 2.28 0.35
-5 4 8 0.87 0.24
-5 4 8 0.32 0.19
-5 -4 8 0.71 0.19
-5 -4 8 0.58 0.25
-5 4 7 20.79 1.28
-5 4 7 20.47 1.21
5 4 -7 21.09 1.22
-5 -4 7 17.91 1.23
5 -4 -7 20.47 1.21
-5 4 6 24.39 1.5
-5 4 6 24.54 1.45
5 4 -6 23.73 1.45
5 -4 -6 25.54 1.46
-5 -4 6 24.42 1.47
-5 4 5 2.68 0.29
-5 4 5 3.07 0.29
-5 -4 5 3.01 0.3
5 -4 -5 2.66 0.24
-5 4 4 98.54 5.76
-5 -4 4 107.26 5.78
5 -4 -4 100.06 5.88
-5 -4 4 99.54 5.88
-5 4 3 52.83 3.14
5 4 -3 52.67 3.19
-5 -4 3 54.89 3.09
-5 -4 3 54.99 3.14
-5 4 2 157.33 9.18
-5 4 2 157.93 8.97
5 4 -2 161.57 9.28
5 -4 -2 152.97 9.25
-5 -4 2 161.83 9.18
5 4 -1 58.61 3.48
-5 4 1 57.76 3.43
-5 4 1 58.44 3.36
5 -4 -1 61.56 3.45
-5 -4 1 57.41 3.43
5 4 0 130.43 7.93
-5 4 0 137.18 7.85
5 -4 0 136.08 7.91
-5 -4 0 136.83 7.85
5 4 1 3.69 0.33
-5 4 -1 3.57 0.34
-5 -4 -1 3.62 0.31
5 -4 1 3.77 0.29
5 4 2 2.57 0.28
-5 4 -2 3.08 0.31
-5 4 -2 2.84 0.24
5 -4 2 2.72 0.26
-5 -4 -2 2.47 0.27
5 4 3 3.23 0.34
-5 4 -3 3.88 0.27
-5 4 -3 3.5 0.34
5 -4 3 3.15 0.3
-5 -4 -3 3.32 0.35
-5 4 -4 8.4 0.5
5 4 4 6.54 0.57
5 -4 4 8.66 0.56
5 4 5 0 0.08
5 -4 5 0.31 0.19
-5 4 -6 4.46 0.5
5 4 6 5.45 0.49
-5 -4 -6 5.04 0.52
5 -4 6 5.88 0.47
5 4 7 0.66 0.26
-5 4 -7 -0.02 0.32
-5 -4 -7 0.72 0.34
5 -4 7 0.97 0.26
-5 4 -8 -0.91 0.33
5 4 8 0.3 0.3
-5 -4 -8 0.29 0.35
5 -4 8 0.07 0.26
-5 4 -9 -0.84 0.37
5 4 9 0.13 0.33
5 -4 9 0.44 0.3
-5 -4 -9 0.58 0.38
-5 4 -10 -1.46 0.42
5 4 10 0.58 0.37
-5 -4 -10 0.67 0.4
5 -4 10 0.24 0.31
-5 5 13 0.14 0.39
-5 -5 13 -0.42 0.42
-5 5 12 0.03 0.36
-5 -5 12 0.34 0.37
-5 5 11 1.67 0.31
-5 5 11 1.48 0.37
-5 -5 11 1.29 0.4
-5 5 10 -0.11 0.22
-5 5 10 0.2 0.29
-5 -5 10 0.25 0.34
-5 5 9 14.07 0.99
-5 5 9 14.86 0.94
-5 -5 9 14.75 0.92
-5 -5 9 13.63 1.01
-5 5 8 14.48 0.88
5 5 -8 12.76 0.87
-5 5 8 15.21 0.94
5 -5 -8 14.44 0.87
-5 -5 8 12.56 0.88
-5 5 7 8.79 0.59
-5 5 7 8.31 0.62
-5 -5 7 8.32 0.63
5 5 -6 0.91 0.16
-5 5 6 0.91 0.19
-5 5 6 0.98 0.19
5 -5 -6 1.01 0.17
-5 -5 6 1.08 0.22
-5 5 5 7.92 0.56
5 -5 -5 8.93 0.57
-5 -5 5 9.29 0.6
-5 5 4 1.26 0.18
5 5 -4 1 0.18
-5 5 4 1.31 0.16
-5 -5 4 1.2 0.19
5 -5 -4 1.56 0.18
-5 -5 4 1.29 0.18
-5 5 3 6.19 0.42
-5 5 3 6.14 0.43
5 5 -3 5.8 0.44
-5 -5 3 6.31 0.42
5 5 -2 20.87 1.23
-5 5 2 19.43 1.2
-5 5 2 19.45 1.18
-5 -5 2 20.12 1.2
5 5 -1 72.88 4.23
-5 5 1 69.15 4.07
-5 5 1 71.15 4.17
-5 -5 1 72.46 4.17
5 -5 -1 71.71 4.19
-5 5 0 0.38 0.12
-5 5 0 0.43 0.14
5 5 0 0.16 0.15
-5 -5 0 0.34 0.16
5 -5 0 0.08 0.09
5 5 1 31.98 1.87
-5 5 -1 31.09 1.83
5 -5 1 29.37 1.82
-5 -5 -1 30.13 1.82
5 5 2 21.32 1.43
-5 5 -2 25.08 1.42
-5 -5 -2 23.54 1.4
5 -5 2 22.47 1.38
-5 5 -3 7.41 0.54
-5 5 -3 6.32 0.43
5 5 3 6.09 0.52
-5 -5 -3 6.28 0.48
5 -5 3 6.39 0.46
5 5 4 1.03 0.21
-5 5 -4 1.11 0.15
5 -5 4 1.4 0.2
-5 5 -5 8.46 0.66
-5 -5 -5 9.6 0.64
-5 5 -6 0.01 0.29
5 5 6 0.06 0.23
5 -5 6 0.23 0.21
-5 -5 -6 -0.16 0.26
5 5 7 0.61 0.27
-5 5 -7 0.21 0.33
5 -5 7 0.4 0.24
-5 -5 -7 0.55 0.35
-5 5 -8 1.73 0.43
5 5 8 2.17 0.35
5 -5 8 1.96 0.32
-5 -5 -8 2.01 0.43
5 5 9 0.8 0.32
-5 5 -9 -0.45 0.38
5 -5 9 0.57 0.3
-5 -5 -9 0.11 0.37
-5 5 -10 -0.95 0.4
5 5 10 0.26 0.37
5 -5 10 -0.03 0.31
-5 -5 -10 0.5 0.41
-5 6 12 0.15 0.35
-5 -6 12 0.23 0.41
-5 6 11 2.86 0.42
-5 6 11 3.16 0.38
-5 -6 11 2.88 0.47
-5 6 10 4.55 0.46
-5 6 10 4.76 0.47
-5 -6 10 4.6 0.52
-5 6 9 0.04 0.22
-5 6 9 -0.15 0.24
-5 -6 9 0.16 0.32
-5 -6 9 0.06 0.19
5 6 -8 6.23 0.49
-5 6 8 6.61 0.56
-5 6 8 5.94 0.5
-5 -6 8 4.93 0.5
5 -6 -8 6.67 0.47
-5 6 7 0.79 0.21
-5 6 7 0.75 0.21
5 6 -7 0.7 0.18
5 -6 -7 0.81 0.2
-5 -6 7 0.85 0.24
-5 6 6 0.23 0.18
5 6 -6 0.27 0.11
-5 6 6 0.56 0.17
-5 -6 6 0.72 0.19
5 -6 -6 0.37 0.15
-5 6 5 0.65 0.18
-5 -6 5 0.82 0.19
-5 6 4 6.22 0.48
-5 6 4 7.41 0.47
5 6 -4 6.48 0.52
-5 -6 4 6.82 0.48
-5 6 3 7.15 0.52
-5 6 3 7.52 0.52
5 6 -3 7.43 0.55
-5 6 3 7.71 0.49
-5 -6 3 7.66 0.51
-5 6 2 0.49 0.14
5 6 -2 0.36 0.15
-5 6 2 0.47 0.16
-5 -6 2 0.69 0.18
5 6 -1 5.5 0.42
-5 6 1 4.92 0.4
-5 6 1 5.05 0.38
-5 -6 1 5.33 0.4
5 -6 -1 4.95 0.33
-5 6 0 14.15 0.79
5 6 0 10.72 0.84
-5 6 0 14.54 0.83
-5 -6 0 14.44 0.82
5 -6 0 11.13 0.78
-5 6 -1 13.14 0.87
5 6 1 13.88 0.89
-5 6 -1 13.36 0.82
-5 -6 -1 13.23 0.86
5 -6 1 13.87 0.83
5 6 2 3.25 0.33
-5 6 -2 3.71 0.34
-5 -6 -2 3.76 0.37
5 -6 2 3.49 0.29
-5 6 -3 0.17 0.21
-5 6 -3 0.17 0.09
5 6 3 0.16 0.21
5 -6 3 0.22 0.14
-5 -6 -3 0.14 0.19
-5 6 -4 14.26 0.83
5 6 4 13.31 0.93
5 -6 4 13.59 0.88
-5 6 -5 2.01 0.34
5 6 5 1.72 0.26
-5 -6 -5 1.51 0.32
5 -6 5 1.64 0.24
-5 6 -6 2.2 0.38
5 6 6 2.06 0.32
-5 -6 -6 1.98 0.37
5 -6 6 2.37 0.28
5 6 7 0.35 0.27
-5 6 -7 -0.1 0.33
-5 -6 -7 0.04 0.34
5 -6 7 0.39 0.24
5 6 8 0.27 0.32
-5 6 -8 0.3 0.38
-5 -6 -8 0.03 0.37
5 -6 8 0.28 0.27
5 6 9 0.09 0.35
-5 6 -9 -0.36 0.39
5 -6 9 0.34 0.29
-5 -6 -9 0.06 0.39
-5 7 12 0.01 0.34
-5 -7 12 0 0.41
-5 7 11 3.54 0.44
-5 7 11 3.44 0.4
-5 -7 11 3.51 0.5
-5 7 10 0.07 0.27
-5 7 10 -0.15 0.26
-5 -7 10 0.3 0.32
-5 7 9 6.41 0.55
-5 7 9 6.14 0.51
-5 -7 9 4.78 0.47
5 -7 -9 5.15 0.49
-5 -7 9 7.04 0.6
-5 7 8 5.24 0.51
5 7 -8 4.93 0.47
-5 7 8 5.19 0.47
5 -7 -8 5.11 0.44
-5 -7 8 5.34 0.51
-5 7 7 2.32 0.27
5 7 -7 2.23 0.27
-5 7 7 2.02 0.29
5 -7 -7 2.49 0.28
-5 -7 7 2.67 0.31
-5 7 6 3.89 0.4
5 7 -6 4.19 0.37
-5 7 6 3.79 0.37
-5 -7 6 4.55 0.41
5 -7 -6 4.36 0.38
-5 7 5 33.24 1.97
5 -7 -5 33.69 1.99
5 7 -4 41.88 2.56
-5 7 4 42.67 2.53
-5 -7 4 43.09 2.52
5 -7 -4 43.29 2.53
-5 7 3 0.34 0.09
5 7 -3 0.27 0.16
-5 7 3 0.43 0.16
-5 7 3 0.36 0.15
-5 -7 3 0.41 0.19
5 7 -2 14.75 0.94
-5 7 2 14.56 0.9
-5 7 2 14.39 0.92
-5 7 2 14.66 0.87
-5 -7 2 14.6 0.92
5 7 -1 26.09 1.56
-5 7 1 25.24 1.54
-5 7 1 24.54 1.5
-5 -7 1 26.32 1.55
5 7 0 3.2 0.36
-5 7 0 4.8 0.4
-5 7 0 4.53 0.36
-5 -7 0 4.82 0.4
5 -7 0 4.74 0.3
-5 7 -1 43.51 2.6
5 7 1 45.11 2.64
-5 7 -1 43.92 2.53
-5 -7 -1 44.92 2.6
5 -7 1 41.82 2.58
-5 7 -2 23.58 1.38
5 7 2 23.47 1.48
-5 7 -2 24.34 1.46
5 -7 2 22.53 1.4
-5 -7 -2 23.61 1.44
5 7 3 0.42 0.24
-5 7 -3 0.54 0.15
-5 7 -3 0.55 0.18
-5 -7 -3 0.5 0.22
5 -7 3 0.57 0.15
5 7 4 0.51 0.24
-5 7 -4 0.24 0.08
-5 -7 -4 -0.05 0.08
5 -7 4 0.51 0.17
-5 7 -5 5.7 0.58
5 7 5 4.61 0.47
-5 -7 -5 4.84 0.5
5 -7 5 4.62 0.43
-5 7 -6 1.61 0.36
5 7 6 0.77 0.26
5 -7 6 0.8 0.25
-5 -7 -6 1.16 0.34
5 7 7 0.11 0.29
-5 7 -7 0.45 0.36
-5 -7 -7 -0.01 0.34
5 -7 7 0.21 0.25
5 7 8 0.83 0.34
-5 7 -8 1.11 0.41
-5 -7 -8 0.37 0.41
5 -7 8 1.03 0.3
-5 7 -9 0.57 0.43
5 7 9 0.36 0.36
5 -7 9 0.5 0.32
-5 -7 -9 0.51 0.46
-5 8 12 1.95 0.41
-5 -8 12 2.54 0.5
-5 8 11 0.53 0.32
-5 8 11 -0.22 0.29
-5 -8 11 0.87 0.41
-5 8 10 0.21 0.29
-5 8 10 0.56 0.29
-5 -8 10 0.15 0.36
-5 8 9 -0.22 0.25
-5 8 9 -0.16 0.24
-5 -8 9 -0.24 0.31
5 -8 -9 -0.03 0.25
-5 -8 9 -0.17 0.24
-5 8 8 4.53 0.47
5 8 -8 4.27 0.41
-5 8 8 4.71 0.45
5 -8 -8 4.53 0.45
-5 -8 8 5.16 0.48
-5 8 7 0.14 0.21
5 8 -7 -0.18 0.21
-5 8 7 0.14 0.2
-5 -8 7 -0.02 0.21
5 -8 -7 -0.19 0.21
-5 8 6 2.45 0.31
-5 8 6 2.85 0.26
5 8 -6 2.61 0.29
5 -8 -6 2.76 0.3
-5 -8 6 3.14 0.32
-5 8 5 0.09 0.12
-5 8 5 0.06 0.2
5 -8 -5 -0.12 0.2
-5 -8 5 -0.13 0.22
-5 8 4 1.87 0.17
5 8 -4 1.35 0.23
5 -8 -4 2 0.27
-5 -8 4 1.75 0.26
-5 8 3 -0.04 0.08
-5 8 3 -0.04 0.17
-5 8 3 -0.12 0.17
5 8 -3 0.2 0.17
-5 -8 3 -0.02 0.19
5 8 -2 5.3 0.45
-5 8 2 5.8 0.45
-5 8 2 4.95 0.41
-5 -8 2 5.72 0.44
-5 8 1 0.52 0.19
-5 8 1 0.53 0.18
5 8 -1 0.51 0.18
-5 -8 1 0.75 0.22
-5 8 0 17.82 1.14
-5 8 0 17.87 1.1
-5 -8 0 18.77 1.14
5 8 1 6.15 0.55
-5 8 -1 6.21 0.53
5 8 1 6.8 0.47
-5 8 -1 6.43 0.47
-5 -8 -1 5.99 0.52
5 -8 1 7.03 0.44
5 8 2 0.07 0.22
5 8 2 0.07 0.19
-5 8 -2 0.06 0.22
-5 8 -2 -0.1 0.16
-5 -8 -2 0.03 0.24
5 -8 2 0.13 0.11
-5 8 -3 -0.2 0.16
5 8 3 0.19 0.2
-5 8 -3 -0.1 0.17
5 8 3 -0.22 0.23
-5 -8 -3 0.02 0.23
5 -8 3 0.06 0.13
5 8 4 0.14 0.25
5 8 4 0.1 0.22
-5 8 -4 0.22 0.27
-5 8 -4 0.03 0.16
5 -8 4 -0.07 0.17
-5 -8 -4 -0.04 0.25
5 8 5 0.46 0.22
5 8 5 0.5 0.27
-5 8 -5 0.51 0.3
-5 -8 -5 0.55 0.3
5 -8 5 0.15 0.19
5 8 6 -0.06 0.28
-5 8 -6 0.76 0.35
-5 -8 -6 0.51 0.33
5 -8 6 0.25 0.23
5 8 7 0.27 0.3
-5 8 -7 0.53 0.37
-5 -8 -7 0.4 0.36
5 -8 7 0.21 0.26
-5 8 -8 0.39 0.41
5 8 8 0.32 0.32
-5 -8 -8 0.15 0.39
5 -8 8 0.29 0.29
5 8 9 0.99 0.38
-5 8 -9 1.41 0.48
-5 -8 -9 0.81 0.45
5 -8 9 0.89 0.33
-5 9 11 0.34 0.33
-5 9 11 0 0.32
-5 -9 11 0.18 0.4
-5 9 10 0.41 0.31
-5 9 10 0.78 0.3
-5 -9 10 0.66 0.38
-5 9 9 0.52 0.24
-5 9 9 0.34 0.29
-5 -9 9 0.87 0.29
-5 -9 9 0.05 0.34
5 -9 -9 0.55 0.28
-5 9 8 23.98 1.51
-5 9 8 24.52 1.54
5 9 -8 24.74 1.54
-5 -9 8 26.31 1.52
5 -9 -8 24.48 1.53
-5 9 7 3.31 0.37
5 9 -7 3.79 0.37
-5 9 7 3.76 0.34
5 -9 -7 3.96 0.39
-5 -9 7 3.89 0.38
5 9 -6 3.94 0.37
-5 9 6 4.03 0.37
-5 9 6 3.96 0.4
5 -9 -6 4.48 0.42
-5 9 5 0.62 0.15
-5 9 5 0.69 0.24
-5 -9 5 0.59 0.26
5 -9 -5 0.82 0.25
5 -9 -4 11.46 0.77
-5 -9 4 11.09 0.75
-5 9 3 1.5 0.26
-5 9 3 1.75 0.25
5 9 -3 1.43 0.23
-5 -9 3 1.59 0.26
-5 9 2 36.33 2.11
5 9 -2 35.56 2.13
-5 9 2 34.03 2.06
-5 -9 2 34.82 2.11
5 9 -1 0.31 0.19
-5 9 1 -0.15 0.2
-5 9 1 0.03 0.18
-5 -9 1 0.21 0.23
-5 9 0 0.21 0.18
5 9 0 0.05 0.19
-5 9 0 0.3 0.22
5 9 0 0.04 0.18
-5 -9 0 -0.32 0.24
5 9 1 0.26 0.2
-5 9 -1 0.19 0.18
5 9 1 0.13 0.2
-5 9 -1 -0.17 0.2
-5 -9 -1 0.09 0.25
-5 9 -2 35.23 2.18
-5 9 -2 36.99 2.09
5 9 2 36.78 2.19
5 9 2 35.32 2.1
-5 -9 -2 34.86 2.17
5 9 3 -0.04 0.22
-5 9 -3 0.23 0.27
5 9 3 0.07 0.21
-5 9 -3 0.13 0.18
-5 -9 -3 0.12 0.28
5 -9 3 0.18 0.14
5 9 4 7.28 0.55
5 9 4 6.11 0.6
-5 9 -4 8.42 0.67
-5 -9 -4 6.92 0.61
5 -9 4 7.06 0.52
5 9 5 1 0.25
5 9 5 0.67 0.27
-5 9 -5 0.67 0.33
5 -9 5 0.63 0.21
-5 -9 -5 0.89 0.33
-5 9 -6 4.37 0.53
5 9 6 5.08 0.47
5 9 6 4.97 0.48
5 -9 6 4.83 0.46
-5 -9 -6 4.54 0.5
-5 9 -7 0.57 0.4
5 9 7 0.64 0.33
5 -9 7 0.62 0.27
-5 -9 -7 0.58 0.38
-5 9 -8 2.4 0.49
5 9 8 1.8 0.39
-5 -9 -8 1.69 0.45
-5 10 11 0.26 0.35
-5 -10 11 0.32 0.41
-5 10 10 0.63 0.33
-5 -10 10 0.83 0.4
-5 10 9 3.1 0.42
5 -10 -9 3.95 0.42
-5 -10 9 3.86 0.49
-5 -10 9 4.14 0.44
-5 10 8 -0.15 0.28
5 10 -8 0.08 0.26
5 -10 -8 -0.07 0.29
-5 -10 8 -0.02 0.26
5 10 -7 -0.23 0.25
-5 10 7 -0.04 0.26
5 -10 -7 -0.12 0.26
-5 -10 7 0.08 0.25
5 10 -6 5.55 0.53
-5 10 6 5.44 0.52
5 -10 -6 5.68 0.51
-5 10 5 5.1 0.49
-5 -10 5 5.14 0.49
5 -10 -5 5.36 0.5
-5 -10 4 3.95 0.42
5 -10 -4 4.45 0.46
-5 10 3 4.86 0.43
-5 10 3 4.94 0.46
5 10 -3 4.88 0.46
-5 -10 3 4.81 0.45
-5 10 2 0.52 0.22
5 10 -2 0.61 0.19
-5 10 2 0.41 0.23
-5 -10 2 0.23 0.25
-5 10 1 -0.16 0.2
5 10 -1 0.21 0.18
-5 10 1 -0.06 0.22
-5 -10 1 0.04 0.25
5 10 0 2.38 0.3
-5 10 0 2.23 0.28
-5 10 0 2.89 0.33
5 10 0 2.64 0.3
-5 -10 0 2.59 0.35
-5 10 -1 3.06 0.37
5 10 1 2.32 0.33
5 10 1 3.6 0.34
-5 10 -1 3.17 0.32
-5 -10 -1 4 0.4
-5 10 -2 0.44 0.22
-5 10 -2 0.33 0.28
5 10 2 0.7 0.24
5 10 2 0.6 0.24
-5 -10 -2 0.54 0.3
5 10 3 0.7 0.28
-5 10 -3 0.88 0.31
-5 10 -3 0.97 0.23
5 10 3 0.61 0.23
-5 -10 -3 0.75 0.32
5 10 4 0.07 0.28
5 10 4 -0.19 0.23
-5 10 -4 0.41 0.28
-5 -10 -4 -0.16 0.31
5 10 5 0.28 0.3
-5 10 -5 0.82 0.35
5 10 5 0.46 0.25
-5 -10 -5 0.39 0.33
-5 10 -6 0.77 0.39
5 10 6 0.51 0.32
5 10 6 0.06 0.26
-5 -10 -6 0.33 0.35
-5 10 -7 0.02 0.4
5 10 7 0 0.27
5 10 7 0.2 0.33
-5 -10 -7 0.15 0.38
5 10 8 -0.34 0.34
-5 10 -8 -0.01 0.44
-5 -10 -8 0.34 0.43
-5 11 11 3.22 0.47
-5 -11 11 2.88 0.51
-5 11 10 1.58 0.38
-5 -11 10 1.17 0.44
-5 11 9 3.77 0.46
-5 -11 9 3.95 0.51
5 -11 -9 4.25 0.46
-5 -11 9 3.91 0.45
5 11 -8 0.8 0.31
-5 11 8 0.16 0.3
5 -11 -8 0.83 0.32
-5 -11 8 0.96 0.3
-5 11 7 0.02 0.29
5 11 -7 -0.19 0.27
5 -11 -7 0.23 0.29
-5 11 6 13.72 0.92
5 -11 -6 13.98 0.95
-5 11 5 6.45 0.57
-5 -11 5 6.13 0.57
5 -11 -5 6.82 0.56
-5 11 4 0.13 0.22
5 -11 -4 -0.11 0.29
-5 -11 4 -0.43 0.27
5 11 -3 -0.02 0.19
-5 11 3 0.29 0.26
-5 11 3 0.24 0.22
-5 -11 3 0.05 0.27
5 11 -2 11.65 0.79
-5 11 2 10.93 0.76
-5 11 2 12.04 0.83
-5 -11 2 10.95 0.81
-5 11 1 3 0.33
5 11 -1 3.46 0.33
-5 11 1 3.24 0.37
-5 -11 1 3.5 0.39
-5 11 0 0.01 0.25
-5 11 0 -0.15 0.22
5 11 0 0.08 0.2
5 11 0 0.37 0.24
-5 -11 0 -0.16 0.29
5 11 1 5.17 0.44
-5 11 -1 5.44 0.54
-5 11 -1 4.69 0.47
-5 -11 -1 5.28 0.53
-5 11 -2 0.33 0.3
5 11 2 0.72 0.26
5 11 2 0.75 0.26
-5 11 -2 0.55 0.23
-5 -11 -2 0.93 0.33
5 11 3 1.15 0.28
5 11 3 1.34 0.32
-5 11 -3 1.27 0.26
-5 11 -3 1.17 0.34
-5 -11 -3 0.8 0.35
5 11 4 1.48 0.33
-5 11 -4 1.48 0.38
5 11 4 1.11 0.29
-5 -11 -4 1.43 0.37
5 11 5 3.06 0.37
-5 11 -5 2.96 0.46
5 11 5 2.31 0.41
-5 -11 -5 3.03 0.43
5 11 6 0.19 0.28
5 11 6 0.06 0.33
-5 11 -6 0.8 0.4
-5 -11 -6 0.72 0.38
5 11 7 0.22 0.3
-5 11 -7 0.49 0.43
5 11 7 0.23 0.35
-5 -11 -7 -0.19 0.38
-5 12 10 0.77 0.37
-5 -12 10 0.85 0.43
-5 12 9 0.11 0.34
-5 -12 9 -0.02 0.39
5 -12 -9 -0.02 0.34
-5 12 8 -0.1 0.32
5 12 -8 0.28 0.32
5 -12 -8 0.18 0.34
-5 -12 8 0.27 0.3
5 12 -7 1.36 0.33
-5 12 7 0.98 0.34
5 -12 -7 0.95 0.35
-5 12 6 12.03 0.84
-5 -12 6 11.78 0.87
5 -12 -6 11.98 0.87
-5 12 5 -0.38 0.28
-5 -12 5 0.35 0.32
5 -12 -5 -0.09 0.31
-5 12 4 3.51 0.4
-5 -12 4 3.62 0.44
5 -12 -4 3.64 0.44
5 12 -3 0.2 0.21
-5 12 3 0.27 0.27
-5 -12 3 0.38 0.3
-5 12 2 3.79 0.4
5 12 -2 3.35 0.33
-5 12 2 3.13 0.38
-5 -12 2 3.14 0.41
-5 12 1 0.44 0.29
-5 12 1 0.71 0.27
5 12 -1 0.91 0.22
5 12 -1 0.81 0.25
-5 -12 1 0.68 0.32
-5 12 0 12.43 0.86
5 12 0 13.35 0.9
-5 12 0 11.92 0.9
5 12 0 12.46 0.85
-5 -12 0 13.06 0.9
-5 12 -1 1.37 0.32
-5 12 -1 1.25 0.28
5 12 1 1.36 0.29
5 12 1 0.69 0.26
-5 -12 -1 1.17 0.36
5 12 2 0.34 0.27
5 12 2 0.37 0.25
-5 12 -2 0.46 0.25
-5 12 -2 0.01 0.31
-5 -12 -2 0.99 0.35
5 12 3 0.16 0.24
5 12 3 0.17 0.26
-5 12 -3 0.33 0.23
-5 12 -3 0.4 0.33
-5 -12 -3 0.07 0.35
-5 12 -4 3.38 0.48
5 12 4 4.29 0.45
5 12 4 3.2 0.39
-5 -12 -4 3.56 0.48
5 12 5 0.39 0.33
-5 12 -5 0.15 0.38
5 12 5 0.44 0.28
-5 -12 -5 -0.02 0.37
5 12 6 0.8 0.32
5 12 6 1.36 0.38
-5 12 -6 1.67 0.45
-5 -12 -6 1.55 0.42
5 12 7 -0.02 0.28
5 12 7 0.09 0.37
-5 12 -7 -0.13 0.45
-5 -12 -7 0.05 0.42
-5 13 9 4.15 0.53
-5 -13 9 5.16 0.59
5 13 -8 0.47 0.35
-5 13 8 0.5 0.32
5 -13 -8 0.53 0.38
-5 13 7 2.21 0.38
5 -13 -7 2.03 0.39
-5 13 6 0.15 0.3
-5 -13 6 0.59 0.39
5 -13 -6 -0.28 0.33
-5 13 5 1.68 0.37
5 -13 -5 1.63 0.37
-5 -13 5 2.04 0.4
-5 13 4 0.01 0.3
-5 -13 4 0.1 0.33
5 -13 -4 0.27 0.35
5 13 -3 0.34 0.23
-5 13 3 0.35 0.27
5 -13 -3 -0.04 0.33
-5 -13 3 0.24 0.33
5 13 -2 0.98 0.23
-5 13 2 0.37 0.3
-5 13 2 0.6 0.27
-5 -13 2 0.3 0.33
5 13 -1 1.49 0.31
-5 13 1 1.63 0.35
5 13 -1 2.15 0.28
-5 13 1 1.83 0.31
-5 -13 1 1.92 0.38
5 13 0 0.49 0.26
5 13 0 0.51 0.24
-5 13 0 0.22 0.31
-5 13 0 0.51 0.28
-5 -13 0 0.67 0.35
5 13 1 1.14 0.31
-5 13 -1 1.42 0.35
5 13 1 1.31 0.27
-5 13 -1 1.26 0.3
-5 -13 -1 1.28 0.39
-5 13 -2 0.23 0.34
5 13 2 -0.2 0.24
-5 13 -2 0.6 0.28
5 13 2 0.13 0.28
-5 -13 -2 0.63 0.38
-5 13 -3 0.39 0.35
5 13 3 0.74 0.3
5 13 3 0.54 0.29
-5 13 -3 0.86 0.27
-5 -13 -3 0.96 0.39
-5 13 -4 0.61 0.34
5 13 4 0.37 0.29
5 13 4 0.03 0.3
-5 -13 -4 0.26 0.39
5 13 5 0.79 0.37
-5 13 -5 0.63 0.41
5 13 5 0.75 0.31
-5 -13 -5 0.65 0.42
5 13 6 0.1 0.3
5 13 6 0.29 0.36
-5 13 -6 0.98 0.46
-5 -13 -6 0.72 0.41
-5 14 8 1.42 0.39
5 -14 -8 0.79 0.42
-5 14 7 2.79 0.45
-5 -14 7 3.74 0.54
5 -14 -7 3.08 0.48
-5 14 6 0.29 0.35
-5 -14 6 0.58 0.41
5 -14 -6 0.26 0.38
-5 14 5 -0.39 0.29
-5 -14 5 0.09 0.4
5 -14 -5 -0.12 0.35
-5 14 4 2.67 0.41
-5 -14 4 2.85 0.45
5 -14 -4 2.55 0.44
5 14 -3 2.16 0.31
-5 14 3 2.09 0.39
5 -14 -3 2.3 0.43
-5 -14 3 2.94 0.43
-5 14 2 1.53 0.36
5 14 -2 2.05 0.28
-5 14 2 1.24 0.35
-5 -14 2 1.7 0.39
5 14 -1 0.8 0.29
-5 14 1 0.68 0.34
-5 14 1 1.07 0.33
5 14 -1 1.74 0.27
-5 -14 1 1.31 0.39
-5 14 0 1.48 0.39
5 14 0 1.08 0.3
-5 14 0 1.79 0.34
5 14 0 1.91 0.28
-5 -14 0 1.45 0.4
-5 14 -1 0.99 0.31
-5 14 -1 0.81 0.36
5 14 1 1.57 0.29
5 14 1 0.94 0.32
-5 -14 -1 0.57 0.4
-5 14 -2 1.18 0.38
5 14 2 1.4 0.33
-5 14 -2 0.9 0.31
-5 -14 -2 1.23 0.42
5 14 3 0.06 0.28
-5 14 -3 0.29 0.38
-5 14 -3 0.47 0.29
5 14 3 0.05 0.3
-5 -14 -3 0.32 0.4
5 14 4 0.01 0.3
5 14 4 -0.06 0.31
-5 14 -4 0.42 0.39
-5 -14 -4 0.27 0.41
5 14 5 1.47 0.35
-5 14 -5 1.7 0.46
5 14 5 1.76 0.41
-5 -14 -5 1.53 0.47
-5 15 8 -0.43 0.33
-5 15 7 -0.02 0.36
-5 -15 7 0.63 0.44
5 -15 -7 -0.2 0.41
-5 15 6 1.86 0.42
5 -15 -6 1.86 0.46
-5 -15 6 2.15 0.48
-5 15 5 0.31 0.35
5 -15 -5 0.55 0.42
-5 -15 5 0.01 0.41
-5 15 4 0.64 0.33
-5 -15 4 1.12 0.42
5 -15 -4 0.72 0.4
-5 15 3 0.03 0.31
5 -15 -3 -0.56 0.37
-5 -15 3 -0.74 0.39
5 15 -2 1.12 0.27
-5 15 2 0.89 0.35
-5 -15 2 0.91 0.4
5 15 -1 0.31 0.29
-5 15 1 0.15 0.35
5 15 -1 0.15 0.24
-5 15 1 0.56 0.33
-5 -15 1 0.44 0.39
-5 15 0 -0.03 0.34
5 15 0 -0.16 0.3
5 15 0 0.37 0.24
-5 15 0 0.05 0.31
-5 -15 0 -0.06 0.39
-5 15 -1 0.09 0.31
5 15 1 0.73 0.27
-5 15 -1 0.16 0.36
5 15 1 0.27 0.29
-5 -15 -1 0.31 0.41
-5 15 -2 0.22 0.31
5 15 2 -0.19 0.31
5 15 2 0.2 0.28
-5 15 -2 0.02 0.37
-5 -15 -2 0.18 0.43
-5 15 -3 -0.3 0.32
5 15 3 -0.42 0.27
5 15 3 0.45 0.32
-5 15 -3 0.46 0.39
-5 -15 -3 -0.26 0.42
5 15 4 0.01 0.32
5 15 4 0.18 0.32
-5 15 -4 0.61 0.42
-5 -15 -4 0.24 0.44
-5 16 6 0.63 0.4
-5 -16 6 0.53 0.47
5 -16 -6 0.37 0.44
-5 16 5 0.22 0.37
5 -16 -5 0.25 0.44
-5 -16 5 1.05 0.47
-5 16 4 0.78 0.35
5 -16 -4 0.09 0.44
-5 -16 4 1.17 0.45
-5 16 3 1.29 0.4
5 -16 -3 1.18 0.45
-5 -16 3 1.36 0.45
-5 16 2 -0.05 0.35
5 -16 -2 0.36 0.42
-5 -16 2 0.35 0.45
-5 16 1 0.77 0.4
-5 16 1 1.09 0.37
5 16 -1 0.58 0.34
-5 -16 1 0.91 0.45
-5 16 0 0.3 0.38
-5 16 0 -0.21 0.33
5 16 0 -0.01 0.33
-5 -16 0 -0.44 0.41
-5 16 -1 0.95 0.41
5 16 1 0.73 0.35
-5 16 -1 1.38 0.38
-5 -16 -1 0.88 0.45
-5 16 -2 -0.09 0.35
5 16 2 -0.12 0.34
-5 16 -2 -0.07 0.39
-5 -16 -2 0.29 0.44
-5 16 -3 2.07 0.47
5 16 3 1.95 0.39
-5 -16 -3 1.84 0.53
-5 17 5 0.29 0.4
-5 17 4 0.24 0.36
-5 -17 4 0.4 0.5
5 -17 -4 0.24 0.44
-5 17 3 0.12 0.39
5 -17 -3 0.77 0.47
-5 -17 3 -0.21 0.46
-5 17 2 0.09 0.38
5 -17 -2 1 0.46
-5 -17 2 0.39 0.46
-5 17 1 0.24 0.37
5 17 -1 -0.22 0.31
-5 -17 1 -0.22 0.46
-5 17 0 0.04 0.35
-5 17 0 0.1 0.39
5 17 0 0.24 0.36
-5 -17 0 0.19 0.46
-5 17 -1 0.18 0.4
-5 17 -1 0.4 0.36
5 17 1 0.07 0.35
-5 -17 -1 -0.15 0.47
-6 0 13 0.38 0.39
-6 0 12 9.67 0.89
-6 0 11 0.05 0.2
-6 0 11 -0.05 0.34
-6 0 10 0.21 0.28
-6 0 10 0.16 0.19
-6 0 9 0.27 0.28
-6 0 9 -0.02 0.16
-6 0 8 13.99 1.02
-6 0 8 15.58 0.93
-6 0 7 0.41 0.16
-6 0 6 3.5 0.33
-6 0 5 0.07 0.14
-6 0 4 25.73 1.52
-6 0 3 0.05 0.07
-6 0 3 -0.11 0.05
6 0 -3 -0.07 0.11
-6 0 2 93.82 5.7
-6 0 2 99.15 5.6
6 0 -2 101.87 5.77
6 0 -1 -0.19 0.12
-6 0 1 -0.16 0.12
-6 0 1 -0.04 0.12
-6 0 0 15.07 0.98
-6 0 0 16.64 1.01
6 0 0 17.44 1.03
-6 0 -1 0.08 0.15
-6 0 -1 -0.05 0.04
6 0 1 -0.12 0.13
-6 0 -2 66.3 3.63
6 0 2 57.02 3.64
-6 0 -3 0.11 0.2
-6 0 -3 0.02 0.12
6 0 3 -0.18 0.14
6 0 4 4.11 0.38
-6 0 -4 4.53 0.34
6 0 5 -0.04 0.21
6 0 6 3.33 0.37
-6 0 -6 4.45 0.46
-6 0 -7 -0.07 0.33
6 0 7 0.07 0.26
6 0 8 15.04 1.06
-6 0 -8 17.49 1.18
6 0 9 -0.11 0.32
-6 0 -9 0.08 0.39
-6 1 13 0.32 0.42
-6 -1 13 0.88 0.4
-6 1 12 1.61 0.43
-6 -1 12 2.41 0.45
-6 1 11 1.68 0.4
-6 1 11 2.01 0.27
-6 -1 11 2.2 0.26
-6 -1 11 1.93 0.41
-6 1 10 3.99 0.41
-6 1 10 3.92 0.46
-6 -1 10 4.32 0.49
-6 -1 10 4.63 0.4
-6 1 9 0.95 0.21
-6 1 9 1.23 0.29
-6 -1 9 1.47 0.32
-6 -1 9 1.26 0.21
-6 1 8 8.73 0.6
-6 1 8 8.94 0.7
-6 -1 8 8.83 0.6
-6 1 7 18.82 1.15
-6 -1 7 19.3 1.16
-6 1 6 35.51 2.03
-6 -1 6 34.05 2.03
-6 1 5 61.82 3.2
-6 -1 5 49.57 3.19
-6 1 4 0.99 0.16
6 1 -4 0.84 0.15
-6 -1 4 1.18 0.18
-6 1 3 0.97 0.1
-6 1 3 0.4 0.13
6 1 -3 0.72 0.15
-6 -1 3 0.96 0.11
6 -1 -3 0.84 0.14
-6 1 2 50.02 3.25
-6 1 2 56.48 3.31
6 1 -2 59.33 3.37
-6 -1 2 59.9 3.27
6 -1 -2 57.72 3.36
-6 -1 2 57.61 3.32
-6 1 1 66.19 3.94
-6 1 1 65.7 4.02
6 1 -1 63.82 4.07
-6 -1 1 77.9 3.95
-6 -1 1 73.3 4.03
6 -1 -1 67.16 4.07
-6 1 0 90.67 5.68
6 1 0 101.93 5.75
-6 -1 0 96.84 5.69
-6 -1 0 97.89 5.56
6 -1 0 100.85 5.74
-6 1 -1 0.76 0.18
6 1 1 0.75 0.18
-6 -1 -1 0.97 0.19
6 -1 1 0.82 0.17
-6 -1 -1 1 0.15
-6 1 -2 0.11 0.19
-6 1 -2 -0.16 0.11
6 1 2 0.05 0.16
6 -1 2 0.2 0.14
-6 -1 -2 0 0.18
-6 1 -3 9.69 0.68
6 1 3 11.01 0.74
-6 1 -3 12.92 0.79
6 -1 3 11.32 0.73
-6 -1 -3 11.52 0.78
6 1 4 5.24 0.45
-6 -1 -4 3.7 0.43
-6 -1 -4 5.49 0.36
6 -1 4 5.37 0.44
6 1 5 5.85 0.49
6 -1 5 6.1 0.5
6 1 6 1.48 0.28
-6 1 -6 1.26 0.34
6 -1 6 1.23 0.27
-6 -1 -6 1.55 0.33
6 1 7 3.31 0.38
-6 1 -7 3.28 0.45
-6 -1 -7 3.61 0.45
6 -1 7 3.03 0.35
-6 1 -8 1.32 0.42
6 1 8 1.19 0.33
-6 -1 -8 1.93 0.41
6 -1 8 1.48 0.33
-6 1 -9 -0.34 0.41
6 1 9 -0.02 0.32
6 -1 9 0.12 0.32
-6 -1 -9 0.13 0.39
-6 2 13 -0.36 0.36
-6 -2 13 0.3 0.43
-6 2 12 0.36 0.38
-6 -2 12 0.07 0.39
-6 2 11 0.56 0.23
-6 2 11 0.18 0.35
-6 -2 11 0.85 0.37
-6 2 10 4.03 0.42
-6 2 10 4.12 0.45
-6 -2 10 4.87 0.42
-6 -2 10 4.23 0.49
-6 2 9 0.55 0.27
-6 2 9 0.47 0.2
-6 -2 9 0.79 0.19
-6 -2 9 0.37 0.27
-6 2 8 0.36 0.17
-6 2 8 0.26 0.24
-6 -2 8 0.36 0.17
-6 2 7 8.91 0.69
-6 2 7 9.46 0.63
-6 -2 7 9.29 0.64
6 -2 -7 9.65 0.57
-6 2 6 4.47 0.36
-6 -2 6 3.67 0.37
-6 2 5 54.66 3.06
-6 -2 5 51.68 3.07
6 2 -4 19.11 1.17
-6 2 4 19.49 1.12
-6 2 4 18.21 1.1
-6 -2 4 20 1.15
-6 -2 4 17.77 1.1
6 2 -3 4.78 0.37
-6 2 3 4.67 0.32
-6 2 3 4.97 0.37
6 -2 -3 4.52 0.37
-6 -2 3 4.8 0.31
-6 2 2 1.73 0.15
6 2 -2 1.34 0.18
-6 2 2 1.68 0.18
6 -2 -2 1.58 0.16
-6 -2 2 1.17 0.18
-6 -2 2 1.36 0.15
-6 2 1 28.31 1.59
-6 2 1 28.02 1.56
6 2 -1 23.5 1.62
-6 -2 1 28.21 1.59
6 -2 -1 25.66 1.61
-6 -2 1 26.73 1.57
-6 2 0 2.28 0.25
-6 2 0 2.8 0.26
6 2 0 3.49 0.35
-6 -2 0 3.27 0.28
6 -2 0 3.63 0.3
-6 -2 0 2.71 0.29
6 2 1 -0.05 0.17
-6 2 -1 -0.1 0.15
-6 2 -1 -0.05 0.03
6 -2 1 -0.14 0.13
-6 -2 -1 0.23 0.13
-6 -2 -1 0.16 0.17
6 2 2 6.03 0.48
-6 2 -2 5.31 0.49
-6 2 -2 5.3 0.39
-6 -2 -2 5.86 0.49
-6 -2 -2 6.15 0.41
6 -2 2 6.46 0.45
6 2 3 15.24 0.92
-6 2 -3 14.62 0.86
-6 2 -3 14.89 0.96
6 -2 3 14.73 0.91
-6 -2 -3 15.56 0.96
-6 -2 -3 11.81 0.85
-6 2 -4 1.18 0.21
-6 -2 -4 1.27 0.13
-6 -2 -4 1.43 0.22
6 2 5 24.43 1.49
6 -2 5 23.19 1.47
-6 2 -6 -0.11 0.3
6 2 6 0.17 0.23
6 -2 6 0.16 0.23
-6 -2 -6 -0.02 0.29
6 2 7 0.23 0.28
-6 2 -7 0.3 0.35
6 -2 7 0.36 0.24
-6 -2 -7 0.63 0.32
-6 2 -8 0.5 0.38
6 2 8 0.57 0.29
-6 -2 -8 0.16 0.35
6 -2 8 0.61 0.27
6 2 9 0.66 0.34
-6 2 -9 0.28 0.4
-6 -2 -9 0.8 0.4
6 -2 9 0.32 0.32
-6 3 13 -0.1 0.36
-6 -3 13 0.41 0.43
-6 3 12 2.11 0.44
-6 -3 12 2.19 0.46
-6 3 11 2.64 0.43
-6 3 11 2.69 0.33
-6 -3 11 2.93 0.46
-6 3 10 5.09 0.54
-6 3 10 5.11 0.48
-6 -3 10 5.89 0.46
-6 -3 10 4.92 0.54
-6 3 9 15.66 1.09
-6 3 9 15.4 0.99
-6 -3 9 17.4 1.01
-6 -3 9 15.27 1.11
-6 3 8 0.85 0.26
-6 3 8 1.08 0.21
-6 -3 8 0.82 0.2
-6 3 7 1.33 0.25
6 3 -7 1.74 0.15
-6 3 7 1.55 0.22
-6 -3 7 1.63 0.23
6 -3 -7 1.72 0.16
-6 3 6 17.93 1.08
-6 -3 6 18.07 1.05
-6 -3 6 17.9 1.1
6 -3 -6 17.17 1.05
-6 3 5 15.68 0.92
-6 -3 5 14.43 0.88
6 -3 -5 14.25 0.89
-6 -3 5 15.94 0.95
-6 3 4 2.98 0.24
-6 3 4 2.96 0.29
-6 -3 4 3.07 0.23
-6 -3 4 3.15 0.31
-6 3 3 16.68 0.96
-6 3 3 15.51 0.95
-6 -3 3 15.24 0.94
6 -3 -3 15.86 0.97
-6 3 2 0.5 0.11
-6 3 2 0.68 0.14
6 3 -2 0.19 0.09
6 -3 -2 0.45 0.11
-6 -3 2 0.41 0.12
-6 -3 2 0.38 0.13
-6 3 1 39.3 2.19
-6 3 1 39.07 2.14
-6 -3 1 36.52 2.15
6 -3 -1 34.61 2.2
-6 -3 1 36.04 2.18
-6 3 0 12.81 0.79
-6 3 0 12.88 0.75
-6 -3 0 11.37 0.76
6 -3 0 12.88 0.78
-6 -3 0 11.45 0.74
6 3 1 19.52 1.46
-6 3 -1 25.32 1.46
6 -3 1 24.03 1.45
-6 -3 -1 26.53 1.45
-6 -3 -1 24.03 1.4
-6 3 -2 1.35 0.16
-6 3 -2 1.74 0.25
6 3 2 1.44 0.22
-6 -3 -2 2.15 0.19
6 -3 2 2.08 0.2
-6 -3 -2 2.27 0.26
6 3 3 0.48 0.2
-6 3 -3 1.12 0.14
-6 3 -3 0.65 0.24
6 -3 3 0.84 0.17
-6 -3 -3 0.83 0.15
-6 -3 -3 0.68 0.25
-6 3 -4 0.06 0.12
-6 3 -4 0.25 0.11
6 3 4 0.1 0.04
6 -3 4 0.15 0.17
-6 -3 -4 -0.02 0.14
-6 3 -5 9.54 0.88
6 3 5 11.89 0.86
-6 -3 -5 13.99 0.79
-6 -3 -5 12.05 0.87
6 -3 5 15.09 0.85
-6 3 -6 6.19 0.66
6 3 6 7.8 0.64
-6 -3 -6 8.22 0.7
6 -3 6 8.06 0.6
-6 3 -7 2.09 0.41
6 3 7 1.79 0.34
6 -3 7 1.88 0.31
-6 -3 -7 1.79 0.38
6 3 8 0.14 0.31
-6 3 -8 0.3 0.39
6 -3 8 0.82 0.3
-6 -3 -8 0.88 0.36
-6 3 -9 0.56 0.42
6 3 9 0.65 0.32
6 -3 9 0.94 0.33
-6 -3 -9 0.94 0.42
-6 4 13 1.05 0.43
-6 -4 13 0.61 0.44
-6 4 12 0.67 0.37
-6 -4 12 -0.13 0.39
-6 4 11 -0.03 0.25
-6 4 11 0.3 0.33
-6 -4 11 0.14 0.37
-6 4 10 5.45 0.53
-6 4 10 5.37 0.48
-6 -4 10 5.75 0.48
-6 -4 10 5.95 0.61
-6 4 9 0.5 0.21
-6 4 9 0.45 0.28
-6 -4 9 0.44 0.2
-6 -4 9 0.42 0.31
-6 4 8 5.26 0.5
-6 4 8 5.26 0.43
-6 -4 8 4.27 0.43
-6 4 7 6.78 0.48
6 4 -7 6.12 0.42
-6 4 7 6.49 0.52
-6 -4 7 5.75 0.5
6 -4 -7 5.99 0.42
-6 4 6 0.17 0.17
-6 4 6 0.1 0.16
6 -4 -6 0.1 0.12
-6 -4 6 0.03 0.18
-6 -4 6 0.1 0.13
-6 4 5 16.27 0.98
6 -4 -5 15.5 0.96
-6 -4 5 16.2 0.96
-6 -4 5 15.94 1.01
6 4 -4 17 1.13
-6 4 4 17.53 1.08
-6 -4 4 18.67 1.08
-6 -4 4 18.94 1.11
-6 4 3 27.68 1.59
6 4 -3 28.1 1.65
-6 4 3 26.62 1.6
-6 -4 3 27.14 1.59
-6 -4 3 25.46 1.58
-6 4 2 124.64 6.94
-6 4 2 118.3 7.09
6 4 -2 127.84 7.18
-6 -4 2 120.69 6.94
-6 -4 2 119.32 7.08
6 -4 -2 121.74 7.15
-6 4 1 6.52 0.44
6 4 -1 4.59 0.48
-6 4 1 6.95 0.44
-6 -4 1 6.14 0.42
6 -4 -1 6.18 0.43
-6 -4 1 5.88 0.43
-6 4 0 8.69 0.56
6 4 0 8.61 0.6
-6 4 0 9.15 0.58
6 -4 0 8.32 0.57
-6 -4 0 8.16 0.56
-6 4 -1 31.56 1.77
-6 4 -1 29.58 1.7
6 4 1 27.45 1.78
-6 -4 -1 29.78 1.75
6 -4 1 28.25 1.76
-6 4 -2 30.71 1.84
6 -4 2 29.52 1.81
-6 -4 -2 30.64 1.82
-6 4 -3 1.16 0.15
-6 4 -3 0.81 0.25
-6 -4 -3 0.95 0.25
6 -4 3 1.2 0.18
-6 4 -4 0.03 0.12
-6 -4 -4 0.21 0.17
6 -4 4 -0.15 0.18
6 4 5 0.96 0.23
-6 4 -5 0.53 0.3
-6 -4 -5 0.57 0.31
6 -4 5 1.22 0.23
6 4 6 2.82 0.35
-6 4 -6 1.5 0.38
-6 -4 -6 2.43 0.41
6 -4 6 3.07 0.32
-6 4 -7 -0.15 0.34
6 4 7 0.56 0.3
-6 -4 -7 0.58 0.35
6 -4 7 0.51 0.26
-6 4 -8 -0.13 0.37
6 4 8 0.76 0.3
-6 -4 -8 0.94 0.38
6 -4 8 0.44 0.29
6 4 9 0.54 0.33
-6 4 -9 0.33 0.42
6 -4 9 0.65 0.32
-6 -4 -9 0.59 0.38
-6 5 13 0.24 0.4
-6 -5 13 0.54 0.45
-6 5 12 0.71 0.38
-6 -5 12 0.81 0.43
-6 5 11 0.38 0.32
-6 5 11 0.02 0.26
-6 -5 11 0.36 0.39
-6 5 10 1.6 0.29
-6 5 10 1.52 0.34
-6 -5 10 1.71 0.26
-6 -5 10 1.31 0.38
-6 5 9 0.34 0.22
-6 5 9 0.18 0.25
-6 -5 9 0.3 0.21
-6 5 8 0.02 0.2
-6 5 8 0.32 0.23
-6 -5 8 -0.31 0.19
-6 5 7 1.02 0.21
-6 5 7 0.69 0.22
6 5 -7 1 0.16
6 -5 -7 1.43 0.19
-6 -5 7 1.19 0.24
-6 5 6 19.1 1.17
-6 5 6 18.76 1.19
6 -5 -6 19.38 1.15
-6 -5 6 18.34 1.15
-6 -5 6 20.7 1.21
-6 5 5 0.41 0.15
-6 5 5 0.21 0.14
-6 -5 5 0.2 0.15
6 -5 -5 0.5 0.15
-6 -5 5 0.44 0.19
6 5 -4 4.34 0.38
-6 5 4 4.18 0.34
-6 -5 4 4.44 0.38
-6 -5 4 4.15 0.34
-6 5 3 25.48 1.51
6 5 -3 25.55 1.55
-6 5 3 24.4 1.49
-6 -5 3 25.22 1.49
-6 -5 3 25.8 1.51
-6 5 2 17.14 1.04
6 5 -2 17.17 1.07
-6 5 2 16.79 1.01
6 -5 -2 16.56 1.02
-6 -5 2 16.84 1.03
6 5 -1 1.57 0.23
-6 5 1 1.72 0.2
-6 5 1 1.63 0.21
-6 -5 1 1.73 0.22
6 -5 -1 1.97 0.17
-6 5 0 6.76 0.49
6 5 0 5.42 0.48
-6 5 0 6.18 0.42
6 -5 0 5.95 0.43
-6 -5 0 5.75 0.45
6 5 1 5.11 0.48
-6 5 -1 5.73 0.47
-6 5 -1 5.03 0.38
-6 -5 -1 4.84 0.4
6 -5 1 4.7 0.4
-6 5 -2 0.12 0.12
-6 5 -2 0.54 0.21
6 5 2 0.34 0.22
-6 -5 -2 0.02 0.2
6 -5 2 0.34 0.13
-6 5 -3 28.06 1.67
6 5 3 25.65 1.66
6 -5 3 27.27 1.62
-6 -5 -3 26.66 1.64
-6 5 -4 1.46 0.28
6 5 4 1.71 0.27
6 -5 4 2.12 0.23
-6 -5 -4 2 0.31
6 5 5 0.16 0.22
-6 5 -5 -0.06 0.29
-6 -5 -5 -0.15 0.28
6 -5 5 0.2 0.2
-6 5 -6 -0.42 0.31
6 5 6 0.22 0.27
6 -5 6 0.26 0.23
-6 -5 -6 0.1 0.34
6 5 7 2.25 0.35
-6 5 -7 0.67 0.4
6 -5 7 2.38 0.32
-6 -5 -7 1.72 0.38
6 5 8 0.42 0.33
-6 5 -8 -1.07 0.37
-6 -5 -8 0.51 0.39
6 -5 8 0.78 0.3
6 5 9 1.45 0.36
-6 5 -9 0.49 0.45
6 -5 9 1.39 0.35
-6 -5 -9 1.34 0.43
-6 6 12 0.42 0.36
-6 6 12 0.37 0.32
-6 -6 12 0.43 0.38
-6 6 11 4.95 0.5
-6 6 11 5.3 0.51
-6 -6 11 4.26 0.56
-6 6 10 1.67 0.33
-6 6 10 1.81 0.31
-6 -6 10 1.99 0.28
-6 -6 10 1.5 0.41
-6 6 9 7.9 0.62
-6 6 9 7.69 0.57
-6 -6 9 5.36 0.57
-6 6 8 4.17 0.42
-6 6 8 4.42 0.46
-6 -6 8 4.16 0.41
-6 6 7 36.88 2.21
-6 6 7 35.15 2.15
-6 -6 7 37.68 2.18
-6 6 6 17.6 1.07
-6 6 6 17.71 1.1
-6 -6 6 16.81 1.07
-6 -6 6 17.93 1.1
-6 6 5 8.03 0.57
-6 -6 5 8.97 0.59
-6 -6 5 7.78 0.55
-6 6 4 1.36 0.19
6 6 -4 1.45 0.22
-6 -6 4 1.25 0.21
-6 -6 4 1.23 0.2
-6 6 3 9.37 0.63
6 6 -3 9.78 0.68
-6 6 3 9.09 0.63
-6 -6 3 9.97 0.63
-6 6 2 7.13 0.49
-6 6 2 7.09 0.52
6 6 -2 7.86 0.56
-6 -6 2 7.17 0.51
6 6 -1 27.38 1.82
-6 6 1 29.86 1.74
-6 6 1 31.26 1.79
6 -6 -1 29.8 1.77
-6 -6 1 30.79 1.78
-6 6 0 1.12 0.17
-6 6 0 0.83 0.2
6 6 0 0.97 0.2
-6 -6 0 0.68 0.2
6 -6 0 0.73 0.13
-6 6 -1 1.51 0.19
-6 6 -1 1.51 0.24
6 6 1 1.32 0.23
-6 -6 -1 1.17 0.23
6 -6 1 1.17 0.17
-6 6 -2 6.85 0.54
6 6 2 6.01 0.56
-6 6 -2 6.33 0.44
6 -6 2 5.28 0.44
-6 -6 -2 6.19 0.49
-6 6 -3 42.62 2.45
6 6 3 39.31 2.46
-6 -6 -3 40.34 2.42
6 -6 3 39.61 2.4
-6 6 -4 1.84 0.33
6 6 4 1.67 0.3
6 -6 4 2.04 0.24
-6 -6 -4 2.28 0.33
6 6 5 0.01 0.23
-6 6 -5 0.2 0.3
6 -6 5 0.37 0.21
-6 -6 -5 0.29 0.3
6 6 6 0.33 0.28
-6 6 -6 0.15 0.33
-6 -6 -6 -0.38 0.32
6 -6 6 0.49 0.23
-6 6 -7 0.27 0.37
6 6 7 0.73 0.29
6 -6 7 0.56 0.26
-6 -6 -7 0.06 0.37
6 6 8 0.27 0.33
-6 6 -8 -0.32 0.39
6 -6 8 -0.02 0.29
-6 -6 -8 -0.34 0.38
-6 6 -9 -0.18 0.43
6 6 9 0.6 0.37
6 -6 9 0.34 0.31
-6 -6 -9 0.64 0.42
-6 7 12 -0.16 0.3
-6 7 12 0.23 0.35
-6 -7 12 -0.08 0.36
-6 7 11 -0.25 0.3
-6 7 11 0 0.31
-6 -7 11 0.08 0.36
-6 7 10 0.6 0.29
-6 7 10 0.36 0.28
-6 -7 10 0.63 0.25
-6 -7 10 1.01 0.38
-6 7 9 0.27 0.25
-6 7 9 0.46 0.27
-6 -7 9 0.1 0.25
-6 7 8 0.09 0.23
-6 7 8 0.27 0.21
-6 -7 8 0.1 0.24
6 -7 -8 0.02 0.21
6 7 -7 8.46 0.61
-6 7 7 9.11 0.65
-6 7 7 8.56 0.62
6 -7 -7 9.02 0.62
-6 -7 7 9.53 0.68
-6 7 6 1.13 0.21
-6 7 6 1.02 0.22
-6 -7 6 1.51 0.25
6 -7 -6 1.49 0.22
-6 -7 6 1.11 0.23
-6 7 5 0.5 0.19
-6 -7 5 0.79 0.21
6 -7 -5 0.83 0.2
-6 -7 5 0.95 0.21
-6 7 4 11.37 0.74
6 7 -4 11.28 0.76
-6 7 4 11.49 0.72
-6 -7 4 11.04 0.73
-6 7 3 22.31 1.36
-6 7 3 22.06 1.34
6 7 -3 21.93 1.39
-6 -7 3 22.68 1.35
6 7 -2 1.1 0.2
-6 7 2 0.83 0.19
-6 7 2 0.71 0.19
-6 -7 2 0.89 0.22
-6 7 1 9.37 0.63
-6 7 1 9.85 0.66
6 7 -1 9.13 0.69
6 -7 -1 9.29 0.58
-6 -7 1 9.63 0.64
-6 7 0 5.57 0.41
-6 7 0 5.73 0.46
6 7 0 5.33 0.44
-6 -7 0 6.22 0.44
6 -7 0 3.96 0.37
-6 7 -1 15.7 1.03
-6 7 -1 15.7 0.96
6 7 1 16.13 1.03
-6 -7 -1 16.02 1.01
6 -7 1 15.65 0.98
6 7 2 2.05 0.3
-6 7 -2 1.79 0.21
-6 7 -2 2.14 0.3
-6 -7 -2 2.15 0.3
6 -7 2 1.82 0.2
6 7 3 1.27 0.3
-6 7 -3 1.55 0.31
-6 7 -3 1.29 0.21
6 -7 3 1.63 0.2
-6 -7 -3 1.29 0.27
6 7 4 2.08 0.34
-6 7 -4 2.27 0.36
-6 -7 -4 2.08 0.34
6 -7 4 2.16 0.25
-6 7 -5 0.7 0.32
6 7 5 -0.05 0.27
6 -7 5 0.3 0.21
-6 -7 -5 0.16 0.3
6 7 6 1.19 0.32
-6 7 -6 1.08 0.37
-6 -7 -6 0.59 0.36
6 -7 6 0.39 0.25
6 7 7 1.1 0.31
-6 7 -7 1.1 0.4
-6 -7 -7 0.98 0.4
6 -7 7 1.24 0.3
6 7 8 0.3 0.34
-6 7 -8 -0.19 0.42
-6 -7 -8 -0.07 0.41
6 -7 8 -0.34 0.29
-6 8 12 0.18 0.34
-6 8 12 -0.46 0.34
-6 -8 12 0.05 0.42
-6 8 11 1 0.33
-6 8 11 0.98 0.35
-6 -8 11 1.07 0.42
-6 8 10 8.68 0.7
-6 8 10 8.1 0.64
-6 -8 10 8.17 0.76
-6 -8 10 6.04 0.64
-6 8 9 0.07 0.25
-6 8 9 0.04 0.26
-6 -8 9 -0.22 0.24
-6 8 8 1.43 0.27
-6 8 8 1.54 0.3
6 -8 -8 1.47 0.28
-6 -8 8 1.6 0.32
-6 8 7 6.8 0.55
-6 8 7 6.9 0.54
-6 -8 7 7.7 0.59
6 -8 -7 7.18 0.53
-6 8 6 3.61 0.38
-6 8 6 3.73 0.37
-6 -8 6 3.68 0.39
6 -8 -6 3.96 0.4
-6 -8 6 4.15 0.38
-6 8 5 3.89 0.37
-6 -8 5 4.77 0.41
6 -8 -5 5.88 0.44
-6 8 4 24.85 1.53
-6 8 4 25.41 1.51
6 8 -4 25 1.57
-6 -8 4 25.7 1.53
-6 8 3 2.75 0.29
6 8 -3 2.43 0.28
-6 8 3 2.36 0.27
-6 -8 3 2.52 0.29
6 8 -2 0.18 0.18
-6 8 2 0.21 0.19
-6 8 2 0.31 0.19
-6 -8 2 0.14 0.22
6 8 -1 -0.02 0.19
-6 8 1 0.21 0.19
-6 8 1 0 0.17
-6 -8 1 0.06 0.22
-6 8 0 8.79 0.66
-6 8 0 9.02 0.63
-6 -8 0 9.64 0.65
6 -8 0 8.88 0.56
-6 8 -1 0.23 0.18
6 8 1 0.7 0.23
-6 8 -1 0.59 0.24
-6 -8 -1 0.68 0.26
6 -8 1 0.32 0.13
6 8 2 1.8 0.3
-6 8 -2 1.77 0.23
-6 8 -2 1.41 0.3
-6 -8 -2 2.09 0.32
6 -8 2 1.52 0.19
-6 8 -3 -0.11 0.26
-6 8 -3 -0.07 0.17
6 8 3 -0.14 0.25
-6 -8 -3 -0.14 0.26
6 -8 3 -0.02 0.14
-6 8 -4 7.6 0.65
6 8 4 5.44 0.58
6 -8 4 6.8 0.51
-6 -8 -4 6.31 0.59
6 8 5 -0.17 0.29
-6 8 -5 0.64 0.34
-6 -8 -5 0.04 0.32
6 -8 5 0.15 0.2
-6 8 -6 1.75 0.42
6 8 6 1.46 0.35
6 -8 6 1.67 0.29
-6 -8 -6 1.72 0.4
6 8 7 1.42 0.34
-6 8 -7 0.97 0.44
6 -8 7 1.51 0.31
-6 -8 -7 1.4 0.42
6 8 8 -0.03 0.35
-6 8 -8 0.5 0.44
6 -8 8 -0.07 0.3
-6 -8 -8 0.32 0.43
-6 9 11 0.64 0.33
-6 9 11 0.45 0.33
-6 -9 11 0.84 0.42
-6 9 10 2.51 0.34
-6 9 10 2.34 0.4
-6 -9 10 2.01 0.45
-6 9 9 1.22 0.29
-6 9 9 1.81 0.34
-6 -9 9 1.72 0.35
-6 9 8 3.06 0.33
-6 9 8 2.96 0.38
-6 -9 8 3.31 0.4
6 -9 -8 3.44 0.37
-6 9 7 1.4 0.3
-6 -9 7 1.52 0.29
6 -9 -7 1.75 0.28
-6 9 6 15.93 1.04
6 -9 -6 16.78 1.06
-6 -9 6 16.09 1.05
-6 -9 6 16.74 1.05
6 -9 -5 22.98 1.44
-6 -9 5 23.44 1.43
6 9 -4 27.91 1.71
-6 -9 4 27.19 1.67
-6 9 3 0.01 0.2
-6 9 3 -0.01 0.2
6 9 -3 0.45 0.2
-6 -9 3 0.36 0.24
-6 9 2 0.42 0.22
-6 9 2 0.06 0.2
6 9 -2 0.33 0.2
-6 -9 2 0.08 0.23
-6 9 1 1.52 0.24
6 9 -1 1.57 0.25
-6 9 1 1.29 0.26
-6 -9 1 1.52 0.29
6 9 0 2.28 0.33
-6 9 0 3.25 0.32
-6 9 0 3.48 0.35
-6 -9 0 3.53 0.38
-6 9 -1 5.58 0.53
-6 9 -1 5.51 0.45
6 9 1 5.26 0.55
-6 -9 -1 5.32 0.5
6 9 2 8.98 0.67
-6 9 -2 7.61 0.67
-6 9 -2 7.64 0.58
-6 -9 -2 7.58 0.63
-6 9 -3 0.64 0.31
6 9 3 0.82 0.29
-6 9 -3 0.67 0.22
-6 -9 -3 0.91 0.32
6 9 4 7.3 0.69
-6 9 -4 8.39 0.71
-6 -9 -4 6.97 0.64
-6 9 -5 0.1 0.35
6 9 5 -0.05 0.31
-6 -9 -5 0.24 0.3
-6 9 -6 5.61 0.61
6 9 6 5.51 0.56
-6 -9 -6 6.71 0.64
-6 9 -7 0.62 0.43
6 9 7 0.35 0.34
-6 -9 -7 0.75 0.41
6 9 8 0.03 0.36
-6 9 -8 0.03 0.44
-6 -9 -8 0.03 0.43
-6 10 11 1.78 0.39
-6 -10 11 2.14 0.48
-6 10 10 0.18 0.31
-6 -10 10 -0.22 0.38
-6 10 9 0.3 0.3
-6 -10 9 0.91 0.33
-6 10 8 7.01 0.65
-6 -10 8 8.5 0.66
6 -10 -8 8.33 0.65
-6 10 7 6.81 0.61
-6 -10 7 7.17 0.58
6 -10 -7 7.22 0.59
-6 -10 7 7.57 0.6
-6 10 6 0.75 0.28
-6 -10 6 0.81 0.29
-6 10 5 0.56 0.26
-6 -10 5 0.12 0.27
6 -10 -5 -0.01 0.24
-6 10 4 1.45 0.27
6 10 -4 1.69 0.27
-6 -10 4 1.67 0.31
-6 10 3 0.1 0.24
-6 10 3 0.03 0.21
6 10 -3 0.16 0.2
-6 -10 3 -0.32 0.24
6 10 -2 0.57 0.21
-6 10 2 0.52 0.24
-6 10 2 0.32 0.23
-6 -10 2 0.3 0.28
-6 10 1 18.38 1.2
-6 10 1 18.92 1.17
6 10 -1 18.76 1.21
-6 -10 1 18.72 1.2
-6 10 0 4.02 0.4
-6 10 0 3.93 0.4
6 10 0 2.98 0.37
-6 -10 0 3.72 0.41
-6 10 -1 0.1 0.21
-6 10 -1 0.39 0.27
6 10 1 -0.05 0.23
-6 -10 -1 -0.02 0.31
-6 10 -2 0.99 0.25
6 10 2 1.11 0.29
-6 10 -2 1.07 0.33
-6 -10 -2 1.25 0.33
6 10 3 2.06 0.35
-6 10 -3 2.36 0.4
-6 10 -3 2.13 0.28
-6 -10 -3 2.03 0.37
6 10 4 2.55 0.41
-6 10 -4 3.05 0.44
-6 -10 -4 2.82 0.41
-6 10 -5 0.28 0.33
6 10 5 0.29 0.3
-6 -10 -5 0.33 0.35
6 10 6 0.69 0.37
-6 10 -6 1.59 0.45
-6 -10 -6 1.07 0.41
-6 10 -7 0.24 0.44
6 10 7 0.04 0.36
-6 -10 -7 0.29 0.42
-6 11 10 -0.23 0.33
-6 -11 10 0.08 0.4
-6 11 9 2.44 0.4
-6 -11 9 2.31 0.39
-6 11 8 2.78 0.41
-6 -11 8 3.79 0.43
6 -11 -8 3.46 0.43
-6 11 7 0.57 0.3
-6 -11 7 0.64 0.29
6 -11 -7 0.86 0.31
-6 -11 7 0.81 0.33
-6 11 6 0.33 0.26
-6 -11 6 0.31 0.31
6 -11 -6 0.72 0.3
-6 11 5 3.44 0.39
-6 -11 5 3.37 0.41
6 -11 -5 3.27 0.41
-6 11 4 8.75 0.68
6 11 -4 8.97 0.68
-6 -11 4 8.7 0.67
6 -11 -4 8.34 0.68
-6 11 3 8.29 0.67
-6 11 3 8.54 0.65
6 11 -3 8.4 0.66
-6 -11 3 8.21 0.64
6 11 -2 7.8 0.61
-6 11 2 7.37 0.61
-6 11 2 7.82 0.62
-6 -11 2 7.26 0.61
6 11 -1 0.51 0.23
-6 11 1 0.34 0.24
-6 11 1 0.02 0.26
-6 -11 1 0.43 0.29
-6 11 0 7.81 0.63
-6 11 0 7.08 0.57
6 11 0 6.09 0.61
-6 -11 0 7.83 0.62
-6 11 -1 0.64 0.3
-6 11 -1 0.65 0.24
6 11 1 -0.05 0.25
-6 -11 -1 0.4 0.32
6 11 2 1.5 0.31
-6 11 -2 0.74 0.25
-6 11 -2 1.09 0.34
-6 -11 -2 1.02 0.35
-6 11 -3 1.97 0.3
-6 11 -3 2.38 0.41
6 11 3 2.1 0.35
-6 -11 -3 2.45 0.41
-6 11 -4 0.31 0.36
6 11 4 0.45 0.33
-6 -11 -4 0.63 0.36
-6 11 -5 0.84 0.41
6 11 5 0.55 0.35
-6 -11 -5 0.7 0.38
6 11 6 1.16 0.4
-6 11 -6 1.73 0.47
-6 -11 -6 1.19 0.42
-6 11 -7 1.93 0.52
6 11 7 1.62 0.43
-6 -11 -7 1.82 0.47
-6 12 10 0.07 0.36
-6 -12 10 0.17 0.41
-6 12 9 -0.2 0.34
-6 -12 9 0.32 0.34
-6 12 8 0.93 0.35
-6 -12 8 1.12 0.35
6 -12 -8 0.89 0.36
-6 12 7 0.31 0.32
-6 -12 7 0.36 0.38
6 -12 -7 0.36 0.33
-6 12 6 0.6 0.32
6 -12 -6 -0.09 0.32
-6 -12 6 1.08 0.35
-6 12 5 5.4 0.53
6 -12 -5 6.48 0.59
-6 -12 5 5.39 0.56
6 12 -4 1.94 0.3
-6 12 4 1.99 0.32
-6 -12 4 2.12 0.36
6 -12 -4 2.15 0.37
-6 12 3 -0.23 0.23
-6 12 3 -0.05 0.28
6 12 -3 0.34 0.23
-6 -12 3 0.22 0.3
-6 12 2 1.74 0.32
6 12 -2 2.01 0.29
-6 12 2 1.76 0.34
-6 -12 2 2.09 0.37
-6 12 1 1.1 0.29
-6 12 1 0.77 0.31
6 12 -1 0.98 0.25
-6 -12 1 1.21 0.34
-6 12 0 0.38 0.31
6 12 0 0.57 0.25
-6 12 0 0.01 0.26
-6 -12 0 0.5 0.34
-6 12 -1 0.53 0.28
6 12 1 -0.79 0.24
-6 12 -1 0.35 0.31
-6 -12 -1 0.59 0.35
6 12 2 2.08 0.35
-6 12 -2 2.12 0.39
-6 12 -2 2.23 0.33
-6 -12 -2 1.55 0.4
6 12 3 2.23 0.37
-6 12 -3 2.27 0.33
-6 12 -3 2.07 0.42
-6 -12 -3 1.95 0.42
6 12 4 2.14 0.38
-6 12 -4 2.14 0.44
-6 -12 -4 1.46 0.42
6 12 5 0.25 0.37
-6 12 -5 0.85 0.42
-6 -12 -5 0 0.38
-6 12 -6 0.62 0.45
6 12 6 0.16 0.38
-6 -12 -6 0.43 0.41
-6 13 9 0.91 0.39
-6 -13 9 1.62 0.38
-6 13 8 0.33 0.36
-6 -13 8 -0.54 0.32
6 -13 -8 -0.35 0.36
-6 -13 8 0.2 0.4
-6 13 7 3.08 0.45
6 -13 -7 3.38 0.46
-6 -13 7 3.42 0.49
-6 13 6 5.27 0.52
-6 -13 6 4.54 0.53
6 -13 -6 5.12 0.52
-6 13 5 6.63 0.6
6 -13 -5 7.05 0.65
-6 -13 5 6.83 0.61
-6 13 4 -0.3 0.3
6 -13 -4 -0.37 0.32
-6 -13 4 0.41 0.33
-6 13 3 0 0.29
6 13 -3 0.32 0.26
-6 13 3 0.29 0.3
-6 -13 3 0.15 0.33
-6 13 2 -0.08 0.28
-6 13 2 0.49 0.31
6 13 -2 0.51 0.25
-6 -13 2 0.41 0.36
-6 13 1 4.41 0.47
6 13 -1 4.38 0.42
-6 13 1 3.68 0.44
-6 -13 1 4.07 0.49
-6 13 0 0.5 0.33
-6 13 0 0.59 0.29
6 13 0 1.06 0.29
-6 -13 0 0.72 0.37
-6 13 -1 0.9 0.29
-6 13 -1 0.82 0.35
6 13 1 0.04 0.27
-6 -13 -1 1.11 0.38
6 13 2 0.65 0.3
-6 13 -2 0.99 0.29
6 13 2 0.44 0.3
-6 13 -2 0.83 0.36
-6 -13 -2 0.76 0.39
-6 13 -3 0.93 0.4
6 13 3 0.9 0.32
6 13 3 1.56 0.35
-6 -13 -3 1.2 0.42
6 13 4 0.7 0.31
-6 13 -4 0.64 0.42
6 13 4 0.75 0.36
-6 -13 -4 1.09 0.43
6 13 5 0.08 0.34
-6 13 -5 0.16 0.44
-6 -13 -5 -0.16 0.4
-6 14 8 1.8 0.42
-6 -14 8 2.56 0.5
6 -14 -8 1.87 0.45
-6 -14 8 1.54 0.4
-6 14 7 -0.03 0.35
-6 -14 7 0.02 0.42
6 -14 -7 -0.02 0.36
-6 14 6 0.74 0.37
6 -14 -6 0.51 0.37
-6 -14 6 0.43 0.41
-6 14 5 0.1 0.31
-6 -14 5 -0.68 0.38
6 -14 -5 -0.04 0.35
-6 14 4 -0.17 0.33
6 -14 -4 0.27 0.39
-6 -14 4 -0.27 0.35
-6 14 3 -0.08 0.32
6 14 -3 0.12 0.24
-6 -14 3 -0.07 0.37
-6 14 2 3.28 0.44
-6 14 2 3.33 0.43
6 14 -2 3.37 0.38
-6 -14 2 2.89 0.48
-6 14 1 0.66 0.35
6 14 -1 1.28 0.28
-6 14 1 1.17 0.31
-6 -14 1 1.37 0.39
-6 14 0 0.12 0.29
6 14 0 0.31 0.25
-6 14 0 0.25 0.34
-6 -14 0 -0.16 0.37
6 14 1 2.19 0.37
-6 14 -1 3.06 0.39
-6 14 -1 2.79 0.44
-6 -14 -1 2.35 0.46
-6 14 -2 -0.3 0.36
-6 14 -2 0.34 0.31
6 14 2 0.03 0.3
6 14 2 -0.27 0.3
-6 -14 -2 0.28 0.41
6 14 3 0.57 0.33
-6 14 -3 0.71 0.4
6 14 3 0.4 0.31
-6 -14 -3 0.22 0.42
-6 14 -4 -0.07 0.41
6 14 4 -0.21 0.31
6 14 4 -0.1 0.34
-6 -14 -4 -0.17 0.42
6 14 5 0.23 0.36
-6 14 -5 -0.15 0.43
-6 -14 -5 0.24 0.44
-6 15 7 0.16 0.38
-6 -15 7 -0.26 0.45
6 -15 -7 0.54 0.43
-6 15 6 0 0.36
-6 -15 6 0.56 0.42
6 -15 -6 -0.01 0.38
-6 15 5 1.81 0.42
6 -15 -5 2.43 0.46
-6 -15 5 1.93 0.48
-6 15 4 1.81 0.41
-6 -15 4 2.36 0.45
6 -15 -4 2.18 0.47
6 15 -3 2.19 0.34
-6 15 3 2.8 0.44
-6 -15 3 2.87 0.48
6 -15 -3 2.2 0.48
6 15 -2 0.22 0.28
-6 15 2 0.5 0.35
-6 15 2 0.62 0.35
-6 -15 2 -0.04 0.39
-6 15 1 0.05 0.35
-6 15 1 0.38 0.33
6 15 -1 0.52 0.28
-6 -15 1 0.16 0.42
-6 15 0 0.05 0.35
-6 15 0 -0.18 0.32
6 15 0 1.05 0.3
-6 -15 0 0.81 0.42
6 15 1 2.71 0.39
-6 15 -1 2.79 0.46
-6 15 -1 2.58 0.42
-6 -15 -1 2.62 0.5
6 15 2 -0.93 0.28
-6 15 -2 0 0.38
6 15 2 0.32 0.33
-6 15 -2 -0.2 0.3
-6 -15 -2 0.47 0.44
6 15 3 -0.09 0.32
6 15 3 -0.2 0.32
-6 15 -3 0.17 0.41
-6 -15 -3 0.23 0.45
-6 15 -4 0.15 0.44
6 15 4 -0.27 0.32
-6 -15 -4 -0.21 0.44
-6 16 6 0.03 0.35
6 -16 -6 0.19 0.44
-6 -16 6 -0.13 0.48
-6 16 5 0.73 0.37
-6 -16 5 2.34 0.51
6 -16 -5 1.44 0.46
-6 16 4 0.2 0.38
-6 -16 4 0.47 0.43
6 -16 -4 1 0.43
-6 16 3 1.57 0.38
-6 -16 3 1.46 0.47
6 -16 -3 1 0.45
-6 16 2 -0.11 0.35
-6 16 2 -0.09 0.36
-6 -16 2 0.02 0.44
-6 16 1 0.27 0.35
-6 16 1 -0.02 0.39
-6 -16 1 0.62 0.43
-6 16 0 0.19 0.35
-6 16 0 0.01 0.4
-6 -16 0 0.33 0.44
-6 16 -1 1.65 0.39
-6 16 -1 1.46 0.44
-6 -16 -1 1.76 0.49
-6 16 -2 -0.14 0.34
-6 16 -2 -0.04 0.41
6 16 2 0.19 0.35
-6 -16 -2 0.03 0.45
-6 17 4 -0.14 0.39
-6 17 3 -0.24 0.38
6 -17 -3 0.27 0.48
-6 -17 3 -0.19 0.44
-6 17 2 0.76 0.41
-6 -17 2 1.24 0.51
-6 17 1 0.12 0.38
-6 17 1 0.3 0.4
-6 -17 1 0.32 0.46
-6 17 0 0.37 0.38
-6 17 0 -0.27 0.4
-6 -17 0 -0.16 0.46
-7 0 13 0.26 0.43
-7 0 12 2.94 0.49
-7 0 11 -0.25 0.21
-7 0 11 -0.03 0.31
-7 0 10 0.71 0.21
-7 0 10 0.48 0.33
-7 0 9 0.08 0.18
-7 0 9 -0.16 0.28
-7 0 8 1.32 0.23
-7 0 7 0.13 0.17
-7 0 6 1.1 0.2
-7 0 5 0.1 0.15
-7 0 4 3.24 0.34
7 0 -4 4.52 0.39
-7 0 4 4.53 0.28
-7 0 3 0.04 0.14
-7 0 3 -0.18 0.09
7 0 -3 0.05 0.14
-7 0 2 20.87 1.28
7 0 -2 21.37 1.31
-7 0 2 21.9 1.28
-7 0 1 -0.15 0.13
-7 0 1 -0.07 0.13
7 0 -1 -0.29 0.14
-7 0 0 11.75 0.75
7 0 0 11.58 0.77
-7 0 0 11.56 0.74
7 0 1 -0.06 0.17
-7 0 -1 -0.01 0.14
-7 0 -1 -0.04 0.17
-7 0 -2 0.13 0.2
7 0 2 0.02 0.18
-7 0 -2 0.08 0.14
-7 0 -3 0 0.22
-7 0 -3 -0.13 0.13
7 0 3 -0.14 0.18
7 0 4 0.21 0.21
-7 0 -4 0.55 0.27
-7 0 -5 0.28 0.3
7 0 5 0.04 0.23
7 0 6 3.34 0.39
-7 0 -6 4.73 0.48
-7 0 -7 -0.09 0.3
7 0 7 -0.16 0.25
-7 0 -8 0.37 0.38
7 0 8 0.02 0.31
7 0 9 -0.27 0.33
-7 0 -9 -0.03 0.41
-7 1 13 0.34 0.42
-7 -1 13 0.22 0.42
-7 1 12 -0.06 0.35
-7 -1 12 0.29 0.39
-7 1 11 3.06 0.46
-7 1 11 3.16 0.34
-7 -1 11 3.33 0.33
-7 -1 11 3.63 0.49
-7 1 10 4.17 0.48
-7 1 10 4.6 0.45
-7 -1 10 4.76 0.42
-7 -1 10 4.07 0.49
-7 1 9 0.38 0.2
-7 1 9 -0.02 0.25
-7 -1 9 0.15 0.29
-7 -1 9 0.39 0.2
-7 1 8 16.34 1.05
-7 -1 8 17.38 1.05
-7 1 7 4.98 0.43
-7 -1 7 5.13 0.44
-7 1 6 21.83 1.2
-7 -1 6 17.52 1.19
-7 1 5 13.2 0.8
-7 -1 5 11.65 0.79
7 1 -4 140.28 7.72
-7 1 4 132.93 7.61
7 -1 -4 134.84 7.71
-7 -1 4 131.13 7.48
-7 -1 4 118.41 7.61
-7 1 3 24.37 1.43
7 1 -3 25.56 1.49
-7 1 3 20.39 1.44
7 -1 -3 24.88 1.48
-7 -1 3 24.9 1.43
-7 -1 3 25.31 1.45
7 1 -2 15.37 0.94
-7 1 2 13.06 0.89
-7 1 2 12.8 0.89
-7 -1 2 15.99 0.92
7 -1 -2 15.05 0.92
-7 -1 2 15.68 0.9
-7 1 1 9.64 0.66
-7 1 1 10.37 0.65
7 1 -1 10.16 0.7
-7 -1 1 10.6 0.66
-7 -1 1 10.58 0.66
7 -1 -1 9.32 0.68
-7 1 0 0.55 0.18
7 1 0 0.73 0.17
-7 1 0 0.75 0.17
-7 -1 0 0.93 0.17
-7 -1 0 1.06 0.18
7 -1 0 0.88 0.17
7 1 1 5.57 0.49
-7 1 -1 6.46 0.47
-7 1 -1 6.47 0.51
7 -1 1 6.6 0.5
-7 -1 -1 6.2 0.46
-7 -1 -1 6.79 0.5
-7 1 -2 10.02 0.62
7 1 2 8.12 0.69
-7 1 -2 10.4 0.7
-7 -1 -2 10.43 0.69
7 -1 2 8.75 0.67
-7 -1 -2 10 0.63
7 1 3 3.75 0.38
-7 1 -3 4.28 0.4
-7 -1 -3 4.17 0.33
-7 -1 -3 3.88 0.38
7 -1 3 3.2 0.35
-7 1 -4 2.11 0.33
7 1 4 1.7 0.27
-7 -1 -4 1.96 0.32
-7 -1 -4 1.73 0.21
7 -1 4 1.79 0.26
-7 1 -5 7.99 0.68
7 1 5 6.37 0.55
7 -1 5 6.4 0.57
-7 -1 -5 8.59 0.65
7 1 6 5.21 0.54
-7 1 -6 6.3 0.57
7 -1 6 5.68 0.53
-7 -1 -6 6.08 0.62
7 1 7 0.9 0.31
-7 1 -7 1.16 0.38
7 -1 7 1.26 0.3
-7 -1 -7 1.11 0.37
7 1 8 0.7 0.34
-7 1 -8 1.09 0.41
7 -1 8 0.71 0.32
-7 -1 -8 1.24 0.4
-7 1 -9 1.21 0.45
7 1 9 1.05 0.37
-7 -1 -9 1.91 0.46
7 -1 9 0.89 0.35
-7 2 13 0.81 0.43
-7 -2 13 0.78 0.44
-7 2 12 0.88 0.4
-7 2 12 1.38 0.29
-7 -2 12 1.2 0.43
-7 2 11 1.27 0.27
-7 2 11 1.29 0.35
-7 -2 11 1.08 0.41
-7 -2 11 1.62 0.26
-7 2 10 0.55 0.22
-7 2 10 0.7 0.32
-7 -2 10 0.4 0.31
-7 -2 10 0.51 0.22
-7 2 9 2.35 0.34
-7 2 9 2.28 0.28
-7 -2 9 2.37 0.28
-7 2 8 1.39 0.28
-7 2 8 1.17 0.22
-7 -2 8 1.21 0.23
-7 2 7 0.09 0.17
-7 -2 7 -0.12 0.15
-7 2 6 6.36 0.44
-7 -2 6 4.76 0.46
-7 2 5 7.92 0.55
-7 -2 5 7.33 0.56
-7 2 4 1.91 0.17
7 2 -4 2.08 0.24
-7 -2 4 2.06 0.25
-7 -2 4 2.3 0.2
-7 2 3 7.19 0.5
7 2 -3 7.69 0.54
-7 2 3 6.92 0.47
-7 -2 3 7.2 0.53
-7 -2 3 7.28 0.46
7 -2 -3 7.18 0.52
-7 2 2 13.43 0.88
-7 2 2 14.91 0.88
7 2 -2 14.32 0.92
-7 -2 2 14.3 0.9
-7 -2 2 13.56 0.87
7 -2 -2 14.88 0.9
-7 2 1 3.54 0.32
-7 2 1 3.35 0.32
7 2 -1 3.09 0.34
7 -2 -1 3.05 0.28
-7 -2 1 3.3 0.33
-7 -2 1 3.48 0.32
-7 2 0 -0.19 0.12
7 2 0 -0.07 0.14
-7 2 0 -0.08 0.14
-7 -2 0 -0.11 0.16
-7 -2 0 -0.15 0.14
7 -2 0 0.13 0.14
-7 2 -1 38.48 2.62
7 2 1 50.95 2.74
-7 2 -1 46.87 2.71
-7 -2 -1 45.3 2.64
-7 -2 -1 46.31 2.71
7 -2 1 46.29 2.72
-7 2 -2 0.28 0.14
7 2 2 0.83 0.23
-7 2 -2 0.71 0.23
7 -2 2 0.98 0.19
-7 -2 -2 0.62 0.23
-7 -2 -2 0.66 0.16
7 2 3 9.95 0.72
-7 2 -3 11.02 0.76
-7 -2 -3 9.77 0.65
7 -2 3 9.63 0.68
-7 -2 -3 9.96 0.74
-7 2 -4 7.76 0.65
7 2 4 6.81 0.56
-7 -2 -4 6.88 0.62
-7 -2 -4 7.62 0.51
7 -2 4 6.84 0.55
-7 2 -5 0.55 0.32
7 2 5 0.96 0.27
-7 -2 -5 0.77 0.3
7 -2 5 0.94 0.24
-7 2 -6 -0.12 0.32
7 2 6 0.06 0.26
-7 -2 -6 0.2 0.3
7 -2 6 -0.02 0.24
-7 2 -7 2.57 0.43
7 2 7 2.11 0.37
7 -2 7 2.65 0.36
-7 -2 -7 2.82 0.42
7 2 8 0.74 0.34
-7 2 -8 0.42 0.4
-7 -2 -8 0.05 0.36
7 -2 8 0.5 0.3
7 2 9 1.15 0.34
-7 2 -9 0.51 0.45
7 -2 9 0.99 0.35
-7 -2 -9 1.19 0.44
-7 3 13 1.17 0.44
-7 -3 13 1.37 0.47
-7 3 12 2.02 0.44
-7 3 12 2.4 0.35
-7 -3 12 2.42 0.44
-7 3 11 11.97 0.94
-7 3 11 11.56 0.83
-7 -3 11 11.7 0.94
-7 -3 11 12.91 0.82
-7 3 10 0.75 0.32
-7 3 10 0.86 0.24
-7 -3 10 1.19 0.24
-7 -3 10 0.86 0.36
-7 3 9 0.88 0.23
-7 3 9 1.15 0.3
-7 -3 9 0.79 0.22
-7 3 8 0.76 0.21
-7 3 8 0.59 0.25
-7 -3 8 0.32 0.2
-7 3 7 22.95 1.31
-7 -3 7 20.44 1.33
-7 3 6 4.04 0.34
7 -3 -6 3.39 0.26
-7 -3 6 3.96 0.4
-7 3 5 36.61 2.04
-7 -3 5 35.83 2.05
7 -3 -5 34.8 2.02
-7 -3 5 32.05 2.02
7 3 -4 22.88 1.36
-7 3 4 21.19 1.29
-7 -3 4 23.22 1.34
-7 -3 4 20.84 1.28
7 3 -3 11.07 0.71
-7 3 3 10.27 0.65
-7 3 3 10.51 0.68
-7 -3 3 10.08 0.64
7 -3 -3 10.21 0.68
-7 3 2 2.7 0.27
-7 3 2 1.96 0.22
7 3 -2 1.73 0.23
-7 -3 2 1.91 0.2
-7 -3 2 1.7 0.23
7 -3 -2 2 0.2
7 3 -1 53.45 3.44
-7 3 1 62.15 3.33
-7 3 1 61.26 3.39
-7 -3 1 58.37 3.33
7 -3 -1 52.04 3.42
-7 -3 1 59.72 3.38
-7 3 0 2.11 0.21
7 3 0 2.17 0.25
-7 3 0 1.9 0.23
-7 -3 0 2.02 0.22
7 -3 0 1.96 0.22
-7 -3 0 1.56 0.23
7 3 1 1.83 0.26
-7 3 -1 1.65 0.24
-7 3 -1 2.05 0.21
-7 -3 -1 1.76 0.25
7 -3 1 1.69 0.23
-7 -3 -1 1.69 0.21
7 3 2 -0.06 0.21
-7 3 -2 -0.42 0.19
-7 3 -2 0.02 0.13
7 -3 2 0.05 0.16
-7 -3 -2 -0.2 0.22
-7 -3 -2 0.09 0.15
-7 3 -3 19.61 1.32
7 -3 3 21.86 1.28
-7 -3 -3 19.5 1.32
-7 -3 -3 21.41 1.24
7 3 4 0.72 0.23
-7 3 -4 0.73 0.29
7 -3 4 0.86 0.21
-7 -3 -4 0.75 0.18
-7 -3 -4 0.45 0.29
-7 3 -5 22.94 1.44
7 3 5 21.69 1.42
-7 -3 -5 21.66 1.43
7 -3 5 22.93 1.4
7 3 6 0.26 0.27
-7 3 -6 -0.17 0.32
-7 -3 -6 0.4 0.32
7 -3 6 0.51 0.25
-7 3 -7 3.91 0.51
7 3 7 3.74 0.44
-7 -3 -7 4.45 0.49
7 -3 7 3.89 0.41
7 3 8 0.16 0.33
-7 3 -8 -0.28 0.39
-7 -3 -8 0.29 0.35
7 -3 8 0.13 0.3
-7 3 -9 0.83 0.48
7 3 9 0.45 0.37
-7 -3 -9 0.53 0.4
7 -3 9 0.4 0.33
-7 4 13 0.46 0.41
-7 -4 13 0.19 0.44
-7 4 12 1.14 0.31
-7 4 12 1.42 0.4
-7 -4 12 1.57 0.42
-7 4 11 0.21 0.26
-7 4 11 0.66 0.34
-7 -4 11 0.11 0.34
-7 -4 11 0.8 0.24
-7 4 10 3.9 0.44
-7 4 10 3.83 0.38
-7 -4 10 4.47 0.45
-7 -4 10 3.51 0.46
-7 4 9 2.88 0.32
-7 4 9 2.84 0.36
-7 -4 9 2.69 0.32
-7 4 8 18.87 1.11
-7 4 8 18.34 1.16
-7 -4 8 15.86 1.11
-7 4 7 1.96 0.26
-7 4 7 1.79 0.27
-7 -4 7 1.8 0.28
-7 4 6 2.42 0.27
-7 -4 6 2.44 0.22
7 -4 -6 2.42 0.23
-7 -4 6 2.2 0.29
-7 4 5 0.91 0.19
-7 -4 5 0.93 0.23
7 -4 -5 1.34 0.16
-7 -4 5 1.13 0.15
-7 4 4 12.14 0.88
-7 4 4 15.66 0.89
-7 -4 4 15.09 0.87
-7 -4 4 14.91 0.92
-7 4 3 5.54 0.41
-7 4 3 6.12 0.44
7 -4 -3 5.2 0.41
-7 -4 3 5.5 0.39
-7 4 2 20.62 1.19
-7 4 2 20.84 1.18
-7 -4 2 18.93 1.18
-7 -4 2 18.39 1.17
7 -4 -2 19.06 1.19
-7 4 1 0.64 0.17
-7 4 1 0.53 0.14
-7 -4 1 0.33 0.15
-7 -4 1 0.45 0.15
7 -4 -1 0.27 0.14
-7 4 0 19.12 1.16
-7 4 0 20.62 1.21
7 -4 0 20.47 1.2
-7 -4 0 18.73 1.18
-7 -4 0 17.92 1.16
-7 4 -1 0 0.19
-7 4 -1 0.05 0.14
-7 -4 -1 0.09 0.19
7 -4 1 0.05 0.16
-7 -4 -1 0.07 0.15
-7 4 -2 0.39 0.23
-7 4 -2 0.87 0.16
7 -4 2 0.45 0.18
-7 -4 -2 0.38 0.23
-7 -4 -2 0.65 0.18
-7 4 -3 1.18 0.3
7 -4 3 1.9 0.24
-7 -4 -3 2.06 0.23
-7 -4 -3 2.05 0.31
-7 4 -4 5 0.51
7 4 4 4.84 0.52
-7 -4 -4 5.75 0.44
-7 -4 -4 5.4 0.52
7 -4 4 5.37 0.45
7 4 5 1.87 0.32
-7 4 -5 0.95 0.34
7 -4 5 1.82 0.27
-7 -4 -5 1.54 0.37
-7 4 -6 -0.09 0.33
7 4 6 0.55 0.29
7 -4 6 0.37 0.25
-7 -4 -6 0.26 0.33
7 4 7 0.6 0.31
-7 4 -7 0.02 0.37
7 -4 7 0.81 0.28
-7 -4 -7 1.09 0.37
7 4 8 1.29 0.35
-7 4 -8 0.58 0.44
7 -4 8 1.13 0.33
-7 -4 -8 1.65 0.42
-7 4 -9 -0.02 0.46
-7 5 13 0.28 0.4
-7 -5 13 0.4 0.45
-7 5 12 -0.04 0.29
-7 5 12 0.11 0.36
-7 -5 12 -0.3 0.4
-7 5 11 0.77 0.28
-7 5 11 1.03 0.35
-7 -5 11 0.76 0.37
-7 5 10 0.54 0.3
-7 5 10 0.5 0.26
-7 -5 10 0.27 0.36
-7 -5 10 0.65 0.25
-7 5 9 0.65 0.24
-7 5 9 0.87 0.28
-7 -5 9 0.29 0.24
-7 5 8 2.45 0.31
-7 5 8 2.36 0.3
-7 -5 8 2.15 0.31
-7 5 7 0.14 0.2
-7 5 7 0.45 0.21
-7 -5 7 0.3 0.23
-7 5 6 0.9 0.21
-7 5 6 1.18 0.21
7 -5 -6 1.27 0.18
-7 -5 6 1.39 0.26
-7 -5 6 1.38 0.18
-7 5 5 1.09 0.2
-7 -5 5 1.41 0.18
7 -5 -5 1.34 0.2
-7 -5 5 1.24 0.23
-7 5 4 19.68 1.26
-7 5 4 21.47 1.27
7 5 -4 20.99 1.31
-7 -5 4 20.69 1.26
-7 -5 4 22.15 1.27
-7 5 3 0.8 0.18
-7 5 3 0.58 0.16
7 5 -3 0.77 0.19
-7 -5 3 0.65 0.17
7 5 -2 10.12 0.67
-7 5 2 9.45 0.64
-7 5 2 9.58 0.64
7 -5 -2 9.48 0.62
-7 -5 2 8.87 0.64
-7 -5 2 9.56 0.62
-7 5 1 7.58 0.52
-7 5 1 7.64 0.54
7 -5 -1 6.69 0.5
-7 -5 1 7.44 0.51
-7 -5 1 6.88 0.5
-7 5 0 16.04 0.98
7 5 0 16.03 1.02
-7 5 0 15.27 0.94
7 -5 0 15.3 0.96
-7 -5 0 13.98 0.95
-7 5 -1 0.98 0.18
7 5 1 1.07 0.22
-7 5 -1 0.94 0.23
7 -5 1 0.89 0.18
-7 -5 -1 0.79 0.23
-7 5 -2 2.34 0.31
-7 5 -2 2.59 0.24
7 -5 2 2.26 0.25
-7 -5 -2 2.59 0.31
-7 5 -3 4.69 0.37
-7 5 -3 4.19 0.44
-7 -5 -3 4.49 0.44
7 -5 3 4.54 0.41
7 5 4 5.76 0.57
-7 5 -4 4.61 0.52
-7 -5 -4 5.67 0.55
7 -5 4 6.09 0.48
-7 5 -5 1.94 0.42
7 5 5 3.11 0.36
-7 -5 -5 2.63 0.43
-7 -5 -5 3.38 0.32
7 -5 5 3.21 0.33
-7 5 -6 -0.66 0.34
7 5 6 0.04 0.29
7 -5 6 0.1 0.25
-7 -5 -6 0.31 0.36
7 5 7 1.01 0.33
-7 5 -7 0.4 0.41
7 -5 7 1.24 0.29
-7 -5 -7 1.06 0.4
7 5 8 -0.23 0.33
-7 5 -8 -0.62 0.42
7 -5 8 0.07 0.29
-7 -5 -8 0.47 0.39
-7 6 12 1.17 0.38
-7 6 12 0.65 0.33
-7 -6 12 0.92 0.44
-7 6 11 1.33 0.31
-7 6 11 1.54 0.36
-7 -6 11 1.29 0.43
-7 6 10 1.98 0.32
-7 6 10 2.24 0.36
-7 -6 10 1.27 0.4
-7 -6 10 1.49 0.3
-7 6 9 30.66 1.8
-7 6 9 28.16 1.72
-7 -6 9 27.13 1.74
-7 6 8 3.06 0.35
-7 6 8 3.48 0.36
-7 -6 8 3.68 0.4
-7 6 7 1.39 0.26
-7 6 7 1.48 0.25
-7 -6 7 1.67 0.3
-7 -6 7 1.77 0.23
-7 6 6 4.16 0.42
-7 6 6 4.34 0.41
-7 -6 6 4.32 0.35
-7 -6 6 4.05 0.42
-7 -6 5 28.01 1.66
-7 -6 5 27.48 1.65
-7 6 4 4.53 0.4
7 6 -4 4.88 0.44
-7 6 4 4.73 0.42
-7 -6 4 4.85 0.38
-7 -6 4 4.65 0.4
-7 6 3 34.6 2.11
-7 6 3 36.34 2.09
7 6 -3 36.01 2.16
-7 -6 3 35.59 2.11
7 6 -2 5.55 0.49
-7 6 2 4.8 0.42
-7 6 2 5.3 0.41
-7 -6 2 5.36 0.41
7 -6 -2 4.84 0.37
7 6 -1 0.07 0.2
-7 6 1 0.34 0.19
-7 6 1 0.43 0.17
-7 -6 1 0.34 0.2
7 -6 -1 0.52 0.12
-7 6 0 7.65 0.52
7 6 0 7.85 0.62
-7 6 0 7.93 0.57
7 -6 0 6.59 0.51
-7 -6 0 7.44 0.54
7 6 1 54.68 3.1
-7 6 -1 52.61 3.06
-7 6 -1 49.61 2.96
-7 -6 -1 50.55 3.04
7 -6 1 50.18 3.05
-7 6 -2 1.42 0.28
7 6 2 1.01 0.26
-7 6 -2 1.16 0.19
7 -6 2 1.34 0.2
-7 -6 -2 1.11 0.27
7 6 3 17.77 1.29
-7 6 -3 20.2 1.29
-7 6 -3 20.07 1.17
-7 -6 -3 20.56 1.25
7 -6 3 19.18 1.21
7 6 4 1.63 0.33
-7 6 -4 1.88 0.37
-7 -6 -4 1.82 0.36
7 -6 4 2.02 0.26
-7 6 -5 8.05 0.79
7 6 5 9.41 0.76
7 -6 5 9.76 0.68
-7 -6 -5 9.18 0.76
-7 6 -6 -0.19 0.35
7 6 6 0.27 0.28
7 -6 6 0.32 0.26
-7 -6 -6 -0.05 0.37
-7 6 -7 -0.22 0.39
7 6 7 0.62 0.34
7 -6 7 0.66 0.28
-7 -6 -7 0.6 0.4
7 6 8 -0.15 0.34
-7 6 -8 -0.95 0.41
7 -6 8 -0.07 0.31
-7 -6 -8 0.27 0.41
-7 7 12 1.87 0.36
-7 7 12 1.69 0.4
-7 -7 12 1.8 0.48
-7 7 11 0.34 0.29
-7 7 11 0.15 0.31
-7 -7 11 -0.73 0.38
-7 7 10 1.22 0.31
-7 7 10 0.99 0.3
-7 -7 10 0.81 0.28
-7 7 9 -0.1 0.25
-7 7 9 0.08 0.26
-7 -7 9 -0.1 0.25
-7 7 8 3.18 0.36
-7 7 8 3.16 0.35
-7 -7 8 3.05 0.39
-7 7 7 0.37 0.2
-7 7 7 0.3 0.21
7 -7 -7 0.12 0.2
-7 -7 7 -0.01 0.2
-7 -7 7 -0.16 0.24
-7 7 6 4.6 0.45
-7 7 6 4.48 0.43
-7 -7 6 4.53 0.47
-7 -7 6 4.66 0.4
7 -7 -6 4.56 0.4
-7 -7 5 14.25 0.91
-7 -7 5 14.38 0.93
7 -7 -5 14.78 0.92
7 7 -4 0.29 0.21
-7 7 4 0.08 0.18
-7 7 4 0.06 0.15
-7 -7 4 0.15 0.2
-7 -7 4 0.35 0.21
7 7 -3 5.15 0.49
-7 7 3 4.92 0.42
-7 7 3 5.14 0.44
-7 -7 3 4.89 0.42
7 7 -2 12.87 0.88
-7 7 2 13.2 0.82
-7 7 2 12.23 0.83
-7 -7 2 12.79 0.83
-7 7 1 4.15 0.45
-7 7 1 4.67 0.41
7 7 -1 3.81 0.4
7 -7 -1 5.01 0.34
-7 -7 1 4.52 0.4
-7 7 0 1.5 0.22
-7 7 0 1.55 0.26
7 7 0 1.79 0.28
-7 -7 0 1.94 0.27
7 -7 0 1.25 0.18
-7 7 -1 0.99 0.27
-7 7 -1 1.14 0.2
7 7 1 0.93 0.26
-7 -7 -1 1.57 0.27
7 -7 1 1.11 0.18
7 7 2 0.81 0.27
-7 7 -2 0.7 0.19
-7 7 -2 0.93 0.28
7 -7 2 1.13 0.19
-7 -7 -2 0.86 0.28
-7 7 -3 3.33 0.31
-7 7 -3 2.92 0.41
7 7 3 3.08 0.4
-7 -7 -3 3.44 0.39
7 -7 3 3.64 0.35
-7 7 -4 0.58 0.33
7 7 4 0.24 0.27
-7 -7 -4 0.54 0.32
7 -7 4 0.63 0.2
-7 7 -5 0.13 0.34
7 7 5 0.14 0.31
-7 -7 -5 0.09 0.34
7 -7 5 0.26 0.23
7 7 6 -0.13 0.32
-7 7 -6 -0.78 0.34
7 -7 6 0.08 0.25
-7 -7 -6 0.53 0.38
7 7 7 0.3 0.34
-7 7 -7 -0.69 0.39
-7 -7 -7 0.15 0.4
7 -7 7 -0.3 0.27
7 7 8 1.21 0.39
-7 7 -8 -0.03 0.45
-7 -7 -8 0.87 0.45
7 -7 8 0.73 0.31
-7 8 12 3.7 0.47
-7 8 12 3.51 0.48
-7 -8 12 3.39 0.56
-7 8 11 1.49 0.35
-7 8 11 1.24 0.35
-7 -8 11 1.01 0.4
-7 8 10 0.69 0.31
-7 8 10 0.77 0.31
-7 -8 10 0.25 0.29
-7 8 9 2.37 0.33
-7 8 9 2.4 0.34
-7 -8 9 2.28 0.38
-7 8 8 3.27 0.36
-7 8 8 3.38 0.39
-7 -8 8 3.87 0.44
-7 8 7 1.28 0.27
-7 8 7 1.62 0.25
-7 -8 7 1.53 0.31
-7 -8 7 1.66 0.27
7 -8 -7 1.71 0.28
-7 8 6 4.7 0.46
-7 8 6 4.51 0.41
-7 -8 6 4.63 0.47
7 -8 -6 4.69 0.42
-7 -8 6 4.16 0.41
-7 8 5 4.24 0.33
7 8 -4 7.06 0.58
-7 8 4 5.9 0.51
-7 8 4 5.97 0.51
-7 -8 4 6.51 0.5
-7 8 3 8.74 0.62
-7 8 3 7.89 0.62
7 8 -3 8.24 0.63
-7 -8 3 8.58 0.61
-7 8 2 33.94 2.03
7 8 -2 35.81 2.12
-7 8 2 33.76 2.08
-7 -8 2 35.1 2.08
-7 8 1 1.97 0.26
-7 8 1 2.09 0.28
7 8 -1 1.38 0.28
-7 -8 1 2.05 0.31
-7 8 0 11.26 0.8
7 8 0 10.66 0.83
-7 8 0 11.02 0.75
-7 -8 0 12.27 0.78
-7 8 -1 6.1 0.55
-7 8 -1 5.03 0.47
7 8 1 6.53 0.59
-7 -8 -1 5.66 0.52
7 8 2 28.71 1.76
-7 8 -2 28.74 1.75
-7 8 -2 27.26 1.66
-7 -8 -2 27.36 1.72
-7 8 -3 1.35 0.35
-7 8 -3 1.23 0.23
7 8 3 1.94 0.34
7 -8 3 1.33 0.21
-7 -8 -3 1.44 0.33
-7 8 -4 8.29 0.74
7 8 4 6.69 0.72
7 -8 4 8.61 0.58
-7 -8 -4 7.11 0.67
-7 8 -5 0.66 0.34
7 8 5 0.7 0.35
-7 -8 -5 0.31 0.36
7 -8 5 0.55 0.23
-7 8 -6 0.23 0.4
7 8 6 0.7 0.36
-7 -8 -6 0.33 0.39
7 8 7 0.24 0.33
-7 8 -7 0.29 0.44
-7 -8 -7 0.8 0.42
-7 9 11 -0.26 0.33
-7 -9 11 0.16 0.42
-7 9 10 -0.07 0.3
-7 -9 10 0.32 0.3
-7 9 9 1.35 0.32
-7 -9 9 0.74 0.34
-7 9 8 1.57 0.33
-7 -9 8 1.69 0.34
-7 9 7 3.85 0.41
-7 -9 7 3.75 0.39
7 -9 -7 4.42 0.41
-7 -9 7 4.23 0.43
-7 9 6 1.06 0.28
7 -9 -6 1.36 0.27
-7 -9 6 1.38 0.29
-7 -9 6 0.95 0.27
-7 9 5 -0.02 0.23
7 -9 -5 -0.38 0.24
-7 -9 5 0.19 0.23
-7 -9 5 0.07 0.24
-7 9 4 0.32 0.22
7 9 -4 0.46 0.22
-7 9 4 0.26 0.23
-7 -9 4 0.42 0.25
-7 9 3 3.94 0.38
-7 9 3 3.6 0.36
7 9 -3 3.96 0.42
-7 -9 3 3.6 0.39
7 9 -2 1.17 0.25
-7 9 2 0.64 0.24
-7 9 2 0.7 0.22
-7 -9 2 0.64 0.27
-7 9 1 0.91 0.26
7 9 -1 0.82 0.26
-7 9 1 1.36 0.25
-7 -9 1 1.33 0.29
-7 9 0 6.16 0.55
7 9 0 5.65 0.51
-7 9 0 5.49 0.51
-7 -9 0 6.02 0.52
-7 9 -1 0.24 0.21
-7 9 -1 0.48 0.28
7 9 1 0.03 0.26
-7 -9 -1 0.64 0.3
7 9 2 0.15 0.26
-7 9 -2 0 0.21
-7 9 -2 0.27 0.29
-7 -9 -2 0.18 0.3
7 9 3 0.79 0.31
-7 9 -3 0.54 0.34
-7 -9 -3 0.59 0.32
-7 9 -4 5.62 0.58
7 9 4 5.51 0.56
-7 -9 -4 5.84 0.59
7 9 5 0.1 0.34
-7 9 -5 0.93 0.4
-7 -9 -5 0.71 0.38
-7 9 -6 0.26 0.41
7 9 6 -0.28 0.35
-7 -9 -6 -0.34 0.38
-7 9 -7 -0.03 0.44
7 9 7 0.05 0.37
-7 -9 -7 -0.16 0.4
-7 10 11 0.68 0.35
-7 -10 11 0.1 0.42
-7 10 10 6.29 0.61
-7 -10 10 6.5 0.67
-7 10 9 4.41 0.49
-7 -10 9 4.94 0.52
-7 10 8 1.23 0.3
-7 -10 8 1.23 0.33
-7 10 7 0.31 0.28
-7 -10 7 0.64 0.29
7 -10 -7 0.15 0.26
-7 -10 7 0.19 0.28
-7 10 6 7.46 0.59
7 -10 -6 7.85 0.62
-7 -10 6 7.09 0.58
-7 -10 6 7.23 0.61
-7 10 5 5.12 0.48
7 -10 -5 5.51 0.52
-7 -10 5 5.21 0.5
-7 10 4 2.07 0.3
-7 10 4 1.99 0.31
7 10 -4 2.34 0.32
-7 -10 4 1.95 0.32
7 10 -3 7.72 0.64
-7 10 3 7.67 0.6
-7 10 3 7.57 0.61
-7 -10 3 7.21 0.58
-7 10 2 14.51 0.96
-7 10 2 14.53 0.98
7 10 -2 15.01 1
-7 -10 2 14.26 0.98
7 10 -1 0.8 0.24
-7 10 1 0.89 0.25
-7 10 1 0.64 0.27
-7 -10 1 1.12 0.31
-7 10 0 2.32 0.3
-7 10 0 1.89 0.33
7 10 0 1.08 0.31
-7 -10 0 2.05 0.35
7 10 1 3.72 0.44
-7 10 -1 4.63 0.47
-7 10 -1 4.47 0.43
-7 -10 -1 4.2 0.45
-7 10 -2 1.73 0.28
-7 10 -2 1.44 0.36
7 10 2 1.61 0.31
-7 -10 -2 1.8 0.37
7 10 3 0.02 0.29
-7 10 -3 0.5 0.35
-7 -10 -3 -0.36 0.32
7 10 4 0.52 0.35
-7 10 -4 0.47 0.37
-7 -10 -4 1.17 0.38
7 10 5 -0.33 0.34
-7 10 -5 0.16 0.4
-7 -10 -5 0.01 0.37
7 10 6 -0.06 0.37
-7 10 -6 0.69 0.45
-7 -10 -6 0.28 0.4
7 10 7 0.33 0.36
-7 10 -7 0.25 0.48
-7 -10 -7 0.77 0.45
-7 11 10 0.95 0.37
-7 -11 10 1.86 0.41
-7 11 9 0.07 0.33
-7 -11 9 0.78 0.37
-7 11 8 -0.13 0.31
-7 -11 8 0.3 0.31
-7 11 7 3.74 0.46
7 -11 -7 3.95 0.44
-7 -11 7 4.97 0.47
-7 -11 7 4.44 0.46
-7 11 6 1.72 0.33
7 -11 -6 2.28 0.36
-7 -11 6 2.31 0.37
-7 11 5 2.27 0.36
-7 -11 5 2.39 0.36
7 -11 -5 2.55 0.38
-7 11 4 5.89 0.55
-7 11 4 4.75 0.5
7 11 -4 5.75 0.56
-7 -11 4 5.31 0.51
7 11 -3 0.83 0.26
-7 11 3 0.38 0.29
-7 11 3 0.94 0.3
-7 -11 3 0.7 0.3
7 11 -2 0.47 0.25
-7 11 2 0.39 0.27
-7 11 2 0.05 0.26
-7 -11 2 0.25 0.3
-7 11 1 0.89 0.28
-7 11 1 0.77 0.31
7 11 -1 0.87 0.28
-7 -11 1 0.78 0.33
-7 11 0 15.97 1.04
-7 11 0 15.82 1.09
-7 -11 0 16.23 1.08
7 11 1 2.48 0.37
-7 11 -1 1.78 0.3
-7 11 -1 2.31 0.38
-7 -11 -1 2.3 0.4
7 11 2 0.15 0.3
-7 11 -2 0.13 0.33
-7 11 -2 -0.16 0.23
-7 -11 -2 -0.11 0.33
7 11 3 -0.07 0.3
-7 11 -3 0.07 0.37
-7 -11 -3 0.08 0.35
-7 11 -4 1.38 0.43
7 11 4 0.6 0.35
-7 -11 -4 1.02 0.4
7 11 5 -0.24 0.34
-7 11 -5 -0.21 0.4
-7 -11 -5 0.09 0.38
-7 11 -6 1.9 0.51
7 11 6 1.71 0.44
-7 -11 -6 2.19 0.48
-7 12 10 0.08 0.35
-7 12 9 2.74 0.44
-7 -12 9 3.35 0.47
-7 12 8 2.03 0.39
-7 -12 8 1.95 0.38
-7 12 7 1.59 0.37
-7 -12 7 1.88 0.36
-7 -12 7 1.66 0.38
7 -12 -7 1.84 0.37
-7 12 6 0.3 0.31
7 -12 -6 -0.23 0.32
-7 -12 6 0.74 0.33
-7 12 5 1.72 0.33
-7 -12 5 1.45 0.36
7 -12 -5 1.84 0.36
7 12 -4 0.11 0.26
-7 12 4 0.56 0.3
-7 -12 4 0.63 0.32
-7 12 3 5.92 0.57
7 12 -3 6.31 0.59
-7 12 3 6.07 0.59
-7 -12 3 5.93 0.55
-7 12 2 2.71 0.38
7 12 -2 2.83 0.35
-7 12 2 2.27 0.36
-7 -12 2 2.19 0.4
7 12 -1 0.19 0.26
-7 12 1 0.25 0.32
-7 12 1 -0.02 0.27
-7 -12 1 -0.3 0.32
-7 12 0 1.05 0.29
-7 12 0 1.04 0.34
7 12 0 0.04 0.27
-7 -12 0 1.33 0.36
7 12 1 3.22 0.44
-7 12 -1 3.68 0.4
-7 12 -1 3.45 0.46
-7 -12 -1 3.94 0.47
-7 12 -2 0.5 0.27
7 12 2 0 0.3
-7 12 -2 -0.06 0.34
-7 -12 -2 0.09 0.38
-7 12 -3 1.07 0.41
7 12 3 0.8 0.35
-7 -12 -3 0.68 0.4
7 12 4 1.23 0.37
-7 12 -4 1.18 0.44
-7 -12 -4 1.65 0.43
7 12 5 0.31 0.37
-7 12 -5 0.56 0.45
-7 -12 -5 0.29 0.41
-7 13 9 0.51 0.37
-7 -13 9 0.57 0.39
-7 13 8 0.47 0.37
-7 -13 8 0.94 0.36
-7 13 7 2.38 0.41
-7 -13 7 2.44 0.45
7 -13 -7 2.38 0.43
-7 -13 7 1.87 0.39
-7 13 6 0.44 0.33
-7 -13 6 0.22 0.36
7 -13 -6 0.61 0.35
-7 13 5 0.31 0.33
7 -13 -5 0.18 0.34
-7 -13 5 0.9 0.35
7 13 -4 3.53 0.43
-7 13 4 3.93 0.43
-7 -13 4 3.42 0.46
7 -13 -4 4.21 0.47
7 13 -3 3.39 0.4
-7 13 3 2.86 0.42
-7 13 3 3.68 0.43
-7 -13 3 2.83 0.44
-7 13 2 0.8 0.33
-7 13 2 0.72 0.32
7 13 -2 1.27 0.3
-7 -13 2 0.62 0.35
-7 13 1 0.94 0.36
7 13 -1 1.45 0.31
-7 13 1 1.24 0.33
-7 -13 1 1.06 0.38
-7 13 0 5.18 0.55
7 13 0 4.82 0.51
-7 13 0 6.01 0.57
-7 -13 0 6.13 0.6
-7 13 -1 0.61 0.38
-7 13 -1 0.23 0.28
7 13 1 -0.68 0.29
-7 -13 -1 0.26 0.38
7 13 2 0.57 0.33
-7 13 -2 0.46 0.3
-7 13 -2 0.79 0.39
-7 -13 -2 0.89 0.41
-7 13 -3 1.12 0.42
7 13 3 0.73 0.36
-7 -13 -3 1.23 0.45
7 13 4 0.2 0.35
-7 13 -4 0.42 0.44
-7 -13 -4 0.33 0.41
-7 13 -5 -0.08 0.47
7 13 5 0.14 0.37
-7 -13 -5 0.36 0.45
-7 14 8 0.54 0.35
-7 -14 8 0.21 0.36
-7 14 7 0.31 0.37
7 -14 -7 0.31 0.39
-7 -14 7 -0.02 0.4
-7 14 6 1.29 0.38
7 -14 -6 1.04 0.42
-7 14 5 0.78 0.36
-7 -14 5 0.31 0.38
7 -14 -5 1 0.41
-7 14 4 0.15 0.31
7 14 -4 0.26 0.3
7 -14 -4 0.27 0.37
-7 -14 4 0.29 0.35
-7 14 3 0.39 0.35
7 14 -3 0.46 0.29
-7 14 3 -0.08 0.34
-7 -14 3 0.45 0.37
-7 14 2 -0.18 0.32
-7 14 2 0.24 0.33
7 14 -2 0.27 0.29
-7 -14 2 0.01 0.36
7 14 -1 4.19 0.43
-7 14 1 3.49 0.45
-7 14 1 3.58 0.48
-7 -14 1 3.99 0.51
-7 14 0 1.76 0.4
-7 14 0 0.67 0.33
7 14 0 1.03 0.33
-7 -14 0 0.74 0.41
7 14 1 -0.48 0.29
-7 14 -1 1.05 0.33
-7 14 -1 0.79 0.41
-7 -14 -1 0.62 0.42
7 14 2 -0.11 0.34
-7 14 -2 0.12 0.4
-7 14 -2 0.15 0.33
-7 -14 -2 0.2 0.42
-7 14 -3 0.07 0.42
7 14 3 0.58 0.36
-7 -14 -3 0.83 0.45
-7 14 -4 0.59 0.45
7 14 4 0.4 0.37
-7 -14 -4 0.15 0.44
-7 15 7 3.9 0.53
7 -15 -7 5.85 0.61
-7 -15 7 5.87 0.62
-7 15 6 0.87 0.39
7 -15 -6 0.22 0.42
-7 -15 6 0.58 0.43
-7 15 5 1.82 0.43
7 -15 -5 1.84 0.47
-7 -15 5 1.42 0.43
-7 15 4 0.64 0.34
-7 -15 4 0.28 0.41
7 -15 -4 0.35 0.4
-7 15 3 0.07 0.36
7 15 -3 0.29 0.31
-7 -15 3 -0.11 0.41
-7 15 2 0.64 0.37
-7 15 2 0.79 0.38
7 15 -2 1.51 0.33
-7 -15 2 0.82 0.44
-7 15 1 3.35 0.45
7 15 -1 3.6 0.42
-7 15 1 2.94 0.47
-7 -15 1 2.5 0.49
-7 15 0 0.2 0.33
7 15 0 0.91 0.33
-7 15 0 -0.08 0.37
-7 -15 0 -0.03 0.42
-7 15 -1 0.54 0.4
7 15 1 -0.47 0.3
-7 15 -1 0.09 0.33
-7 -15 -1 0.28 0.46
-7 15 -2 0.48 0.43
7 15 2 0.13 0.37
-7 -15 -2 0.7 0.46
-7 15 -3 0.35 0.44
-7 16 5 0.32 0.37
7 -16 -5 0.76 0.47
-7 -16 5 0.85 0.46
-7 16 4 0.26 0.39
7 -16 -4 0.43 0.46
-7 -16 4 0.29 0.44
7 16 -3 -0.02 0.31
-7 16 3 0.54 0.39
-7 -16 3 -0.11 0.42
7 -16 -3 0.12 0.44
7 16 -2 0.64 0.31
-7 16 2 0.24 0.37
-7 16 2 0.25 0.37
-7 -16 2 0.71 0.43
-7 16 1 0.39 0.37
7 16 -1 0.43 0.32
-7 16 1 0.24 0.39
-7 -16 1 -0.16 0.46
-7 16 0 0.28 0.36
-7 16 0 0.56 0.43
7 16 0 0.78 0.34
-7 -16 0 0.78 0.45
-7 16 -1 0.48 0.42
-7 16 -1 0.71 0.39
7 16 1 0.32 0.32
-7 -16 -1 0.67 0.47
-8 0 13 -0.17 0.41
-8 0 12 12.1 0.82
-8 0 12 11.83 0.98
-8 0 11 -0.12 0.35
-8 0 11 0.13 0.23
-8 0 10 9.39 0.67
-8 0 10 9.26 0.77
-8 0 9 0.2 0.21
-8 0 8 1.82 0.27
-8 0 7 0.05 0.19
-8 0 6 11.96 0.8
-8 0 5 -0.1 0.16
-8 0 4 2.77 0.23
8 0 -4 2.6 0.28
-8 0 3 -0.28 0.12
-8 0 3 -0.08 0.15
8 0 -3 0.09 0.16
8 0 -2 5.56 0.5
-8 0 2 6.62 0.46
-8 0 2 6.42 0.46
-8 0 1 -0.1 0.16
-8 0 1 0.19 0.16
8 0 -1 0.1 0.17
-8 0 0 15.1 0.96
-8 0 0 14.44 0.93
8 0 0 15.57 0.98
-8 0 -1 0.05 0.16
8 0 1 0.01 0.19
-8 0 -1 0.02 0.2
8 0 2 -0.02 0.21
-8 0 -2 0.03 0.16
-8 0 -2 0.18 0.24
8 0 3 -0.2 0.22
-8 0 -3 -0.07 0.25
-8 0 -3 -0.06 0.16
-8 0 -4 36.79 2.11
8 0 4 31.91 2.09
8 0 5 0.02 0.22
-8 0 -5 0.12 0.3
-8 0 -6 4.23 0.47
8 0 6 2.61 0.35
-8 0 -7 -0.03 0.35
8 0 7 0.26 0.3
8 0 8 0.37 0.33
-8 0 -8 0.17 0.39
-8 1 13 0.24 0.38
-8 -1 13 0.33 0.43
-8 1 12 1.16 0.39
-8 1 12 1.46 0.31
-8 -1 12 1.22 0.29
-8 -1 12 1.54 0.44
-8 1 11 0.85 0.26
-8 1 11 0.79 0.37
-8 -1 11 0.58 0.25
-8 -1 11 0.42 0.38
-8 1 10 6.07 0.53
-8 1 10 6.22 0.61
-8 -1 10 5.95 0.6
-8 -1 10 6.7 0.53
-8 1 9 0.53 0.3
-8 1 9 1.02 0.25
-8 -1 9 0.63 0.23
-8 1 8 1.92 0.27
-8 -1 8 1.19 0.25
-8 1 7 0.23 0.2
-8 -1 7 -0.17 0.19
-8 1 6 43.27 2.36
-8 -1 6 37.21 2.35
-8 1 5 1.92 0.25
-8 -1 5 2.4 0.26
8 1 -4 0.93 0.2
-8 1 4 0.63 0.18
-8 1 4 1.23 0.12
-8 -1 4 0.93 0.13
8 -1 -4 0.9 0.19
8 1 -3 0.68 0.18
-8 1 3 0.68 0.13
-8 1 3 0.43 0.18
8 -1 -3 0.76 0.17
-8 -1 3 0.49 0.19
-8 -1 3 0.61 0.14
-8 1 2 31.9 2.18
8 1 -2 35.98 2.24
-8 1 2 37.3 2.16
-8 -1 2 39.81 2.19
8 -1 -2 36.43 2.22
-8 -1 2 40.86 2.17
-8 1 1 8.36 0.58
-8 1 1 8.67 0.6
8 1 -1 8.4 0.63
-8 -1 1 8.91 0.59
-8 -1 1 8.65 0.59
8 -1 -1 7.84 0.61
8 1 0 1.06 0.22
-8 1 0 0.93 0.2
-8 1 0 1.27 0.22
8 -1 0 1 0.2
-8 -1 0 1.24 0.21
-8 -1 0 1.27 0.2
-8 1 -1 10.24 0.66
8 1 1 9.42 0.71
-8 1 -1 10.42 0.7
-8 -1 -1 9.21 0.68
8 -1 1 9.35 0.69
-8 -1 -1 10.05 0.65
-8 1 -2 3.36 0.34
-8 1 -2 3.52 0.36
8 1 2 2.68 0.32
-8 -1 -2 3.49 0.3
8 -1 2 2.75 0.32
-8 -1 -2 3.52 0.35
-8 1 -3 1.7 0.22
8 1 3 1.65 0.29
-8 1 -3 2.32 0.32
8 -1 3 1.69 0.27
-8 -1 -3 1.79 0.3
-8 -1 -3 2.06 0.23
8 1 4 5.29 0.53
-8 1 -4 6.13 0.59
-8 -1 -4 6.08 0.56
8 -1 4 4.95 0.5
-8 1 -5 0.86 0.32
8 1 5 0.39 0.24
8 -1 5 0.53 0.25
-8 -1 -5 0.89 0.31
-8 1 -6 0.52 0.34
8 1 6 0.46 0.26
-8 -1 -6 0.69 0.35
8 -1 6 0.29 0.27
-8 1 -7 0.05 0.37
8 1 7 0.11 0.3
-8 -1 -7 0.12 0.36
8 -1 7 0.15 0.29
8 1 8 1.66 0.38
-8 1 -8 2.26 0.46
8 -1 8 1.76 0.35
-8 -1 -8 2.31 0.45
-8 2 13 -0.11 0.41
-8 -2 13 -0.22 0.38
-8 2 12 1.61 0.39
-8 2 12 1.72 0.31
-8 -2 12 1.79 0.46
-8 2 11 0.05 0.34
-8 2 11 0.86 0.27
-8 -2 11 0.36 0.38
-8 -2 11 1.15 0.27
-8 2 10 0.64 0.33
-8 2 10 0.69 0.24
-8 -2 10 0.23 0.35
-8 -2 10 0.75 0.24
-8 2 9 13.81 0.98
-8 2 9 14.18 0.89
-8 -2 9 12.68 0.89
-8 2 8 2.04 0.28
-8 -2 8 1.36 0.27
-8 2 7 13.67 0.83
-8 -2 7 11.12 0.82
-8 2 6 1.37 0.24
-8 -2 6 1.37 0.24
-8 2 5 5.26 0.44
8 2 -5 4.82 0.43
-8 2 5 4.37 0.31
-8 -2 5 5.31 0.45
-8 2 4 13.22 0.88
8 2 -4 14.29 0.92
-8 2 4 13.65 0.83
-8 -2 4 14.09 0.83
8 -2 -4 13.25 0.88
-8 2 3 30.97 2.02
-8 2 3 34.91 2.03
8 2 -3 36.3 2.09
-8 -2 3 32.5 2.03
-8 -2 3 36.41 2.03
8 -2 -3 35.88 2.07
8 2 -2 1.32 0.23
-8 2 2 0.96 0.19
-8 2 2 1.26 0.19
-8 -2 2 1.54 0.21
8 -2 -2 1.39 0.19
-8 -2 2 1.72 0.2
-8 2 1 3.57 0.38
8 2 -1 4.86 0.45
-8 2 1 3.33 0.37
-8 -2 1 4.45 0.38
8 -2 -1 4.27 0.39
-8 -2 1 4.57 0.39
-8 2 0 -0.2 0.18
8 2 0 0.09 0.19
-8 2 0 -0.23 0.16
8 -2 0 0.03 0.16
-8 -2 0 -0.17 0.18
-8 -2 0 0.15 0.16
-8 2 -1 4.73 0.41
-8 2 -1 3.6 0.39
8 2 1 4.89 0.43
-8 -2 -1 4.46 0.39
8 -2 1 5.03 0.43
-8 -2 -1 4.21 0.44
-8 2 -2 0.01 0.15
-8 2 -2 -0.05 0.23
8 2 2 0.13 0.23
-8 -2 -2 0.12 0.23
8 -2 2 -0.06 0.2
-8 -2 -2 0.36 0.17
-8 2 -3 5.17 0.5
-8 2 -3 2.98 0.31
8 2 3 3.72 0.4
-8 -2 -3 4.53 0.38
-8 -2 -3 4.69 0.47
8 -2 3 4.27 0.43
-8 2 -4 0.79 0.32
8 2 4 1.05 0.28
8 -2 4 0.96 0.25
-8 -2 -4 1.04 0.31
-8 -2 -4 1.23 0.21
8 2 5 0.77 0.28
-8 2 -5 0.74 0.34
8 -2 5 0.51 0.24
-8 -2 -5 0.64 0.3
8 2 6 0.26 0.26
-8 2 -6 -0.08 0.33
8 -2 6 -0.01 0.25
-8 -2 -6 0.04 0.31
8 2 7 0.12 0.31
-8 2 -7 0.09 0.37
8 -2 7 0.38 0.29
-8 -2 -7 0.42 0.36
8 2 8 1.45 0.37
-8 2 -8 1.3 0.45
-8 -2 -8 2.19 0.45
8 -2 8 1.14 0.35
-8 3 13 1.3 0.44
-8 -3 13 0.66 0.45
-8 3 12 -0.03 0.37
-8 3 12 -0.05 0.26
-8 -3 12 0.51 0.41
-8 3 11 0.02 0.26
-8 3 11 -0.11 0.33
-8 -3 11 0 0.24
-8 -3 11 0.13 0.34
-8 3 10 12.76 0.85
-8 3 10 12.19 0.95
-8 -3 10 12.55 0.86
-8 3 9 9.3 0.67
-8 3 9 9.57 0.75
-8 -3 9 8.98 0.7
-8 3 8 7.93 0.57
-8 3 8 8.09 0.67
-8 -3 8 6.9 0.59
-8 3 7 3.81 0.37
-8 -3 7 4 0.39
-8 3 6 0.18 0.18
-8 -3 6 0.09 0.2
-8 3 5 9.63 0.64
8 3 -5 10.25 0.74
-8 -3 5 10.65 0.63
-8 -3 5 12.07 0.74
-8 3 4 4.87 0.4
8 3 -4 4.96 0.43
-8 3 4 4.5 0.35
-8 -3 4 4.49 0.33
8 3 -3 41.87 2.43
-8 3 3 39.17 2.35
-8 3 3 39.81 2.37
-8 -3 3 38.98 2.36
-8 -3 3 39.6 2.36
8 -3 -3 42.01 2.41
-8 3 2 24.83 1.5
8 3 -2 23.27 1.56
-8 3 2 26.45 1.52
8 -3 -2 25.98 1.54
-8 -3 2 25.31 1.52
-8 -3 2 24.95 1.5
-8 3 1 1.25 0.21
8 3 -1 1.47 0.25
-8 3 1 1.35 0.21
8 -3 -1 1.21 0.2
-8 -3 1 1.42 0.22
-8 -3 1 1.5 0.22
-8 3 0 1.06 0.2
8 3 0 1.33 0.24
-8 3 0 0.74 0.21
8 -3 0 1.23 0.21
-8 -3 0 1.23 0.23
-8 -3 0 1.3 0.2
8 3 1 37.63 2.05
-8 3 -1 30.44 1.95
-8 3 -1 30.82 2.02
-8 -3 -1 32.39 2.02
-8 -3 -1 33.78 1.97
8 -3 1 36.02 2.03
-8 3 -2 7.94 0.62
-8 3 -2 9.19 0.7
8 3 2 9.82 0.69
8 -3 2 9.17 0.66
-8 -3 -2 10.29 0.64
-8 -3 -2 9.2 0.7
8 3 3 5.01 0.5
-8 3 -3 6.95 0.58
-8 3 -3 5.32 0.43
-8 -3 -3 5.92 0.47
8 -3 3 6.11 0.49
-8 -3 -3 5.81 0.56
8 3 4 -0.2 0.23
-8 3 -4 0.3 0.31
8 -3 4 -0.13 0.21
-8 -3 -4 0.14 0.29
-8 -3 -4 0.04 0.18
8 3 5 0.1 0.28
-8 3 -5 -0.13 0.33
-8 -3 -5 -0.03 0.3
8 -3 5 -0.07 0.23
-8 3 -6 0.2 0.36
8 3 6 0.36 0.31
-8 -3 -6 0.49 0.34
8 -3 6 0.47 0.26
-8 3 -7 3.3 0.48
8 3 7 2.56 0.4
-8 -3 -7 3.03 0.44
8 -3 7 2.56 0.37
-8 3 -8 0.79 0.44
8 3 8 0.8 0.37
8 -3 8 0.94 0.33
-8 -3 -8 0.94 0.39
-8 4 13 1.08 0.43
-8 -4 13 0.7 0.41
-8 4 12 0.33 0.37
-8 4 12 -0.06 0.28
-8 -4 12 0.21 0.41
-8 4 11 0.11 0.26
-8 4 11 0.64 0.35
-8 -4 11 0.66 0.26
-8 -4 11 0.12 0.38
-8 4 10 5.88 0.52
-8 4 10 6.21 0.62
-8 -4 10 5.67 0.55
-8 4 9 1.56 0.28
-8 4 9 2.11 0.34
-8 -4 9 1.34 0.28
-8 4 8 18.35 1.25
-8 4 8 19.58 1.19
-8 -4 8 19.6 1.22
-8 4 7 2.75 0.32
-8 -4 7 3.44 0.36
-8 4 6 19.15 1.21
-8 -4 6 19.71 1.21
-8 4 5 -0.17 0.12
-8 4 5 -0.04 0.02
-8 -4 5 0.12 0.21
-8 -4 5 -0.04 0.12
-8 4 4 19.7 1.2
-8 4 4 22.13 1.23
-8 -4 4 18.48 1.18
-8 4 3 1.57 0.22
8 4 -3 1.02 0.2
-8 4 3 1.49 0.19
-8 -4 3 1.41 0.18
-8 -4 3 1.19 0.22
8 -4 -3 1.79 0.2
-8 4 2 1.75 0.24
8 4 -2 0.89 0.22
-8 4 2 2.16 0.22
-8 -4 2 1.68 0.2
-8 -4 2 1.34 0.22
8 -4 -2 1.56 0.19
8 4 -1 1.92 0.27
-8 4 1 2.31 0.26
-8 4 1 2.25 0.25
-8 -4 1 2.14 0.26
8 -4 -1 1.47 0.22
-8 -4 1 2.38 0.24
-8 4 0 1.79 0.22
-8 4 0 1.41 0.24
8 -4 0 1.74 0.22
-8 -4 0 1.26 0.21
-8 -4 0 1.98 0.26
-8 4 -1 4.96 0.55
-8 4 -1 7.31 0.5
-8 -4 -1 6.76 0.5
8 -4 1 7.53 0.53
-8 -4 -1 6.51 0.52
-8 4 -2 0.61 0.16
-8 4 -2 0.05 0.25
-8 -4 -2 0.37 0.18
-8 -4 -2 -0.06 0.24
8 -4 2 0.6 0.21
-8 4 -3 -0.33 0.27
8 4 3 -0.02 0.24
-8 4 -3 0.24 0.16
-8 -4 -3 -0.07 0.18
8 -4 3 -0.06 0.19
-8 -4 -3 -0.46 0.27
8 4 4 0.49 0.27
-8 4 -4 0.49 0.32
-8 -4 -4 0.61 0.33
8 -4 4 0.68 0.23
-8 -4 -4 0.29 0.21
-8 4 -5 0.23 0.35
8 4 5 0.11 0.29
8 -4 5 0.22 0.23
-8 -4 -5 0.16 0.32
8 4 6 6.47 0.62
-8 4 -6 5.33 0.59
-8 -4 -6 5.53 0.57
8 -4 6 5.89 0.53
8 4 7 0.1 0.32
-8 4 -7 0.43 0.41
8 -4 7 0.16 0.29
-8 -4 -7 0.19 0.37
-8 4 -8 0.33 0.45
8 4 8 0.96 0.37
8 -4 8 0.6 0.32
-8 -4 -8 0.76 0.4
-8 5 12 0.71 0.38
-8 5 12 0.78 0.31
-8 -5 12 0.69 0.44
-8 5 11 3.55 0.41
-8 5 11 3.59 0.45
-8 -5 11 3.45 0.4
-8 -5 11 3.07 0.48
-8 5 10 -0.01 0.28
-8 5 10 -0.04 0.25
-8 -5 10 -0.18 0.24
-8 5 9 0.32 0.26
-8 5 9 0.42 0.26
-8 -5 9 0.31 0.26
-8 5 8 0.92 0.27
-8 5 8 0.68 0.25
-8 -5 8 1.15 0.29
-8 5 7 9.17 0.69
-8 5 7 9.38 0.67
-8 -5 7 8.56 0.69
-8 5 6 1.05 0.23
-8 -5 6 1.24 0.18
-8 -5 6 1.45 0.29
-8 5 5 2.94 0.31
-8 -5 5 3.61 0.29
-8 -5 5 3.37 0.35
-8 5 4 0.2 0.19
8 5 -4 0.18 0.08
-8 5 4 0.29 0.15
-8 -5 4 0.03 0.09
-8 -5 4 0.13 0.16
-8 5 3 14.99 0.94
-8 5 3 15.87 0.95
-8 -5 3 14.19 0.91
8 -5 -3 14.48 0.93
-8 5 2 20.83 1.2
-8 5 2 20.44 1.21
-8 -5 2 19.33 1.2
-8 -5 2 18.45 1.19
8 -5 -2 19.1 1.2
-8 5 1 15.39 0.92
-8 5 1 16.52 0.95
-8 -5 1 14.53 0.91
8 -5 -1 11.86 0.91
-8 -5 1 14.87 0.91
-8 5 0 5.53 0.5
-8 5 0 5.85 0.43
-8 -5 0 4.37 0.43
8 -5 0 5.23 0.43
-8 -5 0 5.04 0.44
-8 5 -1 0.31 0.18
-8 5 -1 0.52 0.24
-8 -5 -1 0.45 0.23
8 -5 1 0.47 0.18
-8 -5 -1 0.32 0.19
-8 5 -2 7.04 0.48
-8 5 -2 5.54 0.58
-8 -5 -2 6.84 0.55
-8 -5 -2 6.41 0.49
8 -5 2 6.04 0.53
-8 5 -3 8.71 0.77
8 5 3 9.81 0.78
-8 -5 -3 9.09 0.74
-8 -5 -3 10.16 0.67
8 -5 3 10.56 0.71
8 5 4 7.01 0.64
-8 5 -4 6.23 0.7
-8 -5 -4 8.09 0.56
-8 -5 -4 7.44 0.65
8 -5 4 8.19 0.58
-8 5 -5 -0.85 0.33
8 5 5 0.26 0.31
8 -5 5 0.43 0.23
-8 -5 -5 -0.19 0.34
-8 5 -6 0.64 0.41
8 5 6 1.1 0.34
-8 -5 -6 1.43 0.4
8 -5 6 0.95 0.28
-8 5 -7 -0.48 0.41
8 5 7 0.14 0.31
8 -5 7 0.43 0.29
-8 -5 -7 0.29 0.39
8 5 8 0.53 0.34
-8 5 -8 -0.34 0.46
-8 -5 -8 0.73 0.41
8 -5 8 0.48 0.32
-8 6 12 0.71 0.39
-8 6 12 0.3 0.33
-8 -6 12 0.57 0.43
-8 6 11 2.29 0.37
-8 6 11 2.2 0.4
-8 -6 11 2.14 0.35
-8 -6 11 2.33 0.47
-8 6 10 2.41 0.35
-8 6 10 2.77 0.39
-8 -6 10 1.83 0.34
-8 6 9 0.18 0.27
-8 6 9 -0.2 0.24
-8 -6 9 -0.15 0.28
-8 6 8 13.57 0.91
-8 6 8 13.57 0.95
-8 -6 8 13.93 0.95
-8 6 7 21.9 1.36
-8 6 7 20.94 1.31
-8 -6 7 21.43 1.36
-8 6 6 4.16 0.42
-8 6 6 3.79 0.4
-8 -6 6 4.49 0.36
-8 -6 6 4.11 0.43
8 6 -5 2.99 0.35
-8 6 5 2.92 0.28
-8 -6 5 3.26 0.36
-8 -6 5 3.47 0.32
-8 6 4 0.66 0.22
8 6 -4 0.47 0.23
-8 6 4 0.35 0.18
-8 -6 4 0.27 0.19
-8 -6 4 0.08 0.12
-8 6 3 1.95 0.24
8 6 -3 1.66 0.26
-8 6 3 2.06 0.26
-8 -6 3 1.62 0.25
8 6 -2 0.29 0.22
-8 6 2 0.42 0.2
-8 6 2 0.56 0.2
-8 -6 2 0.61 0.21
-8 -6 2 0.38 0.2
8 -6 -2 0.36 0.14
-8 6 1 11.41 0.74
-8 6 1 11.09 0.71
8 6 -1 9.5 0.78
-8 -6 1 10.38 0.7
8 -6 -1 9.56 0.68
-8 -6 1 10.36 0.71
8 6 0 0.02 0.22
-8 6 0 0.24 0.22
-8 6 0 0.22 0.18
-8 -6 0 -0.02 0.18
8 -6 0 -0.03 0.16
-8 -6 0 0.03 0.21
8 6 1 1.13 0.27
-8 6 -1 1.19 0.29
-8 6 -1 1.15 0.2
-8 -6 -1 0.81 0.26
-8 -6 -1 1.05 0.24
8 -6 1 1.04 0.2
-8 6 -2 1.15 0.31
-8 6 -2 1.24 0.22
8 6 2 1.45 0.3
8 -6 2 1.16 0.22
-8 -6 -2 0.87 0.3
-8 6 -3 11.31 0.93
8 6 3 13.2 0.93
8 -6 3 13.24 0.86
-8 -6 -3 13.41 0.92
-8 -6 -3 12.94 0.84
-8 6 -4 0.72 0.35
8 6 4 1.11 0.31
-8 -6 -4 1.42 0.37
8 -6 4 0.99 0.25
-8 -6 -4 0.93 0.26
-8 6 -5 4.16 0.54
8 6 5 4.79 0.52
8 -6 5 5.51 0.49
-8 -6 -5 4.95 0.56
8 6 6 0.65 0.35
-8 6 -6 0.15 0.4
-8 -6 -6 0.33 0.39
8 -6 6 0.64 0.27
8 6 7 1.06 0.36
-8 6 -7 -0.26 0.43
-8 -6 -7 0.88 0.42
8 -6 7 1.4 0.31
-8 7 12 0.34 0.38
-8 7 12 0.42 0.32
-8 -7 12 0.06 0.43
-8 7 11 2.79 0.42
-8 7 11 2.4 0.38
-8 -7 11 2.23 0.48
-8 -7 11 2.17 0.37
-8 7 10 2.94 0.39
-8 7 10 2.88 0.38
-8 -7 10 2.53 0.39
-8 7 9 0.36 0.25
-8 7 9 0.48 0.28
-8 -7 9 0.49 0.29
-8 7 8 12.51 0.86
-8 7 8 12.15 0.87
-8 -7 8 12.79 0.9
-8 7 7 0.53 0.26
-8 7 7 0.67 0.23
-8 -7 7 0.57 0.28
-8 7 6 -0.11 0.2
-8 7 6 0.21 0.19
8 -7 -6 -0.08 0.21
-8 -7 6 -0.06 0.2
-8 -7 6 -0.07 0.25
-8 7 5 8.18 0.62
8 7 -5 9.6 0.72
-8 -7 5 9.35 0.65
-8 -7 5 8.6 0.61
8 7 -4 7.17 0.57
-8 7 4 6.29 0.51
-8 7 4 7.31 0.53
-8 -7 4 5.86 0.51
-8 -7 4 7.15 0.51
8 7 -3 11.2 0.78
-8 7 3 11.12 0.75
-8 7 3 10.35 0.73
-8 -7 3 11.17 0.73
-8 7 2 11.17 0.78
8 7 -2 11.07 0.83
-8 7 2 11.32 0.75
-8 -7 2 11.37 0.78
8 -7 -2 10.98 0.72
-8 -7 2 12 0.76
-8 7 1 5.48 0.48
-8 7 1 5.39 0.45
8 7 -1 3.54 0.44
8 -7 -1 4.89 0.38
-8 -7 1 5.76 0.46
-8 7 0 8.67 0.62
8 7 0 9.07 0.69
-8 7 0 9.33 0.67
-8 -7 0 9.08 0.65
8 -7 0 7.87 0.61
8 7 1 0.66 0.27
-8 7 -1 0.84 0.22
-8 7 -1 0.83 0.28
-8 -7 -1 0.84 0.27
8 -7 1 0.65 0.18
8 7 2 5.07 0.48
-8 7 -2 4.98 0.5
-8 7 -2 5.17 0.44
-8 -7 -2 5.19 0.5
8 -7 2 4.49 0.45
8 7 3 4.1 0.47
-8 -7 -3 4.3 0.46
8 -7 3 4.81 0.46
-8 7 -4 -0.1 0.34
8 7 4 -0.08 0.31
-8 -7 -4 -0.18 0.34
8 -7 4 0.18 0.22
8 7 5 0.45 0.32
-8 7 -5 0.19 0.38
-8 -7 -5 0.72 0.38
8 -7 5 1.14 0.26
-8 7 -6 -0.76 0.39
8 7 6 0.21 0.36
8 -7 6 0.07 0.27
-8 -7 -6 -0.19 0.39
-8 7 -7 -1.33 0.41
8 7 7 -0.2 0.37
8 -7 7 0.33 0.3
-8 -7 -7 -0.01 0.42
-8 8 12 -0.19 0.33
-8 8 11 0.63 0.32
-8 8 11 0.24 0.32
-8 -8 11 0.17 0.41
-8 8 10 2.92 0.39
-8 8 10 2.69 0.39
-8 -8 10 3.03 0.42
-8 8 9 0.55 0.3
-8 8 9 0.04 0.26
-8 -8 9 0.03 0.32
-8 8 8 0.33 0.28
-8 -8 8 0.62 0.31
-8 8 7 3.07 0.38
-8 -8 7 2.87 0.39
-8 8 6 1.96 0.33
-8 -8 6 2.08 0.3
8 -8 -6 2.83 0.32
-8 -8 6 2.58 0.35
8 8 -5 17.16 1.16
-8 8 5 17.41 1.11
-8 -8 5 17.37 1.1
-8 -8 5 18.46 1.12
8 8 -4 19.53 1.24
-8 8 4 18.6 1.18
-8 8 4 18.17 1.19
-8 -8 4 19.37 1.19
-8 -8 4 19.43 1.21
-8 8 3 1.24 0.25
8 8 -3 1.23 0.27
-8 8 3 1.25 0.27
-8 -8 3 1.22 0.27
-8 8 2 4.98 0.49
8 8 -2 4.68 0.44
-8 8 2 4.52 0.42
-8 -8 2 4.86 0.45
-8 8 1 2.99 0.32
8 8 -1 1.75 0.34
-8 8 1 3.11 0.35
-8 -8 1 3.41 0.35
-8 8 0 7.66 0.62
8 8 0 6.5 0.62
-8 8 0 7.6 0.56
-8 -8 0 7.14 0.58
8 8 1 0.71 0.28
-8 8 -1 0.64 0.22
-8 8 -1 0.9 0.31
-8 -8 -1 0.56 0.29
8 8 2 24.09 1.54
-8 8 -2 24.81 1.53
-8 8 -2 23.15 1.43
-8 -8 -2 23.05 1.49
-8 8 -3 1.08 0.36
8 8 3 1.01 0.31
-8 -8 -3 0.88 0.34
-8 8 -4 2.06 0.43
8 8 4 1.85 0.37
-8 -8 -4 1.53 0.4
8 8 5 2.96 0.45
-8 8 -5 2 0.46
-8 -8 -5 2.4 0.45
-8 8 -6 2.9 0.55
8 8 6 4.02 0.49
-8 -8 -6 4.62 0.56
-8 8 -7 -1.16 0.44
8 8 7 0.63 0.4
-8 -8 -7 0.13 0.43
-8 9 11 0.53 0.37
-8 -9 11 0.46 0.43
-8 9 10 0.04 0.32
-8 -9 10 -0.06 0.33
-8 9 9 0.53 0.31
-8 -9 9 0.47 0.34
-8 9 8 3.83 0.43
-8 -9 8 3.58 0.46
-8 9 7 0.62 0.27
-8 -9 7 0.51 0.3
-8 9 6 4.36 0.45
8 -9 -6 4.93 0.47
-8 -9 6 4.42 0.45
-8 -9 6 3.89 0.42
8 9 -5 -0.02 0.23
-8 9 5 0.04 0.23
-8 -9 5 0.07 0.24
-8 -9 5 0.13 0.26
-8 9 4 6.98 0.59
8 9 -4 7.85 0.66
-8 9 4 7.05 0.61
-8 -9 4 7.03 0.61
-8 -9 4 7.38 0.57
-8 9 3 8.58 0.66
-8 9 3 8.07 0.66
8 9 -3 9.13 0.71
-8 -9 3 8.44 0.64
8 9 -2 9.94 0.78
-8 9 2 10.67 0.78
-8 9 2 10.81 0.74
-8 -9 2 11 0.76
-8 9 1 -0.08 0.22
8 9 -1 -0.68 0.21
-8 9 1 0.14 0.25
-8 -9 1 0.23 0.28
8 9 0 4.08 0.44
-8 9 0 4.23 0.45
-8 9 0 4.48 0.44
-8 -9 0 4.15 0.44
-8 9 -1 1.4 0.26
-8 9 -1 1.78 0.36
8 9 1 1.3 0.33
-8 -9 -1 1.22 0.33
-8 9 -2 7.59 0.6
8 9 2 8.18 0.71
-8 9 -2 8.06 0.71
-8 -9 -2 7.44 0.66
-8 9 -3 1.46 0.39
8 9 3 1.4 0.35
-8 -9 -3 0.92 0.35
8 9 4 0.09 0.34
-8 9 -4 0.32 0.38
-8 -9 -4 0.53 0.37
-8 9 -5 -0.06 0.41
8 9 5 0.2 0.36
-8 -9 -5 0.52 0.42
8 9 6 0 0.38
-8 9 -6 0.03 0.44
-8 -9 -6 -0.51 0.41
-8 10 11 -0.05 0.34
-8 -10 11 -0.08 0.42
-8 10 10 -0.2 0.32
-8 -10 10 -0.32 0.34
-8 10 9 0.02 0.32
-8 -10 9 -0.19 0.32
-8 10 8 8.75 0.73
-8 -10 8 9.51 0.78
-8 10 7 2.53 0.36
-8 -10 7 2.94 0.4
-8 10 6 2.91 0.39
8 -10 -6 3.28 0.4
-8 -10 6 3.36 0.37
-8 -10 6 2.97 0.4
-8 10 5 0.04 0.27
8 10 -5 0.34 0.28
8 -10 -5 0.03 0.28
-8 -10 5 0.05 0.25
-8 -10 5 0.04 0.27
8 10 -4 2.41 0.35
-8 10 4 2.2 0.33
-8 10 4 2.59 0.35
-8 -10 4 2.32 0.34
8 10 -3 0.34 0.27
-8 10 3 0.53 0.27
-8 10 3 0.34 0.27
-8 -10 3 -0.23 0.29
-8 10 2 9.1 0.71
8 10 -2 9.84 0.76
-8 10 2 9.63 0.71
-8 -10 2 9.02 0.71
8 10 -1 -0.53 0.25
-8 10 1 0.67 0.28
-8 10 1 0.18 0.25
-8 -10 1 0.33 0.32
-8 10 0 2.88 0.35
8 10 0 2.57 0.4
-8 10 0 2.88 0.41
-8 -10 0 3.27 0.42
-8 10 -1 1.16 0.35
-8 10 -1 1.71 0.3
8 10 1 1.1 0.31
-8 -10 -1 1.27 0.36
-8 10 -2 1.96 0.29
8 10 2 2.44 0.38
-8 10 -2 1.92 0.4
-8 -10 -2 1.47 0.38
-8 10 -3 1.44 0.4
8 10 3 1.47 0.36
-8 -10 -3 0.97 0.38
-8 10 -4 0.75 0.42
8 10 4 0.14 0.35
-8 -10 -4 0.58 0.39
-8 10 -5 0.17 0.44
8 10 5 0.35 0.37
-8 -10 -5 0.25 0.41
-8 10 -6 0.45 0.48
8 10 6 0.37 0.4
-8 -10 -6 0.7 0.46
-8 11 10 0.2 0.35
-8 -11 10 1.21 0.39
-8 11 9 0.72 0.36
-8 -11 9 1.14 0.38
-8 11 8 0.65 0.32
-8 -11 8 -0.18 0.32
-8 11 7 0.41 0.3
-8 -11 7 0.33 0.32
-8 11 6 0.03 0.29
-8 -11 6 -0.15 0.3
8 -11 -6 0.34 0.31
-8 -11 6 -0.16 0.28
-8 11 5 0.8 0.3
8 11 -5 1.26 0.31
-8 -11 5 1.16 0.32
8 -11 -5 1.01 0.33
-8 11 4 0.35 0.29
-8 11 4 0.47 0.3
8 11 -4 0.9 0.3
-8 -11 4 0.26 0.3
-8 11 3 3.94 0.43
-8 11 3 3.69 0.43
8 11 -3 3.98 0.43
-8 -11 3 3.94 0.43
-8 11 2 6.05 0.57
-8 11 2 6.15 0.59
8 11 -2 5.75 0.6
-8 -11 2 5.31 0.54
8 11 -1 0.2 0.29
-8 11 1 0.98 0.3
-8 11 1 1.17 0.34
-8 -11 1 1.35 0.35
-8 11 0 6.33 0.56
-8 11 0 6.73 0.64
8 11 0 5.18 0.54
-8 -11 0 5.65 0.58
-8 11 -1 2.38 0.34
-8 11 -1 3.25 0.45
8 11 1 2.6 0.41
-8 -11 -1 2.52 0.42
-8 11 -2 0.88 0.38
-8 11 -2 0.63 0.27
8 11 2 0.95 0.35
-8 -11 -2 0.65 0.38
-8 11 -3 0.12 0.39
8 11 3 0.13 0.33
-8 -11 -3 -0.02 0.37
-8 11 -4 1.48 0.47
8 11 4 2.02 0.38
-8 -11 -4 1.62 0.46
-8 11 -5 2.86 0.55
8 11 5 2.93 0.48
-8 -11 -5 3.2 0.52
-8 12 9 1.84 0.42
-8 -12 9 2.62 0.45
-8 12 8 0.06 0.34
-8 -12 8 -0.03 0.34
-8 12 7 4.44 0.5
-8 -12 7 4.11 0.47
-8 12 6 6.91 0.68
8 -12 -6 7.99 0.69
-8 -12 6 7.17 0.62
-8 -12 6 7.72 0.67
-8 12 5 12.01 0.89
-8 -12 5 13.05 0.9
8 -12 -5 12.96 0.92
8 12 -4 1.55 0.34
-8 12 4 1.37 0.34
-8 12 4 1.35 0.35
-8 -12 4 0.84 0.35
-8 12 3 0.12 0.31
8 12 -3 0.21 0.29
-8 12 3 0.12 0.31
-8 -12 3 -0.2 0.31
8 12 -2 0.49 0.29
-8 12 2 -0.05 0.29
-8 12 2 0.71 0.32
-8 -12 2 0.35 0.33
-8 12 1 1.08 0.31
8 12 -1 0.43 0.3
-8 12 1 0.84 0.33
-8 -12 1 0.83 0.38
-8 12 0 6.33 0.62
-8 12 0 6.7 0.57
8 12 0 4.12 0.53
-8 -12 0 6.75 0.61
8 12 1 0.25 0.33
-8 12 -1 -0.04 0.34
-8 12 -1 0.14 0.27
-8 -12 -1 0.23 0.37
8 12 2 1.07 0.37
-8 12 -2 0.8 0.4
-8 12 -2 0.97 0.32
-8 -12 -2 1.14 0.41
8 12 3 1.27 0.38
-8 12 -3 1.46 0.47
-8 -12 -3 0.89 0.41
-8 12 -4 0.1 0.43
8 12 4 0.12 0.36
-8 -12 -4 0.23 0.42
-8 13 8 1.04 0.38
-8 -13 8 0.76 0.38
-8 13 7 -0.16 0.34
-8 -13 7 0.06 0.34
-8 13 6 1.12 0.37
-8 -13 6 0.72 0.36
8 -13 -6 1.49 0.41
-8 13 5 0.79 0.36
-8 -13 5 0.99 0.37
8 -13 -5 0.63 0.39
8 13 -4 0.42 0.31
-8 13 4 0.06 0.3
-8 -13 4 0.69 0.36
-8 13 3 0.96 0.35
-8 13 3 0.74 0.34
8 13 -3 0.95 0.32
-8 -13 3 0.7 0.38
-8 13 2 5.18 0.52
-8 13 2 5.04 0.53
8 13 -2 5.78 0.6
-8 -13 2 4.58 0.53
-8 13 1 0.85 0.33
8 13 -1 1.11 0.33
-8 13 1 1.17 0.39
-8 -13 1 1.08 0.41
-8 13 0 3.45 0.48
-8 13 0 3.89 0.44
-8 -13 0 3.6 0.5
-8 13 -1 0.4 0.38
-8 13 -1 0.12 0.3
8 13 1 -0.18 0.34
-8 -13 -1 0.26 0.4
8 13 2 0.16 0.36
-8 13 -2 0.4 0.41
-8 -13 -2 0.39 0.44
8 13 3 0.41 0.37
-8 13 -3 0.23 0.43
-8 -13 -3 0.24 0.42
8 13 4 0 0.37
-8 13 -4 0.25 0.47
-8 -13 -4 0.12 0.44
-8 14 7 0.51 0.38
-8 -14 7 0.38 0.36
-8 14 6 -0.24 0.32
-8 -14 6 -0.23 0.37
8 -14 -6 -0.69 0.39
-8 14 5 1.76 0.4
-8 -14 5 1.46 0.42
8 -14 -5 1.22 0.44
8 14 -4 2.53 0.39
-8 14 4 2.21 0.43
-8 -14 4 1.76 0.41
-8 14 3 1.38 0.4
8 14 -3 1.44 0.36
-8 14 3 2.04 0.37
-8 -14 3 2.06 0.42
8 14 -2 0.55 0.33
-8 14 2 -0.02 0.33
-8 14 2 0.36 0.35
-8 -14 2 -0.53 0.37
-8 14 1 2.59 0.45
-8 14 1 2.78 0.43
8 14 -1 2.94 0.41
-8 -14 1 2.63 0.47
-8 14 0 0.24 0.37
8 14 0 -0.94 0.29
-8 14 0 0.52 0.34
-8 -14 0 0.04 0.4
-8 14 -1 0.37 0.35
-8 14 -1 0.51 0.4
8 14 1 -0.13 0.34
-8 -14 -1 -0.29 0.41
8 14 2 -0.23 0.36
-8 14 -2 0.09 0.41
-8 -14 -2 0.32 0.43
-8 14 -3 -0.05 0.44
-8 -14 -3 -0.27 0.46
-8 15 6 0.17 0.39
-8 -15 6 -0.89 0.39
8 -15 -6 -0.15 0.43
-8 15 5 1.5 0.43
-8 -15 5 1.43 0.45
8 -15 -5 2.67 0.48
-8 15 4 0.09 0.38
8 15 -4 0.3 0.33
-8 -15 4 0.5 0.39
8 -15 -4 0.46 0.43
-8 15 3 0.21 0.38
8 15 -3 1.11 0.36
-8 15 3 0.66 0.39
-8 -15 3 0.99 0.43
-8 15 2 -0.1 0.37
8 15 -2 0.24 0.34
-8 15 2 0.71 0.38
-8 -15 2 0.16 0.42
-8 15 1 0.06 0.35
8 15 -1 0.45 0.34
-8 15 1 -0.16 0.38
-8 -15 1 0.45 0.42
-8 15 0 0.52 0.38
8 15 0 -0.16 0.31
-8 15 0 0.42 0.42
-8 -15 0 0.04 0.43
-8 15 -1 0.93 0.43
8 15 1 -0.07 0.34
-8 15 -1 0.09 0.34
-8 -15 -1 -0.17 0.44
8 16 -3 0.2 0.35
-8 16 3 -0.01 0.36
-8 -16 3 0.11 0.45
-8 16 2 0.71 0.41
-8 16 2 1.25 0.45
8 16 -2 1.28 0.38
-8 -16 2 1.24 0.47
-8 16 1 -0.01 0.37
-8 16 1 0.39 0.41
-9 0 13 0.12 0.43
-9 0 12 5.17 0.59
-9 0 12 5.98 0.54
-9 0 11 0.11 0.36
-9 0 11 0.13 0.27
-9 0 10 4.18 0.49
-9 0 10 5.07 0.49
-9 0 9 0.2 0.24
-9 0 8 27.41 1.67
-9 0 7 -0.32 0.2
-9 0 6 2.64 0.31
9 0 -5 0.06 0.2
-9 0 5 -0.07 0.04
9 0 -4 58.92 3.22
-9 0 4 49.4 3.13
-9 0 4 53.42 3.12
-9 0 3 -0.09 0.14
9 0 -3 -0.11 0.18
-9 0 3 0.06 0.19
-9 0 2 36.42 2.03
9 0 -2 28.61 2.09
-9 0 2 38.25 2.06
9 0 -1 -0.03 0.2
-9 0 1 -0.15 0.17
-9 0 1 -0.06 0.19
-9 0 0 7.79 0.58
-9 0 0 8.3 0.61
9 0 0 8.7 0.63
9 0 1 0.16 0.21
-9 0 -1 0.02 0.22
-9 0 -1 0.06 0.17
-9 0 -2 17.43 1.05
9 0 2 15.66 1.11
-9 0 -2 17.83 1.13
9 0 3 -0.73 0.23
-9 0 -3 -0.09 0.19
-9 0 -3 0.12 0.27
-9 0 -4 2.84 0.39
9 0 4 2.14 0.34
9 0 5 0.24 0.29
-9 0 -5 0 0.32
9 0 6 6.77 0.62
-9 0 -6 8.63 0.72
-9 0 -7 0.23 0.37
9 0 7 -0.1 0.31
-9 1 13 0.8 0.43
-9 -1 13 0.53 0.43
-9 1 12 1.23 0.31
-9 1 12 0.9 0.43
-9 -1 12 1.23 0.41
-9 -1 12 1.66 0.32
-9 1 11 -0.02 0.36
-9 1 11 0.02 0.25
-9 -1 11 0.15 0.25
-9 -1 11 0.11 0.37
-9 1 10 0.89 0.35
-9 1 10 0.92 0.28
-9 -1 10 1.25 0.28
-9 1 9 1.47 0.28
-9 -1 9 1.06 0.27
-9 1 8 1.63 0.28
-9 -1 8 0.42 0.24
-9 1 7 3.68 0.37
-9 -1 7 3.61 0.38
-9 1 6 0.11 0.19
-9 -1 6 0.48 0.23
-9 1 4 2.6 0.26
9 1 -4 2.92 0.3
-9 1 4 1.6 0.26
-9 -1 4 2.63 0.22
9 -1 -4 2.42 0.28
-9 1 3 5.24 0.49
9 1 -3 5.72 0.51
-9 1 3 4.65 0.42
-9 -1 3 5.86 0.44
9 -1 -3 6.45 0.48
-9 -1 3 6.44 0.49
9 1 -2 1.22 0.25
-9 1 2 2.05 0.27
-9 1 2 1.66 0.23
-9 -1 2 2.49 0.26
9 -1 -2 1.35 0.24
-9 -1 2 2.05 0.22
-9 1 1 5.39 0.46
-9 1 1 5.76 0.48
9 1 -1 5.65 0.5
9 -1 -1 5.85 0.51
-9 -1 1 5.76 0.44
-9 -1 1 6.02 0.47
9 1 0 3.77 0.37
-9 1 0 4.45 0.42
-9 1 0 3.77 0.37
9 -1 0 3.9 0.36
-9 -1 0 3.9 0.39
-9 -1 0 3.82 0.38
9 1 1 0.07 0.22
-9 1 -1 -0.01 0.22
-9 1 -1 0.04 0.19
-9 -1 -1 0.32 0.23
9 -1 1 -0.07 0.2
-9 -1 -1 -0.12 0.18
-9 1 -2 -0.08 0.18
9 1 2 0.23 0.22
-9 1 -2 0.17 0.25
-9 -1 -2 0.06 0.18
9 -1 2 0.23 0.23
-9 -1 -2 0.24 0.24
9 1 3 0.57 0.29
-9 1 -3 0.95 0.3
-9 1 -3 1.08 0.21
-9 -1 -3 1.08 0.21
-9 -1 -3 1.05 0.29
9 -1 3 0.75 0.27
9 1 4 0.42 0.28
-9 1 -4 0.07 0.3
-9 -1 -4 0.25 0.29
9 -1 4 0.18 0.26
-9 1 -5 -0.06 0.32
9 1 5 -0.08 0.29
-9 -1 -5 -0.22 0.31
9 -1 5 0.01 0.27
-9 1 -6 0.32 0.37
9 1 6 0.39 0.32
-9 -1 -6 0.86 0.37
9 -1 6 0.36 0.3
-9 1 -7 0.04 0.38
9 1 7 -0.18 0.33
9 -1 7 0.13 0.31
-9 -1 -7 0.33 0.38
-9 2 13 -0.38 0.4
-9 -2 13 -0.09 0.39
-9 2 12 0.89 0.31
-9 2 12 0.56 0.39
-9 -2 12 0.41 0.41
-9 -2 12 0.58 0.29
-9 2 11 1.3 0.31
-9 2 11 1.17 0.38
-9 -2 11 1.7 0.3
-9 -2 11 0.43 0.4
-9 2 10 0.7 0.34
-9 2 10 0.91 0.28
-9 -2 10 1.04 0.28
-9 2 9 5.4 0.49
-9 -2 9 4.02 0.43
-9 2 8 1.21 0.27
-9 -2 8 0.39 0.25
-9 2 7 25.44 1.5
-9 -2 7 23.42 1.5
-9 2 6 2.55 0.32
-9 -2 6 3.15 0.34
-9 2 4 4.49 0.47
9 2 -4 7.02 0.55
-9 2 4 6.05 0.42
9 -2 -4 6.45 0.5
-9 -2 4 6.05 0.43
-9 2 3 0.07 0.15
-9 2 3 -0.3 0.19
9 2 -3 0.01 0.2
-9 -2 3 -0.04 0.19
-9 -2 3 0.14 0.15
9 -2 -3 0.12 0.17
9 2 -2 3.31 0.36
-9 2 2 3.55 0.36
-9 2 2 3.83 0.35
-9 -2 2 4.37 0.36
9 -2 -2 3.35 0.33
-9 -2 2 4.37 0.41
-9 2 1 26.09 1.77
9 2 -1 34.05 1.84
-9 2 1 27.62 1.74
-9 -2 1 29.26 1.75
-9 -2 1 29.23 1.77
9 -2 -1 31 1.81
9 2 0 0.63 0.23
-9 2 0 0.5 0.22
-9 2 0 0.53 0.21
-9 -2 0 0.67 0.21
9 -2 0 0.59 0.21
-9 -2 0 0.7 0.22
9 2 1 15.58 0.99
-9 2 -1 15.06 0.98
-9 2 -1 14.36 0.92
9 -2 1 14.47 0.96
-9 -2 -1 14 0.96
-9 -2 -1 14.14 0.93
-9 2 -2 1.39 0.23
-9 2 -2 1.3 0.3
9 2 2 1.76 0.3
-9 -2 -2 1.77 0.31
9 -2 2 1.66 0.28
-9 -2 -2 1.88 0.24
9 2 3 0.75 0.3
-9 2 -3 1.62 0.33
-9 -2 -3 1.46 0.31
9 -2 3 1.36 0.29
-9 -2 -3 1.96 0.25
-9 2 -4 0.31 0.32
9 2 4 -0.23 0.28
-9 -2 -4 0.36 0.28
9 -2 4 -0.03 0.25
9 2 5 1.03 0.33
-9 2 -5 1.55 0.38
9 -2 5 0.86 0.29
-9 -2 -5 1.37 0.35
9 2 6 0.44 0.33
-9 2 -6 0.49 0.37
-9 -2 -6 0.15 0.34
9 -2 6 0.18 0.29
9 2 7 0.17 0.35
-9 2 -7 -0.17 0.38
9 -2 7 -0.23 0.3
-9 -2 -7 0.39 0.39
-9 3 13 0.44 0.42
-9 3 13 -0.25 0.29
-9 -3 13 -0.03 0.44
-9 3 12 2.25 0.45
-9 3 12 2.32 0.37
-9 -3 12 2.6 0.36
-9 -3 12 2.38 0.46
-9 3 11 1.02 0.37
-9 3 11 1.28 0.31
-9 -3 11 1.45 0.3
-9 -3 11 0.99 0.41
-9 3 10 7.77 0.75
-9 3 10 9.05 0.67
-9 -3 10 8.5 0.67
-9 3 9 2.5 0.33
-9 3 9 2.09 0.34
-9 -3 9 1.59 0.32
-9 3 8 4.69 0.46
-9 -3 8 3.42 0.4
-9 3 7 7.15 0.59
-9 -3 7 7.01 0.56
-9 3 6 8.78 0.71
-9 -3 6 11.75 0.75
9 3 -5 11.52 0.82
-9 3 5 10.21 0.69
-9 -3 5 11.68 0.69
9 3 -4 1.4 0.27
-9 3 4 1.47 0.19
-9 3 4 1.38 0.26
-9 -3 4 1.55 0.19
9 -3 -4 1.52 0.23
-9 3 3 3.07 0.31
9 3 -3 2.64 0.31
-9 3 3 2.3 0.3
9 -3 -3 2.62 0.27
-9 -3 3 2.45 0.26
-9 -3 3 2.19 0.28
9 3 -2 4.37 0.43
-9 3 2 5.31 0.42
-9 3 2 4.45 0.42
-9 -3 2 5.21 0.42
9 -3 -2 4.97 0.45
-9 -3 2 4.99 0.46
-9 3 1 9.59 0.76
-9 3 1 10.39 0.78
9 3 -1 14.23 0.82
9 -3 -1 12.41 0.78
-9 -3 1 11.03 0.76
-9 -3 1 11.22 0.77
-9 3 0 12.39 0.91
9 3 0 16.29 0.95
-9 3 0 10.78 0.87
-9 -3 0 12.15 0.88
9 -3 0 15.88 0.91
-9 -3 0 13.88 0.88
-9 3 -1 -0.68 0.17
-9 3 -1 -0.34 0.23
9 3 1 -0.01 0.22
9 -3 1 0.1 0.21
-9 -3 -1 -0.04 0.23
-9 -3 -1 0.02 0.19
9 3 2 1.89 0.31
-9 3 -2 0.5 0.2
-9 3 -2 1.39 0.3
-9 -3 -2 1.53 0.3
9 -3 2 1.48 0.27
-9 -3 -2 1.62 0.25
-9 3 -3 0.5 0.31
9 3 3 0.76 0.29
-9 -3 -3 0.77 0.3
9 -3 3 0.67 0.25
-9 -3 -3 0.49 0.22
9 3 4 5.03 0.55
-9 3 -4 7.16 0.64
-9 -3 -4 6.82 0.61
9 -3 4 6.7 0.56
-9 3 -5 -0.11 0.34
9 3 5 -0.16 0.32
9 -3 5 0.03 0.28
-9 -3 -5 0.01 0.32
-9 3 -6 -0.09 0.37
9 3 6 0.2 0.34
-9 -3 -6 0.02 0.33
9 -3 6 -0.11 0.28
-9 3 -7 0.37 0.41
9 3 7 -0.27 0.35
-9 -3 -7 0.07 0.36
9 -3 7 0.22 0.32
-9 4 12 -0.02 0.29
-9 4 12 -0.01 0.36
-9 -4 12 0.51 0.39
-9 -4 12 0.01 0.27
-9 4 11 1.88 0.34
-9 4 11 1.87 0.4
-9 -4 11 1.65 0.45
-9 -4 11 1.89 0.34
-9 4 10 0.19 0.31
-9 4 10 0.27 0.27
-9 -4 10 -0.65 0.26
-9 4 9 3.02 0.39
-9 4 9 2.9 0.37
-9 -4 9 2.72 0.37
-9 4 8 2.28 0.3
-9 -4 8 1.61 0.32
-9 4 7 0.94 0.26
-9 -4 7 0.5 0.26
-9 4 6 4.99 0.46
-9 -4 6 6.55 0.54
-9 4 5 11.11 0.69
-9 -4 5 9.5 0.75
-9 -4 5 11.17 0.67
-9 4 4 5.23 0.43
-9 4 4 5.54 0.47
-9 -4 4 5.57 0.39
-9 4 3 18.66 1.14
-9 4 3 17.95 1.12
-9 -4 3 17.3 1.13
-9 -4 3 17.38 1.1
9 -4 -3 19.15 1.14
-9 4 2 9.04 0.61
-9 4 2 8.8 0.63
9 -4 -2 8.03 0.61
-9 -4 2 8.61 0.58
-9 -4 2 8.03 0.63
9 4 -1 0.98 0.21
-9 4 1 1.96 0.26
-9 4 1 1.62 0.25
-9 -4 1 1.85 0.25
-9 -4 1 1.66 0.25
9 -4 -1 1.54 0.23
-9 4 0 0.19 0.22
9 4 0 0.57 0.22
-9 4 0 0.45 0.19
9 -4 0 0.59 0.19
-9 -4 0 0.39 0.24
-9 -4 0 0.25 0.21
9 4 1 0.63 0.23
-9 4 -1 0.54 0.19
-9 4 -1 0.05 0.27
-9 -4 -1 0.72 0.22
-9 -4 -1 0.6 0.27
9 -4 1 0.65 0.2
9 4 2 0.22 0.27
-9 4 -2 0.16 0.18
-9 4 -2 -0.1 0.27
-9 -4 -2 -0.17 0.27
9 -4 2 0.42 0.22
-9 -4 -2 0.19 0.21
-9 4 -3 6.12 0.55
9 4 3 5.73 0.59
9 -4 3 5.18 0.51
-9 -4 -3 5.72 0.49
-9 -4 -3 4.77 0.52
9 4 4 0.13 0.28
-9 4 -4 -0.33 0.32
-9 -4 -4 -0.33 0.3
9 -4 4 0.01 0.24
-9 4 -5 2.48 0.44
9 4 5 1.55 0.36
-9 -4 -5 1.85 0.39
9 -4 5 1.98 0.32
-9 4 -6 -0.23 0.4
9 4 6 0.05 0.32
9 -4 6 -0.19 0.28
-9 -4 -6 0.12 0.35
9 4 7 0.2 0.34
-9 4 -7 -0.27 0.43
-9 -4 -7 0.19 0.37
9 -4 7 0.26 0.31
-9 5 12 0.64 0.38
-9 5 12 0.31 0.32
-9 -5 12 0.6 0.44
-9 5 11 -0.03 0.32
-9 5 11 0.3 0.3
-9 -5 11 0.2 0.29
-9 5 10 0.16 0.28
-9 5 10 -0.03 0.28
-9 -5 10 -0.02 0.27
-9 5 9 5.98 0.61
-9 5 9 7.05 0.58
-9 -5 9 6.06 0.59
-9 5 8 0.25 0.26
-9 5 8 -0.15 0.25
-9 -5 8 0.2 0.27
-9 5 7 1.56 0.3
-9 -5 7 1.93 0.33
-9 5 6 2.17 0.31
-9 -5 6 2.01 0.33
-9 5 5 11.08 0.7
-9 -5 5 10.49 0.67
-9 -5 5 10.46 0.78
-9 5 4 0.1 0.18
-9 5 4 0.18 0.2
-9 -5 4 0.07 0.17
-9 5 3 72.19 3.97
-9 5 3 70.29 4.03
9 -5 -3 69.25 4.06
-9 -5 3 65.78 3.97
-9 -5 3 66.17 4.01
-9 5 2 1.13 0.23
-9 5 2 1.26 0.25
-9 -5 2 0.97 0.25
9 -5 -2 1.04 0.19
-9 -5 2 1.22 0.22
-9 5 1 0.21 0.22
-9 5 1 0.31 0.2
-9 -5 1 0.16 0.21
9 -5 -1 -0.02 0.17
-9 -5 1 0.19 0.19
-9 5 0 16.1 1.03
-9 5 0 15.92 1.08
-9 -5 0 16.27 1.04
9 -5 0 17.97 1.06
-9 -5 0 15.94 1.06
-9 5 -1 18.8 1.17
9 5 1 20.46 1.26
-9 5 -1 16.25 1.23
-9 -5 -1 18.17 1.17
-9 -5 -1 18.48 1.21
9 -5 1 20.67 1.19
9 5 2 4.62 0.43
-9 5 -2 2.94 0.43
-9 5 -2 4.55 0.42
-9 -5 -2 4.57 0.42
9 -5 2 4.47 0.46
-9 -5 -2 3.95 0.43
9 5 3 7.59 0.66
-9 5 -3 5.93 0.6
-9 -5 -3 6.16 0.64
9 -5 3 7.09 0.59
-9 -5 -3 6.91 0.56
-9 5 -4 -0.01 0.35
9 5 4 0.29 0.32
-9 -5 -4 0.54 0.24
9 -5 4 0.42 0.26
-9 -5 -4 -0.09 0.33
-9 5 -5 0.11 0.39
9 5 5 -0.18 0.33
-9 -5 -5 0.4 0.36
9 -5 5 0.75 0.28
9 5 6 1.7 0.41
-9 5 -6 1.24 0.46
9 -5 6 1.59 0.33
-9 -5 -6 1.68 0.42
-9 5 -7 -0.3 0.45
9 5 7 0.48 0.39
9 -5 7 0.62 0.31
-9 -5 -7 0.47 0.4
-9 6 12 1.15 0.37
-9 6 12 0.85 0.38
-9 -6 12 1.24 0.43
-9 6 11 0.01 0.32
-9 6 11 -0.01 0.3
-9 -6 11 0.02 0.29
-9 6 10 2.52 0.37
-9 6 10 2.89 0.39
-9 -6 10 2.14 0.39
-9 6 9 -0.03 0.27
-9 6 9 0 0.27
-9 -6 9 0.33 0.29
-9 6 8 0.14 0.25
-9 6 8 0.77 0.28
-9 -6 8 0.4 0.29
-9 6 7 0.94 0.25
-9 6 7 1.08 0.27
-9 -6 7 1.22 0.31
-9 6 6 2.94 0.34
-9 -6 6 2.61 0.37
-9 6 5 8.35 0.6
9 6 -5 8.27 0.68
-9 6 5 7.37 0.57
-9 -6 5 7.67 0.54
-9 -6 5 7.98 0.66
-9 6 4 13.55 0.83
-9 6 4 12.34 0.8
9 6 -4 9.29 0.85
-9 -6 4 12.98 0.78
9 6 -3 0.16 0.17
-9 6 3 -0.25 0.19
-9 6 3 -0.1 0.22
-9 -6 3 0.06 0.2
-9 -6 3 0.55 0.19
9 -6 -3 -0.01 0.16
-9 6 2 13.86 0.89
-9 6 2 13.82 0.89
9 -6 -2 13.2 0.86
-9 -6 2 12.64 0.85
-9 -6 2 13.09 0.89
-9 6 1 8.83 0.6
-9 6 1 8.8 0.64
9 6 -1 5.81 0.6
-9 -6 1 8.2 0.6
-9 -6 1 8.57 0.58
9 -6 -1 6.73 0.57
9 6 0 8.79 0.69
-9 6 0 7.3 0.62
-9 6 0 7.71 0.58
9 -6 0 8.28 0.59
-9 -6 0 7.21 0.56
-9 -6 0 6.83 0.57
-9 6 -1 6.48 0.51
-9 6 -1 5.1 0.52
9 6 1 6.42 0.57
-9 -6 -1 5.2 0.5
-9 -6 -1 5.5 0.52
9 -6 1 6.12 0.49
-9 6 -2 0.58 0.21
-9 6 -2 0.11 0.3
9 6 2 0.31 0.28
-9 -6 -2 0.2 0.25
9 -6 2 0.61 0.23
-9 -6 -2 0.33 0.32
9 6 3 2.82 0.38
-9 6 -3 1.72 0.4
-9 -6 -3 2.49 0.41
9 -6 3 2.56 0.32
-9 -6 -3 2.67 0.33
9 6 4 0.64 0.34
-9 6 -4 0.04 0.37
-9 -6 -4 1.02 0.26
-9 -6 -4 0.54 0.36
9 -6 4 1.23 0.28
-9 6 -5 0.82 0.42
9 6 5 1.22 0.38
9 -6 5 1.67 0.31
-9 -6 -5 1.36 0.42
9 6 6 0.17 0.38
-9 6 -6 0.12 0.43
9 -6 6 0.37 0.3
-9 -6 -6 0.81 0.4
-9 7 12 2 0.39
-9 7 12 1.63 0.43
-9 -7 12 1.84 0.49
-9 7 11 1.41 0.36
-9 7 11 1.99 0.39
-9 -7 11 0.17 0.33
-9 7 10 1.44 0.34
-9 7 10 0.9 0.3
-9 -7 10 1.08 0.34
-9 7 9 7.61 0.66
-9 7 9 8.2 0.69
-9 -7 9 7.86 0.69
-9 7 8 0.05 0.24
-9 7 8 -0.04 0.24
-9 -7 8 0.18 0.29
-9 7 7 15.25 1.01
-9 7 7 15.26 1
-9 -7 7 14.87 1.03
-9 7 6 5.74 0.49
-9 7 6 5.85 0.55
-9 -7 6 5.69 0.58
-9 7 5 1.72 0.29
-9 7 5 1.74 0.26
9 7 -5 2.09 0.32
-9 -7 5 1.93 0.27
-9 -7 5 1.95 0.33
-9 7 4 0.21 0.24
-9 7 4 -0.12 0.21
9 7 -4 0.27 0.26
-9 -7 4 0.19 0.25
-9 -7 4 0.06 0.22
9 7 -3 6.26 0.55
-9 7 3 5.51 0.54
-9 7 3 6 0.51
-9 -7 3 5.73 0.47
-9 -7 3 5.68 0.5
-9 7 2 1.12 0.26
9 7 -2 0.37 0.27
-9 7 2 1.35 0.27
-9 -7 2 1.11 0.26
-9 -7 2 1.16 0.27
-9 7 1 4.51 0.46
-9 7 1 5.29 0.48
9 7 -1 3.98 0.45
-9 -7 1 4.62 0.45
-9 -7 1 4.41 0.43
-9 7 0 3.01 0.38
9 7 0 3.05 0.39
-9 7 0 2.94 0.33
-9 -7 0 2.58 0.35
-9 -7 0 3.27 0.35
-9 7 -1 7.95 0.68
-9 7 -1 8.15 0.61
9 7 1 8.51 0.72
-9 -7 -1 7.72 0.63
-9 -7 -1 7.3 0.62
-9 7 -2 6.67 0.52
9 7 2 6.04 0.64
-9 7 -2 5.75 0.58
-9 -7 -2 5.98 0.58
-9 -7 -2 6.14 0.55
-9 7 -3 3.26 0.48
9 7 3 3.6 0.43
-9 -7 -3 3.89 0.4
-9 -7 -3 4.1 0.47
-9 7 -4 -0.53 0.36
9 7 4 0.17 0.34
-9 -7 -4 0.11 0.37
-9 -7 -4 -0.39 0.26
9 7 5 -0.07 0.35
-9 7 -5 -0.94 0.39
-9 -7 -5 0.06 0.4
9 7 6 -0.06 0.37
-9 7 -6 -0.6 0.42
-9 -7 -6 0.2 0.41
-9 8 11 -0.12 0.33
-9 -8 11 -0.38 0.34
-9 8 10 0.38 0.32
-9 -8 10 0 0.35
-9 8 9 0.71 0.32
-9 -8 9 0.77 0.35
-9 8 8 0.68 0.31
-9 -8 8 1.35 0.36
-9 8 7 0.53 0.27
-9 -8 7 0.5 0.32
-9 8 6 0.33 0.25
-9 -8 6 0.23 0.28
-9 8 5 0.3 0.23
-9 8 5 0.17 0.26
9 8 -5 0.67 0.3
-9 -8 5 0.28 0.24
-9 -8 5 0.28 0.25
-9 8 4 0.49 0.24
9 8 -4 0.13 0.28
-9 8 4 0.35 0.25
-9 -8 4 0.32 0.24
-9 -8 4 0.28 0.24
-9 8 3 10.6 0.76
9 8 -3 10.46 0.81
-9 8 3 10.09 0.75
-9 -8 3 10.13 0.76
-9 -8 3 10.03 0.71
-9 8 2 0.22 0.24
-9 8 2 0.09 0.24
9 8 -2 -0.36 0.25
-9 -8 2 0.18 0.24
-9 -8 2 0.02 0.27
-9 8 1 10.57 0.76
9 8 -1 9.33 0.84
-9 8 1 11.24 0.8
-9 -8 1 10.94 0.78
-9 -8 1 10.8 0.76
9 8 0 5.78 0.53
-9 8 0 4.88 0.49
-9 8 0 5.21 0.51
-9 -8 0 5.82 0.53
-9 8 -1 0.06 0.22
9 8 1 0.48 0.31
-9 8 -1 0.01 0.32
-9 -8 -1 -0.03 0.29
9 8 2 0.35 0.3
-9 8 -2 0.25 0.34
-9 8 -2 0.23 0.23
-9 -8 -2 -0.22 0.34
-9 8 -3 -0.43 0.35
9 8 3 0.02 0.31
-9 -8 -3 -0.02 0.35
9 8 4 0.9 0.34
-9 8 -4 0.17 0.4
-9 -8 -4 1.11 0.41
-9 -8 -4 0.53 0.33
9 8 5 0.38 0.37
-9 8 -5 -1.16 0.4
-9 -8 -5 -0.23 0.41
9 8 6 0.58 0.4
-9 8 -6 -0.07 0.46
-9 -8 -6 -0.02 0.43
-9 9 11 0.79 0.36
-9 -9 11 0.42 0.37
-9 9 10 7.33 0.67
-9 -9 10 7.94 0.71
-9 9 9 2.09 0.39
-9 -9 9 2.78 0.44
-9 9 8 1.48 0.36
-9 -9 8 1.42 0.39
-9 9 7 2.83 0.4
-9 -9 7 2.88 0.42
-9 9 6 3.35 0.4
-9 -9 6 2.42 0.37
9 9 -5 6.01 0.63
-9 9 5 4.81 0.5
-9 9 5 5.96 0.56
-9 -9 5 6.05 0.56
-9 -9 5 4.99 0.49
-9 9 4 9.76 0.73
9 9 -4 8.91 0.74
-9 9 4 8.93 0.7
-9 -9 4 9.41 0.68
-9 -9 4 9.18 0.72
9 9 -3 5.81 0.63
-9 9 3 6.19 0.57
-9 9 3 5.77 0.57
-9 -9 3 6.4 0.55
-9 -9 3 6.4 0.54
-9 9 2 6.2 0.58
-9 9 2 6.46 0.55
9 9 -2 4.56 0.5
-9 -9 2 6.1 0.51
9 9 -1 1.99 0.37
-9 9 1 2.76 0.34
-9 9 1 2.42 0.38
-9 -9 1 2.4 0.36
9 9 0 10.71 0.88
-9 9 0 10.87 0.76
-9 9 0 10.75 0.81
-9 -9 0 10.21 0.77
-9 9 -1 0.35 0.25
-9 9 -1 0.5 0.35
9 9 1 -0.17 0.31
-9 -9 -1 0.05 0.32
9 9 2 5 0.51
-9 9 -2 4.79 0.56
-9 9 -2 5.58 0.51
-9 -9 -2 5.78 0.57
9 9 3 3.61 0.45
-9 9 -3 2.74 0.49
-9 -9 -3 3.45 0.47
9 9 4 2.66 0.43
-9 9 -4 1.31 0.49
-9 -9 -4 2.24 0.47
-9 9 -5 -0.57 0.42
9 9 5 -0.01 0.37
-9 -9 -5 0.12 0.42
-9 10 10 2.16 0.42
-9 -10 10 2.39 0.46
-9 10 9 -0.34 0.32
-9 -10 9 0.08 0.36
-9 10 8 0.61 0.34
-9 -10 8 1.04 0.37
-9 10 7 1.26 0.35
-9 -10 7 0.74 0.34
-9 10 6 -0.06 0.27
-9 -10 6 0.08 0.31
-9 10 5 2.22 0.38
-9 10 5 2.45 0.34
9 10 -5 3.21 0.4
-9 -10 5 1.99 0.35
-9 -10 5 2.69 0.37
-9 10 4 0.18 0.27
9 10 -4 0.57 0.31
-9 10 4 0.28 0.3
-9 -10 4 0.25 0.29
-9 -10 4 0.61 0.31
9 10 -3 0.94 0.31
-9 10 3 0.72 0.3
-9 10 3 0.9 0.31
-9 -10 3 0.43 0.29
-9 10 2 3.06 0.4
9 10 -2 1.83 0.39
-9 10 2 3.49 0.39
-9 -10 2 3.42 0.41
-9 10 1 1.98 0.33
9 10 -1 1.37 0.34
-9 10 1 2.82 0.38
-9 -10 1 2.34 0.39
9 10 0 2.88 0.44
-9 10 0 3.27 0.44
-9 10 0 3.52 0.39
-9 -10 0 3.24 0.45
-9 10 -1 3.07 0.45
-9 10 -1 2.91 0.37
9 10 1 3.33 0.42
-9 -10 -1 2.58 0.44
9 10 2 1.5 0.38
-9 10 -2 1.42 0.41
-9 -10 -2 1.34 0.39
9 10 3 -0.06 0.33
-9 10 -3 0 0.4
-9 -10 -3 -0.18 0.38
-9 10 -4 0.26 0.43
9 10 4 0 0.32
-9 -10 -4 0.53 0.42
-9 10 -5 1.32 0.5
9 10 5 1.19 0.41
-9 -10 -5 1.23 0.47
-9 11 10 0 0.36
-9 -11 10 0.49 0.39
-9 11 9 2.69 0.44
-9 -11 9 2.21 0.46
-9 11 8 3.48 0.47
-9 -11 8 3.51 0.48
-9 11 7 5.01 0.55
-9 -11 7 6.13 0.6
-9 11 6 0.13 0.32
-9 -11 6 -0.09 0.29
9 11 -5 0.38 0.33
-9 11 5 1.05 0.34
-9 -11 5 0.85 0.34
-9 -11 5 0.37 0.34
-9 11 4 0.63 0.31
9 11 -4 1.07 0.34
-9 11 4 0.77 0.3
-9 -11 4 1.07 0.32
-9 -11 4 1.06 0.34
-9 11 3 0.17 0.3
9 11 -3 0.23 0.3
-9 11 3 0.25 0.3
-9 -11 3 0.44 0.33
-9 11 2 2.49 0.38
9 11 -2 1.8 0.37
-9 11 2 2.57 0.4
-9 -11 2 2.47 0.4
-9 11 1 2.94 0.42
9 11 -1 1.54 0.39
-9 11 1 2.68 0.37
-9 -11 1 2.59 0.4
9 11 0 0.36 0.35
-9 11 0 0.98 0.3
-9 11 0 0.71 0.35
-9 -11 0 0.92 0.37
-9 11 -1 7.01 0.6
-9 11 -1 5.75 0.6
9 11 1 6.05 0.6
-9 -11 -1 4.95 0.56
-9 11 -2 -0.08 0.41
9 11 2 0.02 0.35
-9 -11 -2 -0.05 0.4
9 11 3 0.95 0.35
-9 11 -3 0.75 0.45
-9 -11 -3 1.84 0.44
-9 11 -4 0.52 0.46
9 11 4 0.42 0.38
-9 -11 -4 0.38 0.43
-9 12 9 -0.11 0.37
-9 -12 9 0.55 0.39
-9 12 8 2.05 0.44
-9 -12 8 3.11 0.47
-9 12 7 1.79 0.38
-9 -12 7 1.78 0.4
-9 12 6 0.57 0.33
-9 -12 6 0.32 0.34
9 12 -5 0.61 0.34
-9 12 5 0.42 0.35
9 -12 -5 0.37 0.37
-9 -12 5 0.46 0.34
-9 -12 5 0.44 0.36
-9 12 4 1.27 0.37
-9 12 4 1.26 0.35
9 12 -4 1.78 0.37
-9 -12 4 1.32 0.37
-9 12 3 4.19 0.5
-9 12 3 4.7 0.51
9 12 -3 5.23 0.52
-9 -12 3 4.36 0.5
-9 12 2 1.63 0.37
-9 12 2 2.09 0.4
9 12 -2 1.43 0.36
-9 -12 2 1.89 0.39
-9 12 1 0.2 0.3
9 12 -1 -1.06 0.3
-9 12 1 0.2 0.34
-9 -12 1 0.1 0.35
-9 12 0 0.34 0.36
-9 12 0 0.23 0.29
9 12 0 0.11 0.35
-9 -12 0 -0.14 0.36
-9 12 -1 0.18 0.38
-9 12 -1 0.63 0.31
9 12 1 0.2 0.37
-9 -12 -1 -0.05 0.41
9 12 2 -0.19 0.35
-9 12 -2 0.24 0.42
-9 -12 -2 0.05 0.39
-9 12 -3 -0.32 0.42
9 12 3 0.13 0.37
-9 -12 -3 -0.09 0.42
-9 13 8 0.22 0.38
-9 -13 8 0.84 0.4
-9 13 7 0.85 0.39
-9 13 6 0.17 0.37
-9 -13 6 -0.05 0.35
-9 13 5 0.45 0.37
9 13 -5 0.67 0.35
-9 -13 5 0.04 0.36
9 -13 -5 0.44 0.39
-9 13 4 1.32 0.37
9 13 -4 1.12 0.37
-9 13 4 1.17 0.35
-9 -13 4 0.66 0.39
-9 13 3 2.14 0.41
-9 13 3 1.81 0.41
9 13 -3 2.39 0.41
-9 -13 3 1.89 0.43
-9 13 2 0.51 0.35
-9 13 2 0.06 0.33
9 13 -2 0.42 0.33
-9 -13 2 -0.63 0.38
-9 13 1 0.17 0.31
9 13 -1 -0.26 0.32
-9 13 1 0.01 0.35
-9 -13 1 0.34 0.41
9 13 0 -0.13 0.35
-9 13 0 0.1 0.38
-9 13 0 0.42 0.32
-9 -13 0 -0.29 0.39
-9 13 -1 0.52 0.41
-9 13 -1 0.12 0.33
9 13 1 -0.45 0.36
-9 -13 -1 -0.08 0.41
-9 13 -2 0.83 0.43
9 13 2 0.31 0.4
-9 -13 -2 0.38 0.42
-9 14 7 2.52 0.47
-9 -14 7 2.51 0.46
-9 14 6 2.98 0.48
-9 -14 6 2.78 0.47
-9 14 5 4.01 0.52
9 -14 -5 4.54 0.55
-9 -14 5 3.63 0.5
-9 14 4 -0.12 0.37
9 14 -4 0.45 0.36
-9 14 4 -0.32 0.35
-9 -14 4 0.24 0.37
-9 14 3 -0.1 0.32
-9 14 3 0.03 0.35
9 14 -3 0.63 0.35
-9 -14 3 0.42 0.41
-9 14 2 1.44 0.39
9 14 -2 1.5 0.39
-9 -14 2 0.77 0.41
-9 14 1 3.12 0.44
-9 14 1 2.5 0.49
9 14 -1 2.1 0.43
-9 -14 1 3.14 0.51
9 14 0 -0.34 0.35
-9 14 0 0.92 0.38
-9 14 0 0.6 0.41
-9 -14 0 1.03 0.44
9 14 1 0.04 0.38
-9 14 -1 0.21 0.34
-9 14 -1 0.2 0.41
-9 -14 -1 0.12 0.44
-9 15 5 0.69 0.41
9 -15 -5 0.2 0.45
-9 -15 5 -0.1 0.41
-9 15 4 0.19 0.39
9 15 -4 0.35 0.36
-9 -15 4 0.19 0.43
-9 15 3 1.07 0.43
-9 15 3 0.13 0.39
9 15 -3 1.3 0.41
-9 -15 3 0.07 0.44
-9 15 2 -0.15 0.37
9 15 -2 0.54 0.36
-9 15 2 0.37 0.39
-9 -15 2 -0.28 0.41
-9 15 1 0.29 0.37
-9 15 1 0.22 0.4
9 15 -1 -0.07 0.35
-9 -15 1 0.14 0.42
-10 0 12 3.91 0.55
-10 0 11 0.08 0.3
-10 0 11 -0.19 0.37
-10 0 10 15.34 1.03
-10 0 9 0.21 0.27
-10 0 8 5.18 0.52
-10 0 7 -0.24 0.23
-10 0 6 59.98 3.49
10 0 -5 0.31 0.23
-10 0 4 22.18 1.35
10 0 -4 21.27 1.39
10 0 -3 -0.17 0.21
-10 0 3 -0.16 0.17
-10 0 3 -0.11 0.21
-10 0 2 31.75 1.8
-10 0 2 31.88 1.78
10 0 -2 25.6 1.82
-10 0 1 -0.15 0.21
-10 0 1 0.05 0.2
10 0 -1 -0.03 0.23
-10 0 0 55.75 3.28
-10 0 0 55.07 3.2
10 0 0 55.25 3.32
10 0 1 0.17 0.23
-10 0 -1 0.17 0.21
-10 0 -1 -0.05 0.26
10 0 2 0.22 0.23
-10 0 -2 -0.22 0.28
-10 0 -2 0.07 0.21
10 0 3 0.1 0.24
-10 0 -3 0.09 0.31
-10 0 -4 5.46 0.55
10 0 4 3.77 0.46
10 0 5 -0.03 0.31
-10 0 -5 0.13 0.34
10 0 6 2.37 0.42
-10 0 -6 2.14 0.43
-10 1 12 1 0.43
-10 1 12 1.6 0.34
-10 -1 12 1.24 0.33
-10 -1 12 0.63 0.4
-10 1 11 0.23 0.29
-10 1 11 0.05 0.36
-10 -1 11 0.17 0.39
-10 -1 11 0.74 0.3
-10 1 10 6.08 0.56
-10 -1 10 5.25 0.52
-10 1 9 0.5 0.28
-10 -1 9 -0.09 0.26
-10 1 8 1.91 0.31
-10 -1 8 1.91 0.33
-10 1 7 0.5 0.24
-10 -1 7 0.99 0.26
-10 1 6 0.83 0.27
-10 -1 6 2.14 0.3
-10 1 4 3.7 0.36
10 1 -4 5.04 0.5
-10 1 4 4.54 0.43
-10 -1 4 4.65 0.42
-10 -1 4 3.93 0.37
10 -1 -4 5.34 0.48
-10 1 3 0.22 0.18
-10 1 3 0.47 0.23
10 1 -3 0.11 0.22
-10 -1 3 0.69 0.21
-10 -1 3 0.55 0.19
10 -1 -3 0.59 0.22
10 1 -2 0.71 0.23
-10 1 2 0.72 0.24
-10 1 2 0.87 0.21
10 -1 -2 0.65 0.23
-10 -1 2 0.94 0.23
-10 -1 2 1.06 0.21
-10 1 1 2.04 0.28
10 1 -1 1.75 0.28
-10 1 1 1.82 0.28
10 -1 -1 2.03 0.3
-10 -1 1 1.91 0.27
-10 -1 1 1.93 0.27
10 1 0 2.55 0.33
-10 1 0 3.01 0.32
-10 1 0 2.72 0.34
-10 -1 0 2.68 0.3
-10 -1 0 2.51 0.32
10 -1 0 2.94 0.33
10 1 1 0.88 0.27
-10 1 -1 1.37 0.25
-10 1 -1 1 0.3
-10 -1 -1 0.94 0.28
-10 -1 -1 1.34 0.23
10 -1 1 1.37 0.26
10 1 2 0.6 0.27
-10 1 -2 0.37 0.28
-10 1 -2 0.66 0.22
-10 -1 -2 0.7 0.27
-10 -1 -2 0.47 0.21
10 -1 2 0.59 0.26
10 1 3 0.07 0.25
-10 1 -3 0.29 0.3
-10 -1 -3 0.14 0.28
10 -1 3 0.06 0.26
-10 1 -4 0.23 0.32
10 1 4 -0.23 0.29
10 -1 4 0.09 0.29
-10 -1 -4 0.08 0.31
-10 1 -5 0.18 0.35
10 1 5 0.03 0.33
-10 -1 -5 0.24 0.34
10 -1 5 0.17 0.31
10 1 6 -0.5 0.33
-10 1 -6 0.38 0.38
-10 -1 -6 0.28 0.37
10 -1 6 0.26 0.34
-10 2 12 0 0.39
-10 2 12 -0.08 0.3
-10 -2 12 0.09 0.31
-10 -2 12 0.1 0.42
-10 2 11 3.88 0.45
-10 2 11 3.93 0.51
-10 -2 11 4.31 0.45
-10 2 10 3.39 0.4
-10 2 10 2.5 0.43
-10 -2 10 2.66 0.37
-10 2 9 0.26 0.28
-10 -2 9 -0.1 0.23
-10 2 8 0.3 0.27
-10 -2 8 -0.21 0.26
-10 2 7 4.34 0.44
-10 -2 7 5.18 0.51
-10 2 6 -0.06 0.21
-10 -2 6 0.22 0.24
-10 2 5 -0.28 0.19
10 2 -5 0.19 0.25
-10 -2 5 -0.16 0.07
-10 2 4 12.13 0.95
-10 2 4 14.42 0.91
10 2 -4 15.85 1.02
-10 -2 4 14.73 0.96
-10 -2 4 15.54 0.91
10 -2 -4 15.23 1
-10 2 3 28.24 1.73
-10 2 3 26.92 1.73
10 2 -3 25.53 1.78
-10 -2 3 31.42 1.73
10 -2 -3 29.22 1.78
-10 -2 3 31.68 1.74
-10 2 2 0.34 0.21
-10 2 2 0.84 0.24
10 2 -2 0.29 0.25
10 -2 -2 0.51 0.23
-10 -2 2 0.9 0.23
-10 -2 2 0.91 0.21
10 2 -1 0.51 0.26
-10 2 1 0.27 0.23
-10 2 1 0.41 0.22
-10 -2 1 0.69 0.22
-10 -2 1 0.32 0.21
10 -2 -1 0.57 0.24
-10 2 0 7.29 0.62
-10 2 0 8.21 0.67
10 2 0 8.88 0.65
-10 -2 0 8.19 0.61
10 -2 0 9.34 0.65
-10 -2 0 7.9 0.64
-10 2 -1 12.68 0.8
-10 2 -1 11.82 0.87
10 2 1 12.01 0.86
10 -2 1 12.62 0.85
-10 -2 -1 10.6 0.82
-10 -2 -1 11.76 0.8
10 2 2 5.13 0.51
-10 2 -2 4.81 0.46
-10 2 -2 4.17 0.44
10 -2 2 4.07 0.41
-10 -2 -2 4.08 0.43
-10 -2 -2 4.32 0.43
-10 2 -3 9.01 0.69
10 2 3 8.68 0.7
10 -2 3 6.97 0.65
-10 -2 -3 7.83 0.68
-10 -2 -3 8 0.59
-10 2 -4 -0.48 0.33
10 2 4 0.02 0.3
-10 -2 -4 0.43 0.3
10 -2 4 0.37 0.31
10 2 5 0.01 0.33
-10 2 -5 0.36 0.38
10 -2 5 -0.11 0.3
-10 -2 -5 0.19 0.32
-10 2 -6 0.39 0.4
10 2 6 0.34 0.36
-10 -2 -6 0 0.37
10 -2 6 -0.09 0.32
-10 3 12 0.07 0.3
-10 3 12 0.04 0.37
-10 -3 12 -0.3 0.41
-10 3 11 0.21 0.37
-10 3 11 0.49 0.31
-10 -3 11 0.19 0.29
-10 3 10 0.9 0.31
-10 3 10 0.75 0.34
-10 -3 10 0.14 0.28
-10 3 9 1.4 0.32
-10 -3 9 0.53 0.3
-10 3 8 19.41 1.22
-10 -3 8 18.39 1.22
-10 3 7 7.99 0.66
-10 -3 7 8.01 0.66
-10 3 6 1.17 0.26
-10 -3 6 1.44 0.29
10 3 -5 0.08 0.26
-10 3 5 -0.21 0.2
-10 -3 5 0.01 0.18
10 3 -4 11.13 0.81
-10 3 4 10.53 0.69
-10 3 4 8.52 0.73
-10 -3 4 10.43 0.69
10 -3 -4 11.18 0.75
-10 -3 4 11.72 0.76
-10 3 3 -0.2 0.23
-10 3 3 0.35 0.19
10 3 -3 -0.13 0.23
-10 -3 3 0.2 0.2
-10 -3 3 0.25 0.19
10 -3 -3 0.33 0.21
-10 3 2 2.42 0.33
-10 3 2 2.64 0.31
10 3 -2 2.97 0.36
-10 -3 2 2.78 0.32
-10 -3 2 3.46 0.31
10 -3 -2 2.31 0.3
-10 3 1 1.89 0.3
-10 3 1 1.94 0.31
10 3 -1 2.85 0.35
-10 -3 1 2.59 0.31
10 -3 -1 2.95 0.31
-10 -3 1 2.59 0.31
-10 3 0 5.04 0.46
-10 3 0 4.35 0.46
10 3 0 5.22 0.5
10 -3 0 5.77 0.51
-10 -3 0 4.18 0.45
-10 -3 0 4.43 0.43
-10 3 -1 -0.17 0.22
-10 3 -1 -0.07 0.28
10 3 1 0.19 0.25
-10 -3 -1 0.41 0.22
10 -3 1 0.79 0.24
-10 -3 -1 0.11 0.26
-10 3 -2 13.58 0.94
10 3 2 14.19 0.95
-10 3 -2 11.77 0.86
-10 -3 -2 13.12 0.86
-10 -3 -2 12.53 0.92
10 -3 2 14.73 0.93
10 3 3 2.17 0.36
-10 3 -3 1.91 0.37
10 -3 3 1.82 0.33
-10 -3 -3 2.24 0.36
-10 -3 -3 2.12 0.29
10 3 4 0.11 0.29
-10 3 -4 0.55 0.35
-10 -3 -4 0.01 0.32
10 -3 4 0.16 0.28
10 3 5 0.03 0.31
-10 3 -5 0.04 0.36
10 -3 5 0.33 0.3
-10 -3 -5 -0.27 0.32
10 3 6 0.68 0.38
-10 3 -6 1.05 0.42
-10 -3 -6 1.04 0.38
10 -3 6 1.16 0.35
-10 4 12 2.02 0.4
-10 4 12 2.53 0.46
-10 -4 12 2.67 0.51
-10 -4 12 2.09 0.38
-10 4 11 3.65 0.49
-10 4 11 4.47 0.46
-10 -4 11 3.15 0.44
-10 4 10 2 0.35
-10 4 10 1.69 0.36
-10 -4 10 0.56 0.32
-10 4 9 -0.28 0.27
-10 4 9 0.27 0.29
-10 -4 9 -0.17 0.27
-10 4 8 1.37 0.3
-10 -4 8 1.46 0.33
-10 4 7 18.51 1.2
-10 -4 7 19.22 1.22
-10 4 6 4.26 0.43
-10 -4 6 5.31 0.52
10 4 -5 3.26 0.37
-10 4 5 2.71 0.36
-10 -4 5 3.27 0.37
10 4 -4 0.81 0.26
-10 4 4 0.63 0.19
-10 4 4 0.69 0.26
-10 -4 4 0.9 0.18
-10 -4 4 0.69 0.25
10 -4 -4 0.56 0.2
10 4 -3 3.77 0.43
-10 4 3 4.19 0.43
-10 4 3 5.55 0.44
-10 -4 3 4.86 0.48
10 -4 -3 5.05 0.46
-10 -4 3 4.09 0.38
-10 4 2 4.87 0.48
-10 4 2 4.36 0.42
10 4 -2 4.56 0.44
-10 -4 2 4.9 0.44
10 -4 -2 3.97 0.43
-10 -4 2 4.43 0.44
-10 4 1 1.54 0.28
-10 4 1 1.32 0.28
10 4 -1 2.47 0.35
-10 -4 1 2.18 0.29
-10 -4 1 2.26 0.31
10 -4 -1 2.49 0.29
-10 4 0 0.75 0.25
-10 4 0 1.13 0.29
10 4 0 2.56 0.33
-10 -4 0 1.79 0.31
-10 -4 0 1.96 0.29
10 -4 0 2.25 0.27
10 4 1 9.67 0.72
-10 4 -1 7.91 0.7
-10 -4 -1 7.49 0.69
10 -4 1 9.26 0.64
-10 -4 -1 8.23 0.67
-10 4 -2 -0.43 0.29
10 4 2 0.05 0.28
-10 -4 -2 0.17 0.3
10 -4 2 0.03 0.24
-10 -4 -2 0.04 0.24
-10 4 -3 2.19 0.4
10 4 3 1.6 0.35
-10 -4 -3 1.58 0.36
10 -4 3 1.6 0.3
-10 -4 -3 1.79 0.29
10 4 4 0.37 0.31
-10 4 -4 0.48 0.38
-10 -4 -4 1 0.35
10 -4 4 1.02 0.31
10 4 5 -0.35 0.34
-10 4 -5 0.01 0.39
-10 -4 -5 0.31 0.35
10 -4 5 0.41 0.3
-10 4 -6 0.42 0.42
10 4 6 0.2 0.39
10 -4 6 0.78 0.35
-10 -4 -6 0.78 0.37
-10 5 12 0.83 0.35
-10 5 12 0.22 0.38
-10 -5 12 0.55 0.33
-10 -5 12 0.4 0.45
-10 5 11 0.29 0.32
-10 5 11 0.28 0.34
-10 -5 11 -0.37 0.29
-10 5 10 6.55 0.69
-10 5 10 6.12 0.58
-10 -5 10 5.28 0.54
-10 5 9 0.4 0.28
-10 5 9 0.49 0.3
-10 -5 9 0.26 0.3
-10 5 8 2.48 0.36
-10 -5 8 2.92 0.39
-10 5 7 7.52 0.67
-10 -5 7 8.24 0.67
-10 5 6 0.49 0.27
10 5 -6 0.26 0.29
-10 -5 6 0.26 0.27
10 5 -5 10.6 0.83
-10 5 5 10.43 0.77
-10 -5 5 9.99 0.78
-10 5 4 9.92 0.66
-10 5 4 8.72 0.68
10 5 -4 9.74 0.73
-10 -5 4 8.51 0.68
-10 -5 4 8.93 0.61
10 5 -3 3.98 0.46
-10 5 3 5.69 0.48
-10 5 3 4.94 0.52
-10 -5 3 5.01 0.42
10 -5 -3 5.4 0.49
-10 -5 3 5.03 0.52
10 5 -2 8.35 0.73
-10 5 2 10.72 0.71
-10 5 2 9.51 0.7
-10 -5 2 10.24 0.72
-10 -5 2 9.55 0.65
10 -5 -2 8.29 0.67
-10 5 1 21.29 1.37
10 5 -1 23.96 1.41
-10 5 1 19.61 1.33
10 -5 -1 21.35 1.36
-10 -5 1 21.74 1.35
-10 -5 1 21.52 1.34
-10 5 0 0.1 0.21
10 5 0 0.11 0.24
-10 5 0 -0.21 0.25
10 -5 0 0.16 0.22
-10 -5 0 -0.26 0.23
-10 -5 0 0.11 0.26
10 5 1 3.15 0.36
-10 5 -1 2.19 0.31
-10 5 -1 2.36 0.4
10 -5 1 3.26 0.33
-10 -5 -1 3.1 0.36
-10 -5 -1 2.92 0.4
-10 5 -2 3 0.43
10 5 2 3.55 0.41
-10 5 -2 2.77 0.33
10 -5 2 3.9 0.36
-10 -5 -2 3.52 0.37
-10 -5 -2 3.22 0.43
10 5 3 -0.05 0.3
-10 5 -3 -0.05 0.34
-10 -5 -3 0.08 0.32
10 -5 3 -0.12 0.25
-10 -5 -3 0.25 0.25
10 5 4 0.53 0.34
-10 5 -4 0.45 0.39
10 -5 4 0.44 0.29
-10 -5 -4 0.23 0.35
10 5 5 1.57 0.4
-10 5 -5 0.7 0.43
-10 -5 -5 1.35 0.41
10 -5 5 1.02 0.34
-10 5 -6 0.26 0.47
10 5 6 0.21 0.39
10 -5 6 0.19 0.32
-10 -5 -6 0.51 0.4
-10 6 12 0.47 0.38
-10 6 12 0.3 0.34
-10 -6 12 -0.42 0.43
-10 -6 12 -0.23 0.33
-10 6 11 1.66 0.38
-10 6 11 1.83 0.4
-10 -6 11 0.77 0.35
-10 6 10 1.11 0.33
-10 6 10 1.56 0.36
-10 -6 10 1.05 0.35
-10 6 9 1.29 0.31
-10 6 9 1.44 0.34
-10 -6 9 1.03 0.34
-10 6 8 0.44 0.27
-10 6 8 0.42 0.29
-10 -6 8 0.59 0.32
-10 6 7 -0.14 0.28
-10 -6 7 0.14 0.28
-10 6 6 0.57 0.25
10 6 -6 0.12 0.3
-10 -6 6 0.25 0.26
10 6 -5 8.45 0.74
-10 6 5 8.72 0.69
-10 -6 5 7.83 0.66
10 6 -4 8.43 0.75
-10 6 4 9.23 0.64
-10 6 4 8.93 0.7
-10 -6 4 8.72 0.71
-10 -6 4 8.31 0.59
-10 6 3 2.17 0.33
-10 6 3 2.37 0.3
10 6 -3 1.45 0.33
-10 -6 3 1.88 0.32
-10 -6 3 1.94 0.26
10 -6 -3 2.4 0.26
-10 6 2 1.57 0.29
10 6 -2 1.13 0.29
-10 6 2 1.9 0.29
-10 -6 2 1.61 0.27
-10 -6 2 1.67 0.31
10 -6 -2 1.74 0.23
-10 6 1 0.26 0.24
10 6 -1 0.13 0.29
-10 6 1 0.05 0.27
10 -6 -1 -0.16 0.2
-10 -6 1 0.05 0.25
-10 -6 1 0.23 0.26
-10 6 0 2.59 0.32
10 6 0 2.9 0.38
-10 6 0 2.24 0.37
-10 -6 0 2.12 0.33
-10 -6 0 2.45 0.36
10 -6 0 2.61 0.3
-10 6 -1 5.45 0.47
10 6 1 4.76 0.46
-10 6 -1 2.96 0.46
10 -6 1 4.64 0.46
-10 -6 -1 4.22 0.45
-10 -6 -1 4.05 0.42
-10 6 -2 5.91 0.72
10 6 2 9.45 0.71
-10 -6 -2 8.68 0.71
-10 -6 -2 8.79 0.67
10 -6 2 9.54 0.66
-10 6 -3 -0.12 0.36
10 6 3 -0.04 0.28
10 -6 3 0.25 0.26
-10 -6 -3 -0.17 0.34
-10 -6 -3 0.12 0.27
10 6 4 -0.47 0.3
-10 6 -4 -0.38 0.38
10 -6 4 0.05 0.28
-10 -6 -4 -0.24 0.36
-10 6 -5 -0.22 0.41
10 6 5 0.06 0.33
-10 -6 -5 -0.05 0.38
10 -6 5 0.46 0.31
-10 7 11 2.14 0.41
-10 -7 11 1.81 0.4
-10 7 10 0.67 0.35
-10 -7 10 1.11 0.36
-10 7 9 5.86 0.61
-10 -7 9 7.15 0.65
-10 7 8 0.97 0.32
-10 -7 8 0.43 0.33
-10 7 7 1.17 0.33
-10 -7 7 0.93 0.31
10 7 -6 0.28 0.31
-10 7 6 0.01 0.28
-10 -7 6 -0.16 0.26
-10 7 5 13.73 0.93
10 7 -5 14.49 1.01
-10 -7 5 12.68 0.94
-10 7 4 0.07 0.23
10 7 -4 0.03 0.25
-10 7 4 0.32 0.27
-10 -7 4 0.18 0.22
-10 -7 4 0.02 0.27
-10 7 3 3.34 0.37
-10 7 3 2.82 0.33
10 7 -3 1.98 0.36
-10 -7 3 2.13 0.33
-10 -7 3 2.35 0.3
-10 7 2 0.99 0.28
10 7 -2 0.29 0.3
-10 7 2 1.58 0.3
-10 -7 2 1.06 0.27
-10 -7 2 1.21 0.27
-10 7 1 -0.05 0.23
-10 7 1 0.36 0.28
10 7 -1 0.1 0.3
-10 -7 1 -0.08 0.26
-10 -7 1 -0.06 0.25
10 7 0 -0.06 0.27
-10 7 0 0.01 0.23
-10 7 0 -0.09 0.28
-10 -7 0 -0.09 0.26
-10 -7 0 0.17 0.29
-10 7 -1 4.09 0.39
-10 7 -1 3.46 0.46
10 7 1 3.68 0.44
-10 -7 -1 3.92 0.42
-10 -7 -1 3.86 0.44
-10 7 -2 3.31 0.49
10 7 2 4.65 0.48
-10 -7 -2 4.47 0.43
-10 -7 -2 4.14 0.49
-10 7 -3 -0.37 0.37
10 7 3 0.7 0.33
-10 -7 -3 0.34 0.37
-10 -7 -3 0.44 0.29
-10 7 -4 -0.74 0.39
10 7 4 0.54 0.35
-10 -7 -4 -0.2 0.37
-10 7 -5 0.46 0.48
10 7 5 0.95 0.4
-10 -7 -5 0.61 0.42
-10 8 11 2 0.42
-10 -8 11 1.41 0.41
-10 8 10 0.13 0.34
-10 -8 10 -0.01 0.35
-10 8 9 -0.02 0.33
-10 -8 9 0.24 0.33
-10 8 8 5.1 0.54
-10 -8 8 5.24 0.54
-10 8 7 2.46 0.37
-10 -8 7 2.11 0.41
-10 8 6 3.03 0.41
10 8 -6 3.21 0.44
-10 -8 6 3.57 0.44
-10 8 5 1.8 0.36
10 8 -5 2.53 0.4
-10 -8 5 2.23 0.37
-10 8 4 0.14 0.25
10 8 -4 0.59 0.31
-10 8 4 0.3 0.26
-10 -8 4 0.17 0.26
-10 -8 4 0.38 0.29
-10 8 3 7.52 0.62
-10 8 3 7.33 0.62
10 8 -3 5.55 0.61
-10 -8 3 6.52 0.53
-10 -8 3 6.2 0.62
-10 8 2 9.48 0.67
10 8 -2 6.75 0.69
-10 8 2 9.6 0.72
-10 -8 2 8.87 0.66
-10 -8 2 9.58 0.72
-10 8 1 1.41 0.35
-10 8 1 1.9 0.32
10 8 -1 1.15 0.35
-10 -8 1 1.43 0.33
-10 -8 1 1.74 0.33
-10 8 0 0.45 0.33
10 8 0 -0.06 0.32
-10 8 0 0.3 0.25
-10 -8 0 0.11 0.29
-10 -8 0 -0.02 0.26
10 8 1 0.11 0.32
-10 8 -1 0.13 0.33
-10 8 -1 0.08 0.25
-10 -8 -1 -0.06 0.32
-10 -8 -1 -0.3 0.29
-10 8 -2 -0.3 0.35
10 8 2 0.68 0.33
-10 -8 -2 0.58 0.39
-10 -8 -2 0.36 0.31
-10 8 -3 -0.99 0.36
10 8 3 0.63 0.34
-10 -8 -3 0.12 0.38
-10 -8 -3 0.22 0.32
-10 8 -4 -0.27 0.43
10 8 4 0.93 0.37
-10 -8 -4 1.1 0.42
-10 8 -5 -1.41 0.45
10 8 5 0.13 0.39
-10 -8 -5 -0.36 0.41
-10 9 10 0.22 0.36
-10 -9 10 0.71 0.38
-10 9 9 2.28 0.42
-10 -9 9 1.98 0.43
-10 9 8 6.24 0.62
-10 -9 8 5.72 0.6
-10 9 7 4.41 0.5
-10 -9 7 4.2 0.51
-10 9 6 0.21 0.29
-10 -9 6 0.2 0.3
10 9 -5 0.15 0.33
-10 9 5 0.52 0.32
-10 -9 5 0 0.27
-10 9 4 4.39 0.46
10 9 -4 3.86 0.47
-10 9 4 3.23 0.39
-10 -9 4 3.6 0.39
-10 -9 4 3.82 0.44
10 9 -3 0.99 0.32
-10 9 3 1.48 0.31
-10 9 3 1.32 0.31
-10 -9 3 1.22 0.31
-10 -9 3 0.9 0.3
-10 9 2 14.52 0.95
-10 9 2 12.97 0.96
-10 -9 2 13.23 0.92
-10 -9 2 13.42 0.94
10 9 -1 0.53 0.31
-10 9 1 0.76 0.34
-10 9 1 0.53 0.28
-10 -9 1 0.91 0.31
-10 -9 1 0.47 0.3
-10 9 0 0.25 0.26
10 9 0 0.26 0.31
-10 9 0 -0.14 0.34
-10 -9 0 -0.15 0.31
-10 -9 0 -0.18 0.31
-10 9 -1 0.04 0.35
-10 9 -1 0.08 0.26
10 9 1 0.22 0.33
-10 -9 -1 0.17 0.33
-10 -9 -1 0.16 0.34
10 9 2 2.29 0.4
-10 9 -2 1.5 0.42
-10 -9 -2 1.11 0.36
-10 -9 -2 2.11 0.41
10 9 3 0.05 0.35
-10 9 -3 -0.63 0.39
-10 -9 -3 -0.34 0.34
-10 -9 -3 0.24 0.43
-10 9 -4 0.38 0.46
10 9 4 0.76 0.39
-10 -9 -4 1.17 0.39
-10 -9 -4 0.87 0.45
-10 10 10 -0.07 0.35
-10 -10 10 -0.1 0.38
-10 10 9 2.83 0.43
-10 -10 9 2.86 0.48
-10 10 8 0.4 0.36
-10 -10 8 0.31 0.37
-10 10 7 0.84 0.37
-10 -10 7 0.72 0.37
-10 10 6 0.1 0.33
-10 -10 6 0.38 0.31
-10 10 5 0.7 0.31
10 10 -5 0.32 0.35
-10 -10 5 0.51 0.31
10 10 -4 0.48 0.34
-10 10 4 0.21 0.29
-10 10 4 -0.16 0.3
-10 -10 4 0.09 0.31
-10 -10 4 0.04 0.3
10 10 -3 0.95 0.33
-10 10 3 1.35 0.35
-10 10 3 1.55 0.34
-10 -10 3 1.59 0.35
-10 -10 3 1.06 0.33
-10 10 2 1.3 0.34
-10 10 2 1.48 0.33
10 10 -2 0.05 0.3
-10 -10 2 1.08 0.36
-10 -10 2 0.8 0.35
-10 10 1 0.5 0.33
-10 10 1 0.4 0.3
10 10 -1 -0.51 0.33
-10 -10 1 -0.21 0.32
-10 -10 1 -0.29 0.3
-10 10 0 0.65 0.29
10 10 0 0.41 0.33
-10 10 0 0.29 0.35
-10 -10 0 0.53 0.35
-10 10 -1 1.02 0.4
-10 10 -1 0.7 0.3
10 10 1 0.53 0.38
-10 -10 -1 1.11 0.38
10 10 2 0.03 0.36
-10 10 -2 -0.07 0.39
-10 -10 -2 0.68 0.39
-10 10 -3 -0.58 0.41
10 10 3 -0.02 0.36
-10 -10 -3 0.68 0.43
10 10 4 0.42 0.35
-10 10 -4 -0.2 0.46
-10 -10 -4 0.46 0.46
-10 -10 -4 0.07 0.4
-10 11 9 1.75 0.43
-10 -11 9 2.21 0.47
-10 11 8 0.11 0.35
-10 -11 8 -0.24 0.37
-10 11 7 1.71 0.4
-10 -11 7 1.04 0.39
-10 11 6 9.46 0.8
-10 -11 6 9.21 0.79
-10 11 5 9.22 0.76
10 11 -5 10.21 0.87
-10 11 5 10.02 0.81
-10 -11 5 9.54 0.8
10 11 -4 0.98 0.38
-10 11 4 1.48 0.35
-10 11 4 1.12 0.37
-10 -11 4 0.79 0.35
-10 -11 4 1.1 0.38
10 11 -3 0.64 0.35
-10 11 3 0.89 0.34
-10 11 3 0.99 0.33
-10 -11 3 0.88 0.36
-10 -11 3 0.71 0.33
-10 11 2 2.99 0.41
-10 11 2 2.38 0.4
10 11 -2 1.14 0.4
-10 -11 2 3.22 0.43
-10 -11 2 3.14 0.43
-10 11 1 0.38 0.37
-10 11 1 0.24 0.3
10 11 -1 -0.17 0.35
-10 -11 1 0.43 0.35
-10 11 0 2.56 0.39
-10 11 0 3.24 0.49
10 11 0 2.22 0.42
-10 -11 0 2.61 0.45
-10 11 -1 1.89 0.37
10 11 1 2.03 0.45
-10 11 -1 1.89 0.46
-10 -11 -1 1.46 0.44
10 11 2 0.22 0.35
-10 11 -2 -0.06 0.41
-10 -11 -2 -0.05 0.39
-10 11 -3 0.17 0.45
10 11 3 0.09 0.38
-10 -11 -3 0.1 0.42
-10 12 8 -0.07 0.38
-10 -12 8 0.4 0.4
-10 12 7 0.97 0.36
-10 -12 7 0.92 0.4
-10 12 6 1.75 0.42
-10 -12 6 1.3 0.41
10 12 -5 0.84 0.39
-10 12 5 0.68 0.35
-10 -12 5 -0.01 0.37
-10 12 4 -0.19 0.33
10 12 -4 0.1 0.36
-10 12 4 0.28 0.36
-10 -12 4 0.17 0.35
-10 -12 4 -0.28 0.36
-10 12 3 0.19 0.35
10 12 -3 0.33 0.35
-10 12 3 0.36 0.34
-10 -12 3 -0.37 0.36
-10 -12 3 -0.07 0.34
10 12 -2 -0.61 0.33
-10 12 2 0.49 0.35
-10 12 2 0.51 0.35
-10 -12 2 0.32 0.39
-10 12 1 0.16 0.36
10 12 -1 -0.7 0.34
-10 12 1 0.5 0.34
-10 -12 1 -0.01 0.37
-10 12 0 1.14 0.41
-10 12 0 1.26 0.37
10 12 0 0.94 0.41
-10 -12 0 1.52 0.42
10 12 1 0.34 0.37
-10 12 -1 0.44 0.42
-10 -12 -1 0.2 0.41
-10 12 -2 0.44 0.48
10 12 2 0.4 0.41
-10 -12 -2 0.16 0.42
-10 13 7 0.04 0.4
-10 -13 7 -0.03 0.36
-10 13 6 0.41 0.4
-10 -13 6 0.69 0.4
10 13 -5 3.01 0.48
-10 13 5 3.15 0.49
-10 -13 5 2.85 0.46
10 13 -4 0.87 0.39
-10 13 4 0.67 0.38
-10 13 4 0.49 0.39
-10 -13 4 0.76 0.38
-10 -13 4 0.43 0.39
10 13 -3 2.86 0.46
-10 13 3 2.03 0.44
-10 13 3 2.61 0.45
-10 -13 3 1.89 0.45
10 13 -2 0.08 0.36
-10 13 2 0.51 0.4
-10 13 2 0.73 0.38
-10 -13 2 0.01 0.38
-10 13 1 1.05 0.36
-10 13 1 0.95 0.4
10 13 -1 -0.15 0.37
-10 -13 1 0.82 0.42
-10 13 0 0.96 0.44
10 13 0 -0.02 0.39
-10 13 0 1.14 0.36
-10 -13 0 0.46 0.42
-10 13 -1 0.49 0.44
10 13 1 0.3 0.42
-10 -13 -1 0.27 0.45
10 14 -5 0.61 0.39
-10 14 5 0.39 0.41
-10 -14 5 0.1 0.37
-10 14 4 0.34 0.38
10 14 -4 0.81 0.4
-10 14 4 0.54 0.37
-10 -14 4 0.1 0.4
10 14 -3 2.29 0.44
-10 14 3 1.33 0.43
-10 14 3 1.71 0.44
-10 -14 3 1.56 0.43
-10 14 2 0.43 0.39
-10 14 2 0.14 0.37
10 14 -2 0.19 0.37
-10 -14 2 -0.36 0.4
-10 14 1 0.68 0.44
10 14 -1 -1.05 0.36
-10 14 1 0.55 0.37
-10 -14 1 0.25 0.42
-11 0 12 1.07 0.35
-11 0 12 0.39 0.43
-11 0 11 0.88 0.35
-11 0 10 3.88 0.46
-11 0 9 -0.63 0.27
-11 0 8 1.64 0.34
-11 0 7 -0.38 0.25
-11 0 6 46.83 2.77
11 0 -5 -0.13 0.26
-11 0 5 -0.11 0.25
-11 0 4 28.51 1.63
11 0 -4 24.48 1.67
-11 0 3 -0.07 0.2
11 0 -3 -0.33 0.24
-11 0 3 0.08 0.24
11 0 -2 25.36 1.73
-11 0 2 28.59 1.7
-11 0 2 29.07 1.68
11 0 -1 0.04 0.26
-11 0 1 -0.44 0.23
-11 0 1 0.09 0.22
11 0 0 0.23 0.25
-11 0 0 0.29 0.22
-11 0 0 0.34 0.26
11 0 1 0.08 0.25
-11 0 -1 -0.13 0.21
-11 0 -1 0.24 0.28
-11 0 -2 5.34 0.5
-11 0 -2 5.24 0.54
11 0 2 5.68 0.54
-11 0 -3 0.2 0.32
11 0 3 0.05 0.29
-11 0 -4 0.13 0.33
11 0 4 0.28 0.32
11 0 5 0.01 0.34
-11 0 -5 -0.07 0.35
-11 1 12 3.35 0.53
-11 1 12 3.81 0.47
-11 -1 12 3.98 0.46
-11 -1 12 3.59 0.56
-11 1 11 0.54 0.39
-11 1 11 0.62 0.33
-11 -1 11 0.26 0.32
-11 1 10 5.81 0.55
-11 -1 10 4.12 0.49
-11 1 9 0.25 0.3
-11 -1 9 -0.33 0.28
-11 1 8 2.29 0.37
-11 -1 8 2.6 0.36
-11 1 7 0.29 0.26
-11 -1 7 0.6 0.27
-11 1 6 6.21 0.6
-11 -1 6 8.64 0.65
-11 1 5 15.9 1.07
11 1 -5 17.6 1.14
11 -1 -5 16.37 1.12
-11 -1 5 16.57 1.07
-11 1 4 0.64 0.26
11 1 -4 0.33 0.27
11 -1 -4 0.65 0.26
-11 -1 4 0.71 0.25
-11 1 3 5.31 0.5
11 1 -3 3.46 0.43
-11 1 3 4.17 0.43
-11 -1 3 5.45 0.48
-11 -1 3 5.4 0.43
11 -1 -3 3.28 0.4
-11 1 2 7.78 0.59
-11 1 2 7.08 0.59
11 1 -2 7.54 0.63
-11 -1 2 8.16 0.58
-11 -1 2 7.75 0.61
11 -1 -2 6.91 0.64
11 1 -1 0.22 0.27
-11 1 1 -0.08 0.24
-11 1 1 -0.07 0.22
-11 -1 1 0.23 0.24
-11 -1 1 0.24 0.22
11 -1 -1 -0.01 0.25
11 1 0 0.63 0.27
-11 1 0 0.62 0.26
-11 1 0 0.79 0.24
-11 -1 0 0.55 0.27
-11 -1 0 0.62 0.23
11 -1 0 0.44 0.26
-11 1 -1 4.54 0.43
11 1 1 3.24 0.4
-11 1 -1 4.31 0.39
-11 -1 -1 3.9 0.43
11 -1 1 4.04 0.41
-11 -1 -1 4.08 0.38
11 1 2 1.02 0.3
-11 1 -2 1.08 0.26
-11 1 -2 1.43 0.33
-11 -1 -2 1.14 0.26
11 -1 2 0.9 0.29
-11 -1 -2 1.12 0.33
-11 1 -3 0.14 0.31
11 1 3 0.21 0.29
11 -1 3 0.15 0.29
-11 -1 -3 -0.02 0.3
-11 1 -4 0.62 0.35
11 1 4 0.73 0.34
-11 -1 -4 1.15 0.36
11 -1 4 0.73 0.33
11 1 5 0.74 0.38
-11 1 -5 1.09 0.38
-11 -1 -5 1.48 0.39
11 -1 5 1.25 0.37
-11 2 12 -0.12 0.32
-11 2 12 -0.22 0.39
-11 -2 12 0.51 0.33
-11 -2 12 -0.53 0.41
-11 2 11 3.07 0.43
-11 2 11 3.04 0.48
-11 -2 11 2.49 0.42
-11 2 10 2.33 0.36
-11 -2 10 1.13 0.34
-11 2 9 0.4 0.31
-11 -2 9 -0.25 0.29
-11 2 8 1.18 0.3
-11 -2 8 1.38 0.34
-11 2 7 4.01 0.45
-11 -2 7 5.61 0.55
11 2 -6 0.65 0.3
-11 2 6 -0.23 0.26
-11 -2 6 0.37 0.26
11 2 -5 1.34 0.32
-11 2 5 0.69 0.28
11 -2 -5 1.2 0.28
-11 -2 5 1.27 0.28
-11 2 4 5.61 0.59
11 2 -4 6.19 0.61
11 -2 -4 6.32 0.57
-11 -2 4 7 0.57
11 2 -3 -0.28 0.26
-11 2 3 -0.16 0.19
-11 2 3 -0.47 0.23
11 -2 -3 -0.11 0.22
-11 -2 3 0.26 0.19
-11 -2 3 0.08 0.2
11 2 -2 19.44 1.23
-11 2 2 19.58 1.17
-11 2 2 17.43 1.17
-11 -2 2 18.47 1.14
11 -2 -2 16.41 1.18
-11 -2 2 17.94 1.14
-11 2 1 9.58 0.74
-11 2 1 10.04 0.73
11 2 -1 10.58 0.79
-11 -2 1 9.12 0.7
-11 -2 1 10.04 0.71
11 -2 -1 9.85 0.75
-11 2 0 1.02 0.28
11 2 0 1.29 0.31
-11 2 0 0.93 0.29
-11 -2 0 1.21 0.26
11 -2 0 1.33 0.28
-11 -2 0 1.01 0.25
-11 2 -1 -0.27 0.27
11 2 1 0.01 0.26
-11 2 -1 -0.13 0.24
11 -2 1 0 0.24
-11 -2 -1 0.09 0.25
-11 -2 -1 0.07 0.21
-11 2 -2 -0.29 0.31
-11 2 -2 -0.34 0.23
11 2 2 0.18 0.28
11 -2 2 -0.32 0.24
-11 -2 -2 -0.1 0.28
-11 -2 -2 -0.01 0.21
11 2 3 2.54 0.39
-11 2 -3 2.96 0.42
11 -2 3 2.5 0.37
-11 -2 -3 2.57 0.38
-11 2 -4 0.26 0.35
11 2 4 0.74 0.35
11 -2 4 0.54 0.32
-11 -2 -4 0.93 0.35
11 2 5 0.23 0.36
-11 2 -5 0.33 0.38
-11 -2 -5 0.5 0.37
11 -2 5 0.62 0.34
-11 3 12 0.39 0.4
-11 3 12 0.04 0.34
-11 -3 12 0.16 0.4
-11 -3 12 0.54 0.33
-11 3 11 0.63 0.37
-11 3 11 0.55 0.34
-11 -3 11 -0.36 0.3
-11 3 10 0.55 0.35
-11 3 10 0.42 0.33
-11 -3 10 0.04 0.31
-11 3 9 4.27 0.48
-11 -3 9 4.35 0.48
-11 3 8 2.23 0.35
-11 -3 8 2.44 0.38
-11 3 7 1.15 0.32
-11 -3 7 1.86 0.31
11 3 -6 0.38 0.29
-11 3 6 0.22 0.25
-11 -3 6 0.79 0.26
-11 3 5 30.58 2.16
11 3 -5 39.06 2.25
-11 -3 5 39.06 2.16
-11 3 4 5.07 0.52
11 3 -4 6.21 0.59
11 -3 -4 7.15 0.57
-11 -3 4 7.8 0.58
11 3 -3 4.08 0.48
-11 3 3 5.35 0.5
-11 3 3 5.82 0.53
-11 -3 3 6.44 0.48
11 -3 -3 5.23 0.52
-11 -3 3 7.35 0.54
-11 3 2 6.39 0.59
-11 3 2 5.04 0.54
11 3 -2 7.04 0.65
-11 -3 2 7.16 0.53
11 -3 -2 5.83 0.56
-11 -3 2 7.79 0.57
11 3 -1 0.85 0.3
-11 3 1 0.33 0.27
-11 3 1 0.85 0.27
-11 -3 1 0.86 0.25
-11 -3 1 0.66 0.25
11 -3 -1 0.54 0.25
-11 3 0 5 0.52
-11 3 0 4.76 0.45
11 3 0 5.62 0.57
-11 -3 0 4.45 0.43
11 -3 0 5.34 0.54
-11 -3 0 4.94 0.51
11 3 1 5.9 0.59
-11 3 -1 5.28 0.53
-11 3 -1 5.71 0.57
11 -3 1 5.96 0.54
-11 -3 -1 5.33 0.56
-11 -3 -1 6.21 0.54
-11 3 -2 -0.01 0.31
11 3 2 0.14 0.28
-11 -3 -2 0.06 0.28
-11 -3 -2 0.19 0.24
11 -3 2 -0.11 0.24
11 3 3 0.55 0.31
-11 3 -3 0.25 0.34
11 -3 3 0.14 0.3
-11 -3 -3 0.46 0.32
11 3 4 0.48 0.32
-11 3 -4 0.34 0.36
-11 -3 -4 0.92 0.34
11 -3 4 0.55 0.32
-11 3 -5 2.4 0.46
11 3 5 1.78 0.43
11 -3 5 2.04 0.39
-11 -3 -5 1.9 0.41
-11 4 12 0.31 0.35
-11 4 12 -0.14 0.39
-11 -4 12 -0.02 0.33
-11 4 11 -0.08 0.35
-11 4 11 0.07 0.34
-11 -4 11 -0.68 0.31
-11 4 10 4.77 0.51
-11 4 10 4.65 0.5
-11 -4 10 3.82 0.49
-11 4 9 -0.05 0.31
-11 -4 9 0.16 0.31
-11 4 8 9.66 0.77
-11 -4 8 9.47 0.76
-11 4 7 2.17 0.36
-11 -4 7 1.61 0.32
-11 4 6 0.33 0.29
11 4 -6 1.06 0.31
-11 -4 6 0.32 0.25
11 4 -5 4.62 0.47
-11 4 5 3.54 0.44
-11 -4 5 4.26 0.43
11 4 -4 3.73 0.44
-11 4 4 2.84 0.39
-11 -4 4 3.86 0.39
11 -4 -4 4.42 0.44
-11 4 3 -0.65 0.24
11 4 -3 -0.3 0.25
-11 4 3 0.07 0.22
11 -4 -3 -0.45 0.21
-11 -4 3 0.15 0.24
-11 -4 3 0.23 0.21
-11 4 2 1.41 0.29
11 4 -2 1.75 0.32
-11 4 2 0.97 0.3
-11 -4 2 2.08 0.29
11 -4 -2 1.37 0.26
-11 -4 2 1.72 0.28
-11 4 1 2.38 0.35
-11 4 1 2.12 0.36
11 4 -1 3.07 0.4
11 -4 -1 3.32 0.36
-11 -4 1 3.46 0.36
-11 -4 1 2.85 0.35
11 4 0 1.13 0.32
-11 4 0 0.43 0.31
-11 4 0 0.48 0.25
-11 -4 0 0.49 0.28
-11 -4 0 0.81 0.26
11 -4 0 1.13 0.26
11 4 1 2.56 0.37
-11 4 -1 2.46 0.39
-11 4 -1 1.91 0.31
11 -4 1 2.51 0.33
-11 -4 -1 2.1 0.37
-11 -4 -1 1.61 0.31
-11 4 -2 -0.2 0.35
11 4 2 0.09 0.29
-11 -4 -2 0.32 0.32
11 -4 2 0.39 0.25
-11 -4 -2 0.15 0.25
-11 4 -3 -0.24 0.35
11 4 3 -0.27 0.31
-11 -4 -3 0.17 0.31
11 -4 3 -0.02 0.28
11 4 4 0.64 0.36
-11 4 -4 0.7 0.4
-11 -4 -4 1.14 0.38
11 -4 4 0.78 0.33
11 4 5 -0.24 0.36
-11 4 -5 0.1 0.41
11 -4 5 0.57 0.33
-11 -4 -5 0.43 0.36
-11 5 11 0.05 0.35
-11 5 11 0.38 0.35
-11 -5 11 -0.33 0.34
-11 5 10 4.52 0.5
-11 5 10 4.86 0.5
-11 -5 10 3.56 0.48
-11 5 9 0.62 0.33
-11 5 9 0.29 0.3
-11 -5 9 0.06 0.32
-11 5 8 0.01 0.31
-11 -5 8 0.2 0.28
-11 5 7 0.49 0.3
-11 -5 7 0.95 0.32
-11 5 6 4.45 0.48
11 5 -6 5.11 0.53
-11 -5 6 5.95 0.56
-11 5 5 0.44 0.26
11 5 -5 0.61 0.29
-11 -5 5 0.22 0.25
11 5 -4 1.87 0.37
-11 5 4 1.73 0.33
11 -5 -4 2.78 0.3
-11 -5 4 2.06 0.34
-11 5 3 0.11 0.22
11 5 -3 -0.58 0.27
-11 5 3 -0.47 0.25
11 -5 -3 -0.18 0.21
-11 -5 3 0.14 0.27
-11 -5 3 0.15 0.22
-11 5 2 -0.18 0.26
-11 5 2 0.22 0.27
11 5 -2 -0.21 0.29
-11 -5 2 0.69 0.27
-11 -5 2 0.24 0.25
11 -5 -2 -0.24 0.21
-11 5 1 0.35 0.29
11 5 -1 1.5 0.34
-11 5 1 0.21 0.26
11 -5 -1 1.43 0.27
-11 -5 1 1.07 0.3
-11 -5 1 1.5 0.31
-11 5 0 4.23 0.47
-11 5 0 5.4 0.56
-11 -5 0 6.59 0.56
-11 -5 0 6.52 0.58
11 5 1 0.69 0.29
-11 5 -1 0.38 0.33
-11 -5 -1 0.2 0.26
11 -5 1 0.94 0.26
-11 -5 -1 0.51 0.31
11 5 2 -0.23 0.26
-11 5 -2 -0.57 0.35
11 -5 2 0.21 0.25
-11 -5 -2 -0.07 0.26
-11 -5 -2 0.08 0.31
-11 5 -3 -0.29 0.38
11 5 3 0.4 0.33
-11 -5 -3 0.61 0.37
-11 -5 -3 0.32 0.28
11 -5 3 0.29 0.29
11 5 4 0.76 0.36
-11 5 -4 0.37 0.4
-11 -5 -4 0.93 0.37
11 -5 4 0.67 0.33
11 5 5 0.46 0.39
-11 5 -5 -0.47 0.41
11 -5 5 0.47 0.34
-11 -5 -5 0.31 0.38
-11 6 11 4.23 0.51
-11 6 11 4.83 0.53
-11 -6 11 3.7 0.51
-11 6 10 0.18 0.33
-11 6 10 0.62 0.35
-11 -6 10 0.12 0.33
-11 6 9 4.59 0.48
-11 6 9 4.69 0.51
-11 -6 9 4.52 0.52
-11 6 8 3.85 0.45
-11 -6 8 3.93 0.46
-11 6 7 11.68 0.86
-11 -6 7 10.98 0.85
11 6 -6 0.45 0.31
-11 6 6 0.29 0.28
-11 -6 6 0.32 0.3
11 6 -5 1.33 0.34
-11 6 5 1.5 0.34
-11 -6 5 1.27 0.31
11 6 -4 -0.44 0.26
-11 6 4 0.25 0.26
-11 6 4 0.12 0.22
-11 -6 4 0.02 0.27
-11 6 3 11.88 0.83
-11 6 3 10.84 0.81
-11 -6 3 11.42 0.77
-11 -6 3 10.49 0.81
11 -6 -3 11.8 0.8
11 6 -2 2.03 0.37
-11 6 2 2.34 0.34
-11 6 2 2.17 0.33
11 -6 -2 1.84 0.28
-11 -6 2 2.1 0.36
-11 -6 2 2.28 0.32
-11 6 1 2.9 0.37
11 6 -1 3.22 0.42
-11 6 1 2.77 0.38
-11 -6 1 2.99 0.37
11 -6 -1 3.01 0.33
-11 -6 1 3.6 0.39
-11 6 0 0.72 0.27
11 6 0 1.6 0.36
-11 6 0 0.97 0.36
-11 -6 0 1.36 0.32
-11 -6 0 0.99 0.31
11 6 1 0.92 0.32
-11 6 -1 0.31 0.26
-11 6 -1 -0.48 0.34
-11 -6 -1 0.9 0.34
-11 -6 -1 0.77 0.3
11 6 2 0.84 0.32
-11 6 -2 -0.07 0.38
-11 -6 -2 0.78 0.37
-11 -6 -2 0.27 0.29
-11 6 -3 4.05 0.54
11 6 3 4.49 0.49
-11 -6 -3 4.48 0.47
-11 -6 -3 3.78 0.51
-11 6 -4 -0.5 0.43
11 6 4 0.15 0.32
-11 -6 -4 -0.15 0.37
-11 7 11 0.27 0.38
-11 -7 11 0.03 0.36
-11 7 10 0.39 0.32
-11 -7 10 -0.06 0.36
-11 7 9 0.49 0.36
-11 -7 9 0.09 0.35
-11 7 8 0.51 0.34
-11 -7 8 0.29 0.34
-11 7 7 0.88 0.32
-11 -7 7 1.11 0.36
11 7 -6 0.29 0.32
-11 7 6 0.02 0.29
-11 -7 6 0.09 0.32
-11 7 5 0.88 0.3
11 7 -5 0.95 0.35
-11 -7 5 0.36 0.32
11 7 -4 3.05 0.43
-11 7 4 2.72 0.41
-11 7 4 3.24 0.36
-11 -7 4 2.56 0.41
-11 7 3 2.31 0.32
-11 7 3 2.35 0.36
11 7 -3 0.79 0.35
-11 -7 3 1.55 0.36
-11 -7 3 2 0.31
-11 7 2 0.27 0.28
-11 7 2 0.74 0.3
11 7 -2 -0.01 0.31
-11 -7 2 0.75 0.28
-11 -7 2 0.46 0.28
11 7 -1 0.09 0.29
-11 7 1 -0.09 0.3
-11 7 1 0.12 0.27
-11 -7 1 0.07 0.28
-11 -7 1 -0.12 0.29
-11 7 0 0.36 0.32
-11 7 0 0.5 0.28
11 7 0 0.64 0.35
-11 -7 0 0.54 0.31
-11 -7 0 0.19 0.33
-11 7 -1 -0.69 0.35
-11 7 -1 0.07 0.26
11 7 1 0.62 0.31
-11 -7 -1 0.27 0.34
-11 -7 -1 0.09 0.3
-11 7 -2 0.46 0.43
11 7 2 1.73 0.38
-11 -7 -2 2.5 0.39
-11 -7 -2 1.92 0.43
11 7 3 1.87 0.36
-11 7 -3 1.19 0.47
-11 -7 -3 1.26 0.41
-11 -7 -3 1.04 0.36
-11 7 -4 0.2 0.46
11 7 4 0.82 0.38
-11 -7 -4 -0.28 0.38
-11 8 10 3.56 0.5
-11 -8 10 4.17 0.52
-11 8 9 1.21 0.4
-11 -8 9 1.13 0.4
-11 8 8 2.35 0.42
-11 -8 8 1.71 0.42
-11 8 7 0.61 0.34
-11 -8 7 0.09 0.35
-11 8 6 3.57 0.47
11 8 -6 4.28 0.51
-11 -8 6 3.56 0.48
11 8 -5 3.19 0.45
-11 8 5 2.94 0.41
-11 -8 5 3.39 0.44
-11 8 4 11.26 0.82
11 8 -4 10.21 0.91
-11 8 4 12.21 0.87
-11 -8 4 10.39 0.87
-11 8 3 0.23 0.29
-11 8 3 0.1 0.3
11 8 -3 -0.8 0.3
-11 -8 3 -0.05 0.26
-11 -8 3 -0.09 0.3
-11 8 2 1.01 0.31
11 8 -2 1.23 0.34
-11 8 2 1.14 0.33
-11 -8 2 0.94 0.31
-11 -8 2 1.03 0.34
-11 8 1 0.31 0.34
11 8 -1 0.07 0.3
-11 8 1 0.19 0.28
-11 -8 1 0.57 0.32
-11 -8 1 0.37 0.32
-11 8 0 4.15 0.44
-11 8 0 3.58 0.49
11 8 0 4.99 0.52
-11 -8 0 3.92 0.47
-11 -8 0 4.88 0.5
-11 8 -1 -0.72 0.36
-11 8 -1 0.33 0.28
11 8 1 -0.11 0.33
-11 -8 -1 -0.14 0.33
-11 -8 -1 -0.2 0.37
-11 8 -2 1.24 0.45
11 8 2 2.97 0.41
-11 -8 -2 2.86 0.42
-11 -8 -2 2.99 0.46
11 8 3 0.3 0.35
-11 8 -3 -0.77 0.4
-11 -8 -3 0.03 0.33
-11 -8 -3 0.36 0.4
11 8 4 0.2 0.37
-11 8 -4 -0.79 0.46
-11 -8 -4 0.04 0.41
-11 9 10 1.64 0.43
-11 -9 10 1.74 0.45
-11 9 9 1.51 0.39
-11 -9 9 1.28 0.42
-11 9 8 0.35 0.37
-11 -9 8 -0.18 0.33
-11 9 7 1.46 0.4
-11 -9 7 1.37 0.41
-11 9 6 2.45 0.44
11 9 -6 2.61 0.46
-11 -9 6 2.37 0.44
-11 9 5 1.28 0.38
11 9 -5 1.02 0.36
-11 -9 5 0.77 0.36
-11 9 4 0.12 0.3
11 9 -4 0.22 0.32
-11 9 4 0.2 0.34
-11 -9 4 0.21 0.3
11 9 -3 -1.09 0.3
-11 9 3 0.41 0.33
-11 9 3 0.22 0.32
-11 -9 3 0.04 0.3
-11 -9 3 0.26 0.3
-11 9 2 0.39 0.32
11 9 -2 0.16 0.31
-11 9 2 0.58 0.34
-11 -9 2 0.19 0.32
-11 -9 2 0.57 0.35
-11 9 1 1.42 0.34
11 9 -1 1.29 0.37
-11 9 1 1.39 0.39
-11 -9 1 1.87 0.38
-11 -9 1 1.65 0.35
-11 9 0 2.54 0.36
11 9 0 1.76 0.39
-11 9 0 1.41 0.4
-11 -9 0 1.22 0.38
-11 -9 0 1.47 0.38
-11 9 -1 -0.37 0.37
11 9 1 -0.08 0.32
-11 -9 -1 0.06 0.34
-11 -9 -1 -0.12 0.36
11 9 2 1.26 0.39
-11 9 -2 0.2 0.42
-11 -9 -2 0.82 0.44
-11 -9 -2 0.66 0.38
11 9 3 0.28 0.37
-11 9 -3 -0.95 0.41
-11 -9 -3 0.27 0.36
-11 -9 -3 0.34 0.43
-11 10 9 0.62 0.4
-11 -10 9 0.28 0.4
-11 10 8 3.51 0.49
-11 -10 8 2.24 0.48
-11 10 7 0.92 0.4
-11 -10 7 0.87 0.41
11 10 -6 0.52 0.39
-11 10 6 0.33 0.37
-11 -10 6 -0.11 0.36
-11 10 5 0.43 0.34
11 10 -5 0.5 0.39
-11 -10 5 -0.06 0.35
-11 10 4 3.35 0.46
11 10 -4 2.94 0.48
-11 10 4 3.29 0.41
-11 -10 4 2.72 0.43
-11 10 3 1.15 0.37
11 10 -3 -0.43 0.34
-11 10 3 0.85 0.34
-11 -10 3 0.84 0.34
-11 -10 3 0.82 0.34
-11 10 2 2.11 0.41
-11 10 2 2.09 0.4
11 10 -2 1.75 0.39
-11 -10 2 1.85 0.41
-11 -10 2 2.24 0.4
-11 10 1 0.84 0.33
11 10 -1 0.19 0.38
-11 10 1 0.8 0.39
-11 -10 1 0.62 0.38
-11 -10 1 0.79 0.35
11 10 0 1.37 0.42
-11 10 0 1.1 0.41
-11 10 0 1.35 0.35
-11 -10 0 1.43 0.41
-11 -10 0 1.25 0.41
11 10 1 1.51 0.43
-11 10 -1 1.23 0.45
-11 -10 -1 1.49 0.43
-11 -10 -1 1.65 0.42
11 10 2 0.11 0.37
-11 10 -2 -0.44 0.41
-11 -10 -2 0.19 0.43
-11 -10 -2 0.01 0.4
-11 11 8 5.61 0.59
-11 -11 8 4.69 0.6
-11 11 7 2.88 0.48
-11 -11 7 3.01 0.5
11 11 -6 2.88 0.5
-11 11 6 3.23 0.5
-11 -11 6 3.16 0.49
-11 11 5 0.19 0.38
11 11 -5 0.33 0.39
-11 -11 5 -0.05 0.36
-11 11 4 2.76 0.45
-11 11 4 2.63 0.42
11 11 -4 2.64 0.47
-11 -11 4 2.73 0.46
-11 11 3 1.64 0.39
-11 11 3 1.2 0.38
11 11 -3 0.23 0.38
-11 -11 3 1.24 0.38
-11 -11 3 1.1 0.4
-11 11 2 1.96 0.39
-11 11 2 2.44 0.41
11 11 -2 0.12 0.39
-11 -11 2 1.37 0.42
-11 -11 2 1.78 0.41
-11 11 1 0.32 0.37
-11 11 1 -0.19 0.32
11 11 -1 -0.46 0.37
-11 -11 1 0.29 0.37
-11 -11 1 0.17 0.39
-11 11 0 0.41 0.4
-11 11 0 0.35 0.34
11 11 0 0.05 0.4
-11 -11 0 0.4 0.41
-11 -11 0 0.19 0.4
11 11 1 0.8 0.42
-11 11 -1 0.17 0.42
-11 -11 -1 0.17 0.4
-11 -11 -1 0.55 0.42
-11 12 7 1.62 0.41
-11 -12 7 0.48 0.43
-11 12 6 0.62 0.42
-11 -12 6 0.96 0.42
11 12 -5 2.69 0.49
-11 12 5 2.82 0.48
-11 -12 5 2.26 0.47
11 12 -4 1.19 0.43
-11 12 4 0.95 0.37
-11 12 4 0.41 0.36
-11 -12 4 0.67 0.4
11 12 -3 -0.47 0.37
-11 12 3 0.25 0.37
-11 12 3 -0.04 0.36
-11 -12 3 0.02 0.39
-11 -12 3 -0.37 0.38
-11 12 2 0.24 0.36
11 12 -2 -1.33 0.35
-11 12 2 0.01 0.35
-11 -12 2 0.11 0.37
-11 -12 2 0.03 0.4
-11 12 1 0.37 0.35
11 12 -1 -0.1 0.4
-11 12 1 0.4 0.41
-11 -12 1 -0.18 0.41
-11 -12 1 -0.15 0.41
-11 12 0 0.13 0.4
11 12 0 0.32 0.42
-11 12 0 0.37 0.35
-11 -12 0 0.48 0.42
-11 -12 0 -0.16 0.43
-11 13 5 2.16 0.46
11 13 -5 2.58 0.48
-11 -13 5 1.56 0.43
11 13 -4 0.15 0.41
-11 13 4 0.33 0.4
-11 -13 4 -0.39 0.41
-11 13 3 0.42 0.41
11 13 -3 0.46 0.41
-11 13 3 0.69 0.4
-11 -13 3 -0.47 0.4
-11 -13 3 0.14 0.42
-11 13 2 1.8 0.42
11 13 -2 -0.42 0.39
-11 13 2 1.39 0.45
-11 -13 2 1.76 0.44
-11 -13 2 1.36 0.43
-11 13 1 2.88 0.52
-11 13 1 2.89 0.46
-11 -13 1 2.83 0.54
-11 -13 1 2.45 0.5
-12 0 11 0.29 0.35
-12 0 10 -0.23 0.32
-12 0 9 -0.44 0.31
-12 0 8 0.43 0.3
-12 0 7 -0.34 0.27
-12 0 6 14.55 1.01
12 0 -5 0.35 0.29
-12 0 5 0.05 0.26
12 0 -4 -0.33 0.26
-12 0 4 0.27 0.24
-12 0 3 0.14 0.26
-12 0 3 -0.06 0.21
12 0 -3 -0.29 0.26
-12 0 2 8.81 0.66
12 0 -2 7.63 0.7
-12 0 2 8.03 0.66
-12 0 1 -0.38 0.25
12 0 -1 -0.18 0.28
-12 0 1 -0.15 0.23
-12 0 0 2.88 0.37
12 0 0 3.23 0.39
-12 0 0 3.46 0.38
-12 0 -1 -0.05 0.23
12 0 1 -0.27 0.27
-12 0 -1 0.02 0.28
-12 0 -2 1.36 0.33
12 0 2 1.29 0.32
-12 0 -3 -0.15 0.34
12 0 3 0.12 0.31
-12 0 -4 0.14 0.35
12 0 4 0.32 0.35
-12 1 11 1.1 0.37
-12 -1 11 -0.63 0.32
-12 1 10 1.1 0.37
-12 -1 10 0.45 0.35
-12 1 9 0.94 0.36
-12 -1 9 1.4 0.37
-12 1 8 7.15 0.7
-12 -1 8 8.87 0.7
-12 1 7 0.21 0.3
-12 -1 7 0.48 0.31
12 1 -6 0.82 0.32
-12 1 6 0.25 0.27
-12 -1 6 0.42 0.29
12 1 -5 8.39 0.72
-12 1 5 8.63 0.73
-12 -1 5 9.39 0.73
12 -1 -5 9.46 0.77
12 1 -4 0.96 0.32
-12 1 4 1.52 0.31
-12 -1 4 1.66 0.29
12 -1 -4 1.21 0.31
12 1 -3 4.42 0.48
-12 1 3 4.67 0.47
-12 1 3 4.72 0.45
12 -1 -3 3.76 0.44
-12 -1 3 5.14 0.47
-12 -1 3 5.51 0.47
-12 1 2 0.59 0.25
-12 1 2 0.33 0.26
12 1 -2 0.46 0.3
-12 -1 2 0.92 0.26
-12 -1 2 0.65 0.24
12 -1 -2 0.39 0.28
12 1 -1 2.3 0.35
-12 1 1 1.73 0.32
-12 1 1 2.03 0.31
12 -1 -1 2.08 0.34
-12 -1 1 1.83 0.31
-12 -1 1 1.48 0.29
12 1 0 7.61 0.65
-12 1 0 6.33 0.63
-12 1 0 7.56 0.6
12 -1 0 6.99 0.63
-12 -1 0 6.8 0.59
-12 -1 0 7.65 0.59
-12 1 -1 0.53 0.26
-12 1 -1 0.47 0.31
12 1 1 0.88 0.3
-12 -1 -1 0.73 0.31
12 -1 1 0.63 0.28
-12 -1 -1 0.54 0.25
12 1 2 1.35 0.33
-12 1 -2 1.71 0.35
12 -1 2 1.54 0.33
-12 -1 -2 1.98 0.35
12 1 3 3.32 0.41
-12 1 -3 3.15 0.43
-12 -1 -3 3.08 0.44
12 -1 3 2.56 0.39
-12 1 -4 0.43 0.35
12 1 4 0.19 0.35
-12 -1 -4 0.31 0.35
12 -1 4 -0.33 0.32
-12 2 11 2.57 0.44
-12 2 11 2.65 0.47
-12 -2 11 1.67 0.41
-12 2 10 0.23 0.34
-12 -2 10 -0.16 0.32
-12 2 9 -0.04 0.32
-12 -2 9 -0.34 0.28
-12 2 8 0.83 0.35
-12 -2 8 1.3 0.34
-12 2 7 -0.1 0.27
-12 -2 7 0.1 0.3
12 2 -6 0.79 0.33
-12 2 6 -0.01 0.26
-12 -2 6 0.04 0.27
12 2 -5 4.31 0.48
-12 2 5 4.05 0.46
-12 -2 5 4.07 0.42
12 -2 -5 5.42 0.53
12 2 -4 -0.42 0.28
-12 2 4 -0.12 0.24
-12 -2 4 0.32 0.23
12 -2 -4 -0.1 0.25
-12 2 3 0.82 0.26
12 2 -3 1.14 0.33
-12 2 3 1.07 0.28
12 -2 -3 0.85 0.28
-12 -2 3 1.75 0.26
-12 -2 3 1.34 0.26
12 2 -2 1.43 0.31
-12 2 2 1.54 0.31
-12 2 2 1.45 0.29
-12 -2 2 1.62 0.29
12 -2 -2 1.13 0.31
-12 -2 2 1.38 0.28
-12 2 1 0.02 0.25
12 2 -1 0.34 0.27
-12 2 1 -0.3 0.27
12 -2 -1 -0.17 0.26
-12 -2 1 -0.04 0.25
-12 -2 1 0.1 0.24
12 2 0 0.26 0.29
-12 2 0 -0.15 0.29
-12 2 0 0.27 0.26
-12 -2 0 0.3 0.25
-12 -2 0 0.52 0.26
12 -2 0 0.36 0.27
12 2 1 1.91 0.36
-12 2 -1 2.17 0.34
-12 2 -1 2.28 0.37
-12 -2 -1 1.97 0.35
-12 -2 -1 2.31 0.31
12 -2 1 2.36 0.34
12 2 2 0.79 0.32
-12 2 -2 0.06 0.33
-12 -2 -2 0.27 0.3
12 -2 2 0.06 0.28
-12 -2 -2 0.56 0.26
-12 2 -3 0.5 0.35
12 2 3 0.49 0.3
12 -2 3 0.6 0.3
-12 -2 -3 0.52 0.33
12 2 4 0.71 0.36
-12 2 -4 0.13 0.38
-12 -2 -4 0.39 0.36
12 -2 4 0.72 0.34
-12 3 11 2.08 0.47
-12 3 11 2.7 0.44
-12 -3 11 1.32 0.4
-12 3 10 0.61 0.36
-12 -3 10 -0.58 0.33
-12 3 9 -0.28 0.29
-12 -3 9 -0.4 0.33
-12 3 8 0.5 0.31
-12 -3 8 0.52 0.3
-12 3 7 20.43 1.52
-12 -3 7 27.88 1.53
12 3 -6 0.62 0.34
-12 3 6 0.03 0.27
-12 -3 6 0.66 0.28
-12 3 5 3.63 0.44
12 3 -5 4.26 0.48
-12 -3 5 4.24 0.44
12 -3 -5 4.44 0.43
12 3 -4 -0.16 0.27
-12 3 4 0.24 0.3
12 -3 -4 0.48 0.28
-12 -3 4 0.36 0.26
-12 3 3 5.3 0.48
12 3 -3 5.86 0.55
-12 3 3 5.95 0.56
-12 -3 3 6.39 0.5
-12 -3 3 7.08 0.57
12 -3 -3 4.95 0.5
12 3 -2 0.63 0.29
-12 3 2 0.2 0.27
-12 3 2 0.87 0.3
-12 -3 2 0.68 0.26
-12 -3 2 0.73 0.25
12 -3 -2 0.72 0.27
-12 3 1 8.95 0.75
-12 3 1 9.71 0.74
12 3 -1 9.75 0.79
12 -3 -1 10.09 0.74
-12 -3 1 8.97 0.7
-12 -3 1 9.46 0.71
-12 3 0 1.13 0.3
-12 3 0 1.24 0.34
12 3 0 1.21 0.34
-12 -3 0 0.75 0.27
-12 -3 0 1.07 0.3
12 -3 0 1.27 0.3
12 3 1 0.21 0.27
-12 3 -1 -0.46 0.32
-12 3 -1 -0.14 0.26
12 -3 1 -0.09 0.25
-12 -3 -1 0.26 0.29
-12 -3 -1 0.26 0.26
-12 3 -2 -0.06 0.35
12 3 2 0.04 0.3
-12 -3 -2 -0.07 0.25
12 -3 2 0.04 0.27
-12 -3 -2 0.2 0.31
12 3 3 1.55 0.37
-12 3 -3 1.91 0.43
-12 -3 -3 1.68 0.36
12 -3 3 1.9 0.36
-12 3 -4 0.02 0.37
12 3 4 0.01 0.35
-12 -3 -4 0.31 0.34
12 -3 4 -0.11 0.31
-12 4 11 0.16 0.39
-12 4 11 0.18 0.33
-12 -4 11 -0.46 0.35
-12 4 10 1.3 0.39
-12 4 10 0.39 0.35
-12 -4 10 0.57 0.37
-12 4 9 0.94 0.34
-12 -4 9 1.04 0.37
-12 4 8 1.99 0.4
-12 -4 8 1.85 0.37
-12 4 7 -0.14 0.31
-12 -4 7 0.45 0.28
-12 4 6 -0.38 0.26
12 4 -6 0.91 0.36
-12 -4 6 0.38 0.29
-12 4 5 -0.52 0.28
12 4 -5 -0.31 0.32
-12 -4 5 0.18 0.25
12 4 -4 2.02 0.39
-12 4 4 1.83 0.34
-12 -4 4 2.57 0.34
12 -4 -4 2.33 0.33
-12 4 3 -0.56 0.27
12 4 -3 -0.22 0.3
-12 4 3 -0.23 0.23
-12 -4 3 0.06 0.26
-12 -4 3 0.05 0.23
12 -4 -3 -0.51 0.24
-12 4 2 4.74 0.5
12 4 -2 5.29 0.53
-12 4 2 4.38 0.47
12 -4 -2 5.38 0.47
-12 -4 2 6.01 0.54
-12 -4 2 5.69 0.52
-12 4 1 -0.05 0.29
12 4 -1 0.21 0.29
-12 4 1 -0.37 0.29
12 -4 -1 0.28 0.27
-12 -4 1 0.17 0.25
-12 -4 1 0.1 0.27
-12 4 0 0.32 0.34
12 4 0 0.6 0.33
-12 4 0 0.67 0.28
-12 -4 0 0.98 0.29
12 -4 0 0.6 0.27
-12 -4 0 0.81 0.27
-12 4 -1 0.54 0.29
-12 4 -1 1.29 0.36
12 4 1 0.83 0.32
-12 -4 -1 0.94 0.3
-12 -4 -1 0.7 0.31
12 -4 1 0.7 0.27
12 4 2 0.6 0.31
-12 4 -2 0.71 0.37
12 -4 2 0.78 0.3
-12 -4 -2 0.7 0.29
-12 -4 -2 0.65 0.32
-12 4 -3 -0.33 0.37
12 4 3 0.44 0.34
12 -4 3 -0.21 0.3
-12 -4 -3 0.14 0.32
12 4 4 0.36 0.36
-12 4 -4 0.63 0.41
-12 -4 -4 0.05 0.34
12 -4 4 -0.01 0.31
-12 5 11 3.05 0.48
-12 5 11 2.51 0.45
-12 -5 11 1.56 0.44
-12 5 10 1.2 0.37
-12 5 10 1.49 0.4
-12 -5 10 1.59 0.42
-12 5 9 0.95 0.38
-12 -5 9 0.17 0.34
-12 5 8 3.3 0.45
-12 -5 8 3.9 0.46
-12 5 7 0.06 0.3
-12 -5 7 0.78 0.32
-12 5 6 0.41 0.3
12 5 -6 1.16 0.38
-12 -5 6 0.81 0.32
-12 5 5 2.35 0.41
12 5 -5 2.3 0.43
-12 -5 5 3.58 0.41
-12 5 4 1.13 0.35
12 5 -4 1.44 0.37
-12 -5 4 1.06 0.31
12 -5 -4 1.87 0.3
-12 5 3 -0.48 0.28
-12 5 3 0.26 0.25
12 5 -3 -0.58 0.31
12 -5 -3 0.16 0.24
-12 -5 3 0.16 0.25
-12 -5 3 0.31 0.25
-12 5 2 -0.79 0.26
-12 5 2 -0.55 0.28
12 5 -2 -0.05 0.29
-12 -5 2 0.25 0.27
-12 -5 2 0.1 0.27
12 -5 -2 -0.57 0.22
-12 5 1 -0.32 0.3
-12 5 1 -0.2 0.27
12 5 -1 0.14 0.3
12 -5 -1 0.08 0.26
-12 -5 1 0.65 0.3
-12 -5 1 0.65 0.29
-12 5 0 0.3 0.27
-12 5 0 0.04 0.34
12 5 0 0.97 0.34
-12 -5 0 0.57 0.28
-12 -5 0 0.46 0.32
12 -5 0 0.7 0.28
-12 5 -1 0.8 0.37
12 5 1 0.73 0.34
-12 5 -1 -0.12 0.27
-12 -5 -1 0.99 0.35
12 -5 1 1.22 0.29
-12 -5 -1 0.37 0.29
12 5 2 0.78 0.34
-12 5 -2 0.39 0.38
-12 -5 -2 0.3 0.28
-12 -5 -2 0.43 0.35
12 -5 2 0.52 0.29
-12 5 -3 0.09 0.4
12 5 3 0.11 0.34
-12 -5 -3 0.58 0.35
12 -5 3 0.12 0.3
-12 6 10 0.61 0.38
-12 -6 10 0.74 0.35
-12 6 9 8.2 0.76
-12 -6 9 8.64 0.75
-12 6 8 0.68 0.33
-12 -6 8 0.33 0.34
-12 6 7 0.1 0.34
-12 -6 7 0.43 0.3
12 6 -6 0.78 0.39
-12 6 6 0.57 0.35
-12 -6 6 0.63 0.32
12 6 -5 11.83 0.96
-12 6 5 11.79 0.92
-12 -6 5 11.64 0.88
-12 6 4 0.34 0.29
12 6 -4 -0.21 0.29
-12 -6 4 0.23 0.3
-12 6 3 4.03 0.5
12 6 -3 4.56 0.53
-12 6 3 5.19 0.53
-12 -6 3 5.85 0.48
-12 -6 3 5.45 0.55
-12 6 2 -0.68 0.28
-12 6 2 -0.05 0.3
12 6 -2 0.02 0.3
-12 -6 2 0.06 0.3
-12 -6 2 0.1 0.29
-12 6 1 0.19 0.29
12 6 -1 0.95 0.36
-12 6 1 0.5 0.34
-12 -6 1 0.65 0.3
-12 -6 1 1.03 0.33
12 6 0 -0.03 0.33
-12 6 0 -1.09 0.26
-12 6 0 -0.33 0.33
-12 -6 0 -0.01 0.3
-12 -6 0 0.21 0.34
-12 6 -1 4.67 0.53
12 6 1 5.01 0.51
-12 -6 -1 4.49 0.5
-12 -6 -1 3.44 0.46
12 6 2 0.37 0.34
-12 6 -2 -0.41 0.4
-12 -6 -2 0.34 0.31
-12 -6 -2 0.2 0.37
-12 6 -3 0.17 0.41
12 6 3 0.32 0.35
-12 -6 -3 0.05 0.36
-12 7 10 -0.05 0.38
-12 -7 10 0.34 0.37
-12 7 9 0.07 0.34
-12 -7 9 -0.13 0.36
-12 7 8 2.92 0.47
-12 -7 8 3.34 0.45
-12 7 7 2.32 0.41
-12 -7 7 2.24 0.41
12 7 -6 2.27 0.44
-12 7 6 1.78 0.41
-12 -7 6 1.78 0.39
12 7 -5 0.52 0.38
-12 7 5 0.92 0.36
-12 -7 5 0.15 0.33
12 7 -4 0.06 0.31
-12 7 4 0.52 0.34
-12 -7 4 0.24 0.33
-12 7 3 1.5 0.37
-12 7 3 1.42 0.33
12 7 -3 0.65 0.37
-12 -7 3 2.07 0.33
-12 -7 3 1.43 0.38
-12 7 2 3.54 0.44
12 7 -2 3.24 0.47
-12 7 2 2.54 0.42
-12 -7 2 3.05 0.45
-12 -7 2 4.56 0.42
-12 7 1 -0.65 0.33
12 7 -1 0.75 0.36
-12 7 1 -0.44 0.27
-12 -7 1 0.23 0.33
-12 -7 1 0.45 0.33
-12 7 0 0.39 0.36
12 7 0 1.43 0.36
-12 7 0 0.38 0.3
-12 -7 0 1.8 0.38
-12 -7 0 1.36 0.36
12 7 1 -0.02 0.34
-12 7 -1 -0.5 0.36
-12 -7 -1 0.09 0.33
-12 -7 -1 0.09 0.35
12 7 2 -0.26 0.34
-12 7 -2 -0.57 0.4
-12 -7 -2 0.11 0.37
-12 -7 -2 0.28 0.33
12 7 3 0.5 0.37
-12 7 -3 -0.47 0.45
-12 -7 -3 0.96 0.41
-12 8 9 1.67 0.43
-12 -8 9 1.08 0.41
-12 8 8 4.18 0.52
-12 -8 8 3.79 0.51
-12 8 7 1.64 0.41
-12 -8 7 1.08 0.36
12 8 -6 6.13 0.62
-12 8 6 4.88 0.55
-12 -8 6 5.28 0.59
12 8 -5 -0.23 0.37
-12 8 5 -0.08 0.34
-12 -8 5 0.06 0.35
12 8 -4 -0.02 0.33
-12 8 4 -0.24 0.33
-12 -8 4 0.39 0.35
-12 8 3 6.39 0.62
12 8 -3 3.71 0.55
-12 8 3 5.38 0.54
-12 -8 3 4.78 0.55
-12 -8 3 5.83 0.5
12 8 -2 4.24 0.53
-12 8 2 3.74 0.48
-12 8 2 4.74 0.51
-12 -8 2 4.39 0.52
-12 -8 2 5.48 0.52
12 8 -1 0.43 0.37
-12 8 1 -0.27 0.35
-12 8 1 0.02 0.3
-12 -8 1 0.37 0.36
-12 -8 1 0.42 0.35
12 8 0 0.92 0.36
-12 8 0 -0.31 0.38
-12 8 0 0.02 0.29
-12 -8 0 1.13 0.37
-12 -8 0 0.64 0.36
12 8 1 1.17 0.41
-12 8 -1 -0.14 0.42
-12 -8 -1 1.22 0.38
-12 -8 -1 1.82 0.44
12 8 2 0.51 0.38
-12 8 -2 -0.27 0.42
-12 -8 -2 0.24 0.36
-12 -8 -2 0.64 0.4
-12 9 9 0.23 0.41
-12 -9 9 0.13 0.4
-12 9 8 0.75 0.39
-12 -9 8 0.3 0.39
-12 9 7 0.91 0.42
-12 -9 7 0.54 0.4
12 9 -6 1.03 0.4
-12 9 6 0.89 0.4
-12 -9 6 0.38 0.38
-12 9 5 1.87 0.43
12 9 -5 1.74 0.45
-12 -9 5 0.86 0.4
-12 9 4 0.63 0.34
12 9 -4 -0.45 0.36
-12 -9 4 0.49 0.34
-12 9 3 0.63 0.33
-12 9 3 0.71 0.37
12 9 -3 -0.7 0.35
-12 -9 3 0.8 0.32
-12 -9 3 0.22 0.37
-12 9 2 -0.06 0.35
-12 9 2 -0.21 0.32
12 9 -2 -0.02 0.37
-12 -9 2 0.56 0.34
-12 -9 2 0.53 0.37
-12 9 1 -0.05 0.35
-12 9 1 0.36 0.34
12 9 -1 -0.41 0.37
-12 -9 1 -0.02 0.36
-12 -9 1 -0.23 0.32
12 9 0 -0.07 0.38
-12 9 0 -0.59 0.37
-12 9 0 0.33 0.32
-12 -9 0 0.07 0.38
-12 -9 0 -0.5 0.37
12 9 1 0.08 0.35
-12 9 -1 -1.36 0.4
-12 -9 -1 0.68 0.44
-12 -9 -1 0.41 0.39
-12 9 -2 0.16 0.44
-12 -9 -2 0.77 0.4
-12 10 8 0.47 0.41
-12 -10 8 -0.13 0.39
-12 10 7 1.26 0.4
-12 -10 7 0.78 0.42
-12 10 6 5.88 0.62
12 10 -6 5.93 0.62
-12 -10 6 4.56 0.6
-12 10 5 0.53 0.37
12 10 -5 0.99 0.43
-12 -10 5 0.93 0.41
12 10 -4 0.5 0.41
-12 10 4 1.24 0.41
-12 -10 4 0.98 0.4
-12 10 3 1.29 0.37
12 10 -3 -0.05 0.35
-12 10 3 1.15 0.39
-12 -10 3 0.64 0.4
12 10 -2 0.57 0.41
-12 10 2 0.96 0.4
-12 10 2 1.45 0.4
-12 -10 2 1.51 0.38
-12 -10 2 1.17 0.42
-12 10 1 0.62 0.39
-12 10 1 0.1 0.36
12 10 -1 0.13 0.37
-12 -10 1 0.32 0.39
-12 -10 1 0.64 0.4
-12 10 0 2.86 0.43
-12 10 0 2.54 0.5
12 10 0 3.19 0.51
-12 -10 0 3.67 0.52
-12 -10 0 3.34 0.51
12 10 1 3.69 0.52
-12 10 -1 1.33 0.52
-12 -10 -1 2.69 0.49
-12 -10 -1 2.76 0.5
-12 11 7 0.26 0.41
-12 -11 7 0.08 0.42
-12 11 6 2.61 0.5
12 11 -6 2.74 0.52
-12 -11 6 2.11 0.46
-12 11 5 0.71 0.39
12 11 -5 0.3 0.44
-12 -11 5 0.7 0.38
12 11 -4 0.95 0.45
-12 11 4 2.82 0.48
-12 -11 4 1.88 0.45
-12 11 3 0.49 0.38
-12 11 3 0.57 0.39
12 11 -3 -1.09 0.36
-12 -11 3 0.06 0.4
-12 11 2 -0.22 0.38
12 11 -2 0.02 0.37
-12 11 2 0.58 0.37
-12 -11 2 0.03 0.39
-12 -11 2 0.04 0.41
-12 11 1 0.18 0.43
12 11 -1 0.05 0.42
-12 11 1 0.91 0.39
-12 -11 1 0.52 0.42
-12 -11 1 0.83 0.42
12 12 -5 1.27 0.47
-12 12 5 1.14 0.41
-12 -12 5 0.74 0.43
12 12 -4 0.06 0.44
-12 12 4 0.74 0.42
-12 -12 4 0.97 0.41
-12 12 3 4.48 0.55
-12 12 3 3.18 0.5
-12 -12 3 2.96 0.54
-12 12 2 0.33 0.42
-13 0 11 -0.61 0.35
-13 0 10 1.8 0.43
-13 0 9 -0.45 0.31
-13 0 8 2 0.4
-13 0 7 0.11 0.28
-13 0 6 18.13 1.18
13 0 -6 17.85 1.24
13 0 -5 -0.49 0.3
-13 0 5 -0.02 0.27
13 0 -4 0.1 0.31
-13 0 4 0.58 0.29
-13 0 3 0.1 0.27
13 0 -3 -0.31 0.29
13 0 -2 2.07 0.38
-13 0 2 2.83 0.36
-13 0 2 2.77 0.36
-13 0 1 -0.15 0.25
13 0 -1 0.2 0.31
-13 0 1 0 0.27
-13 0 0 3.01 0.39
-13 0 0 3.52 0.38
13 0 0 2.45 0.4
-13 0 -1 0.21 0.32
13 0 1 -0.06 0.3
-13 0 -1 -0.11 0.26
13 0 2 0.15 0.32
-13 0 -2 0.12 0.32
-13 0 -3 0.04 0.34
13 0 3 0.54 0.33
-13 1 11 -0.55 0.36
-13 -1 11 -0.54 0.36
-13 1 10 -0.43 0.35
-13 -1 10 -0.45 0.35
-13 1 9 -0.57 0.34
-13 -1 9 0.23 0.36
-13 1 8 -0.12 0.33
-13 -1 8 0.4 0.3
-13 1 7 -0.07 0.31
-13 -1 7 -0.01 0.3
-13 1 6 2.12 0.39
13 1 -6 1.9 0.41
-13 -1 6 2.28 0.36
13 1 -5 -0.75 0.31
-13 1 5 0.42 0.27
13 -1 -5 0.21 0.31
-13 -1 5 -0.18 0.27
13 1 -4 -0.62 0.3
-13 1 4 0.23 0.28
13 -1 -4 -0.51 0.28
-13 -1 4 -0.02 0.26
13 1 -3 1.37 0.36
-13 1 3 1.91 0.33
-13 -1 3 1.86 0.31
13 -1 -3 1.4 0.34
-13 1 2 1.97 0.32
-13 1 2 1.99 0.34
13 1 -2 1.71 0.37
13 -1 -2 1.52 0.35
-13 -1 2 2.4 0.32
-13 -1 2 2.41 0.34
13 1 -1 0.11 0.28
-13 1 1 0.13 0.28
-13 1 1 0.1 0.26
13 -1 -1 0.07 0.3
-13 -1 1 0.13 0.26
-13 -1 1 0.17 0.27
13 1 0 1.67 0.37
-13 1 0 1.96 0.34
-13 1 0 2.09 0.33
13 -1 0 1.56 0.36
-13 -1 0 2.24 0.33
-13 -1 0 2.41 0.34
13 1 1 0.17 0.31
-13 1 -1 0.5 0.33
-13 1 -1 -0.02 0.26
13 -1 1 0.12 0.3
-13 -1 -1 0.35 0.32
-13 -1 -1 0 0.27
-13 1 -2 0.52 0.35
13 1 2 -0.04 0.31
-13 -1 -2 0.1 0.31
13 -1 2 0.33 0.31
13 1 3 -0.22 0.33
-13 1 -3 0.48 0.37
13 -1 3 0.53 0.33
-13 -1 -3 0.06 0.34
-13 2 11 -0.02 0.38
-13 -2 11 0.12 0.38
-13 2 10 -0.12 0.36
-13 -2 10 -0.29 0.35
-13 2 9 3.1 0.49
-13 -2 9 4.21 0.49
-13 2 8 -0.34 0.33
-13 -2 8 0.03 0.33
-13 2 7 0.24 0.34
-13 -2 7 1.36 0.34
-13 2 6 0.49 0.31
13 2 -6 1.24 0.38
-13 -2 6 1.31 0.31
-13 2 5 -0.03 0.28
13 2 -5 -0.44 0.32
13 -2 -5 -0.18 0.29
-13 -2 5 0.04 0.27
-13 2 4 0.28 0.3
13 2 -4 -0.54 0.31
13 -2 -4 -0.34 0.28
-13 -2 4 0.02 0.24
13 2 -3 0.45 0.34
-13 2 3 0.75 0.28
13 -2 -3 0.1 0.3
-13 -2 3 1.13 0.29
13 2 -2 -0.25 0.31
-13 2 2 -0.06 0.28
-13 2 2 -0.23 0.27
-13 -2 2 0.3 0.26
-13 -2 2 -0.06 0.25
13 -2 -2 0.17 0.29
-13 2 1 0.04 0.28
-13 2 1 0.18 0.3
13 2 -1 0.24 0.32
-13 -2 1 0 0.27
-13 -2 1 0.16 0.25
13 -2 -1 -0.14 0.28
13 2 0 0.32 0.33
-13 2 0 0.66 0.33
-13 2 0 0.05 0.27
-13 -2 0 0.33 0.26
-13 -2 0 0.67 0.31
13 -2 0 0.3 0.3
13 2 1 0.88 0.34
-13 2 -1 0.9 0.33
-13 -2 -1 0.6 0.32
-13 -2 -1 0.36 0.27
13 -2 1 0.64 0.31
-13 2 -2 1.54 0.38
13 2 2 1.29 0.37
13 -2 2 2.04 0.36
-13 -2 -2 1.74 0.37
-13 2 -3 -0.08 0.37
13 2 3 0.37 0.35
-13 -2 -3 0.18 0.36
13 -2 3 0.24 0.32
-13 3 10 0.92 0.4
-13 -3 10 1.05 0.4
-13 3 9 0.23 0.36
-13 -3 9 0.53 0.34
-13 3 8 1.2 0.4
-13 -3 8 3.05 0.43
-13 3 7 1.23 0.37
-13 -3 7 1.93 0.34
-13 3 6 -0.49 0.31
13 3 -6 0.1 0.36
-13 -3 6 0.27 0.29
13 3 -5 4.03 0.52
-13 3 5 4.22 0.49
-13 -3 5 4.63 0.46
13 -3 -5 4.42 0.46
13 3 -4 3.29 0.45
-13 3 4 4.6 0.48
13 -3 -4 3.11 0.43
-13 -3 4 3.96 0.41
-13 3 3 3.63 0.44
13 3 -3 3.15 0.43
13 -3 -3 2.98 0.41
-13 -3 3 3.74 0.4
13 3 -2 1.39 0.37
-13 3 2 0.93 0.33
-13 3 2 1.12 0.32
-13 -3 2 1.4 0.31
13 -3 -2 1.36 0.31
-13 -3 2 1.39 0.28
-13 3 1 -0.37 0.3
-13 3 1 -0.04 0.28
13 3 -1 0.25 0.3
13 -3 -1 0.01 0.28
-13 -3 1 0.19 0.27
-13 -3 1 0.27 0.27
-13 3 0 0.47 0.31
-13 3 0 -0.11 0.33
13 3 0 0.3 0.33
-13 -3 0 0.79 0.31
13 -3 0 0.33 0.29
-13 -3 0 0.42 0.27
13 3 1 0.57 0.34
-13 3 -1 0.78 0.35
-13 -3 -1 0.49 0.28
13 -3 1 1.04 0.31
-13 -3 -1 1.01 0.33
-13 3 -2 0.76 0.37
13 3 2 0.34 0.34
13 -3 2 0.7 0.31
-13 -3 -2 0.83 0.35
13 3 3 0.21 0.35
-13 3 -3 -0.38 0.38
-13 -3 -3 0.31 0.37
13 -3 3 0.16 0.31
-13 4 10 -0.04 0.34
-13 -4 10 -0.14 0.37
-13 4 9 -0.29 0.33
-13 -4 9 -0.12 0.35
-13 4 8 -0.03 0.35
-13 -4 8 0.11 0.33
-13 4 7 0.47 0.32
-13 -4 7 1.2 0.31
13 4 -6 5.85 0.6
-13 4 6 3.7 0.5
-13 -4 6 5.98 0.58
-13 4 5 -0.06 0.33
13 4 -5 -0.68 0.34
-13 -4 5 0.08 0.26
13 4 -4 -0.98 0.32
-13 4 4 -0.16 0.32
-13 -4 4 0.28 0.28
13 -4 -4 0 0.27
-13 4 3 1.42 0.36
13 4 -3 1.65 0.36
-13 -4 3 1.23 0.32
13 -4 -3 1.08 0.32
-13 4 2 -0.21 0.3
13 4 -2 -0.33 0.29
-13 4 2 -0.64 0.31
-13 -4 2 0.03 0.27
13 -4 -2 -0.06 0.26
-13 -4 2 0.04 0.27
13 4 -1 0.88 0.35
-13 4 1 0.21 0.31
-13 4 1 -0.03 0.32
13 -4 -1 0.72 0.31
-13 -4 1 0.56 0.29
-13 -4 1 0.54 0.29
-13 4 0 3.12 0.47
-13 4 0 4.12 0.44
13 4 0 4.26 0.46
-13 -4 0 3.43 0.41
13 -4 0 4.44 0.45
-13 -4 0 3.4 0.42
13 4 1 0.92 0.35
-13 4 -1 0.44 0.36
-13 -4 -1 0.44 0.3
13 -4 1 0.85 0.3
-13 -4 -1 0.38 0.3
13 4 2 0.59 0.36
-13 4 -2 0.59 0.41
13 -4 2 0.62 0.32
-13 5 10 0.92 0.42
-13 -5 10 0.75 0.41
-13 5 9 0.98 0.38
-13 -5 9 0.93 0.38
-13 5 8 1.99 0.42
-13 -5 8 3.34 0.45
-13 5 7 2.52 0.45
-13 -5 7 3.14 0.43
-13 5 6 2.56 0.46
13 5 -6 3.72 0.5
-13 -5 6 3.61 0.44
-13 5 5 -0.4 0.33
13 5 -5 -0.12 0.37
-13 -5 5 0.75 0.3
-13 5 4 -0.38 0.32
13 5 -4 -0.75 0.34
13 -5 -4 -0.12 0.27
-13 -5 4 0.34 0.3
13 5 -3 2.72 0.44
-13 5 3 2.1 0.4
-13 -5 3 2.2 0.38
13 5 -2 4.73 0.53
-13 5 2 4.1 0.48
-13 5 2 3.57 0.47
-13 -5 2 4.28 0.46
-13 -5 2 4.88 0.5
-13 5 1 1.16 0.37
-13 5 1 0.96 0.34
13 5 -1 1.26 0.39
-13 -5 1 1.21 0.33
-13 -5 1 1.16 0.33
-13 5 0 -0.65 0.28
13 5 0 0.12 0.32
-13 5 0 -0.38 0.36
-13 -5 0 0.38 0.29
-13 -5 0 0.33 0.31
13 5 1 0.25 0.35
-13 5 -1 -0.07 0.39
-13 -5 -1 0.04 0.31
-13 -5 -1 0.25 0.32
-13 5 -2 0.26 0.4
13 5 2 0.86 0.34
-13 -5 -2 0.23 0.34
-13 6 10 0.41 0.37
-13 6 9 0.11 0.4
-13 -6 9 -0.03 0.36
-13 6 8 -0.1 0.37
-13 -6 8 0.14 0.35
-13 6 7 0.97 0.4
-13 -6 7 1.51 0.35
13 6 -6 0.1 0.36
-13 6 6 -0.3 0.32
-13 -6 6 0.28 0.31
-13 6 5 -0.04 0.32
13 6 -5 0.93 0.41
-13 -6 5 0.94 0.34
13 6 -4 0.15 0.34
-13 6 4 0.17 0.35
-13 -6 4 1.12 0.32
13 6 -3 1.35 0.37
-13 6 3 0.31 0.35
-13 -6 3 0.6 0.33
-13 6 2 -0.77 0.31
13 6 -2 0 0.36
-13 6 2 -0.25 0.32
-13 -6 2 0.55 0.3
-13 -6 2 0.1 0.32
-13 6 1 -0.43 0.35
-13 6 1 0.25 0.32
13 6 -1 0.99 0.39
-13 -6 1 0.88 0.34
-13 -6 1 0.41 0.32
-13 6 0 -0.49 0.38
-13 6 0 -0.32 0.29
13 6 0 0.1 0.36
-13 -6 0 -0.02 0.31
-13 -6 0 0.13 0.34
13 6 1 0.55 0.34
-13 6 -1 -0.35 0.4
-13 -6 -1 -0.3 0.33
-13 -6 -1 0.37 0.32
-13 6 -2 -0.49 0.4
13 6 2 0.37 0.37
-13 -6 -2 -0.01 0.35
-13 -6 -2 0.37 0.32
-13 7 9 1.12 0.43
-13 -7 9 0.82 0.41
-13 7 8 1.38 0.43
-13 -7 8 1.56 0.42
-13 7 7 0.16 0.38
-13 -7 7 0.46 0.33
13 7 -6 1.05 0.4
-13 7 6 0.51 0.39
-13 -7 6 1.04 0.34
-13 7 5 3.16 0.5
13 7 -5 3.14 0.52
-13 -7 5 4.59 0.5
-13 7 4 1.63 0.42
13 7 -4 1.17 0.43
-13 -7 4 2.49 0.42
13 7 -3 0.2 0.35
-13 7 3 -0.78 0.34
-13 -7 3 0.15 0.35
13 7 -2 0.94 0.4
-13 7 2 0.12 0.35
-13 7 2 -0.23 0.33
-13 -7 2 1.41 0.36
-13 -7 2 1.11 0.38
-13 7 1 0.43 0.39
13 7 -1 1.52 0.38
-13 7 1 0.17 0.33
-13 -7 1 2.01 0.39
-13 -7 1 1.65 0.4
-13 7 0 1.52 0.46
13 7 0 2.5 0.43
-13 -7 0 2.64 0.43
-13 -7 0 2.69 0.44
13 7 1 0.16 0.38
-13 7 -1 -0.35 0.42
-13 -7 -1 0.04 0.38
-13 -7 -1 0.4 0.38
-13 8 8 2.83 0.5
-13 -8 8 1.95 0.43
-13 8 7 1.12 0.44
-13 -8 7 2.24 0.44
13 8 -6 0.39 0.43
-13 8 6 0.08 0.39
-13 -8 6 0.55 0.37
13 8 -5 0.6 0.44
-13 8 5 1.43 0.42
-13 -8 5 1.17 0.38
-13 8 4 1.44 0.42
13 8 -4 1.04 0.44
-13 -8 4 1.86 0.4
13 8 -3 -0.24 0.37
-13 8 3 0.07 0.36
-13 -8 3 0.02 0.34
-13 8 2 -0.61 0.32
13 8 -2 0.3 0.35
-13 8 2 -0.46 0.35
-13 -8 2 -0.17 0.37
-13 -8 2 0.81 0.34
-13 8 1 -0.07 0.36
13 8 -1 0.43 0.4
-13 8 1 -0.48 0.31
-13 -8 1 1.28 0.38
-13 -8 1 0.26 0.39
-13 8 0 -0.16 0.42
13 8 0 0.84 0.41
-13 -8 0 1.3 0.42
-13 -8 0 1.24 0.41
-13 9 7 0.32 0.41
-13 -9 7 0.26 0.4
-13 9 6 1.14 0.44
13 9 -6 1.33 0.47
-13 -9 6 1.03 0.42
-13 9 5 0.33 0.4
13 9 -5 -0.3 0.42
-13 -9 5 -0.05 0.38
-13 9 4 1.82 0.44
13 9 -4 0.71 0.41
-13 -9 4 1.91 0.42
13 9 -3 1.13 0.44
-13 9 3 1.38 0.42
-13 -9 3 1.36 0.43
-13 9 2 0.45 0.39
-13 9 2 0.05 0.36
13 9 -2 1.05 0.43
-13 -9 2 0.42 0.41
-13 9 1 -0.37 0.39
-13 9 1 -0.57 0.33
13 9 -1 -0.06 0.41
-13 -9 1 0.26 0.39
-13 -9 1 -0.34 0.39
-13 9 0 -0.44 0.43
-13 -9 0 0 0.4
13 10 -6 1.48 0.5
-13 10 6 1.7 0.48
-13 -10 6 0.9 0.45
13 10 -5 0.27 0.46
-13 10 5 0.78 0.44
-13 -10 5 0.83 0.4
-13 10 4 1.06 0.44
13 10 -4 -0.11 0.44
-13 -10 4 0.4 0.42
-13 10 3 -0.1 0.38
13 10 -3 -0.57 0.41
-13 -10 3 0.61 0.4
-13 10 2 2.03 0.45
-13 10 2 1.68 0.45
13 10 -2 1.67 0.48
-13 -10 2 1.4 0.47
-14 0 10 -0.36 0.39
-14 0 9 -0.08 0.34
-14 0 8 5.32 0.55
-14 0 7 -0.21 0.3
14 0 -6 1.19 0.41
-14 0 6 1.85 0.36
-14 0 5 0.11 0.29
14 0 -5 -0.95 0.32
14 0 -4 6 0.6
-14 0 4 6.47 0.63
14 0 -3 -0.26 0.32
-14 0 3 0.01 0.28
-14 0 2 1.51 0.33
14 0 -2 2.37 0.4
-14 0 1 0.24 0.29
-14 0 1 -0.08 0.29
14 0 -1 0.03 0.33
14 0 0 1.93 0.4
-14 0 0 2.2 0.35
-14 0 0 1.76 0.35
14 0 1 -0.03 0.35
-14 0 -1 0.25 0.34
-14 1 10 -0.67 0.38
-14 -1 10 -0.31 0.39
-14 1 9 -0.06 0.38
-14 -1 9 0.97 0.4
-14 1 8 -0.59 0.34
-14 -1 8 -0.06 0.33
-14 1 7 0.21 0.34
-14 -1 7 -0.4 0.31
-14 1 6 -0.47 0.31
14 1 -6 -0.3 0.36
-14 -1 6 0.17 0.31
-14 1 5 0.48 0.32
14 1 -5 -0.62 0.34
14 -1 -5 -0.68 0.32
-14 -1 5 0.29 0.3
-14 1 4 0.7 0.32
14 1 -4 0.24 0.35
14 -1 -4 -0.24 0.35
-14 -1 4 0.43 0.3
14 1 -3 2.07 0.41
-14 1 3 1.69 0.36
14 -1 -3 2.05 0.4
-14 -1 3 2.68 0.37
-14 1 2 -0.01 0.29
14 1 -2 -0.12 0.33
14 -1 -2 -0.06 0.32
-14 -1 2 0.37 0.29
-14 1 1 0.04 0.29
-14 1 1 0 0.3
14 1 -1 -0.12 0.32
-14 -1 1 0.19 0.28
14 -1 -1 0.02 0.32
-14 -1 1 0.14 0.3
14 1 0 0.33 0.35
-14 1 0 0.13 0.3
-14 1 0 0.25 0.29
-14 -1 0 0.08 0.27
-14 -1 0 -0.04 0.31
14 -1 0 0.33 0.33
14 1 1 0 0.33
-14 1 -1 0.16 0.34
-14 -1 -1 0.18 0.34
14 -1 1 0.07 0.32
-14 2 10 -0.45 0.39
-14 -2 10 -0.44 0.38
-14 2 9 -0.01 0.39
-14 -2 9 0.99 0.39
-14 2 8 -0.08 0.37
-14 -2 8 1.19 0.38
-14 2 7 4.25 0.54
-14 -2 7 5.66 0.56
-14 2 6 2.56 0.42
14 2 -6 2.02 0.46
-14 -2 6 1.94 0.36
-14 2 5 4.42 0.49
-14 -2 5 4.28 0.47
14 -2 -5 3.29 0.47
-14 2 4 -0.02 0.32
14 2 -4 0.23 0.36
-14 -2 4 0.36 0.27
14 -2 -4 -0.43 0.31
14 2 -3 -0.42 0.34
-14 2 3 -0.17 0.31
14 -2 -3 -0.32 0.32
-14 -2 3 -0.12 0.28
-14 2 2 1.18 0.35
14 2 -2 0.94 0.34
-14 -2 2 1.69 0.33
14 -2 -2 0.95 0.34
14 2 -1 3.62 0.48
-14 2 1 3.95 0.44
-14 2 1 3.28 0.44
-14 -2 1 3.65 0.42
-14 -2 1 3.8 0.42
14 -2 -1 3.6 0.45
14 2 0 -0.05 0.35
-14 2 0 -0.08 0.31
-14 2 0 -0.16 0.32
-14 -2 0 -0.08 0.31
-14 -2 0 0.18 0.29
14 -2 0 0.27 0.34
14 2 1 1.49 0.39
-14 2 -1 1.81 0.41
-14 -2 -1 1.81 0.38
14 -2 1 1.57 0.37
-14 3 9 -0.88 0.33
-14 -3 9 0.46 0.35
-14 3 8 -0.66 0.32
-14 -3 8 0.01 0.34
-14 3 7 -0.43 0.35
-14 -3 7 0.2 0.31
14 3 -6 1.64 0.45
-14 3 6 1.36 0.4
-14 -3 6 1.87 0.34
-14 3 5 -0.42 0.29
14 3 -5 -0.96 0.36
14 -3 -5 -0.58 0.33
-14 -3 5 -0.18 0.28
14 3 -4 -0.08 0.37
-14 3 4 -0.12 0.33
14 -3 -4 -0.19 0.33
-14 -3 4 0.68 0.3
14 3 -3 0.89 0.38
-14 3 3 0.43 0.34
-14 -3 3 0.58 0.3
14 -3 -3 0.28 0.33
14 3 -2 1.25 0.39
-14 3 2 0.82 0.34
-14 -3 2 1.05 0.32
14 -3 -2 0.92 0.33
-14 3 1 0.23 0.34
14 3 -1 0.88 0.34
-14 3 1 0.79 0.33
-14 -3 1 0.68 0.32
-14 -3 1 0.9 0.31
14 -3 -1 0.74 0.32
-14 3 0 0.79 0.35
-14 3 0 1.06 0.34
14 3 0 1.19 0.39
-14 -3 0 1.11 0.31
14 -3 0 0.98 0.34
-14 -3 0 1.29 0.34
14 3 1 -0.06 0.36
-14 3 -1 0.28 0.36
-14 -3 -1 0.22 0.35
-14 -3 -1 0.13 0.28
14 -3 1 0.92 0.35
-14 4 9 0.48 0.42
-14 -4 9 1.13 0.41
-14 4 8 -0.39 0.38
-14 -4 8 0.28 0.33
-14 4 7 -0.63 0.35
-14 -4 7 0.04 0.31
-14 4 6 -0.58 0.35
14 4 -6 -0.34 0.4
-14 -4 6 0.19 0.28
14 4 -5 -0.27 0.39
-14 4 5 0.78 0.38
-14 -4 5 1.2 0.33
14 -4 -5 0.54 0.32
-14 4 4 0.88 0.35
14 4 -4 0.65 0.37
-14 -4 4 1.16 0.32
14 -4 -4 0.37 0.34
-14 4 3 0.35 0.35
14 4 -3 0.73 0.39
-14 -4 3 1.07 0.32
14 -4 -3 0.02 0.3
14 4 -2 0.02 0.33
-14 4 2 -0.52 0.32
-14 -4 2 0.32 0.3
14 -4 -2 -0.52 0.28
14 4 -1 2.57 0.44
-14 4 1 1.72 0.38
-14 4 1 2.45 0.42
-14 -4 1 2.04 0.35
14 -4 -1 1.91 0.38
-14 -4 1 1.69 0.35
-14 4 0 -0.6 0.3
-14 4 0 -0.4 0.36
14 4 0 0.02 0.37
-14 -4 0 0.39 0.32
14 -4 0 0.03 0.32
-14 -4 0 -0.18 0.32
-14 4 -1 -0.2 0.39
14 4 1 0.32 0.37
-14 -4 -1 0.58 0.33
-14 -4 -1 0.04 0.29
-14 5 9 3.42 0.56
-14 -5 9 5.15 0.55
-14 5 8 0.74 0.42
-14 -5 8 2.06 0.41
-14 5 7 -0.03 0.38
-14 -5 7 0.53 0.34
14 5 -6 -0.42 0.37
-14 5 6 -0.41 0.36
-14 -5 6 0.27 0.33
-14 5 5 0.67 0.39
14 5 -5 -0.03 0.38
-14 -5 5 1.38 0.35
14 5 -4 1.32 0.41
-14 5 4 1.37 0.42
-14 -5 4 2.51 0.39
14 5 -3 1.59 0.44
-14 5 3 1.97 0.42
-14 -5 3 2.01 0.35
14 5 -2 -0.37 0.37
-14 5 2 -0.15 0.34
-14 -5 2 0.09 0.31
-14 5 1 0.09 0.33
14 5 -1 0.23 0.35
-14 5 1 -0.4 0.37
-14 -5 1 0.69 0.33
-14 -5 1 -0.03 0.31
14 5 0 1.05 0.4
-14 5 0 0.85 0.42
-14 -5 0 0.67 0.33
-14 -5 0 0.83 0.34
-14 6 8 1.15 0.45
-14 -6 8 1.9 0.42
-14 6 7 0.18 0.41
-14 -6 7 2.48 0.42
-14 6 6 -0.2 0.34
14 6 -6 0.09 0.4
-14 -6 6 0.69 0.35
-14 6 5 -0.43 0.36
14 6 -5 -0.79 0.36
-14 -6 5 0.24 0.34
14 6 -4 -0.52 0.39
-14 6 4 -0.3 0.36
-14 -6 4 0.83 0.35
-14 6 3 -0.34 0.35
14 6 -3 -0.49 0.37
-14 -6 3 0.3 0.34
-14 6 2 -0.05 0.36
14 6 -2 0.1 0.39
-14 -6 2 0.45 0.34
-14 6 1 -0.13 0.39
-14 6 1 0.14 0.37
14 6 -1 -0.31 0.34
-14 -6 1 0.53 0.34
-14 -6 1 0.21 0.33
14 6 0 0.1 0.39
-14 6 0 -0.15 0.39
-14 -6 0 0.34 0.36
-14 -6 0 0.66 0.34
-14 7 7 0.9 0.41
-14 -7 7 1.74 0.4
-14 7 6 0.35 0.38
14 7 -6 0.71 0.46
-14 -7 6 1.39 0.4
14 7 -5 -1.21 0.4
-14 7 5 -0.78 0.38
-14 -7 5 0.11 0.35
14 7 -4 -0.45 0.37
-14 7 4 -1.38 0.35
-14 -7 4 0.56 0.36
14 7 -3 3.56 0.51
-14 7 3 3.48 0.52
-14 -7 3 3.63 0.49
14 7 -2 0.16 0.41
-14 7 2 0.08 0.37
-14 -7 2 0.93 0.38
-14 7 1 -0.11 0.36
-14 7 1 -0.11 0.4
14 7 -1 -0.06 0.4
-14 -7 1 0.9 0.37
-14 -7 1 1.09 0.38
14 8 -6 0.03 0.46
-14 8 6 -0.18 0.37
-14 -8 6 0.17 0.34
-14 8 5 -0.43 0.4
14 8 -5 -0.93 0.42
-14 -8 5 1.03 0.39
-14 8 4 -1.18 0.37
14 8 -4 -0.46 0.38
-14 -8 4 0.03 0.37
14 8 -3 -0.27 0.41
-14 8 3 -0.69 0.37
-14 -8 3 0.12 0.35
14 8 -2 0.01 0.41
-14 8 2 -0.47 0.36
-14 -8 2 0.02 0.39
-15 0 8 0.59 0.38
-15 0 7 0.06 0.32
-15 0 6 0.35 0.33
15 0 -6 -0.42 0.39
-15 0 5 -0.47 0.27
15 0 -5 -0.55 0.36
-15 0 4 1.76 0.34
15 0 -4 2.14 0.45
-15 0 3 -0.12 0.3
15 0 -3 -0.39 0.35
-15 0 2 1.86 0.36
15 0 -2 2.17 0.44
-15 0 1 0.2 0.3
15 0 -1 0.07 0.37
-15 1 8 -0.52 0.34
-15 -1 8 0.15 0.36
-15 1 7 1.18 0.39
-15 -1 7 1.24 0.37
-15 1 6 1.46 0.38
15 1 -6 0.41 0.42
-15 -1 6 1.12 0.35
15 -1 -6 0.42 0.4
15 1 -5 -0.21 0.39
-15 1 5 0.45 0.34
15 -1 -5 -0.38 0.36
-15 -1 5 0.41 0.32
15 1 -4 1.4 0.42
-15 1 4 1.17 0.33
15 -1 -4 1.27 0.4
-15 -1 4 1.29 0.35
15 1 -3 -0.23 0.36
-15 1 3 -0.4 0.3
-15 -1 3 -0.35 0.29
15 -1 -3 -0.36 0.33
-15 1 2 0.06 0.31
15 1 -2 0.42 0.36
15 -1 -2 0.11 0.35
-15 -1 2 0.42 0.32
-15 1 1 0.23 0.33
15 1 -1 0.57 0.37
15 -1 -1 0.22 0.35
-15 -1 1 0.28 0.32
-15 2 8 0.51 0.41
-15 -2 8 1.31 0.36
-15 2 7 2.52 0.45
-15 -2 7 2.4 0.42
-15 2 6 0.37 0.34
15 2 -6 -0.32 0.4
-15 -2 6 0.6 0.33
15 2 -5 -0.53 0.39
-15 2 5 -0.03 0.35
-15 -2 5 0.51 0.32
15 -2 -5 -0.45 0.35
15 2 -4 0.5 0.37
-15 2 4 0.51 0.32
-15 -2 4 1.2 0.34
15 -2 -4 0.32 0.36
15 2 -3 3.37 0.49
-15 2 3 3.12 0.44
15 -2 -3 2.91 0.45
-15 -2 3 2.93 0.41
15 2 -2 0.32 0.38
-15 2 2 -0.33 0.33
-15 -2 2 0.25 0.31
15 -2 -2 -0.03 0.33
-15 2 1 1.09 0.35
15 2 -1 0.98 0.38
15 -2 -1 0.78 0.36
-15 -2 1 0.6 0.33
-15 3 8 -0.41 0.39
-15 -3 8 -0.15 0.36
-15 3 7 1.3 0.44
-15 -3 7 2.05 0.38
-15 3 6 -0.35 0.36
15 3 -6 -0.71 0.42
-15 -3 6 0.17 0.33
15 3 -5 -0.67 0.36
-15 3 5 0.1 0.36
15 -3 -5 -0.65 0.33
-15 -3 5 0.48 0.32
-15 3 4 -0.1 0.34
15 3 -4 -0.35 0.39
15 -3 -4 -0.45 0.34
-15 -3 4 0 0.3
15 3 -3 0.28 0.35
-15 3 3 -0.17 0.34
15 -3 -3 -0.38 0.32
-15 -3 3 -0.21 0.3
-15 3 2 0.18 0.34
15 3 -2 0.14 0.38
15 -3 -2 0.06 0.34
-15 -3 2 0.08 0.3
-15 3 1 -0.16 0.33
15 3 -1 0.07 0.34
15 -3 -1 0.05 0.34
-15 -3 1 0.05 0.3
-15 4 7 1.09 0.41
-15 -4 7 1.31 0.38
15 4 -6 1.08 0.48
-15 4 6 1.44 0.44
-15 -4 6 2.49 0.4
-15 4 5 1.09 0.42
15 4 -5 1.06 0.46
-15 -4 5 1.63 0.36
15 4 -4 0.62 0.39
-15 4 4 1.1 0.4
-15 -4 4 0.57 0.3
15 4 -3 0.41 0.41
-15 4 3 0.29 0.36
-15 -4 3 0.09 0.31
15 4 -2 0.64 0.41
-15 4 2 0.78 0.38
-15 -4 2 1.12 0.35
15 5 -6 -1.19 0.43
-15 5 6 -0.48 0.39
-15 -5 6 0.36 0.34
15 5 -5 -0.1 0.44
-15 5 5 0.64 0.41
-15 -5 5 1.12 0.35
15 5 -4 1.13 0.42
-15 5 4 0.32 0.4
-15 -5 4 0.71 0.35
-15 5 3 0.03 0.38
15 5 -3 -0.13 0.4
-15 -5 3 0.13 0.33
-15 6 5 0.85 0.44
-15 -6 5 1.61 0.39
-15 6 4 0.61 0.42
-15 -6 4 1.23 0.38
