#------------------------------------------------------------------------------
#$Date: 2017-09-12 05:49:33 +0300 (Tue, 12 Sep 2017) $
#$Revision: 200523 $
#$URL: file:///home/coder/svn-repositories/cod/cif/1/54/70/1547014.cif $
#------------------------------------------------------------------------------
#
# This file is available in the Crystallography Open Database (COD),
# http://www.crystallography.net/
#
# All data on this site have been placed in the public domain by the
# contributors.
#
data_1547014
loop_
_publ_author_name
'Fan, Xing'
'Yu, Liu-Zhu'
'Wei, Yin'
'Shi, Min'
_publ_section_title
;
 Cascade Amination/Cyclization/Aromatization Process for the Rapid
 Construction of [2,3-c]Dihydrocarbazoles and [2,3-c]Carbazoles.
;
_journal_issue                   17
_journal_name_full               'Organic letters'
_journal_page_first              4476
_journal_page_last               4479
_journal_paper_doi               10.1021/acs.orglett.7b01957
_journal_volume                  19
_journal_year                    2017
_chemical_formula_sum            'C19 H19 N O4 S'
_chemical_formula_weight         357.41
_chemical_name_systematic
; 
 ? 
;
_space_group_crystal_system      monoclinic
_space_group_IT_number           15
_space_group_name_Hall           '-C 2yc'
_space_group_name_H-M_alt        'C 1 2/c 1'
_symmetry_space_group_name_Hall  '-C 2yc'
_symmetry_space_group_name_H-M   'C 1 2/c 1'
_atom_sites_solution_hydrogens   geom
_audit_creation_method           SHELXL-2013
_cell_angle_alpha                90
_cell_angle_beta                 117.639(3)
_cell_angle_gamma                90
_cell_formula_units_Z            8
_cell_length_a                   25.017(4)
_cell_length_b                   5.7228(10)
_cell_length_c                   26.740(5)
_cell_measurement_reflns_used    3412
_cell_measurement_temperature    293(2)
_cell_measurement_theta_max      55.995
_cell_measurement_theta_min      6.089
_cell_volume                     3391.4(10)
_computing_cell_refinement       'Bruker SMART'
_computing_data_collection       'Bruker SMART'
_computing_data_reduction        'Bruker SHELXTL'
_computing_molecular_graphics    'Bruker SHELXTL'
_computing_publication_material  'Bruker SHELXTL'
_computing_structure_refinement  'SHELXL-2013 (Sheldrick, 2013)'
_computing_structure_solution    'Bruker SHELXTL'
_diffrn_ambient_temperature      293(2)
_diffrn_measured_fraction_theta_full 0.999
_diffrn_measured_fraction_theta_max 0.999
_diffrn_measurement_device_type  'CCD area detector'
_diffrn_measurement_method       'phi and omega scans'
_diffrn_radiation_type           MoK\a
_diffrn_radiation_wavelength     0.71073
_diffrn_reflns_av_R_equivalents  0.0300
_diffrn_reflns_av_unetI/netI     0.0336
_diffrn_reflns_Laue_measured_fraction_full 0.999
_diffrn_reflns_Laue_measured_fraction_max 0.999
_diffrn_reflns_limit_h_max       30
_diffrn_reflns_limit_h_min       -29
_diffrn_reflns_limit_k_max       6
_diffrn_reflns_limit_k_min       -5
_diffrn_reflns_limit_l_max       32
_diffrn_reflns_limit_l_min       -32
_diffrn_reflns_number            9061
_diffrn_reflns_point_group_measured_fraction_full 0.999
_diffrn_reflns_point_group_measured_fraction_max 0.999
_diffrn_reflns_theta_full        25.242
_diffrn_reflns_theta_max         25.494
_diffrn_reflns_theta_min         1.838
_exptl_absorpt_coefficient_mu    0.215
_exptl_absorpt_correction_T_max  0.7456
_exptl_absorpt_correction_T_min  0.6579
_exptl_absorpt_correction_type   multi-scan
_exptl_absorpt_process_details   sadabs
_exptl_crystal_colour            colorless
_exptl_crystal_density_diffrn    1.400
_exptl_crystal_description       prismatic
_exptl_crystal_F_000             1504
_exptl_crystal_size_max          0.200
_exptl_crystal_size_mid          0.170
_exptl_crystal_size_min          0.120
_refine_diff_density_max         0.224
_refine_diff_density_min         -0.371
_refine_diff_density_rms         0.052
_refine_ls_extinction_method     none
_refine_ls_goodness_of_fit_ref   1.031
_refine_ls_hydrogen_treatment    constr
_refine_ls_matrix_type           full
_refine_ls_number_parameters     229
_refine_ls_number_reflns         3150
_refine_ls_number_restraints     0
_refine_ls_restrained_S_all      1.031
_refine_ls_R_factor_all          0.0482
_refine_ls_R_factor_gt           0.0411
_refine_ls_shift/su_max          0.000
_refine_ls_shift/su_mean         0.000
_refine_ls_structure_factor_coef Fsqd
_refine_ls_weighting_details
'w=1/[\s^2^(Fo^2^)+(0.0562P)^2^+2.0972P] where P=(Fo^2^+2Fc^2^)/3'
_refine_ls_weighting_scheme      calc
_refine_ls_wR_factor_gt          0.1045
_refine_ls_wR_factor_ref         0.1097
_reflns_Friedel_coverage         0.000
_reflns_number_gt                2686
_reflns_number_total             3150
_reflns_threshold_expression     'I > 2\s(I)'
_cod_data_source_file            ol7b01957_si_003.cif
_cod_data_source_block           cd17088
_cod_original_cell_volume        3391.5(10)
_cod_database_code               1547014
_shelx_space_group_comment
; 
The symmetry employed for this shelxl refinement is uniquely defined 
by the following loop, which should always be used as a source of 
symmetry information in preference to the above space-group names. 
They are only intended as comments. 
;
_shelx_estimated_absorpt_t_min   0.958
_shelx_estimated_absorpt_t_max   0.975
_shelxl_version_number           2013-4
_shelx_res_file
; 
TITL cd17088 in C2/c 
CELL 0.71073  25.0170   5.7228  26.7403  90.000 117.639  90.000 
ZERR    8.00   0.0042   0.0010   0.0045   0.000   0.003   0.000 
LATT 7 
SYMM -X, Y, 0.5-Z 
SFAC C  H  N  O  S 
UNIT 152 152 8 32 8 
OMIT  -10   0   2 
OMIT     0   0   2 
OMIT    -2   2   6 
OMIT     5   1   5 
OMIT  -3.00  51.00 
L.S. 10 
ACTA 
BOND  $H 
FMAP 2 
PLAN 20 
HTAB C19 O3_$5 
EQIV $5 x, y+1, z 
HTAB C19 O1_$4 
EQIV $4 -x+1/2, -y+3/2, -z 
HTAB C19 O2_$3 
EQIV $3 x-1/2, y+1/2, z 
HTAB C17 O3_$2 
EQIV $2 -x+1/2, -y+1/2, -z 
HTAB C2 O4_$1 
EQIV $1 -x+1/2, y+1/2, -z+1/2 
HTAB C2 O4 
size 0.20 0.17 0.12 
wpdb -1 
mpla n1 c1 > c8 
mpla c11 > c16 
htab 
conf 
HTAB C2 O4 
HTAB C2 O4_$1 
HTAB C17 O3_$2 
HTAB C19 O2_$3 
HTAB C19 O1_$4 
HTAB C19 O3_$5 
WGHT    0.056200    2.097200 
FVAR       0.09331 
MOLE 1 
S1    5    0.225243    0.761358    0.150366    11.00000    0.04638    0.03702 = 
         0.05978    0.00256    0.03969   -0.00039 
N1    3    0.289017    0.818997    0.147678    11.00000    0.03497    0.03630 = 
         0.04258   -0.00051    0.02435    0.00242 
O1    4    0.390522    0.234937    0.008429    11.00000    0.04447    0.06111 = 
         0.05711   -0.02036    0.02359    0.00883 
O2    4    0.563244    0.671773    0.131544    11.00000    0.03458    0.07090 = 
         0.06881   -0.01586    0.03041   -0.00048 
O3    4    0.204389    0.541216    0.124782    11.00000    0.05629    0.03770 = 
         0.09348   -0.00394    0.04990   -0.00643 
O4    4    0.237047    0.794949    0.206599    11.00000    0.10226    0.09779 = 
         0.07441   -0.01032    0.07135   -0.02890 
C1    1    0.328513    1.002371    0.177978    11.00000    0.03616    0.03523 = 
         0.03562    0.00287    0.01971    0.00560 
C2    1    0.322768    1.167807    0.213214    11.00000    0.04376    0.04792 = 
         0.04254   -0.00212    0.02640    0.00677 
AFIX  43 
H2    2    0.290220    1.165896    0.221037    11.00000   -1.20000 
AFIX   0 
C3    1    0.367364    1.334876    0.236081    11.00000    0.05301    0.04837 = 
         0.04719   -0.01261    0.02474    0.00367 
AFIX  43 
H3    2    0.365165    1.447196    0.260195    11.00000   -1.20000 
AFIX   0 
C4    1    0.415520    1.338505    0.223761    11.00000    0.04326    0.04522 = 
         0.05885   -0.01358    0.02122   -0.00264 
AFIX  43 
H4    2    0.444887    1.453623    0.239704    11.00000   -1.20000 
AFIX   0 
C5    1    0.420698    1.175061    0.188400    11.00000    0.03586    0.04371 = 
         0.05350   -0.00523    0.02349    0.00118 
AFIX  43 
H5    2    0.453012    1.180266    0.180265    11.00000   -1.20000 
AFIX   0 
C6    1    0.376640    1.001237    0.164925    11.00000    0.03253    0.03436 = 
         0.03708    0.00227    0.01809    0.00662 
C7    1    0.365704    0.810008    0.125794    11.00000    0.03261    0.03514 = 
         0.03744    0.00124    0.02042    0.00485 
C8    1    0.312310    0.708782    0.114816    11.00000    0.03404    0.03256 = 
         0.03919    0.00192    0.02037    0.00683 
C9    1    0.286641    0.499914    0.078293    11.00000    0.03675    0.03825 = 
         0.04977   -0.00465    0.02114    0.00101 
AFIX  23 
H9A   2    0.243099    0.514142    0.057312    11.00000   -1.20000 
H9B   2    0.296061    0.360410    0.101448    11.00000   -1.20000 
AFIX   0 
C10   1    0.313344    0.480378    0.037447    11.00000    0.03849    0.05787 = 
         0.04906   -0.01395    0.02078    0.00437 
AFIX  23 
H10A  2    0.305775    0.324356    0.021452    11.00000   -1.20000 
H10B  2    0.292778    0.590009    0.006731    11.00000   -1.20000 
AFIX   0 
C11   1    0.380081    0.527735    0.064251    11.00000    0.03544    0.04358 = 
         0.04030   -0.00133    0.02043    0.00713 
C12   1    0.405356    0.700155    0.105384    11.00000    0.03782    0.03767 = 
         0.03777    0.00297    0.02239    0.00759 
C13   1    0.466695    0.751847    0.129422    11.00000    0.03619    0.04209 = 
         0.04284   -0.00347    0.02330    0.00253 
AFIX  43 
H13   2    0.483205    0.866181    0.157170    11.00000   -1.20000 
AFIX   0 
C14   1    0.502959    0.631387    0.111636    11.00000    0.03324    0.05059 = 
         0.04542    0.00163    0.02243    0.00555 
C15   1    0.478936    0.456351    0.071492    11.00000    0.04177    0.05328 = 
         0.04604   -0.00286    0.02704    0.01325 
AFIX  43 
H15   2    0.503549    0.374499    0.060114    11.00000   -1.20000 
AFIX   0 
C16   1    0.418102    0.403921    0.048402    11.00000    0.04153    0.04384 = 
         0.03739   -0.00289    0.01996    0.00922 
C17   1    0.427268    0.091553   -0.006419    11.00000    0.05907    0.06355 = 
         0.06012   -0.01859    0.02913    0.01456 
AFIX 137 
H17A  2    0.447217    0.186564   -0.022298    11.00000   -1.50000 
H17B  2    0.402571   -0.022590   -0.033665    11.00000   -1.50000 
H17C  2    0.456869    0.013709    0.026662    11.00000   -1.50000 
AFIX   0 
C18   1    0.589058    0.864720    0.168108    11.00000    0.04237    0.06700 = 
         0.07254   -0.00944    0.03039   -0.00685 
AFIX 137 
H18A  2    0.568649    1.005456    0.149474    11.00000   -1.50000 
H18B  2    0.631041    0.876526    0.177858    11.00000   -1.50000 
H18C  2    0.584978    0.842943    0.201774    11.00000   -1.50000 
AFIX   0 
C19   1    0.176352    0.976845    0.107722    11.00000    0.04605    0.04827 = 
         0.12344    0.01418    0.04551    0.01483 
AFIX 137 
H19A  2    0.138163    0.961854    0.107785    11.00000   -1.50000 
H19B  2    0.170723    0.959672    0.069873    11.00000   -1.50000 
H19C  2    0.193175    1.127988    0.121963    11.00000   -1.50000 
AFIX   0 
HKLF 4 
  
REM  cd17088 in C2/c 
REM R1 =  0.0411 for    2686 Fo > 4sig(Fo)  and  0.0482 for all    3150 data 
REM    229 parameters refined using      0 restraints 
  
END 
  
WGHT      0.0560      2.1115 
  
REM Instructions for potential hydrogen bonds 
HTAB C2 O4 
HTAB C2 O4_$1 
HTAB C17 O3_$2 
HTAB C19 O2_$3 
HTAB C19 O1_$4 
HTAB C19 O3_$5 
  
REM Highest difference peak  0.224,  deepest hole -0.371,  1-sigma level  0.052 
Q1    1   0.2585  0.7929  0.2286  11.00000  0.05    0.22 
Q2    1   0.2471  0.7513  0.1908  11.00000  0.05    0.22 
Q3    1   0.2250  0.9372  0.1955  11.00000  0.05    0.21 
Q4    1   0.2928  0.6989 -0.0011  11.00000  0.05    0.21 
Q5    1   0.1998  0.8883  0.1342  11.00000  0.05    0.20 
Q6    1   0.4028  1.0303  0.1818  11.00000  0.05    0.20 
Q7    1   0.3723  0.9417  0.1373  11.00000  0.05    0.16 
Q8    1   0.3031  0.5909  0.1025  11.00000  0.05    0.16 
Q9    1   0.3914  0.7695  0.1180  11.00000  0.05    0.16 
Q10   1   0.3483 -0.1288 -0.0007  11.00000  0.05    0.16 
Q11   1   0.3969  0.5005  0.0531  11.00000  0.05    0.16 
Q12   1   0.2015  0.6449  0.1058  11.00000  0.05    0.16 
Q13   1   0.3618  0.9754  0.1795  11.00000  0.05    0.15 
Q14   1   0.4992  0.8049  0.1831  11.00000  0.05    0.15 
Q15   1   0.3363  1.0476  0.2081  11.00000  0.05    0.15 
Q16   1   0.3904  1.1185  0.1604  11.00000  0.05    0.15 
Q17   1   0.5217  0.7981  0.2403  11.00000  0.05    0.15 
Q18   1   0.3504  0.5297  0.0475  11.00000  0.05    0.15 
Q19   1   0.1576  0.9722  0.1346  11.00000  0.05    0.14 
Q20   1   0.4034  1.2912  0.1869  11.00000  0.05    0.14 
;
_shelx_res_checksum              88106
_shelx_hkl_file
; 
  -2   0   0  168.88    5.72 
   2   0   0  179.17    6.29 
  -4   0   0   18.86    0.64 
   4   0   0   19.19    0.67 
   4   0   0   19.56    0.75 
   6   0   0  165.03    5.92 
   6   0   0  160.98    5.48 
   8   0   0   43.22    1.53 
   8   0   0   44.90    1.70 
  10   0   0  231.36    8.33 
  10   0   0  226.11    7.70 
  12   0   0    2.70    0.17 
  12   0   0    2.57    0.23 
  14   0   0   18.97    0.73 
  14   0   0   18.18    0.87 
  16   0   0    0.29    0.09 
  16   0   0    0.31    0.12 
  18   0   0    0.50    0.11 
  18   0   0    0.61    0.18 
  20   0   0   46.40    1.95 
  20   0   0   43.75    1.65 
  22   0   0    8.35    0.60 
  22   0   0    9.30    0.46 
  24   0   0    0.95    0.24 
  26   0   0    0.08    0.18 
  28   0   0    0.49    0.27 
  29  -1   0    0.74    0.36 
  27  -1   0    1.65    0.37 
  25  -1   0    1.44    0.33 
  23  -1   0    0.03    0.16 
  21  -1   0    1.70    0.21 
  21  -1   0    1.59    0.29 
  19  -1   0    0.39    0.17 
  19  -1   0    0.39    0.11 
  17  -1   0    2.61    0.31 
  17  -1   0    2.51    0.20 
  15  -1   0    0.06    0.08 
  15  -1   0    0.04    0.06 
 -15   1   0    0.11    0.03 
  13  -1   0    0.58    0.14 
  13  -1   0    0.72    0.11 
 -13   1   0    0.56    0.06 
  11  -1   0    2.46    0.17 
  11  -1   0    2.56    0.23 
 -11   1   0    2.85    0.14 
   9  -1   0    5.24    0.33 
   9  -1   0    5.58    0.26 
  -9   1   0    5.68    0.22 
   7  -1   0    5.24    0.30 
   7  -1   0    5.33    0.24 
  -7   1   0    5.06    0.20 
   5  -1   0   37.76    1.45 
   3  -1   0   11.06    0.48 
   1   1   0   47.46    1.73 
   1   1   0   47.55    1.63 
   3   1   0   11.98    0.47 
   3   1   0   11.74    0.45 
   5   1   0   39.15    1.46 
   5   1   0   39.33    1.36 
   7   1   0    5.45    0.24 
   7   1   0    5.16    0.27 
   9   1   0    5.46    0.25 
   9   1   0    5.39    0.29 
  11   1   0    2.84    0.22 
  11   1   0    2.74    0.17 
  13   1   0    0.60    0.10 
  13   1   0    0.60    0.13 
  15   1   0    0.01    0.07 
  15   1   0   -0.03    0.07 
  17   1   0    2.38    0.28 
  17   1   0    2.67    0.21 
  19   1   0    0.53    0.17 
  19   1   0    0.46    0.12 
  21   1   0    1.34    0.26 
  21   1   0    1.25    0.17 
  23   1   0    0.13    0.10 
  23   1   0    0.38    0.18 
  25   1   0    1.41    0.30 
  27   1   0    1.54    0.33 
  29   1   0    0.87    0.33 
  28  -2   0    0.02    0.26 
  26  -2   0    0.90    0.30 
  24  -2   0    5.97    0.59 
  22  -2   0    8.18    0.62 
  20  -2   0    0.04    0.14 
  18  -2   0    0.99    0.25 
  16  -2   0   16.98    0.89 
  14  -2   0    2.60    0.30 
 -14   2   0    2.38    0.14 
  12  -2   0    0.08    0.10 
 -12   2   0    0.13    0.05 
  10  -2   0    5.21    0.36 
 -10   2   0    5.06    0.22 
   8  -2   0   20.72    0.91 
   6  -2   0  197.69    7.22 
   4  -2   0   27.57    1.11 
  -2   2   0    1.72    0.12 
   0   2   0   85.46    2.93 
   0   2   0   85.20    3.12 
   2   2   0    1.87    0.12 
   2   2   0    1.69    0.11 
   4   2   0   28.39    1.04 
   4   2   0   28.73    1.08 
   6   2   0  198.41    6.74 
   6   2   0  200.36    7.20 
   8   2   0   22.23    0.84 
   8   2   0   22.44    0.90 
  10   2   0    5.12    0.29 
  10   2   0    4.93    0.26 
  12   2   0    0.10    0.07 
  12   2   0    0.96    0.12 
  14   2   0    2.25    0.22 
  14   2   0    2.34    0.19 
  16   2   0   15.56    0.70 
  16   2   0   18.43    0.83 
  18   2   0    0.96    0.21 
  18   2   0    1.10    0.16 
  20   2   0    0.00    0.10 
  20   2   0    0.14    0.14 
  22   2   0   10.50    0.67 
  22   2   0   10.82    0.55 
  24   2   0    7.09    0.43 
  24   2   0    7.48    0.56 
  26   2   0    1.64    0.33 
  28   2   0    0.10    0.24 
  27  -3   0    0.40    0.16 
  25  -3   0    0.88    0.25 
  23  -3   0    0.13    0.17 
  21  -3   0    2.96    0.42 
  19  -3   0    0.25    0.17 
  17  -3   0    2.10    0.32 
  15  -3   0    0.17    0.13 
 -15   3   0    0.11    0.06 
  13  -3   0    5.19    0.42 
 -13   3   0    5.17    0.25 
  11  -3   0    0.37    0.14 
   9  -3   0    0.60    0.15 
   7  -3   0    1.63    0.21 
   5  -3   0    2.65    0.23 
  -3   3   0    4.26    0.26 
  -1   3   0    0.97    0.13 
  -1   3   0    1.50    0.13 
   1   3   0    1.35    0.14 
   1   3   0    1.48    0.12 
   3   3   0    4.52    0.25 
   3   3   0    3.81    0.21 
   5   3   0    2.33    0.18 
   5   3   0    2.54    0.16 
   7   3   0    1.62    0.12 
   7   3   0    1.09    0.14 
   9   3   0    0.59    0.10 
   9   3   0    0.42    0.10 
  11   3   0    0.42    0.10 
  11   3   0    0.27    0.10 
  13   3   0    5.45    0.34 
  13   3   0    5.31    0.31 
  15   3   0    0.05    0.09 
  15   3   0    0.11    0.09 
  17   3   0    1.89    0.21 
  17   3   0    2.43    0.26 
  19   3   0    0.47    0.17 
  19   3   0    0.29    0.13 
  21   3   0    3.02    0.29 
  23   3   0    0.35    0.15 
  25   3   0    0.75    0.18 
  24  -4   0    1.56    0.31 
  22  -4   0    0.41    0.19 
  20  -4   0    7.45    0.60 
  18  -4   0    7.54    0.59 
  16  -4   0    2.46    0.36 
  14  -4   0    6.95    0.53 
 -14   4   0    7.29    0.34 
  12  -4   0   20.24    1.03 
  10  -4   0    0.10    0.13 
   8  -4   0    4.28    0.36 
  -6   4   0    0.35    0.11 
  -4   4   0    6.16    0.36 
  -4   4   0    5.89    0.34 
  -2   4   0   76.22    2.69 
  -2   4   0   74.94    2.85 
   0   4   0   85.60    3.02 
   0   4   0   85.75    3.19 
   2   4   0   70.67    2.60 
   2   4   0   75.32    2.73 
   4   4   0    6.10    0.34 
   4   4   0    6.09    0.31 
   6   4   0    0.46    0.12 
   6   4   0    0.61    0.09 
   8   4   0    4.09    0.28 
   8   4   0    4.01    0.24 
  10   4   0    0.05    0.08 
  12   4   0   19.98    0.85 
  14   4   0    7.39    0.42 
  16   4   0    2.15    0.23 
  18   4   0    7.20    0.43 
  20   4   0    8.19    0.48 
  22   4   0   -0.02    0.12 
  24   4   0    1.25    0.22 
  21  -5   0    1.80    0.35 
  19  -5   0    0.27    0.19 
  17  -5   0    0.39    0.19 
  15  -5   0    0.64    0.21 
 -13   5   0   -0.04    0.13 
 -11   5   0    0.00    0.13 
  -9   5   0    0.21    0.14 
  -7   5   0    7.36    0.43 
  -7   5   0    6.91    0.45 
  -5   5   0    1.54    0.21 
  -5   5   0    1.22    0.19 
  -3   5   0    0.04    0.09 
  -3   5   0    0.23    0.10 
  -1   5   0    0.08    0.10 
   1   5   0    0.05    0.10 
   3   5   0   -0.13    0.08 
   5   5   0    1.46    0.21 
   7   5   0    8.73    0.49 
   9   5   0    0.14    0.10 
  11   5   0    0.09    0.10 
  13   5   0   -0.11    0.09 
  15   5   0    0.37    0.14 
  17   5   0    0.24    0.13 
  19   5   0    0.39    0.14 
  21   5   0    1.49    0.22 
 -18   6   0    0.36    0.25 
 -16   6   0    3.72    0.46 
 -14   6   0    0.12    0.12 
 -12   6   0   -0.14    0.10 
 -10   6   0    1.24    0.22 
  -8   6   0    1.23    0.21 
  -6   6   0    3.67    0.33 
  -4   6   0   11.62    0.62 
  -2   6   0    0.07    0.11 
   0   6   0    5.13    0.37 
   2   6   0    0.11    0.11 
   4   6   0    9.78    0.55 
   6   6   0    4.04    0.36 
   8   6   0    1.31    0.23 
  10   6   0    1.47    0.24 
  12   6   0   -0.04    0.09 
  14   6   0    0.18    0.11 
  16   6   0    4.06    0.33 
  18   6   0    0.30    0.11 
 -11   7   0    0.10    0.16 
  -9   7   0    0.13    0.15 
  -7   7   0    0.53    0.19 
  -5   7   0   -0.03    0.14 
  -3   7   0    0.56    0.19 
  -1   7   0   -0.04    0.14 
   1   7   0    0.01    0.14 
   3   7   0    0.84    0.21 
   5   7   0    0.25    0.18 
   7   7   0    0.38    0.19 
   9   7   0    0.28    0.13 
  11   7   0    0.28    0.12 
  11   7  -1    1.57    0.23 
   9   7  -1    0.64    0.15 
   7   7  -1    2.22    0.32 
   5   7  -1    0.75    0.22 
   3   7  -1    0.27    0.17 
   1   7  -1    0.04    0.13 
  -1   7  -1    0.58    0.19 
  -3   7  -1    1.87    0.28 
  -5   7  -1    1.85    0.29 
  -7   7  -1    0.30    0.16 
  -9   7  -1    4.24    0.41 
 -11   7  -1    3.05    0.36 
  18   6  -1    0.24    0.11 
  16   6  -1    2.29    0.28 
  14   6  -1    0.05    0.10 
  12   6  -1    0.26    0.13 
  10   6  -1    0.49    0.17 
   8   6  -1    5.45    0.40 
   6   6  -1    2.05    0.27 
   4   6  -1    3.17    0.32 
   2   6  -1    2.28    0.27 
   0   6  -1    0.19    0.12 
  -2   6  -1    0.00    0.10 
  -4   6  -1    3.27    0.32 
  -6   6  -1    0.08    0.12 
  -8   6  -1    0.28    0.13 
 -10   6  -1    2.05    0.27 
 -12   6  -1    0.07    0.11 
 -14   6  -1    1.06    0.28 
 -16   6  -1    1.62    0.36 
  21   5  -1    1.02    0.20 
  19   5  -1    0.67    0.17 
  17   5  -1    2.13    0.26 
  15   5  -1    0.68    0.16 
  13   5  -1    6.23    0.40 
  11   5  -1    2.65    0.27 
   9   5  -1    9.00    0.49 
   7   5  -1    5.85    0.38 
   5   5  -1    3.09    0.28 
   3   5  -1    0.13    0.11 
   1   5  -1    7.02    0.42 
  -1   5  -1    9.94    0.50 
  -1   5  -1    8.10    0.47 
  -3   5  -1    5.37    0.35 
  -3   5  -1    4.90    0.34 
  -5   5  -1   20.37    0.95 
  -5   5  -1   20.67    0.90 
  -7   5  -1    6.28    0.43 
  -9   5  -1    5.34    0.41 
 -11   5  -1    3.91    0.39 
 -13   5  -1    0.99    0.23 
  15  -5   1    0.05    0.16 
  17  -5   1    0.16    0.18 
  19  -5   1    3.94    0.51 
  21  -5   1    1.07    0.26 
  24   4  -1    1.52    0.24 
  22   4  -1    0.59    0.17 
  20   4  -1    1.69    0.23 
  18   4  -1    0.23    0.12 
  16   4  -1    1.47    0.20 
  14   4  -1    0.45    0.13 
  12   4  -1   31.76    1.24 
  10   4  -1    0.26    0.08 
  10   4  -1    0.12    0.09 
   8   4  -1   32.23    1.23 
   8   4  -1   31.04    1.25 
   6   4  -1   11.02    0.50 
   6   4  -1   10.98    0.52 
   4   4  -1    3.14    0.23 
   4   4  -1    3.08    0.21 
   2   4  -1   22.73    0.92 
   2   4  -1   22.77    0.93 
   0   4  -1    3.02    0.23 
   0   4  -1    2.79    0.23 
  -2   4  -1   10.08    0.49 
  -2   4  -1    9.97    0.50 
  -4   4  -1    0.20    0.09 
  -6   4  -1    0.56    0.13 
  -8   4  -1    3.02    0.29 
  10  -4   1    0.12    0.13 
  12  -4   1    0.83    0.23 
  14  -4   1   10.35    0.68 
  16  -4   1    1.14    0.27 
  18  -4   1    0.33    0.18 
  20  -4   1    1.02    0.29 
  22  -4   1    1.00    0.26 
  24  -4   1    0.58    0.21 
  25   3  -1    0.20    0.14 
  23   3  -1    0.39    0.15 
  21   3  -1    9.62    0.62 
  21   3  -1   10.17    0.53 
  19   3  -1   -0.03    0.10 
  19   3  -1    0.32    0.14 
  17   3  -1    3.71    0.30 
  17   3  -1    3.42    0.26 
  15   3  -1   31.16    1.18 
  15   3  -1   29.97    1.29 
  13   3  -1   17.72    0.72 
  13   3  -1   16.62    0.77 
  11   3  -1    2.18    0.18 
  11   3  -1    2.05    0.18 
   9   3  -1   25.44    1.03 
   9   3  -1   25.80    0.99 
   7   3  -1   10.81    0.48 
   7   3  -1   10.73    0.48 
   5   3  -1   35.43    1.32 
   5   3  -1   36.57    1.38 
   3   3  -1    0.62    0.09 
   3   3  -1    0.58    0.10 
   1   3  -1   37.37    1.46 
   1   3  -1   38.96    1.40 
  -1   3  -1    4.19    0.25 
  -3   3  -1    0.15    0.07 
   5  -3   1   44.54    1.78 
   7  -3   1    1.04    0.18 
   9  -3   1   15.61    0.79 
  11  -3   1   19.54    0.96 
 -13   3  -1   22.68    0.82 
  13  -3   1   23.03    1.11 
  15  -3   1    2.88    0.35 
  17  -3   1    8.57    0.61 
  19  -3   1    0.20    0.17 
  21  -3   1    6.01    0.58 
  23  -3   1    1.90    0.36 
  25  -3   1    0.74    0.24 
  28   2  -1    1.98    0.38 
  26   2  -1    0.78    0.24 
  24   2  -1    1.59    0.21 
  24   2  -1    1.31    0.29 
  22   2  -1    1.41    0.20 
  22   2  -1    1.52    0.28 
  20   2  -1    0.54    0.18 
  20   2  -1    0.46    0.13 
  18   2  -1    5.48    0.40 
  18   2  -1    5.54    0.33 
  16   2  -1    0.06    0.08 
  16   2  -1    0.19    0.10 
  14   2  -1    0.02    0.07 
  14   2  -1    0.06    0.06 
  12   2  -1    6.92    0.38 
  12   2  -1    6.63    0.33 
  10   2  -1    0.54    0.10 
  10   2  -1    0.47    0.09 
   8   2  -1   56.98    2.11 
   8   2  -1   55.53    1.97 
   6   2  -1    0.04    0.05 
   6   2  -1    0.16    0.05 
   4   2  -1   13.23    0.53 
   4   2  -1   13.15    0.52 
   2   2  -1   13.45    0.54 
   2   2  -1   13.84    0.55 
   0   2  -1   17.25    0.69 
  -2   2  -1    4.76    0.25 
   4  -2   1    1.81    0.17 
   6  -2   1   59.72    2.30 
   8  -2   1   18.61    0.85 
 -10   2  -1    5.94    0.24 
  10  -2   1    5.14    0.37 
 -12   2  -1    0.96    0.08 
  12  -2   1    1.01    0.19 
 -14   2  -1    6.59    0.28 
  14  -2   1    6.56    0.47 
  16  -2   1   26.01    1.24 
  18  -2   1    2.43    0.34 
  20  -2   1    1.69    0.31 
  22  -2   1    0.64    0.22 
  24  -2   1    0.17    0.20 
  26  -2   1    1.14    0.36 
  28  -2   1    0.25    0.28 
  29   1  -1    0.47    0.28 
  27   1  -1    1.69    0.35 
  25   1  -1    0.04    0.15 
  23   1  -1    0.24    0.16 
  23   1  -1    0.14    0.10 
  21   1  -1    3.23    0.25 
  21   1  -1    3.58    0.38 
  19   1  -1    4.97    0.30 
  19   1  -1    4.68    0.40 
  17   1  -1   18.59    0.95 
  17   1  -1   21.52    0.81 
  15   1  -1   42.77    1.52 
  15   1  -1   41.14    1.71 
  13   1  -1   76.75    2.89 
  13   1  -1   75.16    2.63 
  11   1  -1   74.72    2.87 
  11   1  -1   77.97    2.63 
   9   1  -1    0.49    0.09 
   9   1  -1    0.96    0.09 
   7   1  -1   64.44    2.22 
   7   1  -1   65.72    2.41 
   5   1  -1   14.39    0.57 
   5   1  -1   14.19    0.53 
   3   1  -1   92.67    3.20 
   3   1  -1   96.73    3.43 
   1   1  -1  110.82    4.01 
   1  -1   1   22.30    0.86 
   3  -1   1  682.57   24.48 
   5  -1   1    6.68    0.34 
  -7   1  -1   15.82    0.53 
   7  -1   1   14.76    0.60 
   7  -1   1   15.98    0.70 
  -9   1  -1   79.51    2.57 
   9  -1   1   77.07    3.01 
   9  -1   1   81.47    2.75 
 -11   1  -1    0.06    0.03 
  11  -1   1   -0.04    0.05 
  11  -1   1    0.03    0.07 
 -13   1  -1   12.20    0.44 
  13  -1   1   12.84    0.66 
  13  -1   1   12.36    0.53 
  15  -1   1    4.90    0.37 
  15  -1   1    4.04    0.26 
  17  -1   1    0.08    0.11 
  17  -1   1    0.01    0.06 
  19  -1   1    9.48    0.48 
  19  -1   1    8.74    0.61 
  21  -1   1   10.28    0.53 
  21  -1   1   10.67    0.70 
  23  -1   1    4.71    0.50 
  25  -1   1    0.08    0.17 
  27  -1   1    0.61    0.27 
  28   0  -1    0.24    0.22 
  26   0  -1    0.08    0.17 
  24   0  -1   -0.05    0.11 
  22   0  -1    0.05    0.08 
  22   0  -1    0.19    0.15 
  20   0  -1    0.06    0.13 
  20   0  -1    0.12    0.08 
  18   0  -1    0.07    0.11 
  18   0  -1    0.02    0.06 
  16   0  -1   -0.07    0.07 
  16   0  -1    0.05    0.06 
  14   0  -1   -0.02    0.04 
  14   0  -1   -0.06    0.06 
  12   0  -1    0.10    0.05 
  12   0  -1   -0.03    0.07 
  10   0  -1   -0.09    0.04 
  10   0  -1    0.02    0.04 
   8   0  -1   -0.01    0.04 
   8   0  -1    0.03    0.03 
   6   0  -1   -0.37    0.03 
   6   0  -1   -0.39    0.01 
  -6   0   1   -0.38    0.02 
   4   0  -1   -0.07    0.03 
   4   0  -1   -0.15    0.01 
  -4   0   1   -0.12    0.01 
   2   0  -1   -0.04    0.00 
   2   0  -1   -0.02    0.01 
  -2   0   1   -0.02    0.01 
   0   0  -1   -0.01    0.00 
   0   0   1   -0.01    0.00 
   2   0   1    0.00    0.01 
   2   0   1    0.01    0.01 
   4   0   1   -0.02    0.02 
   4   0   1    0.00    0.03 
   6   0   1   -0.08    0.03 
   6   0   1   -0.07    0.04 
   8   0   1   -0.04    0.03 
   8   0   1   -0.04    0.04 
  10   0   1   -0.06    0.06 
  10   0   1    0.01    0.04 
  12   0   1   -0.04    0.06 
  12   0   1    0.02    0.05 
  14   0   1    0.07    0.08 
  14   0   1   -0.06    0.05 
  16   0   1    0.10    0.10 
  16   0   1   -0.04    0.06 
  18   0   1    0.09    0.07 
  18   0   1   -0.05    0.09 
  20   0   1    0.14    0.09 
  20   0   1    0.14    0.15 
  22   0   1    0.11    0.14 
  22   0   1    0.04    0.09 
  24   0   1    0.10    0.13 
  26   0   1    0.06    0.17 
  28   0   1   -0.21    0.18 
  29  -1  -1    0.50    0.30 
  27  -1  -1    1.11    0.31 
  25  -1  -1   -0.11    0.16 
  23  -1  -1    0.24    0.16 
  21  -1  -1    1.28    0.16 
  21  -1  -1    3.64    0.39 
  19  -1  -1    2.60    0.21 
  19  -1  -1    4.24    0.40 
  17  -1  -1   13.64    0.59 
  15  -1  -1   41.51    1.72 
 -15   1   1   41.05    1.39 
  13  -1  -1   70.15    2.77 
 -13   1   1   72.71    2.35 
  11  -1  -1   74.35    2.91 
 -11   1   1   78.23    2.50 
   9  -1  -1    0.51    0.11 
  -9   1   1    0.43    0.05 
   7  -1  -1   63.75    2.41 
  -7   1   1   64.19    2.08 
   5  -1  -1   13.24    0.57 
   3  -1  -1  101.24    3.69 
   1  -1  -1  106.49    3.90 
  -1   1   1  109.14    3.64 
   1   1   1   22.35    0.81 
   1   1   1   23.61    0.85 
   3   1   1  673.23   22.85 
   3   1   1  695.72   24.57 
   5   1   1    6.55    0.30 
   5   1   1    6.73    0.28 
   7   1   1   15.39    0.57 
   7   1   1   15.04    0.63 
   9   1   1   81.61    2.80 
   9   1   1   81.43    3.04 
  11   1   1    0.09    0.07 
  11   1   1    0.08    0.06 
  13   1   1   11.81    0.61 
  13   1   1   12.33    0.52 
  15   1   1    3.98    0.31 
  15   1   1    3.88    0.25 
  17   1   1   -0.01    0.07 
  17   1   1   -0.16    0.09 
  19   1   1    9.05    0.58 
  19   1   1    9.04    0.46 
  21   1   1    9.94    0.50 
  21   1   1   10.56    0.66 
  23   1   1    5.23    0.33 
  23   1   1    4.69    0.47 
  25   1   1   -0.09    0.14 
  27   1   1    0.56    0.27 
  28  -2  -1    1.85    0.43 
  26  -2  -1    0.32    0.23 
  24  -2  -1    1.24    0.29 
  22  -2  -1    1.51    0.31 
  20  -2  -1    0.52    0.19 
  18  -2  -1    4.79    0.42 
  16  -2  -1    0.10    0.13 
 -16   2   1   -0.02    0.05 
  14  -2  -1    0.02    0.09 
 -14   2   1   -0.02    0.04 
  12  -2  -1    6.49    0.43 
 -12   2   1    6.71    0.28 
  10  -2  -1    0.38    0.12 
 -10   2   1    0.50    0.07 
   8  -2  -1   52.74    2.05 
   6  -2  -1    0.05    0.06 
   4  -2  -1   13.89    0.61 
   2  -2  -1   11.81    0.51 
   0   2   1   16.79    0.67 
   0   2   1   17.82    0.65 
   2   2   1    5.11    0.22 
   2   2   1    4.96    0.24 
   4   2   1    1.73    0.13 
   4   2   1    1.98    0.11 
   6   2   1   56.35    2.13 
   6   2   1   58.68    2.01 
   8   2   1   19.14    0.78 
   8   2   1   19.31    0.74 
  10   2   1    5.68    0.29 
  10   2   1    5.47    0.31 
  12   2   1    1.03    0.13 
  12   2   1    0.79    0.13 
  14   2   1    6.89    0.37 
  14   2   1    7.65    0.43 
  16   2   1   28.81    1.11 
  16   2   1   28.05    1.25 
  18   2   1    3.01    0.25 
  18   2   1    2.74    0.31 
  20   2   1    1.79    0.28 
  20   2   1    2.08    0.23 
  22   2   1    0.77    0.17 
  22   2   1    0.90    0.22 
  24   2   1    0.54    0.15 
  24   2   1    0.54    0.20 
  26   2   1    1.11    0.29 
  27  -3  -1    0.30    0.16 
  25  -3  -1    0.19    0.16 
  23  -3  -1    0.29    0.19 
  21  -3  -1   11.31    0.76 
  19  -3  -1   -0.11    0.12 
  17  -3  -1    3.75    0.41 
  15  -3  -1   29.06    1.34 
 -15   3   1   28.74    1.02 
  13  -3  -1   17.19    0.87 
 -13   3   1   16.52    0.63 
  11  -3  -1    2.17    0.27 
   9  -3  -1   26.85    1.18 
   7  -3  -1   11.09    0.57 
   5  -3  -1   36.25    1.46 
  -3   3   1    0.53    0.09 
  -3   3   1    0.55    0.09 
  -1   3   1   40.08    1.43 
  -1   3   1   38.57    1.49 
   1   3   1    4.07    0.24 
   1   3   1    3.99    0.21 
   3   3   1    0.25    0.08 
   3   3   1    0.19    0.05 
   5   3   1   44.67    1.61 
   5   3   1   44.50    1.67 
   7   3   1    0.95    0.13 
   7   3   1    1.17    0.11 
   9   3   1   15.15    0.65 
   9   3   1   15.85    0.66 
  11   3   1   19.49    0.82 
  11   3   1   18.90    0.78 
  13   3   1   22.65    0.99 
  13   3   1   23.31    0.92 
  15   3   1    3.68    0.27 
  15   3   1    3.52    0.28 
  17   3   1    9.50    0.49 
  17   3   1   10.04    0.56 
  19   3   1   -0.01    0.10 
  21   3   1    6.59    0.42 
  23   3   1    2.38    0.28 
  25   3   1    0.79    0.17 
  24  -4  -1    1.12    0.28 
  22  -4  -1    0.32    0.21 
  20  -4  -1    3.12    0.44 
  18  -4  -1    0.03    0.17 
  16  -4  -1    1.45    0.28 
  14  -4  -1    0.76    0.21 
 -14   4   1    0.58    0.11 
  12  -4  -1   33.17    1.49 
  10  -4  -1    0.13    0.13 
   8  -4  -1   32.08    1.40 
  -6   4   1   10.40    0.54 
  -4   4   1    3.18    0.24 
  -4   4   1    3.10    0.23 
  -2   4   1   23.15    0.93 
  -2   4   1   23.34    0.96 
   0   4   1    3.04    0.20 
   0   4   1    2.87    0.23 
   2   4   1   10.43    0.46 
   2   4   1    9.78    0.49 
   4   4   1    0.15    0.08 
   4   4   1    0.20    0.06 
   6   4   1    0.53    0.12 
   8   4   1    3.03    0.24 
  10   4   1    0.03    0.07 
  12   4   1    0.47    0.14 
  14   4   1   10.43    0.53 
  16   4   1    1.18    0.19 
  18   4   1    0.12    0.11 
  20   4   1    0.77    0.19 
  22   4   1    0.92    0.19 
  24   4   1    0.56    0.17 
  21  -5  -1    1.15    0.31 
  19  -5  -1    0.34    0.20 
  17  -5  -1    2.08    0.36 
  15  -5  -1    1.00    0.26 
  13  -5  -1    7.46    0.57 
 -11   5   1    2.19    0.29 
  -9   5   1    9.68    0.52 
  -9   5   1   10.01    0.59 
  -7   5   1    5.40    0.38 
  -7   5   1    6.08    0.37 
  -5   5   1    2.85    0.25 
  -5   5   1    2.74    0.26 
  -3   5   1    0.17    0.11 
  -1   5   1    7.64    0.44 
   1   5   1    9.40    0.50 
   3   5   1    5.26    0.35 
   5   5   1   21.84    0.93 
   7   5   1    5.01    0.34 
   9   5   1    5.31    0.36 
  11   5   1    4.39    0.32 
  13   5   1    1.04    0.19 
  15   5   1   -0.15    0.09 
  17   5   1   -0.08    0.09 
  19   5   1    3.96    0.33 
  21   5   1    1.53    0.24 
 -14   6   1    0.06    0.11 
 -12   6   1    0.38    0.15 
 -10   6   1    0.40    0.15 
  -8   6   1    5.32    0.38 
  -6   6   1    1.93    0.25 
  -4   6   1    2.42    0.28 
  -2   6   1    2.34    0.27 
   0   6   1    0.01    0.09 
   2   6   1    0.11    0.11 
   4   6   1    3.00    0.31 
   6   6   1    0.11    0.13 
   8   6   1    0.26    0.14 
  10   6   1    1.44    0.22 
  12   6   1    0.14    0.11 
  14   6   1    1.95    0.26 
  16   6   1    2.19    0.27 
 -11   7   1    1.51    0.27 
  -9   7   1    0.57    0.19 
  -7   7   1    1.84    0.28 
  -5   7   1    0.67    0.21 
  -3   7   1    0.11    0.16 
  -1   7   1    0.05    0.15 
   1   7   1    0.97    0.22 
   3   7   1    2.09    0.31 
   5   7   1    2.23    0.32 
   7   7   1    0.13    0.17 
   9   7   1    5.26    0.40 
  11   7   1    4.08    0.34 
  11   7  -2    0.03    0.09 
   9   7  -2    0.12    0.10 
   7   7  -2    1.08    0.24 
   5   7  -2    0.22    0.16 
   3   7  -2    0.11    0.15 
   1   7  -2   -0.13    0.12 
  -1   7  -2    0.13    0.14 
  -3   7  -2    3.47    0.38 
  -5   7  -2    2.37    0.32 
  -7   7  -2    1.99    0.31 
  -9   7  -2    1.24    0.26 
  18   6  -2    0.10    0.09 
  16   6  -2    0.18    0.11 
  14   6  -2    0.40    0.15 
  12   6  -2    0.42    0.14 
  10   6  -2    7.62    0.48 
   8   6  -2   12.66    0.67 
   6   6  -2    0.09    0.12 
   4   6  -2   26.98    1.15 
   2   6  -2   14.04    0.71 
   0   6  -2    3.95    0.33 
  -2   6  -2    1.13    0.21 
  -4   6  -2    0.22    0.12 
  -6   6  -2    1.33    0.22 
  -8   6  -2    3.45    0.34 
 -10   6  -2    3.75    0.35 
 -12   6  -2    6.87    0.54 
 -14   6  -2    0.22    0.21 
 -16   6  -2    0.52    0.25 
  23   5  -2    0.02    0.10 
  21   5  -2    5.67    0.40 
  19   5  -2    2.40    0.27 
  17   5  -2    0.48    0.15 
  15   5  -2    1.19    0.21 
  13   5  -2    2.97    0.29 
  11   5  -2    0.32    0.14 
   9   5  -2   -0.08    0.10 
   7   5  -2    0.27    0.12 
   5   5  -2    1.85    0.23 
   3   5  -2    0.93    0.18 
   1   5  -2   10.27    0.54 
   1   5  -2    9.72    0.51 
  -1   5  -2    2.36    0.25 
  -1   5  -2    2.43    0.24 
  -3   5  -2    3.55    0.28 
  -3   5  -2    3.06    0.29 
  -5   5  -2    0.73    0.18 
  -5   5  -2    1.19    0.19 
  -7   5  -2    0.34    0.14 
  -9   5  -2    3.16    0.34 
 -11   5  -2    4.15    0.40 
 -13   5  -2    0.05    0.13 
 -15   5  -2    0.24    0.17 
  17  -5   2    0.44    0.21 
  19  -5   2    2.17    0.41 
  21  -5   2    0.51    0.19 
  24   4  -2   -0.04    0.11 
  22   4  -2   -0.15    0.10 
  20   4  -2   -0.05    0.10 
  18   4  -2    0.60    0.15 
  16   4  -2    0.38    0.13 
  14   4  -2    1.26    0.18 
  12   4  -2   25.12    1.06 
  12   4  -2   24.81    1.02 
  10   4  -2   15.82    0.71 
  10   4  -2   17.00    0.73 
   8   4  -2   19.61    0.81 
   8   4  -2   18.93    0.81 
   6   4  -2   13.31    0.59 
   6   4  -2   12.78    0.59 
   4   4  -2   37.73    1.47 
   4   4  -2   37.26    1.42 
   2   4  -2    1.56    0.16 
   2   4  -2    1.19    0.16 
   0   4  -2    2.94    0.23 
   0   4  -2    3.21    0.24 
  -2   4  -2    8.61    0.46 
  -4   4  -2    0.16    0.09 
  -6   4  -2    5.66    0.38 
  -8   4  -2   11.82    0.65 
  10  -4   2    0.96    0.23 
  12  -4   2    6.51    0.51 
  14  -4   2    9.20    0.64 
  16  -4   2    1.53    0.31 
  18  -4   2    0.40    0.21 
  20  -4   2    0.65    0.22 
  22  -4   2    0.21    0.16 
  24  -4   2    0.46    0.17 
  23   3  -2    0.57    0.16 
  21   3  -2    7.27    0.52 
  21   3  -2    8.22    0.45 
  19   3  -2    8.41    0.52 
  19   3  -2    8.13    0.44 
  17   3  -2    0.82    0.17 
  17   3  -2    1.07    0.16 
  15   3  -2    6.61    0.36 
  15   3  -2    6.62    0.41 
  13   3  -2   30.55    1.23 
  13   3  -2   28.64    1.13 
  11   3  -2   29.02    1.19 
  11   3  -2   29.61    1.12 
   9   3  -2    1.71    0.17 
   9   3  -2    1.63    0.16 
   7   3  -2    1.08    0.14 
   7   3  -2    1.26    0.12 
   5   3  -2   50.66    1.95 
   5   3  -2   52.97    1.86 
   3   3  -2    0.11    0.06 
   3   3  -2    0.10    0.05 
   1   3  -2    6.95    0.35 
   1   3  -2    7.48    0.37 
  -1   3  -2   67.17    2.53 
  -3   3  -2   54.57    2.10 
  -5   3  -2   37.67    1.52 
   7  -3   2    4.29    0.33 
   9  -3   2    6.11    0.43 
  11  -3   2    0.16    0.13 
 -13   3  -2   42.48    1.46 
  13  -3   2   43.32    1.86 
  15  -3   2    9.27    0.63 
  17  -3   2    4.36    0.46 
  19  -3   2    0.87    0.25 
  21  -3   2   -0.11    0.14 
  23  -3   2    0.17    0.16 
  25  -3   2    0.40    0.17 
  28   2  -2    2.29    0.40 
  26   2  -2    1.00    0.28 
  24   2  -2    0.45    0.14 
  24   2  -2    0.18    0.17 
  22   2  -2    3.55    0.39 
  22   2  -2    3.19    0.26 
  20   2  -2   28.53    1.33 
  20   2  -2   29.80    1.15 
  18   2  -2   35.50    1.35 
  18   2  -2   36.16    1.53 
  16   2  -2   11.49    0.61 
  16   2  -2   12.09    0.52 
  14   2  -2    0.25    0.10 
  14   2  -2    0.83    0.12 
  12   2  -2   76.62    2.88 
  12   2  -2   76.19    2.65 
  10   2  -2   65.16    2.24 
  10   2  -2   63.39    2.42 
   8   2  -2    4.57    0.23 
   8   2  -2    4.37    0.25 
   6   2  -2   12.60    0.53 
   6   2  -2   12.67    0.51 
   4   2  -2   50.68    1.79 
   4   2  -2   51.59    1.90 
   2   2  -2   14.23    0.58 
   2   2  -2   14.09    0.56 
   0   2  -2  166.22    6.03 
  -2   2  -2   56.23    2.12 
   4  -2   2   53.29    2.05 
   6  -2   2    4.90    0.32 
   8  -2   2   28.22    1.21 
 -10   2  -2   35.08    1.17 
  10  -2   2   34.98    1.49 
 -12   2  -2   26.70    0.90 
  12  -2   2   25.53    1.19 
  14  -2   2   27.64    1.28 
  16  -2   2   11.93    0.71 
  18  -2   2    2.46    0.35 
  20  -2   2    0.18    0.14 
  22  -2   2   -0.01    0.15 
  24  -2   2    0.34    0.22 
  26  -2   2   -0.13    0.23 
  29   1  -2    0.62    0.28 
  27   1  -2    0.39    0.22 
  25   1  -2    0.20    0.17 
  23   1  -2    2.43    0.22 
  23   1  -2    2.72    0.36 
  21   1  -2    6.72    0.37 
  21   1  -2    7.40    0.52 
  19   1  -2    7.69    0.38 
  19   1  -2    6.97    0.50 
  17   1  -2    0.08    0.08 
  17   1  -2    0.06    0.10 
  15   1  -2   18.25    0.70 
  15   1  -2   17.14    0.82 
  13   1  -2    6.45    0.30 
  13   1  -2    6.29    0.37 
  11   1  -2    3.47    0.19 
  11   1  -2    3.39    0.24 
   9   1  -2   45.70    1.57 
   9   1  -2   44.63    1.73 
   7   1  -2   19.10    0.78 
   7   1  -2   19.53    0.70 
   5   1  -2    1.10    0.08 
   5   1  -2    1.46    0.10 
   3   1  -2   68.64    2.38 
   3   1  -2   71.02    2.55 
   1   1  -2   44.67    1.65 
  -1   1  -2   83.11    3.04 
   3  -1   2   78.00    2.89 
   5  -1   2  178.83    6.38 
   5  -1   2  171.06    5.90 
  -7   1  -2    6.44    0.22 
   7  -1   2    6.05    0.29 
   7  -1   2    5.90    0.35 
  -9   1  -2   12.04    0.41 
   9  -1   2   11.82    0.50 
   9  -1   2   11.40    0.59 
 -11   1  -2  103.48    3.38 
  11  -1   2  105.30    3.61 
  11  -1   2  104.71    3.95 
 -13   1  -2    6.50    0.24 
  13  -1   2    5.98    0.42 
  13  -1   2    6.40    0.33 
  15  -1   2    6.34    0.35 
  15  -1   2    6.23    0.45 
  17  -1   2    0.97    0.15 
  17  -1   2    0.88    0.21 
  19  -1   2   12.63    0.60 
  19  -1   2   12.81    0.77 
  21  -1   2   -0.06    0.08 
  21  -1   2    0.04    0.13 
  23  -1   2    0.40    0.20 
  25  -1   2    0.33    0.20 
  27  -1   2   -0.05    0.21 
  30   0  -2    1.52    0.40 
  28   0  -2    2.07    0.40 
  26   0  -2    0.21    0.16 
  24   0  -2    0.93    0.23 
  22   0  -2    0.22    0.15 
  22   0  -2    0.13    0.06 
  20   0  -2   21.05    1.05 
  18   0  -2    2.69    0.31 
  16   0  -2    5.54    0.39 
  14   0  -2    0.80    0.16 
  12   0  -2  266.52    9.69 
  10   0  -2   15.60    0.58 
   8   0  -2  106.18    3.77 
   8   0  -2   91.27    3.45 
  -8   0   2  110.07    3.33 
   6   0  -2  183.82    6.10 
   6   0  -2  181.87    6.57 
  -6   0   2  179.08    5.85 
   4   0  -2   22.61    0.80 
   4   0  -2   22.95    0.88 
  -4   0   2   22.55    0.77 
   2   0  -2   29.84    1.15 
  -2   0   2   31.75    1.03 
   0   0  -2    4.89    0.23 
   2   0   2  641.39   21.11 
   2   0   2  533.40   19.61 
   4   0   2    0.24    0.05 
   4   0   2    0.37    0.07 
   6   0   2   40.94    1.42 
   6   0   2   40.31    1.56 
   8   0   2   30.84    1.24 
   8   0   2   31.15    1.11 
  10   0   2   66.50    2.57 
  10   0   2   68.18    2.34 
  12   0   2   71.42    2.50 
  12   0   2   72.32    2.77 
  14   0   2   30.51    1.33 
  14   0   2   31.32    1.16 
  16   0   2   20.42    0.82 
  16   0   2   20.00    0.98 
  18   0   2    0.01    0.08 
  18   0   2    0.17    0.12 
  20   0   2    0.00    0.12 
  20   0   2    0.11    0.09 
  22   0   2   24.78    1.26 
  22   0   2   24.65    1.02 
  24   0   2    3.30    0.44 
  26   0   2    3.02    0.46 
  28   0   2   -0.22    0.23 
  29  -1  -2    0.68    0.31 
  27  -1  -2    0.77    0.27 
  25  -1  -2   -0.23    0.13 
  23  -1  -2    2.23    0.35 
  21  -1  -2    6.74    0.38 
  21  -1  -2    7.38    0.54 
  19  -1  -2    6.30    0.48 
  19  -1  -2    6.21    0.34 
  17  -1  -2    0.04    0.06 
  17  -1  -2    0.04    0.10 
 -17   1   2    0.07    0.05 
  15  -1  -2   16.33    0.80 
  15  -1  -2   15.20    0.64 
 -15   1   2   16.83    0.60 
  13  -1  -2    6.24    0.40 
  13  -1  -2    5.97    0.29 
 -13   1   2    6.06    0.26 
  11  -1  -2    2.83    0.17 
  11  -1  -2    2.84    0.24 
 -11   1   2    3.01    0.15 
   9  -1  -2   46.75    1.76 
   9  -1  -2   43.95    1.57 
  -9   1   2   44.28    1.48 
   7  -1  -2   19.26    0.80 
  -7   1   2   18.95    0.65 
   5  -1  -2    1.00    0.10 
  -5   1   2    1.00    0.06 
   3  -1  -2   44.25    1.64 
   1  -1  -2   45.99    1.67 
  -1   1   2   45.30    1.56 
   1   1   2   86.43    3.22 
   1   1   2   86.05    2.92 
   3   1   2   79.41    2.70 
   3   1   2   79.62    2.89 
   5   1   2  171.34    6.24 
   5   1   2  173.80    5.81 
   7   1   2    6.51    0.32 
   7   1   2    6.31    0.28 
   9   1   2   11.34    0.46 
   9   1   2   11.08    0.53 
  11   1   2  103.47    3.58 
  11   1   2  105.07    3.90 
  13   1   2    6.34    0.33 
  13   1   2    6.22    0.39 
  15   1   2    6.35    0.41 
  15   1   2    6.30    0.34 
  17   1   2    0.95    0.20 
  17   1   2    0.86    0.15 
  19   1   2   11.10    0.67 
  19   1   2   12.00    0.56 
  21   1   2   -0.05    0.08 
  21   1   2    0.18    0.14 
  23   1   2    0.21    0.12 
  23   1   2    0.49    0.20 
  25   1   2    0.29    0.21 
  27   1   2    0.06    0.22 
  28  -2  -2    3.72    0.55 
  26  -2  -2    0.44    0.22 
  24  -2  -2    0.34    0.20 
  22  -2  -2    2.86    0.40 
  20  -2  -2   26.48    1.30 
  18  -2  -2   34.27    1.55 
  16  -2  -2   11.13    0.66 
 -16   2   2   11.27    0.45 
  14  -2  -2    0.04    0.09 
 -14   2   2    0.11    0.05 
  12  -2  -2   75.07    2.90 
 -12   2   2   74.83    2.47 
  10  -2  -2   62.09    2.45 
 -10   2   2   64.13    2.09 
   8  -2  -2    4.89    0.31 
   6  -2  -2   13.21    0.60 
   2  -2  -2   14.81    0.60 
  -2   2   2   14.63    0.56 
   0   2   2  167.33    5.65 
   0   2   2  167.16    6.03 
   2   2   2   59.78    2.07 
   2   2   2   59.47    2.17 
   4   2   2   57.05    2.07 
   4   2   2   56.03    1.97 
   6   2   2    4.92    0.26 
   6   2   2    5.24    0.25 
   8   2   2   28.39    1.03 
   8   2   2   27.15    1.09 
  10   2   2   32.79    1.35 
  10   2   2   35.93    1.26 
  12   2   2   26.48    1.00 
  12   2   2   25.49    1.09 
  14   2   2   26.03    1.15 
  14   2   2   27.35    1.04 
  16   2   2   13.28    0.60 
  16   2   2   13.01    0.69 
  18   2   2    2.98    0.32 
  18   2   2    3.10    0.26 
  20   2   2    0.48    0.16 
  20   2   2    0.30    0.13 
  22   2   2    0.31    0.15 
  22   2   2    0.13    0.12 
  24   2   2    0.31    0.13 
  24   2   2    0.39    0.19 
  27  -3  -2    0.45    0.18 
  25  -3  -2   -0.11    0.14 
  23  -3  -2    0.41    0.20 
  21  -3  -2    5.20    0.51 
  19  -3  -2    7.81    0.57 
  17  -3  -2    1.09    0.23 
  15  -3  -2    6.84    0.47 
 -15   3   2    6.09    0.30 
  13  -3  -2   26.66    1.26 
 -13   3   2   29.42    1.01 
  11  -3  -2   28.17    1.25 
   9  -3  -2    2.07    0.24 
   7  -3  -2    1.32    0.18 
  -3   3   2    0.18    0.05 
  -3   3   2    0.14    0.06 
  -1   3   2    7.20    0.34 
  -1   3   2    7.65    0.36 
   1   3   2   68.85    2.55 
   1   3   2   70.34    2.44 
   3   3   2   54.77    2.04 
   3   3   2   56.40    1.98 
   5   3   2   36.89    1.38 
   5   3   2   38.13    1.41 
   7   3   2    4.49    0.27 
   7   3   2    4.59    0.24 
   9   3   2    7.31    0.36 
   9   3   2    7.60    0.38 
  11   3   2    0.04    0.06 
  11   3   2    0.06    0.08 
  13   3   2   42.95    1.70 
  13   3   2   42.42    1.59 
  15   3   2    9.88    0.48 
  15   3   2    8.72    0.51 
  17   3   2    4.21    0.30 
  19   3   2    0.52    0.14 
  21   3   2    0.26    0.14 
  23   3   2    0.53    0.17 
  25   3   2    0.28    0.12 
  24  -4  -2    0.13    0.14 
  22  -4  -2    0.20    0.17 
  20  -4  -2    0.04    0.16 
  18  -4  -2    0.46    0.21 
  16  -4  -2    0.39    0.18 
 -16   4   2    0.18    0.08 
  14  -4  -2    2.11    0.31 
 -14   4   2    1.44    0.16 
  12  -4  -2   25.90    1.21 
  10  -4  -2   15.38    0.79 
   8  -4  -2   20.62    0.96 
  -6   4   2   12.41    0.56 
  -6   4   2   12.26    0.60 
  -4   4   2   39.06    1.44 
  -4   4   2   37.23    1.50 
  -2   4   2    1.51    0.18 
  -2   4   2    1.84    0.15 
   0   4   2    3.14    0.24 
   0   4   2    3.14    0.20 
   2   4   2    7.84    0.41 
   2   4   2    8.16    0.36 
   4   4   2    0.08    0.08 
   6   4   2    5.93    0.34 
   8   4   2   15.35    0.68 
  10   4   2    1.43    0.19 
  12   4   2    6.43    0.38 
  14   4   2    9.18    0.49 
  16   4   2    1.45    0.21 
  18   4   2    0.26    0.14 
  20   4   2    0.90    0.19 
  22   4   2    0.29    0.14 
  24   4   2    0.33    0.14 
  23  -5  -2    0.19    0.16 
  21  -5  -2    5.97    0.60 
  19  -5  -2    2.96    0.43 
  17  -5  -2    0.87    0.26 
  15  -5  -2    1.02    0.27 
 -15   5   2    0.77    0.14 
  13  -5  -2    3.53    0.40 
 -11   5   2    0.29    0.14 
 -11   5   2    0.41    0.13 
  -9   5   2    0.05    0.09 
  -9   5   2    0.23    0.13 
  -7   5   2    0.57    0.14 
  -7   5   2    0.50    0.14 
  -5   5   2    1.57    0.20 
  -3   5   2    0.93    0.17 
  -1   5   2   11.37    0.57 
   1   5   2    2.88    0.27 
   3   5   2    3.70    0.28 
   5   5   2    0.99    0.18 
   7   5   2    0.22    0.11 
   9   5   2    3.89    0.30 
  11   5   2    4.25    0.31 
  13   5   2    0.08    0.11 
  15   5   2   -0.03    0.10 
  17   5   2    0.21    0.13 
  19   5   2    2.52    0.29 
  21   5   2    0.64    0.16 
 -14   6   2    0.10    0.12 
 -12   6   2    0.25    0.13 
 -10   6   2    6.64    0.43 
  -8   6   2   11.87    0.63 
  -6   6   2    0.03    0.11 
  -4   6   2   28.75    1.21 
  -2   6   2   13.87    0.69 
   0   6   2    3.97    0.32 
   2   6   2    0.62    0.17 
   4   6   2    0.23    0.14 
   6   6   2    1.04    0.22 
   8   6   2    3.34    0.34 
  10   6   2    3.73    0.35 
  12   6   2    6.81    0.45 
  14   6   2    0.36    0.13 
  16   6   2    0.64    0.15 
 -11   7   2    0.13    0.15 
  -9   7   2   -0.01    0.14 
  -7   7   2    0.95    0.23 
  -5   7   2    0.38    0.17 
  -3   7   2    0.01    0.14 
  -1   7   2    0.27    0.16 
   1   7   2   -0.03    0.14 
   3   7   2    4.00    0.40 
   5   7   2    2.39    0.33 
   7   7   2    1.72    0.29 
   9   7   2    1.35    0.27 
  11   7  -3    2.32    0.29 
   9   7  -3    1.02    0.20 
   7   7  -3    2.06    0.29 
   5   7  -3    0.10    0.14 
   3   7  -3    0.54    0.18 
   1   7  -3    2.97    0.35 
  -1   7  -3    0.13    0.16 
  -3   7  -3    1.49    0.27 
  -5   7  -3    6.77    0.50 
  -7   7  -3    0.00    0.14 
  -9   7  -3    0.00    0.17 
  18   6  -3    2.42    0.28 
  16   6  -3    1.19    0.20 
  14   6  -3    2.81    0.31 
  12   6  -3   -0.14    0.09 
  10   6  -3    1.90    0.26 
   8   6  -3    0.76    0.17 
   6   6  -3    5.25    0.38 
   4   6  -3    0.65    0.17 
   2   6  -3    0.16    0.12 
   0   6  -3   -0.03    0.10 
  -2   6  -3    0.50    0.16 
  -4   6  -3    1.07    0.20 
  -6   6  -3    0.05    0.11 
  -8   6  -3    0.73    0.18 
 -10   6  -3    0.18    0.18 
 -12   6  -3    0.79    0.25 
 -14   6  -3    0.11    0.20 
 -16   6  -3    0.07    0.22 
  23   5  -3    2.77    0.30 
  21   5  -3    4.52    0.34 
  19   5  -3    0.59    0.16 
  17   5  -3    0.11    0.11 
  15   5  -3    4.97    0.36 
  13   5  -3    3.71    0.32 
  11   5  -3    0.64    0.16 
   9   5  -3   -0.21    0.08 
   7   5  -3    4.56    0.33 
   5   5  -3   27.46    1.13 
   3   5  -3    3.61    0.27 
   3   5  -3    3.35    0.30 
   1   5  -3   57.57    2.29 
   1   5  -3   60.75    2.20 
  -1   5  -3    6.33    0.41 
  -1   5  -3    7.07    0.42 
  -3   5  -3    1.36    0.20 
  -3   5  -3    1.46    0.21 
  -5   5  -3    1.32    0.23 
  -7   5  -3    0.36    0.16 
  -9   5  -3    2.96    0.34 
 -11   5  -3    0.15    0.14 
 -13   5  -3    0.78    0.23 
 -15   5  -3    0.55    0.21 
 -17   5  -3    0.31    0.22 
  19  -5   3    1.07    0.26 
  24   4  -3    0.30    0.15 
  22   4  -3    0.01    0.12 
  20   4  -3    1.45    0.21 
  18   4  -3    1.72    0.21 
  16   4  -3    0.26    0.11 
  14   4  -3    6.59    0.38 
  14   4  -3    6.81    0.40 
  12   4  -3    6.57    0.38 
  12   4  -3    6.66    0.38 
  10   4  -3    1.08    0.15 
  10   4  -3    0.75    0.15 
   8   4  -3    2.61    0.20 
   8   4  -3    2.12    0.21 
   6   4  -3    9.94    0.49 
   6   4  -3   10.34    0.49 
   4   4  -3    0.57    0.12 
   4   4  -3    0.48    0.11 
   2   4  -3    5.92    0.35 
   2   4  -3    6.11    0.35 
   0   4  -3    6.01    0.36 
   0   4  -3    6.65    0.38 
  -2   4  -3    6.78    0.40 
  -4   4  -3    2.48    0.25 
  -6   4  -3    0.29    0.11 
  -8   4  -3    5.94    0.43 
  10  -4   3    0.25    0.16 
  12  -4   3    6.79    0.53 
  14  -4   3    0.28    0.18 
  16  -4   3    0.59    0.22 
  18  -4   3    0.36    0.20 
  20  -4   3    0.90    0.27 
  22  -4   3    0.39    0.18 
  23   3  -3    5.63    0.46 
  23   3  -3    5.67    0.38 
  21   3  -3    4.77    0.33 
  21   3  -3    5.19    0.41 
  19   3  -3   13.54    0.61 
  19   3  -3   12.73    0.70 
  17   3  -3    2.33    0.21 
  17   3  -3    2.39    0.26 
  15   3  -3    0.51    0.12 
  15   3  -3    0.56    0.12 
  13   3  -3    3.88    0.25 
  13   3  -3    3.39    0.26 
  11   3  -3    1.23    0.15 
  11   3  -3    1.41    0.16 
   9   3  -3   42.16    1.51 
   9   3  -3   40.29    1.60 
   7   3  -3   12.13    0.56 
   7   3  -3   13.67    0.56 
   5   3  -3    1.18    0.14 
   5   3  -3    1.57    0.13 
   3   3  -3    5.26    0.29 
   3   3  -3    5.18    0.28 
   1   3  -3   15.14    0.66 
  -1   3  -3  133.30    4.91 
  -3   3  -3   20.40    0.88 
  -5   3  -3   15.81    0.74 
   7  -3   3   34.83    1.49 
   9  -3   3    0.26    0.12 
  11  -3   3   21.15    1.04 
  13  -3   3    1.54    0.27 
  15  -3   3    0.08    0.16 
  17  -3   3   27.67    1.37 
  19  -3   3   -0.01    0.16 
  21  -3   3    1.23    0.30 
  23  -3   3    0.95    0.26 
  25  -3   3    1.16    0.26 
  28   2  -3    1.78    0.37 
  26   2  -3    0.24    0.18 
  24   2  -3    0.54    0.20 
  22   2  -3    0.83    0.22 
  22   2  -3    0.54    0.15 
  20   2  -3   30.19    1.35 
  20   2  -3   29.71    1.16 
  18   2  -3    0.75    0.18 
  18   2  -3    0.87    0.14 
  16   2  -3   17.74    0.71 
  16   2  -3   17.02    0.82 
  14   2  -3   14.08    0.58 
  14   2  -3   14.40    0.68 
  12   2  -3    9.72    0.42 
  12   2  -3    9.29    0.48 
  10   2  -3   23.80    0.99 
  10   2  -3   24.73    0.91 
   8   2  -3   21.02    0.85 
   8   2  -3   20.65    0.78 
   6   2  -3    2.33    0.15 
   6   2  -3    2.04    0.14 
   4   2  -3    0.07    0.05 
   4   2  -3    0.06    0.04 
   2   2  -3    4.46    0.24 
   0   2  -3   16.96    0.70 
  -2   2  -3    2.08    0.16 
   4  -2   3    1.51    0.18 
   6  -2   3   13.80    0.67 
   8  -2   3    1.29    0.20 
 -10   2  -3    1.12    0.08 
  10  -2   3    1.26    0.21 
 -12   2  -3    3.23    0.15 
  12  -2   3    2.64    0.32 
  14  -2   3   21.74    1.07 
  16  -2   3   -0.07    0.12 
  18  -2   3    0.30    0.16 
  20  -2   3    0.38    0.17 
  22  -2   3    0.11    0.17 
  24  -2   3    0.05    0.20 
  26  -2   3    0.59    0.30 
  29   1  -3    1.38    0.35 
  27   1  -3    0.03    0.18 
  25   1  -3    4.00    0.45 
  23   1  -3    0.30    0.16 
  21   1  -3   12.09    0.55 
  21   1  -3   12.37    0.73 
  19   1  -3   14.96    0.78 
  19   1  -3   14.67    0.62 
  17   1  -3   29.09    1.27 
  17   1  -3   29.00    1.08 
  15   1  -3    0.67    0.14 
  15   1  -3    1.03    0.12 
  13   1  -3    5.14    0.32 
  13   1  -3    5.13    0.25 
  11   1  -3   66.41    2.49 
  11   1  -3   65.09    2.26 
   9   1  -3   56.76    1.91 
   9   1  -3   53.99    2.09 
   7   1  -3   37.12    1.29 
   7   1  -3   37.14    1.41 
   5   1  -3   85.43    3.13 
   5   1  -3   86.09    2.91 
   3   1  -3  106.76    3.88 
   1   1  -3    9.20    0.39 
  -1   1  -3  973.97   34.89 
   3  -1   3  267.43    9.67 
   5  -1   3    9.16    0.39 
   5  -1   3    9.04    0.45 
  -7   1  -3   30.89    1.02 
   7  -1   3   31.49    1.14 
   7  -1   3   31.36    1.28 
  -9   1  -3    9.67    0.34 
   9  -1   3    9.83    0.52 
   9  -1   3   10.19    0.44 
 -11   1  -3   75.63    2.39 
  11  -1   3   73.33    2.59 
  11  -1   3   71.78    2.86 
  13  -1   3    4.32    0.26 
  13  -1   3    3.74    0.32 
  15  -1   3   10.27    0.62 
  15  -1   3   11.14    0.51 
  17  -1   3    8.75    0.48 
  17  -1   3   11.27    0.65 
  19  -1   3    0.03    0.13 
  19  -1   3    0.03    0.09 
  21  -1   3    0.06    0.10 
  21  -1   3    0.01    0.13 
  23  -1   3    3.58    0.46 
  23  -1   3    3.54    0.32 
  25  -1   3    2.13    0.42 
  27  -1   3    0.38    0.27 
  30   0  -3    0.08    0.24 
  28   0  -3    0.05    0.19 
  26   0  -3    0.01    0.16 
  24   0  -3    0.18    0.16 
  22   0  -3    0.03    0.12 
  20   0  -3    0.10    0.07 
  20   0  -3   -0.08    0.11 
  18   0  -3    0.01    0.10 
  18   0  -3    0.03    0.06 
  16   0  -3    0.04    0.07 
  16   0  -3   -0.02    0.05 
  14   0  -3    0.08    0.05 
  14   0  -3    0.01    0.06 
  12   0  -3    0.02    0.04 
  12   0  -3   -0.03    0.06 
  10   0  -3   -0.05    0.05 
  10   0  -3   -0.04    0.04 
 -10   0   3    0.00    0.03 
   8   0  -3   -0.03    0.03 
   8   0  -3   -0.04    0.04 
  -8   0   3   -0.02    0.03 
   6   0  -3    0.02    0.02 
   6   0  -3    0.02    0.03 
  -6   0   3   -0.07    0.02 
   4   0  -3   -0.03    0.02 
  -4   0   3   -0.01    0.02 
   2   0  -3    0.02    0.02 
  -2   0   3    0.00    0.01 
  -2   0   3   -0.03    0.01 
   0   0  -3   -0.13    0.02 
   0   0   3   -0.14    0.02 
   2   0   3    0.02    0.02 
   2   0   3    0.00    0.01 
   2   0   3    0.00    0.02 
   4   0   3   -0.01    0.03 
   4   0   3   -0.08    0.03 
   6   0   3   -0.01    0.03 
   6   0   3    0.02    0.03 
   8   0   3    0.05    0.05 
   8   0   3    0.01    0.04 
  10   0   3   -0.03    0.06 
  10   0   3    0.01    0.05 
  12   0   3   -0.02    0.06 
  12   0   3   -0.03    0.05 
  14   0   3   -0.05    0.06 
  14   0   3   -0.03    0.07 
  16   0   3   -0.03    0.09 
  16   0   3   -0.08    0.05 
  18   0   3   -0.10    0.11 
  18   0   3    0.00    0.07 
  20   0   3    0.10    0.13 
  20   0   3    0.09    0.09 
  22   0   3    0.05    0.11 
  22   0   3    0.03    0.15 
  24   0   3   -0.17    0.14 
  24   0   3    0.09    0.10 
  26   0   3    0.03    0.21 
  28   0   3   -0.10    0.23 
  29  -1  -3    1.43    0.39 
  27  -1  -3   -0.13    0.16 
  25  -1  -3    4.39    0.49 
  23  -1  -3    0.05    0.14 
  21  -1  -3   12.01    0.72 
  19  -1  -3   13.93    0.60 
  19  -1  -3   13.65    0.77 
  17  -1  -3   29.84    1.07 
  17  -1  -3   28.06    1.28 
 -17   1   3   27.30    1.00 
  15  -1  -3    1.22    0.21 
  15  -1  -3    0.98    0.11 
 -15   1   3    0.90    0.10 
  13  -1  -3    5.29    0.35 
  13  -1  -3    5.08    0.25 
 -13   1   3    5.17    0.24 
  11  -1  -3   65.48    2.27 
  11  -1  -3   66.42    2.53 
 -11   1   3   66.01    2.17 
   9  -1  -3   53.74    2.06 
  -9   1   3   53.96    1.78 
   7  -1  -3   34.32    1.36 
  -7   1   3   35.87    1.17 
   5  -1  -3   83.76    3.11 
  -5   1   3   85.86    2.76 
  -3   1   3  110.41    3.72 
   1  -1  -3   10.14    0.38 
  -1   1   3    9.93    0.37 
   1   1   3 1000.00   33.38 
   3   1   3  286.75   10.00 
   3   1   3  268.92    9.31 
   5   1   3    9.91    0.42 
   5   1   3    9.36    0.39 
   7   1   3   30.63    1.11 
   7   1   3   30.78    1.21 
   9   1   3    9.78    0.42 
   9   1   3    9.90    0.48 
  11   1   3   72.65    2.82 
  11   1   3   75.65    2.59 
  13   1   3    4.86    0.34 
  13   1   3    5.28    0.29 
  15   1   3    9.56    0.56 
  15   1   3   10.59    0.48 
  17   1   3   10.69    0.51 
  17   1   3   10.68    0.62 
  19   1   3    0.05    0.11 
  19   1   3   -0.01    0.08 
  21   1   3   -0.19    0.10 
  21   1   3    0.06    0.09 
  23   1   3    3.12    0.28 
  23   1   3    3.70    0.43 
  25   1   3    2.72    0.41 
  27   1   3    0.23    0.23 
  28  -2  -3    1.89    0.40 
  26  -2  -3    0.24    0.19 
  24  -2  -3    0.14    0.15 
  22  -2  -3    0.65    0.23 
  20  -2  -3   27.06    1.31 
  18  -2  -3    0.76    0.21 
 -18   2   3    1.15    0.12 
  16  -2  -3   16.64    0.85 
 -16   2   3   16.85    0.63 
  14  -2  -3   12.91    0.69 
 -14   2   3   13.19    0.50 
  12  -2  -3    8.76    0.51 
 -12   2   3    9.56    0.38 
  10  -2  -3   22.20    0.98 
 -10   2   3   22.78    0.80 
   8  -2  -3   19.42    0.84 
   6  -2  -3    2.51    0.19 
   4  -2  -3    0.16    0.06 
  -4   2   3    0.06    0.04 
   2  -2  -3    4.75    0.23 
  -2   2   3    4.83    0.23 
   0   2   3   17.25    0.64 
   0   2   3   16.86    0.64 
   2   2   3    1.97    0.14 
   2   2   3    2.51    0.11 
   4   2   3    1.69    0.10 
   4   2   3    1.55    0.13 
   6   2   3   13.76    0.55 
   6   2   3   13.40    0.56 
   8   2   3    1.53    0.14 
   8   2   3    1.19    0.12 
  10   2   3    1.15    0.14 
  10   2   3    1.10    0.13 
  12   2   3    3.30    0.23 
  12   2   3    3.09    0.25 
  14   2   3   20.91    0.86 
  14   2   3   21.45    0.96 
  16   2   3   -0.02    0.08 
  16   2   3   -0.06    0.09 
  18   2   3    0.46    0.14 
  18   2   3    0.54    0.16 
  20   2   3    0.26    0.12 
  20   2   3    0.51    0.17 
  22   2   3    0.20    0.14 
  22   2   3    0.15    0.11 
  24   2   3    0.11    0.18 
  24   2   3    0.06    0.11 
  27  -3  -3    1.18    0.28 
  25  -3  -3    1.12    0.28 
  23  -3  -3    5.00    0.52 
  21  -3  -3    5.54    0.49 
  19  -3  -3   13.12    0.78 
  17  -3  -3    2.19    0.31 
 -17   3   3    2.25    0.17 
  15  -3  -3    0.62    0.18 
 -15   3   3    0.69    0.10 
  13  -3  -3    3.25    0.33 
 -13   3   3    3.62    0.21 
  11  -3  -3    1.26    0.20 
 -11   3   3    1.14    0.12 
   9  -3  -3   41.95    1.70 
   7  -3  -3   13.21    0.63 
   5  -3  -3    1.35    0.15 
  -5   3   3    1.30    0.13 
  -3   3   3    5.76    0.29 
  -3   3   3    6.13    0.30 
  -1   3   3   14.52    0.58 
  -1   3   3   13.78    0.56 
   1   3   3  135.30    5.00 
   1   3   3  141.90    4.74 
   3   3   3   21.06    0.83 
   3   3   3   21.19    0.80 
   5   3   3   14.97    0.60 
   5   3   3   15.26    0.63 
   7   3   3   32.97    1.26 
   7   3   3   34.76    1.30 
   9   3   3    0.49    0.09 
   9   3   3    0.23    0.08 
  11   3   3   19.53    0.84 
  11   3   3   20.05    0.81 
  13   3   3    1.81    0.21 
  13   3   3    1.44    0.19 
  15   3   3    0.06    0.10 
  17   3   3   28.91    1.17 
  19   3   3    0.08    0.11 
  21   3   3    1.33    0.23 
  23   3   3    1.45    0.24 
  25   3   3    1.43    0.23 
  26  -4  -3    0.04    0.15 
  24  -4  -3    0.68    0.23 
  22  -4  -3    0.20    0.17 
  20  -4  -3    1.24    0.29 
  18  -4  -3    1.60    0.31 
  16  -4  -3    0.34    0.17 
 -16   4   3    0.60    0.11 
  14  -4  -3    7.00    0.50 
 -14   4   3    6.20    0.33 
  12  -4  -3    6.17    0.45 
  10  -4  -3    1.42    0.23 
   8  -4  -3    2.92    0.28 
  -8   4   3    2.37    0.20 
  -6   4   3   11.06    0.53 
  -6   4   3   10.02    0.49 
  -4   4   3    0.61    0.11 
  -4   4   3    0.41    0.11 
  -2   4   3    6.76    0.36 
  -2   4   3    6.37    0.33 
   0   4   3    6.95    0.37 
   0   4   3    6.75    0.32 
   2   4   3    6.67    0.37 
   4   4   3    2.19    0.21 
   6   4   3    0.39    0.11 
   8   4   3    6.01    0.35 
  10   4   3    0.20    0.10 
  12   4   3    7.75    0.43 
  14   4   3    0.14    0.10 
  16   4   3    0.73    0.17 
  18   4   3    0.60    0.17 
  20   4   3    1.07    0.21 
  22   4   3    0.44    0.15 
  23  -5  -3    2.37    0.40 
  21  -5  -3    4.04    0.50 
  19  -5  -3    0.57    0.24 
  17  -5  -3    0.36    0.19 
  15  -5  -3    5.45    0.50 
 -15   5   3    4.62    0.30 
  13  -5  -3    4.32    0.43 
 -13   5   3    3.55    0.29 
 -11   5   3    0.46    0.16 
 -11   5   3    0.41    0.13 
  -9   5   3   -0.01    0.08 
  -9   5   3   -0.09    0.07 
  -7   5   3    4.60    0.31 
  -5   5   3   30.20    1.21 
  -3   5   3    3.19    0.28 
  -1   5   3   65.19    2.38 
   1   5   3    8.06    0.45 
   3   5   3    1.02    0.18 
   5   5   3    1.31    0.20 
   7   5   3    0.30    0.12 
   9   5   3    3.00    0.28 
  11   5   3    0.01    0.10 
  13   5   3    0.66    0.16 
  15   5   3    0.23    0.11 
  17   5   3    0.38    0.14 
  19   5   3    1.05    0.20 
 -14   6   3    3.49    0.27 
 -12   6   3    0.10    0.11 
 -10   6   3    1.54    0.22 
  -8   6   3    0.96    0.18 
  -6   6   3    5.74    0.39 
  -4   6   3    0.28    0.14 
  -2   6   3    0.14    0.13 
   0   6   3    0.00    0.10 
   2   6   3    0.78    0.19 
   4   6   3    1.43    0.23 
   6   6   3   -0.08    0.11 
   8   6   3    0.56    0.18 
  10   6   3    0.39    0.14 
  12   6   3    0.57    0.15 
  14   6   3    0.04    0.09 
  16   6   3    0.64    0.15 
 -11   7   3    1.68    0.27 
  -9   7   3    1.06    0.22 
  -7   7   3    2.42    0.31 
  -5   7   3    0.04    0.13 
  -3   7   3    0.63    0.20 
  -1   7   3    3.11    0.35 
   1   7   3    0.08    0.14 
   3   7   3    1.76    0.29 
   5   7   3    7.98    0.53 
   7   7   3    0.09    0.15 
   9   7   3    0.12    0.17 
  13   7  -4    0.32    0.12 
  11   7  -4    0.19    0.13 
   9   7  -4    0.42    0.14 
   7   7  -4    1.72    0.26 
   5   7  -4    0.39    0.18 
   3   7  -4    0.73    0.21 
   1   7  -4   -0.04    0.11 
  -1   7  -4    0.56    0.19 
  -3   7  -4    0.79    0.23 
  -5   7  -4    2.15    0.32 
  -7   7  -4    0.32    0.18 
  -9   7  -4    0.07    0.18 
  18   6  -4    2.28    0.28 
  16   6  -4    3.54    0.34 
  14   6  -4    1.18    0.21 
  12   6  -4    0.41    0.16 
  10   6  -4    1.22    0.22 
   8   6  -4    0.19    0.14 
   6   6  -4    0.62    0.17 
   4   6  -4    1.81    0.25 
   2   6  -4    0.76    0.17 
   0   6  -4   -0.12    0.09 
  -2   6  -4    8.84    0.53 
  -4   6  -4    4.19    0.34 
  -6   6  -4    0.34    0.14 
  -8   6  -4    1.31    0.28 
 -10   6  -4    0.11    0.19 
 -12   6  -4    0.48    0.22 
 -14   6  -4    2.23    0.39 
 -16   6  -4    0.21    0.26 
  23   5  -4    0.74    0.17 
  21   5  -4    0.09    0.11 
  19   5  -4    2.04    0.26 
  17   5  -4    0.15    0.12 
  15   5  -4    5.65    0.38 
  13   5  -4    0.40    0.14 
  11   5  -4    6.94    0.43 
   9   5  -4    0.20    0.13 
   7   5  -4    3.95    0.31 
   5   5  -4    0.10    0.11 
   5   5  -4    0.06    0.09 
   3   5  -4    2.28    0.25 
   3   5  -4    2.37    0.24 
   1   5  -4   18.45    0.81 
   1   5  -4   16.94    0.82 
  -1   5  -4   16.31    0.80 
  -1   5  -4   16.98    0.78 
  -3   5  -4    0.97    0.19 
  -5   5  -4    0.42    0.16 
  -7   5  -4    2.62    0.32 
  -9   5  -4    0.26    0.16 
 -11   5  -4    0.13    0.15 
 -13   5  -4    0.21    0.16 
 -15   5  -4    1.81    0.33 
 -17   5  -4    0.28    0.22 
 -19   5  -4    0.76    0.30 
  24   4  -4   -0.01    0.11 
  22   4  -4    4.30    0.33 
  20   4  -4   11.56    0.58 
  18   4  -4    0.50    0.14 
  16   4  -4    6.03    0.40 
  16   4  -4    5.94    0.36 
  14   4  -4    3.26    0.26 
  14   4  -4    3.02    0.25 
  12   4  -4   11.18    0.54 
  12   4  -4   11.51    0.57 
  10   4  -4    9.00    0.46 
  10   4  -4    9.04    0.46 
   8   4  -4   22.62    0.94 
   8   4  -4   21.53    0.90 
   6   4  -4    5.60    0.34 
   6   4  -4    5.67    0.33 
   4   4  -4    0.06    0.07 
   4   4  -4    0.07    0.08 
   2   4  -4   13.51    0.64 
   2   4  -4   13.73    0.62 
   0   4  -4   34.43    1.41 
  -2   4  -4   22.30    0.99 
  -4   4  -4   13.02    0.66 
  -6   4  -4   13.55    0.70 
  -8   4  -4    1.85    0.26 
 -10   4  -4   13.62    0.76 
  12  -4   4    0.06    0.17 
  14  -4   4    0.21    0.17 
  16  -4   4    3.54    0.46 
  18  -4   4    0.45    0.23 
  20  -4   4    7.32    0.69 
  22  -4   4    0.19    0.17 
  25   3  -4    1.18    0.28 
  23   3  -4    1.21    0.19 
  23   3  -4    1.63    0.28 
  21   3  -4    0.43    0.17 
  21   3  -4    0.18    0.11 
  19   3  -4    0.29    0.11 
  19   3  -4    0.29    0.14 
  17   3  -4    5.55    0.39 
  17   3  -4    6.40    0.34 
  15   3  -4    3.64    0.25 
  15   3  -4    3.69    0.28 
  13   3  -4    1.95    0.19 
  13   3  -4    2.69    0.22 
  11   3  -4    0.56    0.12 
  11   3  -4    0.37    0.10 
   9   3  -4   15.37    0.62 
   9   3  -4   14.19    0.65 
   7   3  -4    4.26    0.25 
   7   3  -4    3.71    0.24 
   5   3  -4   54.83    1.94 
   5   3  -4   53.40    2.05 
   3   3  -4    6.49    0.33 
   3   3  -4    5.79    0.32 
   1   3  -4    2.20    0.19 
  -1   3  -4   12.56    0.59 
  -3   3  -4   15.32    0.71 
  -5   3  -4    3.11    0.25 
   7  -3   4   11.06    0.63 
   9  -3   4    0.85    0.21 
  11  -3   4   23.78    1.15 
  13  -3   4    0.47    0.18 
  15  -3   4    0.34    0.17 
  17  -3   4    8.22    0.62 
  19  -3   4    2.75    0.41 
  21  -3   4    0.34    0.20 
  23  -3   4    3.13    0.46 
  30   2  -4    0.12    0.25 
  28   2  -4    0.73    0.26 
  26   2  -4    0.88    0.26 
  24   2  -4    3.12    0.39 
  22   2  -4   15.33    0.85 
  22   2  -4   15.79    0.69 
  20   2  -4    8.38    0.55 
  20   2  -4    8.90    0.44 
  18   2  -4    0.97    0.20 
  18   2  -4    1.30    0.15 
  16   2  -4   76.55    2.65 
  16   2  -4   75.08    2.93 
  14   2  -4   48.89    1.71 
  14   2  -4   47.40    1.90 
  12   2  -4   20.69    0.79 
  12   2  -4   20.71    0.89 
  10   2  -4    2.58    0.19 
  10   2  -4    2.60    0.17 
   8   2  -4   27.58    1.01 
   8   2  -4   27.40    1.09 
   6   2  -4   37.21    1.33 
   6   2  -4   37.32    1.43 
   4   2  -4    8.76    0.41 
   4   2  -4    8.86    0.38 
   2   2  -4    1.20    0.12 
   0   2  -4   19.16    0.79 
  -2   2  -4    1.37    0.15 
   4  -2   4  113.26    4.23 
   6  -2   4    1.76    0.21 
   8  -2   4    0.95    0.18 
  10  -2   4    9.99    0.58 
 -12   2  -4    2.75    0.13 
  12  -2   4    3.13    0.34 
  14  -2   4    0.30    0.14 
  16  -2   4    4.03    0.42 
  18  -2   4    1.19    0.26 
  20  -2   4    0.28    0.18 
  22  -2   4    3.51    0.48 
  24  -2   4    5.56    0.61 
  26  -2   4    0.52    0.32 
  29   1  -4    1.38    0.36 
  27   1  -4    2.68    0.42 
  25   1  -4    1.20    0.27 
  23   1  -4    4.69    0.46 
  21   1  -4    1.26    0.26 
  21   1  -4    0.45    0.10 
  19   1  -4    8.42    0.40 
  17   1  -4   29.43    1.14 
  17   1  -4   21.42    0.91 
  15   1  -4    5.20    0.27 
  15   1  -4    6.40    0.38 
  13   1  -4   11.93    0.53 
  13   1  -4    9.12    0.40 
  11   1  -4   72.41    2.66 
  11   1  -4   84.12    2.94 
   9   1  -4   38.28    1.35 
   9   1  -4   39.04    1.50 
   7   1  -4    8.27    0.32 
   7   1  -4    8.02    0.37 
   5   1  -4    1.76    0.12 
   5   1  -4    1.84    0.10 
   3   1  -4   82.93    3.03 
   1   1  -4  348.78   12.54 
  -1   1  -4  227.38    8.21 
   3  -1   4   47.46    1.79 
   3  -1   4   45.93    1.64 
   5  -1   4    0.13    0.06 
   5  -1   4    0.17    0.06 
  -7   1  -4    0.55    0.04 
   7  -1   4    0.35    0.10 
   7  -1   4    0.43    0.09 
   9  -1   4    5.60    0.37 
   9  -1   4    5.61    0.30 
  11  -1   4    0.85    0.17 
  11  -1   4    0.93    0.13 
  13  -1   4    3.56    0.31 
  13  -1   4    3.89    0.25 
  15  -1   4    0.53    0.13 
  15  -1   4    0.41    0.15 
  17  -1   4    1.30    0.26 
  17  -1   4    1.45    0.19 
  19  -1   4    2.69    0.26 
  19  -1   4    2.46    0.35 
  21  -1   4    0.46    0.15 
  21  -1   4    0.51    0.22 
  23  -1   4    0.71    0.17 
  23  -1   4    0.23    0.20 
  25  -1   4    1.36    0.34 
  27  -1   4    0.38    0.28 
  30   0  -4    0.77    0.33 
  28   0  -4    2.38    0.40 
  26   0  -4    5.82    0.56 
  24   0  -4    0.07    0.13 
  22   0  -4   20.75    1.07 
  20   0  -4    4.35    0.25 
  20   0  -4    4.09    0.40 
  18   0  -4    8.92    0.54 
  18   0  -4    8.52    0.38 
  16   0  -4    9.50    0.54 
  16   0  -4    9.86    0.41 
  14   0  -4  129.12    4.83 
  14   0  -4  130.23    4.39 
  12   0  -4   87.33    3.31 
  12   0  -4   89.27    2.99 
 -12   0   4   87.59    2.90 
  10   0  -4  311.06   11.12 
  10   0  -4  308.88   10.30 
 -10   0   4  303.05    9.90 
   8   0  -4  345.72   11.57 
   8   0  -4  354.64   12.45 
  -8   0   4  336.44   11.10 
   6   0  -4  239.92    8.50 
   6   0  -4  232.49    7.96 
  -6   0   4  233.18    7.58 
   4   0  -4  371.78   12.79 
  -4   0   4  339.87   11.42 
   2   0  -4   43.95    1.58 
  -2   0   4   42.81    1.41 
  -2   0   4   42.03    1.46 
   0   0  -4  610.57   21.24 
   0   0   4  573.18   19.78 
   2   0   4  112.64    4.02 
   2   0   4  121.09    4.34 
   2   0   4  124.19    3.86 
   4   0   4  156.15    5.40 
   4   0   4  164.03    5.83 
   6   0   4    0.19    0.06 
   6   0   4    0.16    0.05 
   8   0   4   47.89    1.68 
   8   0   4   46.85    1.85 
  10   0   4   19.69    0.88 
  10   0   4   19.44    0.76 
  12   0   4   16.64    0.68 
  12   0   4   16.58    0.80 
  14   0   4    3.25    0.29 
  14   0   4    3.37    0.23 
  16   0   4    2.28    0.30 
  16   0   4    2.43    0.22 
  18   0   4    5.91    0.46 
  18   0   4    5.80    0.35 
  20   0   4    0.36    0.18 
  20   0   4    0.22    0.11 
  22   0   4   -0.16    0.11 
  22   0   4    0.14    0.10 
  24   0   4    0.12    0.19 
  24   0   4    0.15    0.12 
  26   0   4   -0.01    0.21 
  29  -1  -4    1.42    0.38 
  27  -1  -4    2.10    0.38 
  25  -1  -4    1.01    0.27 
  23  -1  -4    4.31    0.45 
  21  -1  -4    1.09    0.25 
  19  -1  -4   16.39    0.88 
  19  -1  -4   16.42    0.68 
 -19   1   4   17.12    0.65 
  17  -1  -4   29.98    1.10 
  17  -1  -4   29.33    1.32 
 -17   1   4   29.17    1.04 
  15  -1  -4    6.50    0.30 
  15  -1  -4    6.61    0.43 
 -15   1   4    6.13    0.29 
  13  -1  -4   11.78    0.46 
  13  -1  -4   11.04    0.58 
 -13   1   4   11.09    0.44 
  11  -1  -4   82.08    3.09 
 -11   1   4   81.67    2.69 
   9  -1  -4   36.33    1.46 
  -9   1   4   38.20    1.26 
   7  -1  -4    8.31    0.38 
  -7   1   4    8.09    0.31 
   5  -1  -4    1.89    0.13 
  -5   1   4    2.03    0.09 
  -5   1   4    1.89    0.10 
   3  -1  -4   85.89    3.09 
  -3   1   4   84.56    2.88 
   1  -1  -4  381.10   13.76 
  -1   1   4  374.68   12.64 
  -1  -1  -4  230.67    8.23 
   1   1   4  223.53    7.61 
   3   1   4   49.38    1.78 
   3   1   4   46.67    1.66 
   5   1   4    0.21    0.05 
   5   1   4    0.14    0.05 
   7   1   4    0.57    0.09 
   7   1   4    0.52    0.08 
   9   1   4    5.91    0.30 
   9   1   4    5.95    0.33 
  11   1   4    1.06    0.16 
  11   1   4    0.94    0.13 
  13   1   4    3.44    0.24 
  13   1   4    4.11    0.30 
  15   1   4    0.41    0.12 
  15   1   4    0.54    0.14 
  17   1   4    1.66    0.26 
  17   1   4    1.42    0.19 
  19   1   4    2.40    0.24 
  19   1   4    2.41    0.33 
  21   1   4    0.68    0.15 
  21   1   4    0.29    0.16 
  23   1   4    0.68    0.23 
  23   1   4    0.50    0.14 
  25   1   4    1.00    0.29 
  25   1   4    1.29    0.21 
  27   1   4    0.30    0.26 
  30  -2  -4    0.04    0.23 
  28  -2  -4    0.27    0.16 
  26  -2  -4    1.00    0.28 
  24  -2  -4    2.39    0.38 
  22  -2  -4   13.74    0.83 
  20  -2  -4    8.18    0.57 
  18  -2  -4    1.56    0.27 
 -18   2   4    1.27    0.13 
  16  -2  -4   71.73    2.83 
 -16   2   4   71.22    2.38 
  14  -2  -4   45.48    1.87 
 -14   2   4   46.03    1.56 
  12  -2  -4   19.89    0.90 
 -12   2   4   19.61    0.71 
  10  -2  -4    2.68    0.22 
 -10   2   4    2.57    0.15 
   8  -2  -4   27.94    1.14 
  -8   2   4   27.92    0.97 
   6  -2  -4   37.75    1.45 
  -6   2   4   37.33    1.32 
   4  -2  -4    9.20    0.41 
  -4   2   4    9.05    0.37 
   2  -2  -4    1.28    0.09 
  -2   2   4    1.31    0.10 
   0   2   4   21.17    0.78 
   2   2   4    1.70    0.12 
   4   2   4  115.89    4.00 
   4   2   4  118.88    4.25 
   6   2   4    1.75    0.12 
   6   2   4    1.58    0.14 
   8   2   4    0.84    0.11 
   8   2   4    1.00    0.11 
  10   2   4    9.69    0.48 
  10   2   4   10.08    0.45 
  12   2   4    3.18    0.23 
  12   2   4    2.96    0.24 
  14   2   4    0.15    0.09 
  14   2   4    0.22    0.11 
  16   2   4    4.38    0.33 
  16   2   4    4.11    0.30 
  18   2   4    1.09    0.19 
  18   2   4    1.33    0.24 
  20   2   4    0.65    0.19 
  20   2   4    0.60    0.15 
  22   2   4    3.00    0.30 
  22   2   4    3.64    0.40 
  24   2   4    5.41    0.39 
  27  -3  -4    0.25    0.16 
  25  -3  -4    1.00    0.28 
  23  -3  -4    1.10    0.26 
  21  -3  -4    0.37    0.19 
  19  -3  -4    0.38    0.16 
  17  -3  -4    5.91    0.45 
 -17   3   4    5.55    0.29 
  15  -3  -4    4.16    0.35 
 -15   3   4    3.38    0.21 
  13  -3  -4    2.21    0.27 
 -13   3   4    2.34    0.17 
  11  -3  -4    0.50    0.13 
 -11   3   4    0.39    0.08 
   9  -3  -4   15.87    0.74 
   7  -3  -4    2.55    0.22 
  -7   3   4    3.73    0.21 
   5  -3  -4   57.41    2.13 
  -5   3   4   54.65    1.97 
  -3   3   4    7.21    0.34 
  -3   3   4    6.91    0.32 
  -1   3   4    2.46    0.17 
  -1   3   4    2.48    0.13 
   1   3   4   14.12    0.59 
   3   3   4   17.30    0.70 
   5   3   4    3.05    0.21 
   5   3   4    3.28    0.16 
   7   3   4   11.10    0.47 
   7   3   4   10.68    0.49 
   9   3   4    0.76    0.13 
   9   3   4    0.63    0.10 
  11   3   4   25.88    1.06 
  11   3   4   24.94    1.00 
  13   3   4    0.51    0.13 
  15   3   4    0.27    0.13 
  17   3   4    9.14    0.50 
  19   3   4    2.87    0.30 
  21   3   4    0.20    0.14 
  23   3   4    3.62    0.34 
  25   3   4    0.69    0.15 
  26  -4  -4    1.17    0.26 
  24  -4  -4    0.04    0.15 
  22  -4  -4    4.54    0.51 
  20  -4  -4   10.40    0.72 
  18  -4  -4    0.35    0.18 
  16  -4  -4    5.88    0.47 
 -16   4   4    6.12    0.32 
  14  -4  -4    3.03    0.34 
 -14   4   4    3.05    0.21 
  12  -4  -4   12.82    0.71 
  10  -4  -4    8.96    0.53 
 -10   4   4    8.64    0.43 
  -6   4   4    5.20    0.31 
  -6   4   4    5.73    0.33 
  -4   4   4    0.15    0.06 
  -4   4   4    0.18    0.08 
  -2   4   4   13.97    0.60 
  -2   4   4   15.21    0.63 
   0   4   4   35.31    1.33 
   2   4   4   25.35    1.01 
   4   4   4   14.18    0.63 
   6   4   4   15.82    0.69 
   8   4   4    1.36    0.18 
  10   4   4   13.27    0.61 
  12   4   4    0.07    0.09 
  14   4   4    0.26    0.12 
  16   4   4    3.18    0.29 
  18   4   4   -0.02    0.12 
  20   4   4    7.44    0.48 
  22   4   4    0.40    0.16 
  23  -5  -4    0.84    0.24 
  21  -5  -4    0.23    0.18 
  19  -5  -4    1.96    0.35 
  17  -5  -4    0.15    0.15 
 -17   5   4    0.03    0.08 
  15  -5  -4    5.11    0.49 
 -15   5   4    5.45    0.32 
 -15   5   4    5.46    0.35 
  13  -5  -4    0.34    0.17 
 -13   5   4    0.33    0.12 
  11  -5  -4    7.84    0.53 
 -11   5   4    7.20    0.43 
  -9   5   4    0.40    0.12 
  -7   5   4    4.31    0.30 
  -5   5   4    0.08    0.09 
  -3   5   4    2.07    0.22 
  -1   5   4   16.95    0.76 
   1   5   4   18.10    0.80 
   3   5   4    0.78    0.16 
   5   5   4    0.28    0.12 
   7   5   4    2.43    0.25 
   9   5   4   -0.02    0.10 
  11   5   4   -0.03    0.10 
  13   5   4   -0.05    0.10 
  15   5   4    2.75    0.30 
  17   5   4    0.44    0.14 
  19   5   4    1.22    0.23 
 -16   6   4    3.16    0.29 
 -14   6   4    0.97    0.17 
 -12   6   4    0.68    0.16 
 -10   6   4    1.48    0.22 
  -8   6   4    0.23    0.12 
  -6   6   4    0.26    0.12 
  -4   6   4    2.06    0.26 
  -2   6   4    0.55    0.16 
   0   6   4    0.15    0.11 
   2   6   4    9.61    0.55 
   4   6   4    4.78    0.36 
   6   6   4    0.30    0.14 
   8   6   4    1.21    0.23 
  10   6   4    0.07    0.10 
  12   6   4    0.49    0.15 
  14   6   4    1.77    0.25 
  16   6   4    0.65    0.15 
 -11   7   4   -0.01    0.16 
  -9   7   4    0.10    0.15 
  -7   7   4    1.98    0.29 
  -5   7   4    0.14    0.14 
  -3   7   4    1.06    0.23 
  -1   7   4    0.45    0.18 
   1   7   4    0.52    0.19 
   3   7   4    0.76    0.22 
   5   7   4    2.80    0.35 
   7   7   4   -0.06    0.15 
   9   7   4    0.76    0.22 
  13   7  -5    2.18    0.29 
  11   7  -5    2.45    0.30 
   9   7  -5    0.17    0.11 
   7   7  -5    1.50    0.24 
   5   7  -5    0.13    0.14 
   3   7  -5    1.13    0.23 
   1   7  -5    1.98    0.30 
  -1   7  -5    0.75    0.21 
  -3   7  -5    1.41    0.27 
  -5   7  -5    3.62    0.40 
  -7   7  -5    0.83    0.24 
  18   6  -5    1.26    0.21 
  16   6  -5    0.17    0.11 
  14   6  -5    0.73    0.18 
  12   6  -5    2.08    0.27 
  10   6  -5    0.94    0.19 
   8   6  -5    2.32    0.28 
   6   6  -5    0.94    0.19 
   4   6  -5    0.04    0.10 
   2   6  -5    0.67    0.17 
   0   6  -5    0.93    0.20 
  -2   6  -5    0.24    0.15 
  -4   6  -5    0.12    0.12 
  -6   6  -5    0.64    0.21 
  -8   6  -5    2.06    0.34 
 -10   6  -5    2.39    0.37 
 -12   6  -5    0.02    0.20 
 -14   6  -5    0.75    0.28 
  23   5  -5    3.17    0.31 
  21   5  -5    1.49    0.22 
  19   5  -5   -0.01    0.11 
  17   5  -5    5.18    0.36 
  15   5  -5    0.62    0.17 
  13   5  -5    8.42    0.48 
  11   5  -5   15.73    0.74 
   9   5  -5   16.58    0.77 
   7   5  -5   18.40    0.83 
   7   5  -5   18.52    0.83 
   5   5  -5    2.62    0.25 
   5   5  -5    2.30    0.26 
   3   5  -5    9.45    0.53 
   3   5  -5    9.37    0.51 
   1   5  -5    0.95    0.18 
   1   5  -5    1.17    0.19 
  -1   5  -5    3.29    0.31 
  -1   5  -5    3.35    0.30 
  -3   5  -5   10.75    0.60 
  -5   5  -5    0.84    0.20 
  -7   5  -5    3.86    0.38 
  -9   5  -5    8.54    0.58 
 -11   5  -5    0.67    0.21 
 -13   5  -5    2.51    0.36 
 -15   5  -5    0.37    0.21 
 -17   5  -5   -0.05    0.19 
 -19   5  -5    0.20    0.26 
  24   4  -5    0.24    0.14 
  22   4  -5    1.33    0.21 
  20   4  -5    0.11    0.11 
  18   4  -5    3.83    0.33 
  18   4  -5    3.84    0.28 
  16   4  -5   15.51    0.77 
  16   4  -5   15.50    0.70 
  14   4  -5    1.01    0.17 
  14   4  -5    0.87    0.15 
  12   4  -5   15.28    0.69 
  12   4  -5   15.56    0.72 
  10   4  -5    4.92    0.31 
  10   4  -5    4.94    0.31 
   8   4  -5    1.42    0.17 
   8   4  -5    0.99    0.16 
   6   4  -5   -0.14    0.05 
   6   4  -5    0.03    0.08 
   4   4  -5    7.38    0.41 
   4   4  -5    7.06    0.40 
   2   4  -5    5.69    0.34 
   2   4  -5    5.68    0.36 
   0   4  -5    7.39    0.43 
  -2   4  -5   13.64    0.68 
  -4   4  -5    5.66    0.38 
  -6   4  -5    2.71    0.29 
  -8   4  -5    1.18    0.23 
 -10   4  -5    1.72    0.27 
  12  -4   5    0.11    0.17 
  14  -4   5    0.86    0.25 
  16  -4   5    0.48    0.21 
  18  -4   5    1.56    0.32 
  20  -4   5    0.71    0.24 
  22  -4   5    0.54    0.21 
  27   3  -5    1.57    0.34 
  25   3  -5    0.16    0.17 
  23   3  -5    0.18    0.14 
  23   3  -5    0.02    0.12 
  21   3  -5    0.22    0.12 
  21   3  -5    0.27    0.15 
  19   3  -5    1.53    0.25 
  19   3  -5    1.34    0.17 
  17   3  -5    6.24    0.33 
  17   3  -5    5.18    0.38 
  15   3  -5    4.49    0.28 
  15   3  -5    5.40    0.35 
  13   3  -5   22.12    0.88 
  13   3  -5   22.18    0.96 
  11   3  -5   33.31    1.34 
  11   3  -5   32.94    1.24 
   9   3  -5    5.89    0.33 
   9   3  -5    5.94    0.31 
   7   3  -5   19.43    0.78 
   7   3  -5   19.74    0.83 
   5   3  -5   13.59    0.60 
   5   3  -5   12.78    0.57 
   3   3  -5    7.82    0.40 
   1   3  -5    2.91    0.22 
  -1   3  -5    0.34    0.10 
  -3   3  -5   12.06    0.60 
  -5   3  -5    0.37    0.12 
  -7   3  -5   10.99    0.61 
   7  -3   5   11.66    0.65 
   9  -3   5   13.75    0.76 
  11  -3   5    1.84    0.30 
  13  -3   5   31.82    1.49 
  15  -3   5    3.60    0.43 
  17  -3   5    0.20    0.17 
  19  -3   5    1.59    0.33 
  21  -3   5   -0.05    0.16 
  23  -3   5    1.88    0.36 
  30   2  -5    0.03    0.23 
  28   2  -5    0.22    0.20 
  26   2  -5    1.43    0.31 
  24   2  -5   -0.06    0.13 
  22   2  -5    0.18    0.14 
  22   2  -5    0.21    0.11 
  20   2  -5    1.11    0.23 
  20   2  -5    0.88    0.15 
  18   2  -5   15.05    0.77 
  18   2  -5   15.50    0.64 
  16   2  -5    1.56    0.21 
  16   2  -5    1.57    0.15 
  14   2  -5    2.48    0.22 
  14   2  -5    2.77    0.18 
  12   2  -5   40.99    1.46 
  12   2  -5   40.22    1.60 
  10   2  -5    0.42    0.08 
  10   2  -5    0.29    0.08 
   8   2  -5    6.87    0.34 
   8   2  -5    6.46    0.31 
   6   2  -5   63.33    2.35 
   6   2  -5   62.33    2.19 
   4   2  -5    4.62    0.26 
   2   2  -5    1.22    0.13 
   0   2  -5   28.68    1.15 
  -2   2  -5  131.93    4.86 
  -4   2  -5    1.40    0.17 
   6  -2   5    7.80    0.46 
   8  -2   5   14.61    0.74 
  10  -2   5    0.87    0.19 
  12  -2   5    0.35    0.16 
  14  -2   5    1.45    0.27 
  14  -2   5    1.75    0.22 
  16  -2   5    6.52    0.41 
  16  -2   5    5.30    0.48 
  18  -2   5    0.13    0.11 
  18  -2   5    0.24    0.16 
  20  -2   5    0.23    0.16 
  22  -2   5    0.12    0.19 
  24  -2   5    0.44    0.27 
  31   1  -5    0.24    0.27 
  29   1  -5    6.13    0.62 
  27   1  -5    5.82    0.58 
  25   1  -5    0.51    0.21 
  23   1  -5    0.10    0.13 
  21   1  -5    5.69    0.43 
  21   1  -5    3.81    0.25 
  19   1  -5    6.15    0.31 
  17   1  -5    9.69    0.55 
  15   1  -5   34.98    1.45 
  13   1  -5    1.05    0.15 
  11   1  -5  131.19    4.83 
   9   1  -5  221.94    8.04 
   7   1  -5    7.37    0.33 
   7   1  -5    6.15    0.27 
   5   1  -5  167.07    6.05 
   3   1  -5  311.66   11.21 
   1   1  -5  729.08   26.13 
  -1   1  -5    8.29    0.40 
   3  -1   5  263.12    9.59 
   3  -1   5  266.24    8.91 
   5  -1   5    0.41    0.08 
   5  -1   5    0.34    0.10 
   7  -1   5   12.57    0.64 
   7  -1   5   14.16    0.57 
   9  -1   5    5.75    0.38 
   9  -1   5    5.72    0.31 
  11  -1   5    1.31    0.21 
  11  -1   5    1.33    0.16 
  13  -1   5   29.55    1.33 
  13  -1   5   29.67    1.15 
  15  -1   5   11.96    0.68 
  15  -1   5   10.19    0.52 
  17  -1   5    6.69    0.51 
  17  -1   5    6.62    0.40 
  19  -1   5    0.40    0.14 
  19  -1   5    0.59    0.20 
  21  -1   5    4.93    0.51 
  21  -1   5    4.80    0.35 
  23  -1   5    0.36    0.14 
  23  -1   5    0.25    0.19 
  25  -1   5    0.05    0.23 
  30   0  -5   -0.09    0.20 
  28   0  -5    0.24    0.19 
  26   0  -5    0.17    0.18 
  24   0  -5   -0.01    0.12 
  22   0  -5    0.07    0.12 
  20   0  -5   -0.19    0.10 
  20   0  -5    0.02    0.06 
  18   0  -5    0.07    0.10 
  18   0  -5   -0.01    0.05 
  16   0  -5   -0.01    0.07 
  16   0  -5    0.02    0.05 
  14   0  -5    0.06    0.07 
  14   0  -5    0.00    0.04 
 -14   0   5    0.03    0.04 
  12   0  -5    0.05    0.03 
  12   0  -5    0.06    0.06 
 -12   0   5    0.03    0.04 
  10   0  -5   -0.28    0.03 
  10   0  -5   -0.20    0.06 
 -10   0   5   -0.31    0.03 
   8   0  -5    0.00    0.02 
   8   0  -5    0.00    0.04 
  -8   0   5   -0.07    0.03 
   6   0  -5   -0.06    0.03 
   6   0  -5   -0.05    0.01 
  -6   0   5   -0.09    0.03 
   4   0  -5    0.15    0.04 
  -4   0   5   -0.04    0.02 
   2   0  -5   -0.03    0.02 
  -2   0   5   -0.05    0.01 
   0   0  -5   -0.02    0.02 
   0   0   5    0.01    0.01 
   0   0   5   -0.06    0.02 
   2   0   5    0.02    0.02 
   2   0   5   -0.01    0.03 
   2   0   5    0.00    0.03 
   4   0   5   -0.01    0.03 
   4   0   5   -0.03    0.03 
   4   0   5   -0.03    0.01 
   6   0   5   -0.05    0.04 
   6   0   5   -0.04    0.04 
   8   0   5   -0.02    0.05 
   8   0   5    0.02    0.05 
  10   0   5   -0.03    0.04 
  10   0   5    0.08    0.08 
  12   0   5    0.02    0.06 
  12   0   5    0.06    0.06 
  14   0   5   -0.08    0.06 
  14   0   5   -0.07    0.07 
  16   0   5   -0.06    0.08 
  16   0   5   -0.09    0.06 
  18   0   5   -0.01    0.12 
  18   0   5    0.02    0.08 
  20   0   5   -0.02    0.09 
  20   0   5    0.09    0.14 
  22   0   5   -0.02    0.09 
  22   0   5   -0.03    0.12 
  24   0   5    0.00    0.17 
  24   0   5    0.12    0.11 
  26   0   5    0.17    0.23 
  31  -1  -5    0.55    0.33 
  29  -1  -5    5.93    0.63 
  27  -1  -5    4.55    0.52 
  25  -1  -5    0.35    0.19 
  23  -1  -5   -0.04    0.11 
  21  -1  -5    5.14    0.44 
  19  -1  -5    9.47    0.60 
  19  -1  -5    9.96    0.44 
 -19   1   5    9.65    0.42 
  17  -1  -5   10.20    0.43 
  17  -1  -5   10.23    0.59 
 -17   1   5   10.07    0.43 
  15  -1  -5   32.68    1.39 
  15  -1  -5   33.51    1.18 
 -15   1   5   32.29    1.15 
  13  -1  -5    0.77    0.15 
 -13   1   5    1.21    0.11 
  11  -1  -5  128.06    4.77 
 -11   1   5  130.62    4.21 
   9  -1  -5  210.26    7.49 
  -9   1   5  202.10    6.64 
   7  -1  -5    7.04    0.34 
  -7   1   5    6.96    0.28 
   5  -1  -5  171.30    6.13 
  -5   1   5  169.31    5.69 
  -5   1   5  168.28    5.47 
   3  -1  -5  348.35   12.05 
  -3   1   5  339.47   11.22 
  -3   1   5  318.02   10.75 
   1  -1  -5  790.52   28.44 
  -1   1   5  786.92   26.33 
  -1  -1  -5    8.32    0.35 
   1   1   5    8.64    0.35 
   3   1   5  270.60    9.64 
   3   1   5  265.15    8.99 
   5   1   5    0.46    0.08 
   5   1   5    0.33    0.07 
   7   1   5   13.17    0.54 
   7   1   5   13.68    0.60 
   9   1   5    6.19    0.32 
   9   1   5    5.97    0.35 
  11   1   5    1.26    0.18 
  11   1   5    1.20    0.15 
  13   1   5   28.78    1.25 
  13   1   5   28.83    1.11 
  15   1   5   11.00    0.62 
  15   1   5   11.05    0.53 
  17   1   5    6.73    0.48 
  17   1   5    7.12    0.40 
  19   1   5    0.46    0.13 
  19   1   5    0.20    0.14 
  21   1   5    4.39    0.44 
  21   1   5    4.07    0.31 
  23   1   5    0.20    0.11 
  23   1   5    0.12    0.17 
  25   1   5    0.17    0.11 
  25   1   5    0.22    0.21 
  30  -2  -5    0.31    0.19 
  28  -2  -5    0.10    0.15 
  26  -2  -5    1.12    0.29 
  24  -2  -5    0.08    0.14 
  22  -2  -5   -0.10    0.13 
  20  -2  -5    0.93    0.23 
  18  -2  -5   13.99    0.77 
 -18   2   5   14.35    0.57 
  16  -2  -5    1.69    0.25 
 -16   2   5    1.37    0.14 
  14  -2  -5    2.11    0.25 
 -14   2   5    2.88    0.17 
  12  -2  -5   39.97    1.65 
 -12   2   5   41.19    1.39 
  10  -2  -5    0.37    0.11 
 -10   2   5    0.32    0.06 
   8  -2  -5    6.15    0.34 
  -8   2   5    6.77    0.28 
  -6   2   5   62.25    2.14 
   4  -2  -5    4.62    0.23 
  -4   2   5    4.66    0.21 
   2  -2  -5    1.59    0.09 
  -2   2   5    1.44    0.11 
   0   2   5   32.99    1.18 
   2   2   5  135.72    4.61 
   4   2   5    1.15    0.12 
   4   2   5    1.33    0.09 
   6   2   5    6.81    0.33 
   6   2   5    7.08    0.33 
   8   2   5   14.71    0.61 
   8   2   5   15.21    0.65 
  10   2   5    0.96    0.13 
  10   2   5    0.95    0.14 
  12   2   5    0.63    0.13 
  12   2   5    0.66    0.14 
  14   2   5    1.40    0.18 
  14   2   5    1.36    0.20 
  16   2   5    5.78    0.41 
  16   2   5    6.28    0.38 
  18   2   5    0.04    0.10 
  18   2   5    0.01    0.12 
  20   2   5    0.44    0.17 
  20   2   5    0.35    0.14 
  22   2   5    0.29    0.14 
  24   2   5    0.44    0.15 
  26   2   5    0.38    0.11 
  27  -3  -5    2.60    0.42 
  25  -3  -5    0.54    0.23 
  23  -3  -5    0.02    0.14 
  21  -3  -5    0.20    0.16 
  19  -3  -5    1.51    0.29 
 -19   3   5    1.30    0.14 
  17  -3  -5    5.92    0.46 
 -17   3   5    6.17    0.31 
  15  -3  -5    4.79    0.38 
 -15   3   5    4.97    0.26 
  13  -3  -5   23.33    1.06 
 -13   3   5   22.86    0.85 
  11  -3  -5   34.85    1.47 
 -11   3   5   35.43    1.24 
   9  -3  -5    5.99    0.36 
  -9   3   5    5.71    0.29 
   7  -3  -5   14.00    0.71 
  -7   3   5   19.04    0.67 
   5  -3  -5   14.20    0.62 
  -5   3   5   14.10    0.58 
  -3   3   5    8.31    0.38 
  -3   3   5    8.40    0.36 
  -1   3   5    2.91    0.14 
  -1   3   5    2.69    0.18 
   1   3   5    0.33    0.08 
   3   3   5   10.91    0.48 
   5   3   5    0.40    0.05 
   5   3   5    0.38    0.09 
   7   3   5   10.82    0.51 
   7   3   5   11.64    0.48 
   9   3   5   12.96    0.59 
   9   3   5   14.28    0.60 
  11   3   5    2.15    0.21 
  13   3   5   29.63    1.17 
  15   3   5    3.62    0.29 
  17   3   5    0.10    0.12 
  19   3   5    2.00    0.26 
  21   3   5    0.19    0.13 
  23   3   5    2.09    0.27 
  26  -4  -5    0.92    0.23 
  24  -4  -5    0.39    0.18 
  22  -4  -5    1.19    0.29 
  20  -4  -5    0.00    0.14 
  18  -4  -5    3.55    0.40 
 -18   4   5    3.28    0.23 
  16  -4  -5   16.36    0.87 
 -16   4   5   15.08    0.64 
  14  -4  -5    0.87    0.21 
 -14   4   5    0.88    0.13 
  12  -4  -5   14.81    0.78 
 -12   4   5   15.54    0.62 
 -12   4   5   14.44    0.64 
  10  -4  -5    5.27    0.38 
 -10   4   5    5.35    0.31 
   8  -4  -5    1.55    0.20 
  -8   4   5    1.19    0.15 
  -6   4   5    0.06    0.06 
  -6   4   5    0.03    0.06 
  -4   4   5    6.98    0.36 
  -4   4   5    6.40    0.33 
  -2   4   5    5.36    0.31 
   0   4   5    6.47    0.35 
   2   4   5   13.16    0.60 
   4   4   5    6.42    0.36 
   6   4   5    2.57    0.23 
   8   4   5    1.05    0.16 
  10   4   5    1.49    0.20 
  12   4   5   -0.03    0.08 
  14   4   5    1.07    0.19 
  16   4   5    0.29    0.14 
  18   4   5    1.58    0.24 
  20   4   5    0.46    0.16 
  22   4   5    0.32    0.13 
  23  -5  -5    3.53    0.48 
  21  -5  -5    1.60    0.33 
  19  -5  -5    0.10    0.16 
  17  -5  -5    4.22    0.45 
 -17   5   5    4.51    0.29 
  15  -5  -5    0.90    0.23 
 -15   5   5    0.87    0.15 
  13  -5  -5    9.48    0.62 
 -13   5   5    9.97    0.51 
 -13   5   5    8.96    0.46 
 -11   5   5   15.26    0.69 
  -9   5   5   19.10    0.83 
  -7   5   5   19.22    0.83 
  -5   5   5    3.14    0.26 
  -3   5   5    9.67    0.50 
  -1   5   5    0.73    0.16 
   1   5   5    3.51    0.28 
   3   5   5   14.29    0.68 
   5   5   5    1.00    0.18 
   7   5   5    4.52    0.32 
   9   5   5    8.79    0.49 
  11   5   5    0.79    0.16 
  13   5   5    2.81    0.29 
  15   5   5    0.51    0.15 
  17   5   5    0.04    0.11 
  19   5   5    0.60    0.15 
 -16   6   5    0.34    0.13 
 -14   6   5    0.59    0.15 
 -12   6   5    2.31    0.26 
 -10   6   5    1.09    0.20 
  -8   6   5    3.02    0.29 
  -6   6   5    0.82    0.17 
  -4   6   5   -0.07    0.09 
  -2   6   5    0.62    0.15 
   0   6   5    0.62    0.15 
   2   6   5    0.04    0.11 
   4   6   5    0.05    0.12 
   6   6   5    0.81    0.19 
   8   6   5    1.61    0.25 
  10   6   5    2.07    0.27 
  12   6   5    0.06    0.09 
  14   6   5    0.49    0.13 
 -11   7   5    3.36    0.36 
  -9   7   5    0.08    0.14 
  -7   7   5    1.26    0.24 
  -5   7   5    0.52    0.17 
  -3   7   5    1.31    0.24 
  -1   7   5    2.81    0.34 
   1   7   5    1.10    0.24 
   3   7   5    1.64    0.29 
   5   7   5    4.38    0.42 
   7   7   5    0.57    0.21 
  13   7  -6    1.32    0.21 
  11   7  -6    0.30    0.13 
   9   7  -6    0.16    0.10 
   7   7  -6    0.13    0.09 
   5   7  -6    0.10    0.16 
   3   7  -6    0.51    0.19 
   1   7  -6    0.77    0.22 
  -1   7  -6    0.07    0.15 
  -3   7  -6    1.89    0.31 
  -5   7  -6    0.02    0.16 
  -7   7  -6   -0.05    0.16 
  20   6  -6    0.63    0.14 
  18   6  -6    3.10    0.32 
  16   6  -6    1.33    0.22 
  14   6  -6    0.02    0.11 
  12   6  -6    1.39    0.24 
  10   6  -6    4.56    0.36 
   8   6  -6   10.53    0.59 
   6   6  -6    1.84    0.25 
   4   6  -6    4.30    0.35 
   2   6  -6    0.29    0.13 
   0   6  -6    3.06    0.33 
  -2   6  -6    4.33    0.35 
  -4   6  -6    0.44    0.16 
  -4   6  -6    0.44    0.19 
  -6   6  -6    2.35    0.33 
  -8   6  -6    0.68    0.24 
 -10   6  -6    3.86    0.46 
 -12   6  -6    2.17    0.39 
 -14   6  -6    1.24    0.33 
  23   5  -6    2.02    0.26 
  21   5  -6    2.12    0.26 
  19   5  -6    1.29    0.21 
  17   5  -6    0.00    0.11 
  15   5  -6    0.24    0.13 
  13   5  -6   21.29    0.93 
  11   5  -6    1.97    0.24 
   9   5  -6    8.05    0.47 
   9   5  -6    8.29    0.46 
   7   5  -6    0.98    0.17 
   7   5  -6    0.84    0.19 
   5   5  -6    0.91    0.17 
   5   5  -6    1.01    0.19 
   3   5  -6   12.15    0.63 
   3   5  -6   11.86    0.61 
   1   5  -6    3.33    0.31 
   1   5  -6    3.77    0.31 
  -1   5  -6    2.62    0.29 
  -3   5  -6    3.33    0.33 
  -5   5  -6    0.16    0.14 
  -7   5  -6    0.06    0.15 
  -9   5  -6    1.35    0.27 
 -11   5  -6    0.10    0.14 
 -13   5  -6    0.34    0.20 
 -15   5  -6    0.08    0.19 
 -17   5  -6    0.15    0.23 
 -19   5  -6    0.24    0.26 
  24   4  -6    1.96    0.24 
  22   4  -6    3.67    0.29 
  20   4  -6   14.20    0.66 
  18   4  -6    5.10    0.33 
  18   4  -6    5.23    0.40 
  16   4  -6    1.97    0.25 
  16   4  -6    1.58    0.20 
  14   4  -6    0.14    0.10 
  14   4  -6    0.33    0.11 
  12   4  -6    0.07    0.09 
  12   4  -6    0.28    0.11 
  10   4  -6    8.68    0.47 
  10   4  -6    9.06    0.46 
   8   4  -6   32.51    1.26 
   8   4  -6   31.83    1.31 
   6   4  -6    4.23    0.29 
   6   4  -6    3.90    0.28 
   4   4  -6   29.47    1.21 
   4   4  -6   28.00    1.14 
   2   4  -6    8.23    0.46 
   0   4  -6   10.53    0.56 
  -2   4  -6    4.68    0.34 
  -4   4  -6   11.48    0.63 
  -6   4  -6    1.31    0.22 
  -8   4  -6    0.53    0.18 
 -10   4  -6    2.12    0.31 
 -12   4  -6    1.72    0.30 
  14  -4   6    0.27    0.18 
  16  -4   6    1.93    0.37 
  18  -4   6    3.98    0.51 
  20  -4   6    0.40    0.19 
  27   3  -6    0.27    0.19 
  25   3  -6    5.06    0.45 
  23   3  -6    1.08    0.18 
  23   3  -6    1.18    0.24 
  21   3  -6   17.62    0.92 
  21   3  -6   18.44    0.78 
  19   3  -6    0.06    0.12 
  19   3  -6    0.11    0.09 
  17   3  -6   13.33    0.69 
  17   3  -6   13.32    0.59 
  15   3  -6   31.47    1.17 
  15   3  -6   29.71    1.29 
  13   3  -6   26.11    0.99 
  13   3  -6   24.28    1.07 
  11   3  -6    7.45    0.40 
  11   3  -6    7.72    0.38 
   9   3  -6    3.04    0.22 
   9   3  -6    2.78    0.20 
   7   3  -6    9.16    0.43 
   7   3  -6    9.28    0.46 
   5   3  -6    2.91    0.21 
   5   3  -6    3.05    0.22 
   3   3  -6   24.57    1.03 
   1   3  -6    0.08    0.07 
  -1   3  -6    2.41    0.23 
  -3   3  -6    0.01    0.07 
  -5   3  -6   27.24    1.19 
  -7   3  -6    0.63    0.15 
   9  -3   6    0.22    0.15 
  11  -3   6    6.85    0.52 
  13  -3   6   22.33    1.15 
  15  -3   6    2.41    0.37 
  17  -3   6    4.05    0.48 
  19  -3   6    0.00    0.15 
  21  -3   6    1.74    0.34 
  23  -3   6    0.37    0.25 
  30   2  -6    0.01    0.23 
  28   2  -6    0.84    0.28 
  26   2  -6    1.96    0.34 
  24   2  -6    7.08    0.53 
  22   2  -6    0.19    0.10 
  22   2  -6    0.21    0.14 
  20   2  -6   20.24    0.82 
  20   2  -6   20.66    0.99 
  18   2  -6   11.62    0.64 
  18   2  -6   11.99    0.51 
  16   2  -6    8.02    0.36 
  16   2  -6    6.74    0.43 
  14   2  -6    0.80    0.15 
  14   2  -6    0.71    0.10 
  12   2  -6    4.96    0.31 
  12   2  -6    5.07    0.26 
  10   2  -6   11.13    0.46 
  10   2  -6   11.34    0.52 
   8   2  -6   45.67    1.60 
   8   2  -6   44.87    1.74 
   6   2  -6    0.44    0.08 
   6   2  -6    0.27    0.07 
   4   2  -6    1.90    0.15 
   2   2  -6    6.44    0.34 
   0   2  -6   98.78    3.67 
  -2   2  -6  133.75    4.93 
  -4   2  -6  154.08    5.68 
   6  -2   6   50.06    2.02 
   8  -2   6    0.01    0.09 
  10  -2   6    2.64    0.31 
  12  -2   6   54.18    2.16 
  12  -2   6   48.48    1.92 
  14  -2   6   14.06    0.81 
  14  -2   6   14.63    0.70 
  16  -2   6   14.93    0.72 
  16  -2   6   13.55    0.83 
  18  -2   6    5.85    0.52 
  18  -2   6    6.28    0.43 
  20  -2   6   -0.10    0.14 
  22  -2   6   -0.01    0.18 
  24  -2   6    0.99    0.34 
  31   1  -6    3.90    0.56 
  29   1  -6    0.12    0.22 
  27   1  -6    0.51    0.22 
  25   1  -6    0.65    0.20 
  23   1  -6    9.80    0.63 
  21   1  -6   25.11    1.19 
  21   1  -6   25.03    0.96 
  19   1  -6   -0.09    0.09 
  19   1  -6    0.08    0.08 
  17   1  -6   11.56    0.47 
  17   1  -6   11.31    0.61 
  15   1  -6    0.95    0.10 
  15   1  -6    0.49    0.13 
  13   1  -6    0.20    0.08 
  13   1  -6    0.03    0.04 
  11   1  -6    1.14    0.14 
  11   1  -6    0.98    0.08 
   9   1  -6   28.91    1.15 
   7   1  -6    1.22    0.08 
   5   1  -6    5.95    0.29 
   3   1  -6    3.99    0.22 
   1   1  -6  519.95   18.67 
  -1   1  -6  206.76    7.53 
   1  -1   6  209.11    7.02 
  -3   1  -6  200.66    7.22 
   3  -1   6  196.05    6.71 
   5  -1   6    3.41    0.26 
   5  -1   6    3.95    0.22 
   7  -1   6    1.55    0.20 
   7  -1   6    1.59    0.15 
   9  -1   6    5.73    0.39 
   9  -1   6    5.76    0.31 
  11  -1   6    2.93    0.30 
  11  -1   6    2.69    0.21 
  13  -1   6    0.11    0.08 
  13  -1   6    0.06    0.09 
  15  -1   6    0.56    0.13 
  15  -1   6    0.54    0.17 
  17  -1   6    2.18    0.33 
  17  -1   6    2.93    0.27 
  19  -1   6    2.87    0.28 
  19  -1   6    2.24    0.36 
  21  -1   6    1.70    0.24 
  21  -1   6    0.99    0.27 
  23  -1   6    1.55    0.35 
  23  -1   6    2.01    0.27 
  25  -1   6    0.21    0.25 
  30   0  -6    0.33    0.24 
  28   0  -6    4.42    0.52 
  26   0  -6    5.82    0.51 
  24   0  -6    4.53    0.47 
  22   0  -6    4.40    0.43 
  20   0  -6   47.55    1.73 
  20   0  -6   51.43    2.06 
  18   0  -6    0.11    0.05 
  18   0  -6    0.42    0.14 
  16   0  -6   14.92    0.56 
  16   0  -6   14.69    0.73 
  14   0  -6    5.24    0.34 
  14   0  -6    5.75    0.24 
 -14   0   6    5.17    0.27 
  12   0  -6    1.61    0.18 
  12   0  -6    1.92    0.10 
 -12   0   6    1.63    0.13 
  10   0  -6  107.00    3.98 
  10   0  -6  110.53    3.63 
 -10   0   6  106.09    3.53 
   8   0  -6    9.82    0.44 
   8   0  -6    9.67    0.34 
  -8   0   6    9.67    0.38 
   6   0  -6  583.35   20.26 
  -6   0   6  546.37   18.09 
   4   0  -6    3.42    0.20 
  -4   0   6    3.57    0.18 
  -4   0   6    3.59    0.16 
   2   0  -6  485.90   17.01 
  -2   0   6  464.92   15.84 
  -2   0   6  471.12   15.19 
   0   0  -6  132.73    4.80 
   0   0   6  131.57    4.46 
  -2   0  -6   99.76    3.70 
   2   0   6  100.64    3.44 
   2   0   6  102.57    3.26 
   4   0   6    6.69    0.34 
   4   0   6    6.41    0.30 
   4   0   6    6.63    0.23 
   6   0   6   14.02    0.63 
   6   0   6   13.44    0.55 
   8   0   6   38.01    1.56 
   8   0   6   39.12    1.41 
  10   0   6   32.39    1.36 
  10   0   6   31.86    1.20 
  12   0   6    1.14    0.15 
  12   0   6    1.64    0.22 
  14   0   6    3.29    0.33 
  14   0   6    3.11    0.24 
  16   0   6    2.88    0.25 
  16   0   6    2.74    0.33 
  18   0   6   27.91    1.14 
  18   0   6   28.24    1.35 
  20   0   6    0.23    0.12 
  20   0   6    0.42    0.19 
  22   0   6    0.91    0.26 
  22   0   6    0.65    0.16 
  24   0   6   -0.02    0.09 
  24   0   6   -0.01    0.18 
  26   0   6    0.86    0.33 
  31  -1  -6    3.42    0.54 
  29  -1  -6    0.04    0.20 
  27  -1  -6    0.59    0.24 
  25  -1  -6    0.36    0.18 
  23  -1  -6   10.76    0.69 
  21  -1  -6   24.90    1.22 
 -21   1   6   25.32    0.94 
  19  -1  -6    0.00    0.12 
 -19   1   6    0.09    0.07 
  17  -1  -6    9.43    0.58 
  17  -1  -6   11.29    0.45 
 -17   1   6   11.12    0.46 
  15  -1  -6    0.71    0.16 
 -15   1   6    0.79    0.11 
  13  -1  -6    0.05    0.08 
 -13   1   6    0.13    0.06 
  11  -1  -6    1.03    0.14 
 -11   1   6    1.10    0.10 
   9  -1  -6   27.57    1.09 
  -9   1   6   26.56    0.93 
   7  -1  -6    2.24    0.15 
  -7   1   6    2.20    0.13 
  -7   1   6    2.31    0.10 
  -5   1   6    6.19    0.23 
  -5   1   6    5.79    0.24 
   3  -1  -6    4.77    0.21 
  -3   1   6    5.02    0.20 
  -3   1   6    4.53    0.20 
   1  -1  -6  550.04   19.63 
  -1   1   6  542.51   18.25 
  -1  -1  -6  220.36    7.88 
   1   1   6  217.23    7.35 
   3   1   6  194.00    7.08 
   3   1   6  198.06    6.61 
   5   1   6    3.74    0.21 
   5   1   6    3.75    0.22 
   7   1   6    1.38    0.15 
   7   1   6    1.35    0.14 
   9   1   6    6.02    0.32 
   9   1   6    5.81    0.35 
  11   1   6    2.48    0.21 
  11   1   6    2.88    0.24 
  13   1   6    0.00    0.07 
  13   1   6    0.05    0.08 
  15   1   6    0.51    0.13 
  15   1   6    0.42    0.15 
  17   1   6    3.01    0.24 
  17   1   6    2.35    0.30 
  19   1   6    2.27    0.24 
  19   1   6    2.04    0.31 
  21   1   6    1.32    0.28 
  21   1   6    2.08    0.24 
  23   1   6    1.91    0.35 
  23   1   6    2.06    0.26 
  25   1   6    0.28    0.11 
  25   1   6    0.07    0.20 
  30  -2  -6    0.29    0.15 
  28  -2  -6    0.64    0.21 
  26  -2  -6    2.32    0.38 
  24  -2  -6    7.07    0.56 
  22  -2  -6    0.11    0.14 
  20  -2  -6   19.50    1.01 
 -20   2   6   19.80    0.76 
  18  -2  -6   11.18    0.66 
 -18   2   6   11.98    0.50 
  16  -2  -6    6.22    0.44 
 -16   2   6    7.35    0.33 
  14  -2  -6    0.70    0.16 
 -14   2   6    0.74    0.10 
  12  -2  -6    4.97    0.34 
 -12   2   6    5.46    0.26 
  10  -2  -6   11.28    0.56 
 -10   2   6   11.72    0.46 
   8  -2  -6   48.66    1.84 
  -8   2   6   49.02    1.62 
  -8   2   6   45.98    1.65 
   6  -2  -6    0.54    0.08 
  -6   2   6    0.39    0.06 
   4  -2  -6    2.03    0.13 
  -4   2   6    2.16    0.13 
   2  -2  -6    6.61    0.27 
  -2   2   6    6.64    0.29 
   0   2   6  103.49    3.53 
   2   2   6  133.87    4.55 
   4   2   6  154.88    5.64 
   4   2   6  157.14    5.30 
   6   2   6   48.28    1.74 
   6   2   6   49.35    1.84 
   8   2   6    0.11    0.05 
   8   2   6    0.02    0.06 
  10   2   6    3.61    0.24 
  10   2   6    3.69    0.26 
  12   2   6   57.94    2.03 
  12   2   6   53.62    2.18 
  14   2   6   12.98    0.68 
  14   2   6   13.56    0.62 
  16   2   6   14.85    0.67 
  16   2   6   13.18    0.73 
  18   2   6    6.54    0.47 
  18   2   6    6.39    0.40 
  20   2   6    0.40    0.14 
  22   2   6    0.18    0.13 
  24   2   6    0.90    0.18 
  29  -3  -6    0.70    0.22 
  27  -3  -6    0.63    0.23 
  25  -3  -6    5.43    0.56 
  23  -3  -6    0.97    0.25 
  21  -3  -6   17.87    0.98 
  19  -3  -6    0.10    0.14 
 -19   3   6   -0.11    0.06 
  17  -3  -6   12.67    0.72 
 -17   3   6   12.89    0.54 
  15  -3  -6   29.32    1.30 
 -15   3   6   28.64    1.05 
  13  -3  -6   25.68    1.14 
 -13   3   6   25.20    0.93 
  11  -3  -6    7.95    0.46 
 -11   3   6    7.72    0.36 
 -11   3   6    7.84    0.36 
   9  -3  -6    3.22    0.24 
  -9   3   6    2.81    0.18 
   7  -3  -6    8.94    0.45 
  -7   3   6    9.44    0.41 
   5  -3  -6    3.39    0.21 
  -5   3   6    3.37    0.20 
  -3   3   6   23.97    0.91 
  -3   3   6   23.83    0.90 
  -1   3   6    0.11    0.05 
   1   3   6    2.58    0.18 
   3   3   6    0.07    0.05 
   5   3   6   28.13    1.07 
   7   3   6    0.59    0.12 
   9   3   6    0.32    0.10 
  11   3   6    6.84    0.39 
  13   3   6   23.55    0.98 
  15   3   6    2.93    0.28 
  17   3   6    4.13    0.32 
  19   3   6    0.07    0.13 
  21   3   6    2.02    0.28 
  23   3   6    0.64    0.16 
  26  -4  -6    4.11    0.52 
  24  -4  -6    1.86    0.36 
  22  -4  -6    3.78    0.47 
  20  -4  -6   12.38    0.78 
  18  -4  -6    5.01    0.47 
 -18   4   6    5.37    0.31 
  16  -4  -6    1.69    0.29 
 -16   4   6    1.71    0.18 
  14  -4  -6    0.17    0.13 
 -14   4   6    0.27    0.09 
 -14   4   6    0.26    0.09 
  12  -4  -6    0.34    0.14 
 -12   4   6    0.18    0.07 
 -12   4   6    0.28    0.09 
 -10   4   6    9.18    0.44 
   8  -4  -6   34.21    1.37 
  -8   4   6   32.14    1.25 
  -6   4   6    3.96    0.25 
  -4   4   6   29.02    1.14 
  -4   4   6   29.80    1.13 
  -2   4   6    8.57    0.42 
   0   4   6   11.42    0.53 
   2   4   6    4.99    0.30 
   4   4   6   14.51    0.64 
   6   4   6    1.44    0.18 
   8   4   6    0.81    0.15 
  10   4   6    2.11    0.22 
  12   4   6    1.87    0.23 
  14   4   6    0.36    0.14 
  16   4   6    2.19    0.27 
  18   4   6    3.15    0.33 
  20   4   6    0.02    0.11 
  22   4   6    0.91    0.18 
  23  -5  -6    2.42    0.40 
  21  -5  -6    2.17    0.39 
  19  -5  -6    1.49    0.30 
  17  -5  -6    0.30    0.19 
 -17   5   6    0.08    0.10 
  15  -5  -6    0.60    0.21 
 -15   5   6    0.35    0.11 
 -13   5   6   19.80    0.81 
 -13   5   6   19.94    0.85 
 -11   5   6    2.16    0.23 
  -9   5   6    8.28    0.45 
  -7   5   6    0.96    0.17 
  -5   5   6    0.83    0.16 
  -3   5   6   11.85    0.58 
  -1   5   6    3.72    0.29 
   1   5   6    2.84    0.26 
   3   5   6    3.64    0.29 
   5   5   6   -0.01    0.09 
   7   5   6    0.15    0.10 
   9   5   6    0.87    0.18 
  11   5   6    0.12    0.11 
  13   5   6    0.35    0.14 
  15   5   6    0.10    0.11 
  17   5   6    0.02    0.10 
  19   5   6    0.27    0.12 
 -16   6   6    0.85    0.18 
 -14   6   6    0.13    0.12 
 -12   6   6    1.20    0.20 
 -10   6   6    4.71    0.34 
  -8   6   6    9.39    0.52 
  -6   6   6    2.37    0.27 
  -4   6   6    4.25    0.33 
  -2   6   6    0.24    0.12 
   0   6   6    2.90    0.30 
   2   6   6    5.09    0.38 
   4   6   6    0.39    0.15 
   6   6   6    1.83    0.26 
   8   6   6    0.62    0.18 
  10   6   6    3.18    0.33 
  12   6   6    2.41    0.28 
  14   6   6    1.25    0.21 
 -13   7   6    1.33    0.24 
  -9   7   6    0.00    0.13 
  -7   7   6   -0.08    0.12 
  -5   7   6    0.17    0.15 
  -3   7   6    0.35    0.16 
  -1   7   6    0.65    0.20 
   1   7   6    0.00    0.13 
   3   7   6    2.17    0.31 
   5   7   6    0.53    0.21 
   7   7   6    0.05    0.15 
  13   7  -7    0.28    0.12 
  11   7  -7    0.16    0.11 
   9   7  -7    0.03    0.10 
   7   7  -7    0.34    0.14 
   5   7  -7   -0.04    0.13 
   3   7  -7    0.29    0.17 
   1   7  -7    0.09    0.14 
  -1   7  -7    0.03    0.14 
  -3   7  -7    0.52    0.22 
  -5   7  -7    2.59    0.36 
  -7   7  -7    0.72    0.24 
  20   6  -7    0.46    0.13 
  18   6  -7    1.34    0.22 
  16   6  -7    0.66    0.18 
  14   6  -7    2.31    0.29 
  12   6  -7    1.28    0.23 
  10   6  -7   -0.03    0.10 
   8   6  -7    2.99    0.31 
   6   6  -7    1.47    0.24 
   4   6  -7    0.99    0.20 
   2   6  -7    0.70    0.17 
   0   6  -7    0.04    0.11 
  -2   6  -7    4.49    0.40 
  -2   6  -7    5.44    0.44 
  -4   6  -7    0.68    0.21 
  -6   6  -7    0.28    0.18 
  -8   6  -7    0.21    0.20 
 -10   6  -7    0.69    0.28 
 -12   6  -7    0.23    0.24 
 -14   6  -7    0.01    0.23 
  23   5  -7    2.71    0.29 
  21   5  -7    1.96    0.25 
  19   5  -7    5.64    0.38 
  17   5  -7    2.20    0.26 
  15   5  -7   14.50    0.70 
  13   5  -7    1.36    0.21 
  11   5  -7    2.50    0.27 
   9   5  -7    0.65    0.15 
   9   5  -7    0.41    0.15 
   7   5  -7    4.36    0.34 
   7   5  -7    4.45    0.33 
   5   5  -7   16.34    0.81 
   5   5  -7   17.59    0.79 
   3   5  -7    6.62    0.43 
   3   5  -7    7.08    0.44 
   1   5  -7    1.06    0.19 
   1   5  -7    1.15    0.21 
  -1   5  -7    2.03    0.27 
  -3   5  -7   11.81    0.67 
  -5   5  -7    7.59    0.53 
  -7   5  -7    0.13    0.14 
  -9   5  -7    2.11    0.32 
 -11   5  -7    0.21    0.17 
 -13   5  -7    0.42    0.21 
 -15   5  -7    0.14    0.21 
 -17   5  -7    0.94    0.32 
  22   4  -7    0.09    0.10 
  20   4  -7    0.98    0.17 
  20   4  -7    1.38    0.24 
  18   4  -7   10.67    0.54 
  18   4  -7   10.98    0.62 
  16   4  -7    0.34    0.13 
  16   4  -7    0.51    0.16 
  14   4  -7    1.54    0.20 
  14   4  -7    1.55    0.19 
  12   4  -7    0.12    0.08 
  12   4  -7   -0.04    0.09 
  10   4  -7    1.40    0.19 
  10   4  -7    1.44    0.19 
   8   4  -7    0.61    0.13 
   8   4  -7    0.63    0.14 
   6   4  -7    5.71    0.34 
   6   4  -7    5.42    0.35 
   4   4  -7    8.94    0.48 
   4   4  -7    8.02    0.44 
   2   4  -7    0.15    0.10 
   0   4  -7    0.12    0.10 
  -2   4  -7    3.12    0.30 
  -4   4  -7   -0.02    0.09 
  -6   4  -7    2.54    0.30 
  -8   4  -7    1.34    0.25 
 -10   4  -7    1.53    0.27 
 -12   4  -7    0.95    0.25 
 -14   4  -7    2.91    0.39 
  16  -4   7    2.74    0.43 
  18  -4   7    1.07    0.31 
  20  -4   7    0.38    0.18 
  29   3  -7   -0.01    0.23 
  27   3  -7    1.00    0.26 
  25   3  -7    0.30    0.17 
  23   3  -7    2.65    0.33 
  23   3  -7    2.53    0.24 
  21   3  -7   16.44    0.70 
  21   3  -7   15.86    0.85 
  19   3  -7   14.88    0.65 
  19   3  -7   15.20    0.78 
  17   3  -7    5.94    0.41 
  17   3  -7    6.45    0.34 
  15   3  -7   20.89    0.96 
  15   3  -7   22.06    0.87 
  13   3  -7    3.96    0.29 
  13   3  -7    4.36    0.26 
  11   3  -7    1.02    0.13 
  11   3  -7    1.01    0.15 
   9   3  -7    0.20    0.08 
   9   3  -7    0.19    0.08 
   7   3  -7   11.49    0.56 
   7   3  -7   12.10    0.53 
   5   3  -7    2.98    0.23 
   3   3  -7    0.79    0.14 
   1   3  -7    0.06    0.07 
  -1   3  -7   36.90    1.51 
  -3   3  -7   35.58    1.47 
  -5   3  -7    7.88    0.48 
  -7   3  -7    4.54    0.36 
   9  -3   7    2.72    0.35 
  11  -3   7    2.23    0.34 
  13  -3   7    6.59    0.54 
  15  -3   7    0.00    0.15 
  17  -3   7    2.06    0.38 
  19  -3   7    0.54    0.23 
  21  -3   7    2.33    0.44 
  23  -3   7   -0.07    0.26 
  30   2  -7    0.87    0.32 
  28   2  -7    2.43    0.40 
  26   2  -7    0.10    0.15 
  24   2  -7    0.00    0.11 
  22   2  -7    2.03    0.29 
  22   2  -7    1.41    0.16 
  20   2  -7   18.48    0.94 
  20   2  -7   19.48    0.76 
  18   2  -7    0.38    0.10 
  18   2  -7    0.37    0.15 
  16   2  -7    1.34    0.13 
  16   2  -7    1.33    0.20 
  14   2  -7    3.40    0.20 
  14   2  -7    3.47    0.26 
  12   2  -7    4.67    0.25 
  12   2  -7    4.67    0.30 
  10   2  -7   56.42    1.95 
  10   2  -7   54.79    2.13 
   8   2  -7    9.83    0.42 
   8   2  -7    9.98    0.47 
   6   2  -7    4.71    0.28 
   4   2  -7    1.94    0.16 
   2   2  -7    5.13    0.30 
   0   2  -7   36.64    1.46 
  -2   2  -7    0.06    0.07 
  -4   2  -7   75.25    2.88 
   6  -2   7   11.90    0.65 
   8  -2   7    6.04    0.43 
  10  -2   7    7.13    0.49 
  12  -2   7    6.50    0.49 
  12  -2   7    6.40    0.40 
  14  -2   7    6.39    0.51 
  14  -2   7    6.22    0.41 
  16  -2   7    0.61    0.17 
  16  -2   7    0.39    0.18 
  18  -2   7   -0.16    0.12 
  18  -2   7    0.08    0.11 
  20  -2   7   -0.14    0.15 
  20  -2   7   -0.05    0.11 
  22  -2   7    0.08    0.21 
  24  -2   7    0.22    0.27 
  31   1  -7    2.97    0.50 
  29   1  -7    0.08    0.21 
  27   1  -7    1.74    0.34 
  25   1  -7    0.70    0.22 
  23   1  -7    1.96    0.30 
  21   1  -7   90.28    3.37 
  21   1  -7   81.47    2.95 
  19   1  -7    4.68    0.25 
  19   1  -7    4.82    0.38 
  17   1  -7   24.19    0.87 
  17   1  -7   22.87    1.05 
  15   1  -7  108.42    3.67 
  15   1  -7  107.59    4.06 
  13   1  -7   34.43    1.19 
  13   1  -7   32.99    1.37 
  11   1  -7   16.29    0.74 
  11   1  -7   17.93    0.63 
   9   1  -7    8.49    0.37 
   9   1  -7   10.98    0.46 
   7   1  -7  127.83    4.67 
   5   1  -7    2.67    0.17 
   3   1  -7   85.48    3.16 
   1   1  -7    2.05    0.16 
  -1   1  -7  352.52   12.69 
   1  -1   7  351.31   11.82 
  -3   1  -7   45.06    1.78 
   3  -1   7   46.54    1.64 
   5  -1   7    4.83    0.26 
   5  -1   7    4.15    0.30 
   7  -1   7    0.67    0.14 
   7  -1   7    0.70    0.12 
   9  -1   7    2.49    0.21 
   9  -1   7    2.29    0.26 
  11  -1   7   14.96    0.65 
  11  -1   7   14.36    0.77 
  13  -1   7    0.40    0.16 
  13  -1   7    0.71    0.14 
  15  -1   7   10.31    0.54 
  15  -1   7   10.82    0.67 
  17  -1   7    0.21    0.17 
  17  -1   7    0.09    0.11 
  19  -1   7    0.01    0.15 
  19  -1   7    0.31    0.13 
  21  -1   7    5.88    0.58 
  21  -1   7    6.64    0.44 
  23  -1   7    0.20    0.13 
  23  -1   7    0.08    0.21 
  25  -1   7   -0.08    0.22 
  30   0  -7    0.18    0.23 
  28   0  -7    0.22    0.20 
  26   0  -7    0.16    0.17 
  24   0  -7    0.10    0.13 
  22   0  -7    0.00    0.12 
  20   0  -7    0.16    0.13 
  18   0  -7   -0.03    0.08 
  18   0  -7    0.04    0.04 
  16   0  -7    0.09    0.08 
  16   0  -7    0.01    0.03 
 -16   0   7   -0.01    0.04 
  14   0  -7   -0.02    0.03 
  14   0  -7    0.08    0.08 
 -14   0   7    0.02    0.04 
  12   0  -7   -0.03    0.03 
  12   0  -7    0.04    0.08 
 -12   0   7    0.05    0.04 
  10   0  -7   -0.17    0.02 
  10   0  -7   -0.07    0.06 
 -10   0   7   -0.11    0.04 
   8   0  -7   -0.08    0.03 
   8   0  -7   -0.06    0.01 
  -8   0   7   -0.03    0.03 
   6   0  -7   -0.07    0.04 
  -6   0   7   -0.14    0.04 
   4   0  -7   -0.09    0.03 
  -4   0   7   -0.06    0.02 
  -4   0   7   -0.09    0.03 
   2   0  -7   -0.20    0.03 
  -2   0   7   -0.14    0.03 
   0   0  -7   -0.02    0.04 
   0   0   7   -0.05    0.01 
   0   0   7   -0.04    0.03 
  -2   0  -7    0.02    0.04 
   2   0   7   -0.03    0.03 
   2   0   7   -0.01    0.02 
   4   0   7    0.22    0.07 
   4   0   7   -0.05    0.03 
   4   0   7   -0.02    0.02 
   6   0   7   -0.02    0.04 
   6   0   7   -0.03    0.04 
   8   0   7    0.01    0.05 
   8   0   7    0.00    0.06 
  10   0   7   -0.03    0.06 
  10   0   7   -0.03    0.05 
  12   0   7    0.03    0.06 
  12   0   7   -0.11    0.06 
  14   0   7    0.06    0.08 
  14   0   7    0.00    0.09 
  16   0   7    0.01    0.12 
  16   0   7    0.08    0.08 
  18   0   7    0.18    0.13 
  18   0   7    0.13    0.11 
  20   0   7    0.05    0.09 
  20   0   7    0.05    0.14 
  22   0   7    0.14    0.18 
  22   0   7    0.01    0.09 
  24   0   7    0.13    0.11 
  24   0   7   -0.04    0.19 
  31  -1  -7    2.94    0.51 
  29  -1  -7    0.18    0.24 
  27  -1  -7    1.72    0.35 
  25  -1  -7    0.86    0.23 
  23  -1  -7    2.32    0.35 
  21  -1  -7   80.35    3.27 
 -21   1   7   83.35    2.77 
  19  -1  -7    4.40    0.38 
 -19   1   7    4.29    0.25 
  17  -1  -7   20.52    1.00 
 -17   1   7   22.41    0.81 
  15  -1  -7  100.43    3.84 
 -15   1   7  102.83    3.36 
  13  -1  -7   32.98    1.35 
 -13   1   7   33.06    1.16 
  11  -1  -7   16.53    0.72 
 -11   1   7   16.07    0.61 
   9  -1  -7   11.56    0.52 
  -9   1   7   11.45    0.40 
  -9   1   7   11.28    0.44 
   7  -1  -7  125.60    4.68 
  -7   1   7  128.26    4.18 
  -7   1   7  131.79    4.32 
  -5   1   7    2.93    0.12 
  -5   1   7    2.44    0.14 
   3  -1  -7   88.05    3.14 
  -3   1   7   86.53    2.93 
  -3   1   7   85.18    2.82 
   1  -1  -7    1.85    0.11 
  -1   1   7    2.07    0.12 
  -1  -1  -7  362.68   12.96 
   1   1   7  358.96   12.09 
   3   1   7   45.32    1.75 
   3   1   7   47.95    1.64 
   5   1   7    4.25    0.25 
   5   1   7    4.36    0.23 
   7   1   7    0.87    0.13 
   7   1   7    0.47    0.10 
   9   1   7    2.11    0.19 
   9   1   7    2.41    0.21 
  11   1   7   13.43    0.69 
  11   1   7   14.68    0.62 
  13   1   7    0.60    0.14 
  13   1   7    0.63    0.14 
  15   1   7    9.26    0.56 
  15   1   7    9.22    0.48 
  17   1   7    0.09    0.13 
  17   1   7    0.10    0.10 
  19   1   7    0.08    0.14 
  19   1   7    0.19    0.11 
  21   1   7    6.12    0.40 
  21   1   7    6.39    0.52 
  23   1   7    0.30    0.20 
  23   1   7    0.32    0.13 
  25   1   7    0.25    0.11 
  25   1   7    0.11    0.21 
  30  -2  -7    0.85    0.25 
  28  -2  -7    2.37    0.40 
  26  -2  -7    0.18    0.16 
  24  -2  -7    0.09    0.16 
  22  -2  -7    1.51    0.29 
  20  -2  -7   19.62    1.00 
 -20   2   7   18.89    0.75 
  18  -2  -7    0.29    0.14 
 -18   2   7    0.41    0.10 
  16  -2  -7    1.33    0.22 
 -16   2   7    1.15    0.13 
  14  -2  -7    3.21    0.27 
 -14   2   7    3.04    0.19 
  12  -2  -7    4.66    0.32 
 -12   2   7    4.57    0.24 
  10  -2  -7   57.05    2.17 
 -10   2   7   55.28    1.93 
 -10   2   7   56.54    1.89 
   8  -2  -7   10.68    0.48 
  -8   2   7   10.03    0.40 
  -8   2   7   10.22    0.41 
   6  -2  -7    4.35    0.25 
  -6   2   7    4.98    0.22 
  -6   2   7    5.03    0.23 
   4  -2  -7    2.02    0.13 
  -4   2   7    2.10    0.13 
  -2   2   7    5.74    0.26 
   0   2   7   37.29    1.33 
   2   2   7    2.10    0.15 
   4   2   7   75.00    2.78 
   4   2   7   76.93    2.64 
   6   2   7   11.33    0.50 
   6   2   7   12.03    0.51 
   8   2   7    5.50    0.32 
   8   2   7    6.26    0.33 
  10   2   7    8.24    0.41 
  10   2   7    7.55    0.42 
  12   2   7    6.59    0.39 
  12   2   7    6.56    0.40 
  14   2   7    5.54    0.38 
  14   2   7    5.81    0.37 
  16   2   7    0.69    0.17 
  16   2   7    0.56    0.15 
  18   2   7   -0.03    0.09 
  18   2   7   -0.06    0.12 
  20   2   7    0.01    0.11 
  22   2   7    0.36    0.14 
  24   2   7    0.38    0.11 
  29  -3  -7    0.12    0.16 
  27  -3  -7    1.04    0.26 
  25  -3  -7    0.21    0.19 
  23  -3  -7    2.54    0.38 
  21  -3  -7   14.29    0.83 
  19  -3  -7   14.42    0.81 
 -19   3   7   14.20    0.60 
  17  -3  -7    5.82    0.43 
 -17   3   7    5.42    0.30 
  15  -3  -7   18.49    0.94 
 -15   3   7   21.28    0.78 
  13  -3  -7    4.15    0.33 
 -13   3   7    4.61    0.24 
 -13   3   7    4.44    0.25 
  11  -3  -7    1.19    0.17 
 -11   3   7    1.13    0.13 
 -11   3   7    1.07    0.12 
   9  -3  -7    0.04    0.05 
  -9   3   7    0.23    0.07 
  -9   3   7    0.26    0.07 
   7  -3  -7   11.99    0.54 
  -7   3   7   11.30    0.48 
   5  -3  -7    3.56    0.21 
  -5   3   7    3.61    0.21 
  -3   3   7    0.66    0.06 
  -3   3   7    0.71    0.10 
  -1   3   7    0.03    0.05 
   1   3   7   37.01    1.36 
   3   3   7   37.38    1.38 
   5   3   7    7.21    0.37 
   7   3   7    4.28    0.27 
   9   3   7    3.02    0.24 
  11   3   7    2.17    0.23 
  13   3   7    7.05    0.42 
  15   3   7    0.09    0.11 
  17   3   7    2.34    0.28 
  19   3   7    0.85    0.19 
  21   3   7    3.01    0.33 
  23   3   7    0.37    0.12 
  26  -4  -7    1.16    0.30 
  24  -4  -7    0.99    0.28 
  22  -4  -7    0.01    0.14 
  20  -4  -7    1.01    0.25 
 -20   4   7    1.15    0.16 
  18  -4  -7   10.38    0.67 
 -18   4   7   10.87    0.50 
  16  -4  -7    0.49    0.17 
 -16   4   7    0.45    0.11 
  14  -4  -7    1.57    0.25 
 -14   4   7    1.60    0.17 
 -14   4   7    1.75    0.17 
  12  -4  -7    0.16    0.12 
 -12   4   7    0.14    0.08 
 -12   4   7    0.04    0.06 
  10  -4  -7    1.43    0.21 
 -10   4   7    1.53    0.16 
   8  -4  -7    0.91    0.15 
  -8   4   7    0.70    0.12 
   6  -4  -7    5.89    0.34 
  -6   4   7    6.24    0.33 
  -4   4   7    8.15    0.40 
  -2   4   7    0.25    0.09 
   0   4   7   -0.03    0.07 
   2   4   7    3.01    0.23 
   4   4   7    0.04    0.08 
   6   4   7    2.40    0.22 
   8   4   7    1.24    0.18 
  10   4   7    1.57    0.20 
  12   4   7    0.76    0.17 
  14   4   7    2.76    0.29 
  16   4   7    2.66    0.30 
  18   4   7    0.69    0.18 
  20   4   7    0.33    0.14 
  23  -5  -7    2.99    0.44 
  21  -5  -7    1.62    0.35 
  19  -5  -7    5.77    0.51 
 -19   5   7    5.64    0.35 
  17  -5  -7    1.93    0.32 
 -17   5   7    1.61    0.20 
 -15   5   7   14.60    0.64 
 -13   5   7    1.94    0.20 
 -13   5   7    1.55    0.20 
 -11   5   7    2.82    0.26 
  -9   5   7    0.55    0.14 
  -7   5   7    4.85    0.32 
  -5   5   7   19.32    0.83 
  -3   5   7    7.10    0.41 
  -1   5   7    1.00    0.17 
   1   5   7    1.93    0.23 
   3   5   7   12.47    0.61 
   5   5   7    6.60    0.40 
   7   5   7    0.10    0.10 
   9   5   7    2.11    0.25 
  11   5   7   -0.03    0.09 
  13   5   7    0.31    0.15 
  15   5   7    0.31    0.13 
  17   5   7    1.15    0.21 
 -18   6   7    1.33    0.21 
 -16   6   7    0.41    0.14 
 -14   6   7    2.11    0.25 
 -12   6   7    1.26    0.20 
 -10   6   7    0.33    0.13 
  -8   6   7    3.26    0.30 
  -6   6   7    1.56    0.22 
  -4   6   7    1.11    0.20 
  -2   6   7    0.74    0.18 
   0   6   7   -0.09    0.09 
   2   6   7    5.93    0.41 
   4   6   7    0.63    0.18 
   6   6   7    0.31    0.16 
   8   6   7    0.93    0.20 
  10   6   7    0.79    0.22 
  12   6   7    0.31    0.13 
  14   6   7    0.14    0.10 
 -13   7   7    0.09    0.14 
  -9   7   7   -0.08    0.12 
  -7   7   7    0.47    0.18 
  -5   7   7    0.07    0.15 
  -3   7   7    0.25    0.16 
  -1   7   7    0.05    0.14 
   1   7   7    0.02    0.14 
   3   7   7    0.63    0.21 
   5   7   7    3.47    0.38 
   7   7   7    0.81    0.24 
  13   7  -8    0.33    0.12 
  11   7  -8   -0.03    0.09 
   9   7  -8    0.04    0.09 
   7   7  -8    0.43    0.15 
   5   7  -8    0.64    0.18 
   3   7  -8    0.52    0.20 
   1   7  -8   -0.11    0.14 
  -1   7  -8    1.62    0.29 
  -3   7  -8    0.34    0.20 
  -5   7  -8    0.03    0.18 
  20   6  -8    0.95    0.18 
  18   6  -8    3.97    0.36 
  16   6  -8    5.56    0.40 
  14   6  -8    0.17    0.13 
  12   6  -8    1.83    0.26 
  10   6  -8    7.61    0.48 
   8   6  -8    1.53    0.23 
   6   6  -8    1.49    0.23 
   4   6  -8    3.06    0.32 
   2   6  -8    0.08    0.11 
   0   6  -8    2.11    0.28 
   0   6  -8    2.74    0.33 
  -2   6  -8    0.46    0.18 
  -4   6  -8    4.47    0.45 
  -6   6  -8    1.92    0.33 
  -8   6  -8    0.33    0.21 
 -10   6  -8    1.90    0.36 
 -12   6  -8    0.59    0.29 
  23   5  -8    0.31    0.13 
  21   5  -8    0.30    0.13 
  19   5  -8    0.86    0.17 
  17   5  -8    0.13    0.11 
  15   5  -8    1.31    0.21 
  13   5  -8    0.10    0.11 
  11   5  -8   18.48    0.88 
  11   5  -8   18.92    0.84 
   9   5  -8   16.85    0.80 
   9   5  -8   16.04    0.77 
   7   5  -8   14.90    0.73 
   7   5  -8   15.42    0.76 
   5   5  -8    0.03    0.11 
   5   5  -8    0.14    0.13 
   3   5  -8    0.37    0.14 
   3   5  -8    0.30    0.13 
   1   5  -8   19.41    0.94 
  -1   5  -8    1.72    0.26 
  -3   5  -8    1.73    0.27 
  -5   5  -8    2.81    0.35 
  -7   5  -8   -0.01    0.14 
  -9   5  -8    2.29    0.35 
 -11   5  -8    0.99    0.26 
 -13   5  -8    1.18    0.30 
 -15   5  -8    3.54    0.48 
 -17   5  -8    0.57    0.28 
  22   4  -8    2.12    0.31 
  22   4  -8    2.36    0.24 
  20   4  -8    1.61    0.21 
  20   4  -8    1.25    0.24 
  18   4  -8    5.05    0.34 
  18   4  -8    5.75    0.41 
  16   4  -8   12.35    0.64 
  16   4  -8   11.18    0.56 
  14   4  -8    4.29    0.32 
  14   4  -8    3.54    0.27 
  12   4  -8   20.36    0.83 
  12   4  -8   18.53    0.88 
  10   4  -8   34.54    1.46 
  10   4  -8   36.56    1.38 
   8   4  -8   29.41    1.26 
   8   4  -8   30.76    1.19 
   6   4  -8    3.65    0.27 
   6   4  -8    3.87    0.29 
   4   4  -8    3.22    0.27 
   2   4  -8    6.75    0.42 
   0   4  -8    0.59    0.15 
  -2   4  -8    3.01    0.31 
  -4   4  -8    2.82    0.31 
  -6   4  -8   24.13    1.14 
  -8   4  -8    2.40    0.31 
 -10   4  -8    6.01    0.48 
 -12   4  -8    4.80    0.47 
 -14   4  -8    7.67    0.59 
 -16   4  -8    2.59    0.40 
 -18   4  -8    0.17    0.22 
 -20   4  -8    0.09    0.28 
  29   3  -8    1.11    0.31 
  27   3  -8    0.06    0.17 
  25   3  -8    0.25    0.17 
  23   3  -8    0.36    0.17 
  21   3  -8   -0.16    0.12 
  21   3  -8   -0.06    0.08 
  19   3  -8    0.87    0.14 
  19   3  -8    1.08    0.21 
  17   3  -8    2.44    0.21 
  17   3  -8    3.15    0.30 
  15   3  -8   18.52    0.88 
  15   3  -8   19.73    0.78 
  13   3  -8    0.45    0.12 
  13   3  -8    0.69    0.12 
  11   3  -8   10.21    0.52 
  11   3  -8    9.97    0.46 
   9   3  -8    2.54    0.19 
   9   3  -8    2.37    0.21 
   7   3  -8   28.84    1.19 
   7   3  -8   28.73    1.10 
   5   3  -8    0.67    0.13 
   3   3  -8    3.70    0.27 
   1   3  -8   53.84    2.11 
  -1   3  -8    8.95    0.50 
  -3   3  -8    0.38    0.13 
  -5   3  -8    0.21    0.09 
  -7   3  -8    7.36    0.49 
  -9   3  -8    9.61    0.60 
  11  -3   8    1.38    0.29 
  13  -3   8    0.56    0.22 
  15  -3   8    1.15    0.28 
  17  -3   8    0.32    0.21 
  19  -3   8    0.78    0.27 
  21  -3   8   -0.18    0.21 
  30   2  -8    5.30    0.59 
  28   2  -8    4.56    0.51 
  26   2  -8    3.17    0.40 
  24   2  -8    1.78    0.29 
  22   2  -8    1.13    0.23 
  20   2  -8   39.66    1.69 
  18   2  -8   40.90    1.61 
  18   2  -8   35.59    1.37 
  16   2  -8   15.80    0.76 
  16   2  -8   15.54    0.62 
  14   2  -8    0.34    0.08 
  14   2  -8    0.13    0.07 
  12   2  -8   40.75    1.42 
  12   2  -8   37.95    1.57 
  10   2  -8    0.74    0.12 
  10   2  -8    0.64    0.09 
   8   2  -8    7.82    0.35 
   8   2  -8    7.21    0.39 
   6   2  -8    7.06    0.37 
   4   2  -8   99.93    3.71 
   2   2  -8  100.18    3.73 
   0   2  -8  211.40    7.71 
  -2   2  -8   28.30    1.18 
  -4   2  -8    0.36    0.11 
  -6   2  -8    0.06    0.10 
   8  -2   8   21.06    1.03 
  10  -2   8    4.16    0.31 
  10  -2   8    3.93    0.39 
  12  -2   8    4.53    0.43 
  12  -2   8    3.43    0.32 
  14  -2   8    6.77    0.43 
  14  -2   8    5.91    0.50 
  16  -2   8    3.37    0.42 
  16  -2   8    3.18    0.33 
  18  -2   8    2.36    0.30 
  18  -2   8    2.35    0.39 
  20  -2   8   -0.01    0.16 
  20  -2   8    0.13    0.14 
  22  -2   8    0.22    0.22 
  24  -2   8    1.25    0.37 
  31   1  -8    0.81    0.32 
  29   1  -8    0.07    0.20 
  27   1  -8    0.15    0.17 
  25   1  -8    0.34    0.17 
  23   1  -8   -0.09    0.11 
  21   1  -8   14.97    0.80 
  19   1  -8    0.94    0.11 
  19   1  -8    1.31    0.23 
  17   1  -8    8.33    0.50 
  17   1  -8    8.99    0.37 
  15   1  -8    0.31    0.11 
  15   1  -8    0.24    0.06 
  13   1  -8    7.51    0.31 
  13   1  -8    7.42    0.41 
  11   1  -8  103.82    3.90 
  11   1  -8  106.72    3.57 
   9   1  -8    9.05    0.36 
   9   1  -8    8.83    0.43 
   7   1  -8    2.77    0.19 
   5   1  -8    4.67    0.26 
   3   1  -8    1.15    0.13 
   1   1  -8   -0.04    0.05 
  -1   1  -8    1.69    0.17 
   1  -1   8    2.00    0.15 
  -3   1  -8    1.00    0.14 
   3  -1   8    0.84    0.11 
   5  -1   8    5.61    0.35 
   5  -1   8    4.84    0.28 
   7  -1   8   22.17    0.87 
   7  -1   8   20.85    0.98 
   9  -1   8   43.58    1.61 
   9  -1   8   42.55    1.79 
  11  -1   8    0.46    0.12 
  11  -1   8    0.34    0.14 
  13  -1   8   10.88    0.56 
  13  -1   8   12.60    0.71 
  15  -1   8    3.35    0.38 
  15  -1   8    3.31    0.29 
  17  -1   8    6.17    0.51 
  17  -1   8    6.05    0.40 
  19  -1   8    0.73    0.18 
  19  -1   8    0.69    0.23 
  21  -1   8    0.67    0.18 
  21  -1   8    0.39    0.21 
  23  -1   8    2.75    0.46 
  23  -1   8    2.36    0.30 
  25  -1   8    0.93    0.35 
  32   0  -8    5.69    0.67 
  30   0  -8    0.85    0.30 
  28   0  -8   10.16    0.74 
  26   0  -8    5.46    0.53 
  24   0  -8    0.12    0.13 
  22   0  -8    0.03    0.11 
  20   0  -8    4.20    0.39 
  18   0  -8    1.06    0.09 
  18   0  -8    1.20    0.21 
  16   0  -8   11.33    0.42 
  16   0  -8   11.23    0.59 
 -16   0   8   10.52    0.47 
  14   0  -8  162.76    5.46 
  14   0  -8  163.13    5.99 
 -14   0   8  161.46    5.31 
  12   0  -8  270.30    9.94 
  12   0  -8  281.48    9.19 
 -12   0   8  269.85    8.85 
  10   0  -8    9.57    0.46 
 -10   0   8    9.72    0.40 
   8   0  -8  232.73    8.33 
  -8   0   8  227.73    7.44 
   6   0  -8   43.67    1.67 
  -6   0   8   45.09    1.50 
   4   0  -8   23.16    0.91 
  -4   0   8   23.21    0.81 
  -4   0   8   22.98    0.82 
   2   0  -8   22.83    0.90 
  -2   0   8   22.63    0.78 
  -2   0   8   22.63    0.82 
   0   0  -8  170.90    6.16 
   0   0   8  168.72    5.73 
  -2   0  -8    9.74    0.47 
   2   0   8   10.59    0.38 
   2   0   8   11.20    0.44 
   4   0   8   11.12    0.37 
   4   0   8    9.85    0.45 
   4   0   8   10.87    0.52 
   6   0   8    8.01    0.44 
   6   0   8    8.32    0.38 
   8   0   8   13.26    0.66 
   8   0   8   13.44    0.57 
  10   0   8    0.12    0.07 
  10   0   8    0.02    0.06 
  12   0   8    0.55    0.15 
  12   0   8    0.42    0.11 
  14   0   8    2.96    0.24 
  14   0   8    3.29    0.34 
  16   0   8    0.99    0.17 
  16   0   8    0.90    0.22 
  18   0   8    0.44    0.13 
  18   0   8    0.41    0.17 
  20   0   8    5.75    0.51 
  20   0   8    5.92    0.39 
  22   0   8    0.79    0.26 
  22   0   8    0.74    0.18 
  24   0   8    5.61    0.40 
  24   0   8    4.92    0.58 
  31  -1  -8    0.28    0.25 
  29  -1  -8    0.13    0.22 
  27  -1  -8   -0.07    0.16 
  25  -1  -8    0.13    0.16 
  23  -1  -8   -0.10    0.11 
  21  -1  -8   14.54    0.79 
 -21   1   8   13.39    0.58 
  19  -1  -8    1.24    0.24 
 -19   1   8    0.94    0.13 
  17  -1  -8    8.05    0.50 
 -17   1   8    8.84    0.40 
  15  -1  -8    0.25    0.11 
 -15   1   8    0.15    0.07 
  13  -1  -8    7.72    0.43 
 -13   1   8    7.65    0.35 
  11  -1  -8  104.88    3.83 
 -11   1   8  101.64    3.39 
   9  -1  -8    9.46    0.44 
  -9   1   8    9.11    0.38 
   7  -1  -8    2.56    0.17 
  -7   1   8    2.71    0.15 
  -7   1   8    2.86    0.12 
  -5   1   8    4.76    0.19 
  -5   1   8    4.66    0.21 
   3  -1  -8    1.31    0.09 
  -3   1   8    1.37    0.10 
  -3   1   8    1.25    0.09 
   1  -1  -8   -0.03    0.03 
  -1   1   8    0.07    0.04 
  -1   1   8    0.02    0.03 
  -1  -1  -8    1.79    0.13 
   1   1   8    2.09    0.14 
  -3  -1  -8    1.04    0.10 
   3   1   8    1.21    0.12 
   3   1   8    1.09    0.08 
   5   1   8    4.82    0.27 
   5   1   8    4.71    0.26 
   7   1   8   22.45    0.88 
   7   1   8   22.96    0.96 
   9   1   8   43.57    1.71 
   9   1   8   41.28    1.55 
  11   1   8    0.22    0.10 
  11   1   8    0.39    0.12 
  13   1   8   10.69    0.60 
  13   1   8   10.87    0.53 
  15   1   8    3.26    0.26 
  15   1   8    3.16    0.33 
  17   1   8    6.05    0.39 
  17   1   8    6.60    0.48 
  19   1   8    0.74    0.17 
  19   1   8    0.56    0.18 
  21   1   8    0.55    0.20 
  21   1   8    0.60    0.16 
  23   1   8    1.84    0.26 
  23   1   8    2.60    0.41 
  25   1   8    1.04    0.19 
  30  -2  -8    5.97    0.62 
  28  -2  -8    4.25    0.51 
  26  -2  -8    3.05    0.42 
  24  -2  -8    1.32    0.28 
  22  -2  -8    0.65    0.21 
 -22   2   8    0.84    0.13 
  20  -2  -8   35.08    1.60 
 -20   2   8   36.75    1.30 
  18  -2  -8   40.83    1.73 
 -18   2   8   40.37    1.44 
  16  -2  -8   15.14    0.76 
 -16   2   8   14.71    0.60 
  14  -2  -8    0.11    0.09 
 -14   2   8    0.07    0.06 
  12  -2  -8   40.04    1.62 
 -12   2   8   39.13    1.40 
 -12   2   8   42.37    1.40 
  10  -2  -8    0.55    0.11 
 -10   2   8    0.50    0.08 
 -10   2   8    0.56    0.06 
  -8   2   8    7.81    0.33 
  -8   2   8    7.65    0.31 
   6  -2  -8    7.71    0.35 
  -6   2   8    7.12    0.31 
  -6   2   8    7.52    0.32 
   4  -2  -8  112.61    4.05 
  -4   2   8  110.99    3.80 
  -2   2   8  101.20    3.45 
   0   2   8  216.76    7.31 
  -2  -2  -8   28.83    1.05 
   2   2   8   27.93    1.04 
   4   2   8    0.45    0.10 
   6   2   8    0.42    0.10 
   6   2   8    0.31    0.07 
   8   2   8   20.37    0.82 
   8   2   8   20.09    0.85 
  10   2   8    3.66    0.27 
  10   2   8    4.04    0.27 
  12   2   8    3.47    0.28 
  12   2   8    4.05    0.30 
  14   2   8    5.83    0.37 
  14   2   8    5.95    0.40 
  16   2   8    3.03    0.32 
  16   2   8    3.38    0.30 
  18   2   8    1.98    0.25 
  20   2   8   -0.01    0.11 
  22   2   8    0.50    0.16 
  24   2   8    1.47    0.22 
  29  -3  -8    1.14    0.28 
  27  -3  -8   -0.09    0.14 
  25  -3  -8    0.17    0.16 
  23  -3  -8    0.23    0.17 
  21  -3  -8    0.23    0.14 
 -21   3   8    0.06    0.09 
  19  -3  -8    1.16    0.24 
 -19   3   8    0.92    0.14 
  17  -3  -8    3.12    0.33 
 -17   3   8    2.82    0.21 
  15  -3  -8   17.04    0.86 
 -15   3   8   17.99    0.69 
 -15   3   8   17.81    0.70 
  13  -3  -8    0.58    0.14 
 -13   3   8    0.68    0.09 
 -13   3   8    0.50    0.10 
  11  -3  -8   11.05    0.55 
 -11   3   8   10.64    0.44 
 -11   3   8   10.00    0.44 
   9  -3  -8    2.40    0.20 
  -9   3   8    2.06    0.15 
  -9   3   8    2.42    0.17 
   7  -3  -8   29.84    1.17 
  -7   3   8   28.60    1.07 
   5  -3  -8    0.96    0.10 
  -5   3   8    1.04    0.11 
  -3   3   8    3.93    0.23 
  -1   3   8   53.21    1.89 
   1   3   8    9.97    0.45 
   3   3   8    0.51    0.10 
   5   3   8    0.43    0.10 
   7   3   8    7.94    0.41 
   9   3   8   10.39    0.51 
  11   3   8    1.43    0.20 
  13   3   8    0.73    0.17 
  15   3   8    1.15    0.21 
  17   3   8    0.62    0.18 
  19   3   8    0.86    0.19 
  21   3   8    0.33    0.14 
  26  -4  -8    0.28    0.17 
  24  -4  -8    0.25    0.18 
  22  -4  -8    2.14    0.36 
  20  -4  -8    1.16    0.26 
 -20   4   8    1.24    0.17 
  18  -4  -8    4.87    0.43 
 -18   4   8    5.54    0.32 
  16  -4  -8   10.77    0.65 
 -16   4   8   10.87    0.50 
  14  -4  -8    3.75    0.32 
 -14   4   8    3.57    0.24 
 -14   4   8    3.40    0.22 
  12  -4  -8   16.64    0.89 
 -12   4   8   21.82    0.79 
 -12   4   8   19.49    0.78 
  10  -4  -8   37.42    1.55 
 -10   4   8   37.88    1.39 
   8  -4  -8   30.21    1.25 
  -8   4   8   31.07    1.16 
  -6   4   8    3.78    0.24 
  -4   4   8    3.70    0.24 
  -2   4   8    6.85    0.37 
   0   4   8    0.77    0.13 
   2   4   8    3.24    0.24 
   4   4   8    2.87    0.22 
   6   4   8   23.41    0.96 
   8   4   8    3.37    0.27 
  10   4   8    5.86    0.37 
  12   4   8    4.89    0.34 
  14   4   8    7.04    0.45 
  16   4   8    2.77    0.30 
  18   4   8    0.03    0.11 
  20   4   8    0.54    0.15 
  23  -5  -8    0.39    0.22 
  21  -5  -8    0.36    0.22 
  19  -5  -8    0.82    0.24 
 -19   5   8    0.89    0.16 
 -17   5   8   -0.01    0.08 
 -15   5   8    1.53    0.19 
 -13   5   8    0.21    0.10 
 -13   5   8    0.31    0.11 
 -11   5   8   17.86    0.77 
  -9   5   8   18.10    0.78 
  -7   5   8   16.06    0.71 
  -5   5   8    0.15    0.10 
  -3   5   8    0.47    0.14 
  -1   5   8   19.22    0.84 
   1   5   8    2.04    0.23 
   3   5   8    1.86    0.22 
   5   5   8    2.94    0.27 
   7   5   8    0.14    0.11 
   9   5   8    2.45    0.27 
  11   5   8    0.72    0.17 
  13   5   8    1.76    0.25 
  15   5   8    3.54    0.35 
  17   5   8    1.01    0.19 
 -18   6   8    3.71    0.32 
 -16   6   8    5.14    0.35 
 -14   6   8    0.02    0.11 
 -12   6   8    2.18    0.25 
 -10   6   8    7.85    0.46 
  -8   6   8    1.59    0.22 
  -6   6   8    1.52    0.22 
  -4   6   8    2.99    0.29 
  -2   6   8    0.01    0.10 
   0   6   8    2.59    0.28 
   2   6   8    0.10    0.12 
   4   6   8    4.83    0.37 
   6   6   8    1.79    0.26 
   8   6   8    0.30    0.16 
  10   6   8    2.02    0.29 
  12   6   8    0.94    0.19 
 -13   7   8    0.54    0.18 
  -9   7   8    0.15    0.15 
  -7   7   8    0.52    0.19 
  -5   7   8    0.93    0.22 
  -3   7   8    0.99    0.22 
  -1   7   8    0.11    0.15 
   1   7   8    2.03    0.30 
   3   7   8    0.64    0.21 
   5   7   8    0.17    0.18 
  13   7  -9    2.98    0.33 
  11   7  -9    0.25    0.13 
   9   7  -9    0.84    0.19 
   7   7  -9    2.45    0.30 
   5   7  -9    1.69    0.27 
   3   7  -9    2.39    0.33 
   1   7  -9    1.89    0.32 
  -1   7  -9    0.36    0.19 
  -3   7  -9    0.13    0.19 
  -5   7  -9    0.12    0.17 
  20   6  -9    0.19    0.11 
  18   6  -9    0.24    0.12 
  16   6  -9    0.13    0.12 
  14   6  -9    0.21    0.13 
  12   6  -9    4.71    0.37 
  10   6  -9    1.57    0.24 
   8   6  -9    0.14    0.11 
   6   6  -9    0.28    0.13 
   4   6  -9   -0.06    0.10 
   2   6  -9    0.72    0.19 
   2   6  -9    0.84    0.21 
   0   6  -9    0.25    0.14 
   0   6  -9    0.69    0.20 
  -2   6  -9    0.02    0.15 
  -4   6  -9    0.23    0.18 
  -6   6  -9    0.04    0.18 
  -8   6  -9    0.57    0.25 
 -10   6  -9    1.16    0.32 
 -12   6  -9    0.91    0.34 
  23   5  -9    1.58    0.23 
  21   5  -9    1.13    0.20 
  19   5  -9    2.78    0.29 
  17   5  -9    1.22    0.21 
  15   5  -9    0.75    0.17 
  13   5  -9    0.86    0.17 
  13   5  -9    1.22    0.21 
  11   5  -9    2.04    0.25 
  11   5  -9    2.07    0.25 
   9   5  -9   10.37    0.56 
   9   5  -9    9.93    0.57 
   7   5  -9   60.70    2.32 
   7   5  -9   64.17    2.48 
   5   5  -9    4.77    0.36 
   5   5  -9    5.67    0.41 
   3   5  -9    7.63    0.46 
   3   5  -9    7.65    0.49 
   1   5  -9    0.57    0.18 
  -1   5  -9    0.64    0.18 
  -3   5  -9    2.30    0.31 
  -5   5  -9    0.12    0.15 
  -7   5  -9    0.07    0.15 
  -9   5  -9    0.88    0.24 
 -11   5  -9    0.72    0.25 
 -13   5  -9    2.94    0.43 
 -15   5  -9   -0.04    0.21 
 -17   5  -9    2.52    0.46 
  22   4  -9    0.56    0.14 
  22   4  -9    0.40    0.18 
  20   4  -9    4.05    0.30 
  20   4  -9    4.25    0.37 
  18   4  -9    0.47    0.16 
  18   4  -9    0.47    0.14 
  16   4  -9   -0.01    0.08 
  16   4  -9   -0.01    0.11 
  14   4  -9   14.77    0.74 
  14   4  -9   15.01    0.67 
  12   4  -9   19.87    0.98 
  12   4  -9   24.63    0.93 
  10   4  -9    0.85    0.16 
  10   4  -9    0.80    0.15 
   8   4  -9    2.23    0.24 
   8   4  -9    2.28    0.23 
   6   4  -9    0.18    0.11 
   6   4  -9    0.09    0.09 
   4   4  -9   16.82    0.80 
   2   4  -9    0.76    0.16 
   0   4  -9    8.89    0.53 
  -2   4  -9    3.92    0.34 
  -4   4  -9    4.83    0.40 
  -6   4  -9    1.21    0.25 
  -8   4  -9    0.12    0.13 
 -10   4  -9    0.81    0.22 
 -12   4  -9    1.00    0.26 
 -14   4  -9    0.10    0.17 
 -16   4  -9    4.86    0.54 
 -18   4  -9    1.95    0.40 
 -20   4  -9   -0.14    0.23 
  29   3  -9    3.07    0.45 
  27   3  -9    1.84    0.33 
  25   3  -9    5.83    0.49 
  23   3  -9    1.18    0.23 
  21   3  -9    1.96    0.29 
  21   3  -9    1.77    0.19 
  19   3  -9    6.39    0.35 
  19   3  -9    6.14    0.44 
  17   3  -9    1.38    0.16 
  17   3  -9    1.31    0.21 
  15   3  -9    0.19    0.09 
  15   3  -9    0.28    0.11 
  13   3  -9    8.22    0.40 
  13   3  -9    7.67    0.44 
  11   3  -9   -0.03    0.05 
  11   3  -9    0.00    0.06 
   9   3  -9    4.55    0.27 
   9   3  -9    4.43    0.30 
   7   3  -9   11.50    0.57 
   5   3  -9    3.54    0.26 
   3   3  -9    5.24    0.34 
   1   3  -9    7.64    0.44 
  -1   3  -9   10.44    0.57 
  -3   3  -9    1.59    0.22 
  -5   3  -9    0.13    0.11 
  -7   3  -9   -0.07    0.11 
  -9   3  -9    9.02    0.59 
 -11   3  -9    2.79    0.35 
  13  -3   9    3.46    0.44 
  15  -3   9    5.90    0.58 
  17  -3   9    5.31    0.58 
  19  -3   9    0.59    0.28 
  21  -3   9   -0.41    0.17 
  30   2  -9    0.99    0.32 
  28   2  -9    0.38    0.22 
  26   2  -9    1.94    0.32 
  24   2  -9    5.67    0.46 
  22   2  -9    2.65    0.32 
  20   2  -9    2.78    0.32 
  20   2  -9    2.00    0.16 
  16   2  -9    0.89    0.16 
  16   2  -9    0.81    0.11 
  14   2  -9    0.42    0.11 
  14   2  -9    0.46    0.09 
  12   2  -9    4.66    0.30 
  12   2  -9    5.33    0.26 
  10   2  -9   19.78    0.77 
  10   2  -9   20.37    0.86 
   8   2  -9    0.06    0.06 
   6   2  -9   16.69    0.74 
   4   2  -9    0.90    0.14 
   2   2  -9    0.54    0.12 
   0   2  -9    6.30    0.37 
  -2   2  -9    2.44    0.24 
  -4   2  -9   16.82    0.80 
  -6   2  -9    4.21    0.33 
   8  -2   9    0.32    0.14 
  10  -2   9    1.10    0.19 
  10  -2   9    0.91    0.22 
  12  -2   9    1.58    0.23 
  12  -2   9    1.27    0.28 
  14  -2   9    1.66    0.31 
  14  -2   9    1.69    0.25 
  16  -2   9    1.07    0.21 
  16  -2   9    0.76    0.23 
  18  -2   9    0.55    0.18 
  18  -2   9    0.64    0.25 
  20  -2   9    0.30    0.22 
  20  -2   9    0.58    0.19 
  22  -2   9    0.41    0.28 
  31   1  -9    3.52    0.53 
  29   1  -9    2.72    0.43 
  27   1  -9    1.82    0.33 
  25   1  -9    6.50    0.50 
  23   1  -9    3.91    0.39 
  21   1  -9    3.10    0.34 
  19   1  -9   75.74    2.63 
  19   1  -9   77.52    3.00 
  17   1  -9    6.26    0.28 
  17   1  -9    6.31    0.40 
  15   1  -9    8.47    0.48 
  15   1  -9    8.84    0.35 
  13   1  -9   16.49    0.59 
  13   1  -9   15.16    0.72 
  11   1  -9    0.71    0.07 
  11   1  -9    0.77    0.13 
   9   1  -9   86.28    3.21 
   7   1  -9    0.32    0.08 
   5   1  -9    2.10    0.17 
   3   1  -9   31.95    1.26 
   1   1  -9    4.77    0.28 
  -1  -1   9    4.51    0.25 
  -1   1  -9   56.65    2.18 
   1  -1   9   57.35    2.02 
  -3   1  -9    3.76    0.26 
   3  -1   9    3.20    0.21 
  -5   1  -9    3.71    0.28 
   5  -1   9    4.09    0.25 
   7  -1   9    4.59    0.35 
   7  -1   9    4.68    0.29 
   9  -1   9   17.17    0.88 
   9  -1   9   18.55    0.77 
  11  -1   9    1.46    0.19 
  11  -1   9    1.47    0.24 
  13  -1   9    7.91    0.45 
  13  -1   9    8.15    0.56 
  15  -1   9    4.40    0.33 
  15  -1   9    4.82    0.42 
  17  -1   9    5.13    0.37 
  17  -1   9    4.64    0.48 
  19  -1   9    4.14    0.48 
  19  -1   9    4.66    0.36 
  21  -1   9    0.27    0.13 
  21  -1   9   -0.06    0.17 
  23  -1   9    0.03    0.24 
  23  -1   9    0.15    0.12 
  32   0  -9   -0.06    0.25 
  30   0  -9    0.05    0.21 
  28   0  -9    0.08    0.20 
  26   0  -9    0.12    0.14 
  24   0  -9    0.02    0.13 
  22   0  -9   -0.04    0.12 
  20   0  -9    0.08    0.14 
  18   0  -9   -0.01    0.03 
  18   0  -9    0.07    0.09 
 -18   0   9    0.01    0.05 
  16   0  -9    0.07    0.09 
  16   0  -9   -0.01    0.03 
 -16   0   9    0.02    0.05 
  14   0  -9    0.03    0.03 
  14   0  -9    0.18    0.10 
 -14   0   9    0.10    0.06 
  12   0  -9    0.08    0.07 
 -12   0   9    0.07    0.05 
  10   0  -9    0.01    0.04 
 -10   0   9   -0.02    0.03 
   8   0  -9   -0.18    0.03 
  -8   0   9   -0.15    0.03 
   6   0  -9   -0.06    0.04 
  -6   0   9   -0.06    0.04 
  -6   0   9   -0.04    0.03 
   4   0  -9    0.18    0.06 
  -4   0   9    0.00    0.02 
  -4   0   9   -0.03    0.03 
   2   0  -9   -0.03    0.04 
  -2   0   9   -0.02    0.02 
  -2   0   9   -0.01    0.03 
   0   0  -9   -0.06    0.04 
   0   0   9    0.01    0.03 
   0   0   9    0.01    0.02 
  -2   0  -9    0.02    0.04 
   2   0   9    0.00    0.03 
   2   0   9   -0.03    0.03 
  -4   0  -9   -0.03    0.04 
   4   0   9    0.03    0.02 
   4   0   9   -0.04    0.03 
   6   0   9   -0.02    0.06 
   6   0   9   -0.04    0.04 
   8   0   9    0.01    0.06 
   8   0   9    0.04    0.06 
  10   0   9    0.00    0.07 
  10   0   9    0.09    0.08 
  12   0   9    0.02    0.07 
  12   0   9    0.01    0.10 
  14   0   9   -0.02    0.07 
  14   0   9   -0.02    0.10 
  16   0   9    0.03    0.14 
  16   0   9   -0.03    0.09 
  18   0   9   -0.05    0.09 
  18   0   9    0.13    0.14 
  20   0   9   -0.01    0.16 
  20   0   9    0.03    0.10 
  22   0   9    0.17    0.20 
  22   0   9    0.05    0.10 
  24   0   9    0.19    0.10 
  24   0   9    0.00    0.23 
  31  -1  -9    2.94    0.50 
  29  -1  -9    2.12    0.40 
  27  -1  -9    1.73    0.35 
  25  -1  -9    5.70    0.50 
  23  -1  -9    3.01    0.38 
 -23   1   9    3.41    0.23 
  21  -1  -9    2.57    0.33 
 -21   1   9    3.06    0.22 
  19  -1  -9   77.86    3.00 
 -19   1   9   74.21    2.57 
  17  -1  -9    5.04    0.36 
 -17   1   9    5.31    0.29 
  15  -1  -9    8.66    0.48 
 -15   1   9    8.16    0.38 
  13  -1  -9   14.89    0.70 
 -13   1   9   15.20    0.59 
  11  -1  -9    0.67    0.12 
 -11   1   9    0.83    0.10 
   9  -1  -9   89.97    3.25 
  -9   1   9   86.40    2.89 
  -9   1   9   86.68    2.96 
   7  -1  -9    0.18    0.06 
  -7   1   9    0.26    0.06 
  -7   1   9    0.34    0.04 
  -5   1   9    2.40    0.12 
  -5   1   9    2.11    0.13 
   3  -1  -9   32.95    1.23 
  -3   1   9   32.57    1.15 
  -3   1   9   32.82    1.11 
   1  -1  -9    4.79    0.23 
  -1   1   9    4.55    0.20 
  -1   1   9    4.30    0.22 
  -1  -1  -9   58.65    2.17 
   1   1   9   58.78    1.93 
   1   1   9   58.38    2.04 
  -3  -1  -9    3.58    0.21 
   3   1   9    3.85    0.17 
   3   1   9    3.43    0.21 
   5   1   9    3.47    0.23 
   5   1   9    4.40    0.26 
   5   1   9    4.11    0.18 
   7   1   9    4.34    0.19 
   7   1   9    4.66    0.29 
   7   1   9    4.22    0.26 
   9   1   9   18.96    0.64 
   9   1   9   18.54    0.85 
   9   1   9   18.62    0.77 
  11   1   9    1.31    0.17 
  11   1   9    1.57    0.21 
  13   1   9    7.41    0.42 
  13   1   9    7.36    0.47 
  15   1   9    4.69    0.33 
  15   1   9    4.54    0.38 
  17   1   9    4.55    0.33 
  17   1   9    4.64    0.43 
  19   1   9    4.50    0.34 
  19   1   9    4.44    0.45 
  21   1   9   -0.03    0.14 
  21   1   9    0.19    0.12 
  23   1   9    0.20    0.11 
  23   1   9    0.10    0.21 
  30  -2  -9    0.99    0.26 
  28  -2  -9    0.34    0.20 
  26  -2  -9    1.93    0.36 
  24  -2  -9    5.47    0.52 
  22  -2  -9    3.22    0.38 
 -22   2   9    3.11    0.24 
  20  -2  -9    2.71    0.34 
 -20   2   9    2.94    0.22 
  18  -2  -9    5.64    0.42 
 -18   2   9    6.03    0.32 
  16  -2  -9    0.93    0.19 
 -16   2   9    0.96    0.14 
  14  -2  -9    0.67    0.15 
 -14   2   9    0.55    0.05 
 -14   2   9    0.58    0.10 
  12  -2  -9    5.51    0.34 
 -12   2   9    5.31    0.22 
 -12   2   9    5.20    0.27 
  10  -2  -9   19.47    0.84 
 -10   2   9   19.62    0.74 
 -10   2   9   20.40    0.72 
   8  -2  -9    0.03    0.04 
  -8   2   9   -0.01    0.02 
  -8   2   9    0.04    0.04 
   6  -2  -9   15.95    0.65 
  -6   2   9   15.48    0.60 
  -6   2   9   16.84    0.60 
   4  -2  -9    1.41    0.10 
  -4   2   9    1.26    0.12 
  -4   2   9    1.33    0.10 
   2  -2  -9    0.49    0.05 
  -2   2   9    0.52    0.08 
   0   2   9    6.81    0.32 
  -2  -2  -9    3.18    0.16 
   2   2   9    2.98    0.20 
  -4  -2  -9   17.72    0.72 
   4   2   9   18.73    0.73 
   6   2   9    4.48    0.26 
   6   2   9    5.18    0.29 
   8   2   9    0.33    0.09 
   8   2   9    0.18    0.10 
  10   2   9    0.90    0.16 
  10   2   9    0.77    0.15 
  12   2   9    1.40    0.20 
  12   2   9    1.30    0.20 
  14   2   9    1.58    0.22 
  14   2   9    1.78    0.23 
  16   2   9    1.15    0.20 
  18   2   9    0.58    0.17 
  20   2   9    0.36    0.13 
  22   2   9    0.91    0.19 
  29  -3  -9    2.47    0.41 
  27  -3  -9    2.04    0.38 
  25  -3  -9    6.29    0.54 
  23  -3  -9    1.37    0.28 
  21  -3  -9    1.81    0.30 
 -21   3   9    1.49    0.19 
  19  -3  -9    5.61    0.45 
 -19   3   9    6.24    0.34 
  17  -3  -9    0.96    0.20 
 -17   3   9    1.14    0.15 
  15  -3  -9    0.26    0.13 
 -15   3   9    0.24    0.06 
 -15   3   9    0.17    0.08 
  13  -3  -9    7.56    0.46 
 -13   3   9    8.50    0.36 
 -13   3   9    7.94    0.38 
  11  -3  -9   -0.02    0.06 
 -11   3   9    0.02    0.04 
 -11   3   9    0.03    0.05 
   9  -3  -9    4.62    0.29 
  -9   3   9    5.06    0.24 
  -9   3   9    4.43    0.25 
   7  -3  -9   12.83    0.57 
  -7   3   9   12.80    0.52 
   5  -3  -9    3.97    0.21 
  -5   3   9    3.90    0.22 
  -3   3   9    5.52    0.28 
  -1   3   9    8.52    0.39 
   1   3   9   10.42    0.46 
   3   3   9    1.03    0.13 
   5   3   9    0.34    0.10 
   7   3   9   -0.06    0.07 
   9   3   9    9.20    0.48 
  11   3   9    2.79    0.26 
  13   3   9    3.76    0.30 
  15   3   9    5.93    0.41 
  17   3   9    5.07    0.38 
  19   3   9    0.45    0.15 
  21   3   9    0.32    0.13 
  26  -4  -9    2.49    0.40 
  24  -4  -9    2.31    0.38 
  22  -4  -9    0.39    0.19 
  20  -4  -9    3.92    0.43 
 -20   4   9    3.89    0.28 
  18  -4  -9    0.62    0.20 
 -18   4   9    0.50    0.13 
  16  -4  -9   -0.02    0.11 
 -16   4   9    0.07    0.08 
  14  -4  -9   15.48    0.78 
 -14   4   9   14.56    0.62 
 -14   4   9   14.99    0.63 
 -12   4   9   24.34    0.91 
 -12   4   9   22.40    0.90 
  10  -4  -9    0.92    0.16 
 -10   4   9    0.74    0.12 
 -10   4   9    0.79    0.13 
  -6   4   9    0.13    0.07 
  -4   4   9   18.23    0.75 
  -2   4   9    0.98    0.15 
   0   4   9    9.75    0.47 
   2   4   9    4.35    0.28 
   4   4   9    5.39    0.33 
   6   4   9    1.11    0.18 
   8   4   9    0.17    0.10 
  10   4   9    0.94    0.18 
  12   4   9    0.88    0.19 
  14   4   9    0.06    0.11 
  16   4   9    4.66    0.37 
  18   4   9    1.91    0.27 
  20   4   9    0.31    0.10 
  23  -5  -9    1.87    0.36 
  21  -5  -9    1.38    0.32 
 -19   5   9    2.75    0.26 
 -17   5   9    0.88    0.17 
 -15   5   9    0.97    0.17 
 -13   5   9    1.21    0.17 
 -13   5   9    0.97    0.16 
 -11   5   9    2.31    0.22 
 -11   5   9    2.12    0.22 
  -9   5   9   10.05    0.50 
  -7   5   9   69.30    2.50 
  -5   5   9    4.55    0.31 
  -3   5   9    7.16    0.41 
  -1   5   9    0.64    0.15 
   1   5   9    0.44    0.13 
   3   5   9    2.73    0.27 
   5   5   9    0.21    0.12 
   7   5   9   -0.07    0.08 
   9   5   9    0.85    0.19 
  11   5   9    1.03    0.20 
  13   5   9    2.97    0.32 
  15   5   9    0.00    0.11 
  17   5   9    3.39    0.35 
 -18   6   9    0.53    0.16 
 -16   6   9    0.12    0.12 
 -14   6   9   -0.05    0.11 
 -12   6   9    4.49    0.32 
 -10   6   9    1.28    0.20 
  -8   6   9    0.02    0.10 
  -6   6   9    0.29    0.12 
  -4   6   9    0.05    0.11 
  -2   6   9    0.80    0.17 
   0   6   9    0.44    0.14 
   2   6   9   -0.12    0.10 
   4   6   9    0.01    0.11 
   6   6   9    0.04    0.12 
   8   6   9    0.48    0.17 
  10   6   9    0.97    0.23 
  12   6   9    1.99    0.27 
 -13   7   9    2.77    0.32 
 -11   7   9    0.19    0.14 
  -9   7   9    1.04    0.23 
  -7   7   9    2.07    0.29 
  -5   7   9    1.64    0.27 
  -3   7   9    2.50    0.31 
  -1   7   9    1.81    0.28 
   1   7   9    0.27    0.18 
   3   7   9    0.09    0.16 
   5   7   9    0.20    0.18 
  11   7 -10    0.45    0.13 
   9   7 -10    0.09    0.10 
   7   7 -10    0.13    0.10 
   5   7 -10    0.95    0.20 
   3   7 -10    0.64    0.21 
   1   7 -10    0.10    0.17 
  -1   7 -10    0.01    0.17 
  -3   7 -10    0.44    0.20 
  20   6 -10    0.32    0.13 
  18   6 -10    1.60    0.24 
  16   6 -10    7.36    0.48 
  14   6 -10    0.20    0.12 
  12   6 -10    1.25    0.23 
  10   6 -10    0.19    0.12 
   8   6 -10   -0.06    0.10 
   6   6 -10   -0.10    0.10 
   4   6 -10    3.27    0.34 
   4   6 -10    4.10    0.39 
   2   6 -10    0.70    0.18 
   2   6 -10    0.85    0.21 
   0   6 -10    2.22    0.32 
  -2   6 -10    2.40    0.35 
  -4   6 -10    2.93    0.39 
  -6   6 -10    2.14    0.37 
  -8   6 -10    0.33    0.24 
 -10   6 -10   -0.03    0.22 
  23   5 -10   -0.06    0.11 
  21   5 -10    0.44    0.15 
  19   5 -10    0.25    0.13 
  17   5 -10    2.60    0.28 
  15   5 -10    1.18    0.23 
  15   5 -10    0.94    0.18 
  13   5 -10    4.47    0.34 
  13   5 -10    4.95    0.37 
  11   5 -10    2.00    0.27 
  11   5 -10    2.56    0.27 
   9   5 -10    1.51    0.23 
   9   5 -10    1.93    0.25 
   7   5 -10    5.01    0.37 
   7   5 -10    5.66    0.41 
   5   5 -10    0.09    0.13 
   5   5 -10    0.07    0.11 
   3   5 -10    0.23    0.13 
   1   5 -10    0.06    0.12 
  -1   5 -10    0.51    0.18 
  -3   5 -10   -0.09    0.12 
  -5   5 -10    1.26    0.27 
  -7   5 -10    0.14    0.16 
  -9   5 -10    1.26    0.29 
 -11   5 -10    0.07    0.18 
 -13   5 -10    0.50    0.27 
 -15   5 -10    0.17    0.25 
  24   4 -10    6.86    0.53 
  22   4 -10   18.77    0.97 
  22   4 -10   18.48    0.81 
  20   4 -10   16.64    0.74 
  20   4 -10   16.57    0.87 
  18   4 -10    5.35    0.40 
  18   4 -10    5.43    0.34 
  16   4 -10    2.41    0.28 
  16   4 -10    2.10    0.22 
  14   4 -10    6.62    0.43 
  14   4 -10    7.28    0.40 
  12   4 -10    3.48    0.29 
  12   4 -10    3.65    0.27 
  10   4 -10    1.36    0.19 
  10   4 -10    1.50    0.21 
   8   4 -10   10.99    0.59 
   8   4 -10   11.51    0.56 
   6   4 -10    0.47    0.14 
   4   4 -10   31.01    1.33 
   2   4 -10   23.58    1.08 
   0   4 -10    7.25    0.47 
  -2   4 -10    0.01    0.11 
  -4   4 -10    1.78    0.28 
  -6   4 -10    1.64    0.28 
  -8   4 -10    0.08    0.13 
 -10   4 -10   -0.06    0.14 
 -12   4 -10    1.24    0.30 
 -14   4 -10    1.77    0.35 
 -16   4 -10    0.42    0.25 
 -18   4 -10    1.18    0.34 
  29   3 -10    0.93    0.30 
  27   3 -10    2.95    0.40 
  25   3 -10    1.39    0.28 
  23   3 -10    0.19    0.14 
  21   3 -10    6.39    0.35 
  21   3 -10    5.60    0.44 
  19   3 -10    8.31    0.42 
  19   3 -10    8.03    0.52 
  17   3 -10    4.06    0.26 
  17   3 -10    3.62    0.31 
  15   3 -10   10.55    0.57 
  15   3 -10   10.55    0.49 
  13   3 -10    2.97    0.22 
  13   3 -10    3.20    0.26 
  11   3 -10    0.58    0.12 
  11   3 -10    0.66    0.14 
   9   3 -10    8.12    0.45 
   9   3 -10    7.95    0.40 
   7   3 -10    1.38    0.18 
   5   3 -10    0.44    0.12 
   3   3 -10    0.24    0.10 
   1   3 -10    3.50    0.29 
  -1   3 -10    6.14    0.40 
  -3   3 -10    0.41    0.14 
  -5   3 -10   13.79    0.74 
  -7   3 -10    1.66    0.26 
  -9   3 -10    2.10    0.31 
 -11   3 -10    2.86    0.36 
 -13   3 -10    0.44    0.20 
  15  -3  10    2.17    0.40 
  17  -3  10    0.37    0.24 
  19  -3  10    0.02    0.22 
  21  -3  10    0.53    0.31 
  30   2 -10    1.97    0.39 
  28   2 -10    0.46    0.22 
  26   2 -10    0.35    0.17 
  24   2 -10    0.24    0.15 
  22   2 -10    0.50    0.18 
  20   2 -10   10.47    0.61 
  20   2 -10   10.10    0.44 
  18   2 -10   11.08    0.47 
  16   2 -10   22.92    1.03 
  14   2 -10   38.12    1.39 
  14   2 -10   39.38    1.58 
  12   2 -10    7.47    0.35 
  12   2 -10    7.66    0.42 
  10   2 -10   12.20    0.59 
  10   2 -10   12.57    0.52 
   8   2 -10    5.62    0.33 
   6   2 -10    0.71    0.13 
   4   2 -10    7.17    0.40 
   2   2 -10   30.69    1.27 
   0   2 -10    2.68    0.25 
  -2   2 -10  205.18    7.53 
  -4   2 -10  101.39    3.85 
  -6   2 -10    0.12    0.10 
  -8   2 -10    0.72    0.18 
   8  -2  10    0.45    0.14 
  10  -2  10   26.30    1.26 
  10  -2  10   25.44    1.11 
  12  -2  10   13.25    0.81 
  12  -2  10   13.80    0.70 
  14  -2  10   11.23    0.62 
  14  -2  10   10.94    0.73 
  16  -2  10    5.91    0.56 
  16  -2  10    4.92    0.40 
  18  -2  10    1.56    0.27 
  18  -2  10    0.93    0.28 
  20  -2  10    1.20    0.24 
  20  -2  10    1.06    0.30 
  22  -2  10    3.81    0.57 
  31   1 -10    0.35    0.27 
  29   1 -10    1.63    0.35 
  27   1 -10    4.85    0.49 
  25   1 -10   -0.02    0.12 
  23   1 -10    4.59    0.39 
  21   1 -10    3.47    0.35 
  19   1 -10   24.84    1.15 
  19   1 -10   25.62    0.92 
  17   1 -10    1.26    0.10 
  17   1 -10    1.35    0.21 
  15   1 -10    0.02    0.03 
  15   1 -10   -0.01    0.07 
  13   1 -10    0.31    0.06 
  13   1 -10    0.16    0.08 
  11   1 -10    0.02    0.05 
  11   1 -10    0.00    0.04 
   9   1 -10  132.87    4.89 
   7   1 -10    0.02    0.05 
   5   1 -10   77.32    2.90 
   3   1 -10    0.23    0.07 
   1   1 -10   25.84    1.08 
  -1  -1  10   27.14    1.00 
  -1   1 -10    0.56    0.12 
   1  -1  10    0.48    0.10 
  -3   1 -10    0.84    0.14 
   3  -1  10    0.79    0.12 
  -5   1 -10    0.15    0.08 
   5  -1  10    0.18    0.08 
   7  -1  10    4.97    0.30 
   7  -1  10    3.91    0.34 
   9  -1  10    0.06    0.09 
   9  -1  10    0.17    0.10 
  11  -1  10    2.41    0.25 
  11  -1  10    2.55    0.32 
  13  -1  10    0.02    0.08 
  13  -1  10   -0.04    0.11 
  15  -1  10    1.57    0.30 
  15  -1  10    1.75    0.24 
  17  -1  10    0.15    0.15 
  17  -1  10    0.31    0.12 
  19  -1  10    0.65    0.17 
  19  -1  10    0.58    0.22 
  21  -1  10    0.16    0.13 
  21  -1  10    0.11    0.19 
  23  -1  10    0.33    0.13 
  23  -1  10   -0.01    0.23 
  32   0 -10    5.57    0.65 
  30   0 -10    3.20    0.49 
  28   0 -10    1.80    0.36 
  26   0 -10    0.37    0.18 
  24   0 -10    0.21    0.15 
  22   0 -10    4.93    0.41 
  20   0 -10  208.97    7.75 
  18   0 -10    0.33    0.14 
 -18   0  10    0.39    0.10 
  16   0 -10   27.89    1.22 
  16   0 -10   30.13    0.98 
 -16   0  10   26.91    1.05 
  14   0 -10  103.98    4.01 
 -14   0  10  110.52    3.57 
  12   0 -10   47.56    1.85 
 -12   0  10   47.66    1.64 
  10   0 -10   26.70    1.11 
 -10   0  10   28.57    1.00 
   8   0 -10   22.91    0.93 
  -8   0  10   22.72    0.83 
   6   0 -10  121.14    4.38 
  -6   0  10  117.88    4.04 
  -6   0  10  119.73    3.91 
   4   0 -10   20.70    0.83 
  -4   0  10   20.32    0.74 
  -4   0  10   20.22    0.73 
   2   0 -10    7.56    0.37 
  -2   0  10    7.88    0.31 
  -2   0  10    7.45    0.33 
   0   0 -10    5.67    0.31 
   0   0  10    6.27    0.29 
  -2   0 -10   25.18    1.04 
   2   0  10   26.57    0.88 
   2   0  10   25.22    0.96 
  -4   0 -10   11.70    0.55 
   4   0  10   11.50    0.41 
   4   0  10   10.90    0.49 
   6   0  10    3.24    0.13 
   6   0  10    3.31    0.22 
   6   0  10    3.06    0.26 
   8   0  10    2.53    0.26 
   8   0  10    2.34    0.21 
  10   0  10    0.57    0.14 
  10   0  10    0.59    0.13 
  12   0  10   43.17    1.87 
  12   0  10   45.51    1.68 
  14   0  10    5.95    0.38 
  14   0  10    6.38    0.47 
  16   0  10    1.37    0.27 
  16   0  10    1.84    0.23 
  18   0  10    2.16    0.26 
  18   0  10    2.07    0.33 
  20   0  10    2.60    0.40 
  20   0  10    3.14    0.32 
  22   0  10    0.19    0.11 
  22   0  10    0.10    0.20 
  24   0  10    0.26    0.12 
  31  -1 -10    0.44    0.30 
  29  -1 -10    1.58    0.33 
  27  -1 -10    5.16    0.53 
  25  -1 -10   -0.06    0.12 
  23  -1 -10    4.26    0.43 
 -23   1  10    4.84    0.30 
  21  -1 -10    3.40    0.36 
 -21   1  10    3.24    0.23 
  19  -1 -10   24.44    1.12 
 -19   1  10   23.44    0.91 
  17  -1 -10    1.40    0.21 
 -17   1  10    1.30    0.15 
  15  -1 -10   -0.03    0.06 
 -15   1  10    0.08    0.07 
  13  -1 -10    0.21    0.09 
 -13   1  10    0.26    0.08 
  11  -1 -10    0.30    0.09 
 -11   1  10    0.09    0.06 
   9  -1 -10  134.83    4.82 
  -9   1  10  129.37    4.42 
  -9   1  10  129.90    4.29 
   7  -1 -10    0.05    0.04 
  -7   1  10   -0.03    0.03 
  -7   1  10    0.20    0.04 
  -5   1  10   73.03    2.47 
  -5   1  10   76.76    2.56 
   3  -1 -10    0.29    0.06 
  -3   1  10    0.28    0.06 
  -3   1  10    0.20    0.05 
   1  -1 -10   28.35    1.10 
  -1   1  10   28.56    0.98 
  -1   1  10   28.56    1.04 
  -1  -1 -10    0.76    0.09 
   1   1  10    0.52    0.09 
   1   1  10    0.45    0.06 
  -3  -1 -10    0.85    0.10 
   3   1  10    0.64    0.10 
   3   1  10    0.84    0.07 
   5   1  10    0.30    0.05 
   5   1  10    0.34    0.09 
   7   1  10    4.51    0.31 
   7   1  10    4.74    0.20 
   7   1  10    4.50    0.28 
   9   1  10    0.02    0.08 
   9   1  10    0.07    0.08 
  11   1  10    2.33    0.23 
  11   1  10    2.16    0.25 
  13   1  10   -0.01    0.08 
  13   1  10    0.04    0.10 
  15   1  10    1.50    0.26 
  15   1  10    1.73    0.22 
  17   1  10    0.04    0.14 
  17   1  10    0.03    0.11 
  19   1  10    0.52    0.16 
  19   1  10    0.45    0.20 
  21   1  10    0.16    0.19 
  21   1  10    0.39    0.13 
  23   1  10    0.37    0.11 
  30  -2 -10    1.93    0.35 
  28  -2 -10    0.51    0.19 
  26  -2 -10    0.14    0.16 
  24  -2 -10    0.28    0.17 
 -24   2  10    0.15    0.10 
  22  -2 -10    0.43    0.17 
 -22   2  10    0.72    0.14 
  20  -2 -10   11.11    0.66 
 -20   2  10   10.72    0.50 
  18  -2 -10   15.77    0.79 
 -18   2  10   14.22    0.62 
  16  -2 -10   25.67    1.09 
 -16   2  10   22.19    0.88 
  14  -2 -10   39.32    1.59 
 -14   2  10   38.70    1.34 
 -14   2  10   39.43    1.37 
  12  -2 -10    7.18    0.41 
 -12   2  10    7.71    0.35 
 -12   2  10    7.35    0.29 
  10  -2 -10   13.09    0.60 
 -10   2  10   13.26    0.49 
 -10   2  10   13.66    0.53 
   8  -2 -10    5.49    0.30 
  -8   2  10    6.09    0.25 
  -8   2  10    6.28    0.29 
   6  -2 -10    0.97    0.10 
  -6   2  10    0.69    0.10 
  -6   2  10    0.66    0.07 
   4  -2 -10    7.36    0.32 
  -4   2  10    7.82    0.33 
  -4   2  10    7.09    0.31 
   2  -2 -10   31.86    1.17 
  -2   2  10   31.48    1.14 
  -2   2  10   31.66    1.10 
   0  -2 -10    2.68    0.14 
   0   2  10    3.08    0.19 
  -2  -2 -10  216.60    7.59 
   2   2  10  204.34    7.13 
  -4  -2 -10  109.67    4.02 
   4   2  10  110.93    3.81 
   6   2  10    0.41    0.10 
   8   2  10    0.78    0.15 
   8   2  10    0.69    0.13 
  10   2  10   24.52    1.06 
  10   2  10   24.64    1.01 
  12   2  10   12.75    0.62 
  12   2  10   12.74    0.66 
  14   2  10    9.07    0.50 
  16   2  10    4.92    0.36 
  18   2  10    1.45    0.24 
  20   2  10    1.52    0.24 
  22   2  10    3.91    0.37 
  29  -3 -10    1.47    0.31 
  27  -3 -10    2.45    0.40 
  25  -3 -10    1.27    0.29 
  23  -3 -10    0.13    0.14 
 -23   3  10    0.06    0.11 
  21  -3 -10    6.05    0.48 
 -21   3  10    6.09    0.35 
  19  -3 -10    7.67    0.53 
 -19   3  10    8.50    0.42 
  17  -3 -10    3.64    0.35 
 -17   3  10    3.27    0.24 
  15  -3 -10   11.02    0.60 
 -15   3  10   10.38    0.48 
  13  -3 -10    3.21    0.27 
 -13   3  10    2.96    0.21 
 -13   3  10    2.82    0.17 
 -11   3  10    0.63    0.08 
 -11   3  10    0.44    0.09 
   9  -3 -10    8.68    0.43 
  -9   3  10    8.28    0.37 
  -9   3  10    8.28    0.39 
   7  -3 -10    1.26    0.13 
  -7   3  10    1.30    0.14 
  -7   3  10    1.33    0.12 
   5  -3 -10    0.52    0.07 
  -5   3  10    0.37    0.08 
  -3   3  10    0.06    0.05 
  -1   3  10    3.56    0.22 
   1   3  10    6.14    0.32 
   3   3  10    0.43    0.11 
   5   3  10   14.25    0.63 
   7   3  10    2.19    0.22 
   9   3  10    1.72    0.22 
  11   3  10    2.47    0.25 
  13   3  10    0.21    0.13 
  15   3  10    2.23    0.27 
  17   3  10    0.64    0.17 
  19   3  10    0.22    0.12 
  21   3  10    0.74    0.15 
  28  -4 -10    0.33    0.17 
  26  -4 -10    0.37    0.19 
  24  -4 -10    7.60    0.61 
  22  -4 -10   17.68    0.99 
 -22   4  10   17.76    0.76 
  20  -4 -10   16.60    0.92 
 -20   4  10   16.51    0.71 
  18  -4 -10    5.36    0.43 
 -18   4  10    4.89    0.31 
  16  -4 -10    2.46    0.30 
 -16   4  10    2.34    0.22 
  14  -4 -10    6.86    0.46 
 -14   4  10    8.03    0.40 
  12  -4 -10    3.43    0.29 
 -12   4  10    3.50    0.22 
 -12   4  10    3.58    0.25 
  10  -4 -10    1.75    0.20 
 -10   4  10    1.72    0.18 
 -10   4  10    1.51    0.16 
  -8   4  10   11.46    0.51 
  -6   4  10    0.41    0.10 
  -4   4  10   35.55    1.34 
  -2   4  10   25.02    0.99 
   0   4  10    8.36    0.43 
   2   4  10    0.04    0.07 
   4   4  10    1.41    0.18 
   6   4  10    1.68    0.21 
   8   4  10    0.21    0.11 
  10   4  10    0.06    0.11 
  12   4  10    1.09    0.21 
  14   4  10    1.57    0.24 
  16   4  10   -0.04    0.12 
  18   4  10    1.34    0.22 
 -21   5  10    0.58    0.15 
 -19   5  10    0.41    0.14 
 -17   5  10    2.12    0.23 
 -15   5  10    0.98    0.16 
 -13   5  10    4.77    0.32 
 -11   5  10    1.70    0.20 
 -11   5  10    2.05    0.21 
  -9   5  10    1.83    0.21 
  -7   5  10    4.81    0.32 
  -5   5  10    0.03    0.09 
  -3   5  10    0.17    0.11 
  -1   5  10   -0.08    0.07 
   1   5  10    0.73    0.15 
   3   5  10    0.13    0.09 
   5   5  10    1.05    0.19 
   7   5  10    0.08    0.11 
   9   5  10    1.80    0.25 
  11   5  10    0.15    0.12 
  13   5  10    0.87    0.20 
  15   5  10    0.10    0.10 
 -20   6  10    0.24    0.15 
 -18   6  10    1.35    0.22 
 -16   6  10    6.57    0.41 
 -14   6  10    0.26    0.13 
 -12   6  10    1.16    0.19 
 -10   6  10    0.40    0.14 
  -8   6  10    0.08    0.09 
  -6   6  10   -0.02    0.10 
  -4   6  10    3.56    0.31 
  -2   6  10    0.66    0.15 
   0   6  10    1.46    0.22 
   2   6  10    2.49    0.28 
   4   6  10    2.71    0.30 
   6   6  10    2.00    0.28 
   8   6  10    0.32    0.16 
  10   6  10    0.29    0.18 
 -11   7  10    0.28    0.16 
  -7   7  10   -0.02    0.13 
  -5   7  10    1.38    0.25 
  -3   7  10    0.88    0.21 
  -1   7  10    0.13    0.14 
   1   7  10    0.08    0.15 
   3   7  10    0.77    0.23 
  11   7 -11    0.47    0.15 
   9   7 -11    0.58    0.14 
   7   7 -11    3.06    0.35 
   5   7 -11    1.09    0.21 
   3   7 -11    0.36    0.19 
   1   7 -11   -0.14    0.15 
  -1   7 -11    0.48    0.22 
  20   6 -11    0.10    0.09 
  18   6 -11    0.27    0.13 
  16   6 -11    0.43    0.15 
  14   6 -11    0.31    0.13 
  12   6 -11    0.05    0.11 
  10   6 -11    0.53    0.17 
   8   6 -11    1.38    0.24 
   6   6 -11    0.49    0.19 
   6   6 -11    0.25    0.13 
   4   6 -11    0.08    0.15 
   4   6 -11    0.22    0.12 
   2   6 -11    0.14    0.14 
   2   6 -11    0.32    0.17 
   0   6 -11    2.35    0.35 
  -2   6 -11    2.08    0.34 
  -4   6 -11    1.43    0.31 
  -6   6 -11    0.32    0.22 
  -8   6 -11    0.55    0.27 
 -10   6 -11    0.49    0.31 
  21   5 -11   -0.04    0.11 
  19   5 -11    7.62    0.46 
  17   5 -11    0.63    0.17 
  17   5 -11    0.81    0.17 
  15   5 -11   10.47    0.57 
  15   5 -11   11.72    0.64 
  13   5 -11    8.59    0.52 
  13   5 -11    6.97    0.45 
  11   5 -11    7.63    0.45 
  11   5 -11    6.54    0.45 
   9   5 -11   -0.02    0.10 
   9   5 -11    0.05    0.12 
   7   5 -11    4.84    0.38 
   7   5 -11    4.38    0.34 
   5   5 -11    0.14    0.13 
   5   5 -11    0.31    0.15 
   3   5 -11    0.12    0.12 
   1   5 -11    4.53    0.39 
  -1   5 -11    6.51    0.49 
  -3   5 -11   -0.03    0.13 
  -5   5 -11    5.52    0.47 
  -7   5 -11    5.68    0.50 
  -9   5 -11    1.10    0.28 
 -11   5 -11   -0.08    0.19 
 -13   5 -11    0.45    0.27 
 -15   5 -11    0.99    0.35 
  26   4 -11    0.52    0.22 
  24   4 -11    0.57    0.20 
  22   4 -11    0.47    0.13 
  22   4 -11    0.93    0.22 
  20   4 -11    0.80    0.16 
  20   4 -11    0.52    0.19 
  18   4 -11    3.20    0.33 
  18   4 -11    3.30    0.26 
  16   4 -11    3.08    0.26 
  16   4 -11    2.69    0.30 
  14   4 -11    1.61    0.23 
  14   4 -11    1.13    0.18 
  12   4 -11    0.31    0.12 
  12   4 -11    0.16    0.12 
  10   4 -11   10.92    0.55 
  10   4 -11   11.39    0.61 
   8   4 -11    3.74    0.28 
   8   4 -11    2.99    0.30 
   6   4 -11    8.01    0.50 
   4   4 -11    0.89    0.18 
   2   4 -11    0.33    0.13 
   0   4 -11    9.46    0.57 
  -2   4 -11    7.01    0.48 
  -4   4 -11    9.68    0.61 
  -6   4 -11    0.41    0.18 
  -8   4 -11    0.39    0.17 
 -10   4 -11    0.13    0.15 
 -12   4 -11    0.34    0.20 
 -14   4 -11    0.00    0.21 
 -16   4 -11    0.52    0.27 
 -18   4 -11    0.62    0.31 
  29   3 -11    5.21    0.55 
  27   3 -11    0.55    0.21 
  25   3 -11    0.15    0.15 
  23   3 -11    0.28    0.16 
  21   3 -11   11.34    0.53 
  21   3 -11   11.84    0.68 
  19   3 -11    7.71    0.50 
  19   3 -11    7.62    0.40 
  17   3 -11    5.53    0.40 
  17   3 -11    5.87    0.33 
  15   3 -11    4.49    0.27 
  15   3 -11    4.87    0.35 
  13   3 -11    0.20    0.09 
  13   3 -11    0.12    0.08 
  11   3 -11   19.46    0.89 
  11   3 -11   19.72    0.80 
   9   3 -11    0.26    0.10 
   7   3 -11    8.48    0.48 
   5   3 -11    0.27    0.11 
   3   3 -11   12.78    0.65 
   1   3 -11    5.92    0.39 
  -1   3 -11   16.18    0.80 
  -3   3 -11   14.87    0.77 
  -5   3 -11    6.85    0.48 
  -7   3 -11   12.09    0.71 
  -9   3 -11    3.04    0.37 
 -11   3 -11    0.15    0.16 
 -13   3 -11    0.10    0.16 
 -15   3 -11    0.17    0.17 
 -17   3 -11    0.22    0.16 
 -19   3 -11    0.10    0.14 
  30   2 -11   -0.03    0.22 
  28   2 -11    0.15    0.19 
  26   2 -11    0.32    0.16 
  24   2 -11    0.21    0.14 
  22   2 -11    0.71    0.20 
  20   2 -11    0.10    0.12 
  20   2 -11    0.00    0.06 
  18   2 -11    0.16    0.07 
  18   2 -11    0.20    0.12 
  16   2 -11   20.10    0.93 
  14   2 -11    1.26    0.18 
  14   2 -11    0.82    0.10 
  12   2 -11    2.36    0.16 
  12   2 -11    2.37    0.21 
  10   2 -11    4.75    0.31 
   8   2 -11   56.08    2.17 
   6   2 -11   10.19    0.52 
   4   2 -11   58.98    2.28 
   2   2 -11  110.83    4.14 
   0   2 -11   54.50    2.14 
  -2   2 -11   39.69    1.63 
  -4   2 -11    8.63    0.50 
  -6   2 -11    0.38    0.14 
  -8   2 -11    5.56    0.41 
   8  -2  11    5.14    0.36 
 -10   2 -11   20.21    1.00 
  10  -2  11   19.37    0.91 
  12  -2  11    3.87    0.35 
  12  -2  11    3.92    0.45 
  14  -2  11    0.18    0.16 
  14  -2  11    0.16    0.12 
  16  -2  11    4.32    0.52 
  16  -2  11    5.54    0.41 
  18  -2  11    0.11    0.18 
  18  -2  11   -0.14    0.11 
  20  -2  11    0.51    0.27 
  20  -2  11    0.99    0.23 
  22  -2  11    0.97    0.39 
  31   1 -11    9.44    0.75 
  29   1 -11    4.61    0.52 
  27   1 -11    2.95    0.41 
  25   1 -11    0.50    0.18 
  23   1 -11    3.82    0.39 
  21   1 -11   12.51    0.70 
  19   1 -11    7.98    0.50 
  17   1 -11   29.26    0.97 
  17   1 -11   24.09    1.17 
  15   1 -11    2.89    0.15 
  15   1 -11    2.73    0.24 
  13   1 -11   26.79    0.96 
  13   1 -11   27.31    1.14 
  11   1 -11  125.92    4.23 
  11   1 -11  123.77    4.62 
   9   1 -11    6.18    0.35 
   7   1 -11   17.68    0.77 
   5   1 -11    0.58    0.12 
   3   1 -11   34.86    1.39 
   1   1 -11    1.42    0.17 
  -1  -1  11    1.71    0.15 
  -1   1 -11   79.30    3.02 
   1  -1  11   80.20    2.80 
  -3   1 -11    2.06    0.21 
   3  -1  11    1.85    0.18 
  -5   1 -11   17.82    0.83 
   5  -1  11   17.66    0.75 
  -7   1 -11    1.94    0.24 
   7  -1  11    2.10    0.21 
   9  -1  11   10.46    0.51 
   9  -1  11    9.20    0.60 
  11  -1  11    0.87    0.20 
  11  -1  11    0.90    0.17 
  13  -1  11    0.16    0.11 
  13  -1  11   -0.02    0.14 
  15  -1  11    1.17    0.22 
  15  -1  11    1.58    0.30 
  17  -1  11    0.64    0.23 
  17  -1  11    0.46    0.15 
  19  -1  11    0.15    0.18 
  19  -1  11    0.28    0.14 
  21  -1  11    0.30    0.14 
  21  -1  11    0.46    0.25 
  23  -1  11    0.18    0.12 
  23  -1  11   -0.55    0.21 
  32   0 -11    0.18    0.29 
  30   0 -11   -0.20    0.17 
  28   0 -11    0.21    0.17 
  26   0 -11    0.13    0.16 
  24   0 -11    0.16    0.14 
  22   0 -11    0.04    0.11 
  20   0 -11    0.05    0.14 
 -20   0  11    0.12    0.08 
  18   0 -11    0.00    0.09 
 -18   0  11    0.02    0.06 
  16   0 -11   -0.06    0.06 
 -16   0  11    0.03    0.06 
  14   0 -11   -0.02    0.07 
 -14   0  11   -0.05    0.05 
  12   0 -11   -0.07    0.05 
 -12   0  11   -0.04    0.04 
  10   0 -11    0.03    0.05 
 -10   0  11    0.01    0.04 
   8   0 -11    0.03    0.05 
  -8   0  11    0.01    0.05 
   6   0 -11    0.03    0.04 
  -6   0  11    0.05    0.03 
  -6   0  11    0.05    0.04 
   4   0 -11    0.00    0.04 
  -4   0  11   -0.02    0.04 
  -4   0  11    0.02    0.03 
   2   0 -11   -0.04    0.04 
  -2   0  11   -0.03    0.04 
  -2   0  11   -0.02    0.04 
   0   0 -11    0.00    0.05 
   0   0  11    0.00    0.02 
   0   0  11   -0.04    0.03 
  -2   0 -11    0.12    0.07 
   2   0  11    0.04    0.03 
   2   0  11   -0.01    0.04 
  -4   0 -11    0.00    0.05 
   4   0  11   -0.05    0.04 
   4   0  11    0.00    0.03 
  -6   0 -11   -0.02    0.06 
   6   0  11    0.06    0.02 
   6   0  11    0.01    0.05 
   8   0  11   -0.01    0.07 
   8   0  11    0.00    0.07 
  10   0  11   -0.05    0.06 
  10   0  11   -0.02    0.07 
  12   0  11    0.07    0.09 
  12   0  11   -0.13    0.10 
  14   0  11    0.11    0.14 
  14   0  11   -0.01    0.09 
  16   0  11   -0.02    0.10 
  16   0  11    0.16    0.13 
  18   0  11   -0.03    0.10 
  18   0  11   -0.03    0.14 
  20   0  11   -0.10    0.15 
  20   0  11    0.03    0.10 
  22   0  11    0.03    0.09 
  22   0  11    0.07    0.20 
  31  -1 -11    8.49    0.69 
  29  -1 -11    5.14    0.56 
  27  -1 -11    3.24    0.44 
  25  -1 -11    0.65    0.22 
 -25   1  11    0.48    0.12 
  23  -1 -11    2.92    0.37 
 -23   1  11    4.09    0.27 
  21  -1 -11   13.08    0.70 
 -21   1  11   10.53    0.51 
  19  -1 -11    7.34    0.49 
 -19   1  11    7.40    0.38 
  17  -1 -11   29.80    1.26 
 -17   1  11   28.07    1.07 
  15  -1 -11    2.65    0.25 
 -15   1  11    2.72    0.19 
  13  -1 -11   27.26    1.11 
 -13   1  11   25.57    0.96 
  11  -1 -11  132.99    4.74 
 -11   1  11  123.96    4.21 
   9  -1 -11    7.21    0.36 
  -9   1  11    7.20    0.27 
  -9   1  11    7.07    0.32 
   7  -1 -11   17.47    0.72 
  -7   1  11   16.82    0.65 
  -7   1  11   18.43    0.64 
  -5   1  11    0.37    0.07 
  -5   1  11    0.45    0.06 
   3  -1 -11   37.38    1.39 
  -3   1  11   36.18    1.25 
  -3   1  11   36.37    1.30 
   1  -1 -11    1.58    0.13 
  -1   1  11    1.55    0.11 
  -1   1  11    1.56    0.13 
  -1  -1 -11   80.19    2.76 
   1   1  11   62.93    2.43 
   1   1  11   80.58    2.59 
  -3  -1 -11    1.78    0.15 
   3   1  11    1.99    0.16 
   3   1  11    1.82    0.11 
   5   1  11   17.45    0.73 
   5   1  11   18.04    0.63 
   7   1  11    2.11    0.12 
   7   1  11    1.78    0.19 
   7   1  11    2.12    0.22 
   9   1  11   10.05    0.49 
   9   1  11   10.08    0.55 
  11   1  11    0.88    0.17 
  11   1  11    0.69    0.14 
  13   1  11    0.36    0.13 
  13   1  11    0.29    0.15 
  15   1  11    0.89    0.18 
  15   1  11    1.39    0.25 
  17   1  11    0.58    0.16 
  17   1  11    0.50    0.19 
  19   1  11    0.10    0.16 
  19   1  11    0.19    0.11 
  21   1  11    0.40    0.15 
  23   1  11    0.28    0.11 
  30  -2 -11    0.13    0.16 
  28  -2 -11   -0.03    0.16 
  26  -2 -11    0.37    0.19 
  24  -2 -11    0.18    0.17 
 -24   2  11    0.28    0.11 
  22  -2 -11    0.51    0.20 
 -22   2  11    0.22    0.10 
  20  -2 -11   -0.03    0.12 
 -20   2  11    0.02    0.08 
  18  -2 -11    0.09    0.11 
 -18   2  11    0.16    0.10 
  16  -2 -11   20.76    0.96 
 -16   2  11   21.14    0.81 
  14  -2 -11    1.32    0.18 
 -14   2  11    1.14    0.14 
 -14   2  11    1.17    0.07 
  12  -2 -11    2.71    0.22 
 -12   2  11    2.86    0.19 
 -12   2  11    2.76    0.13 
  10  -2 -11    5.90    0.32 
 -10   2  11    5.56    0.23 
 -10   2  11    5.41    0.28 
   8  -2 -11   56.38    2.13 
  -8   2  11   57.82    1.92 
  -8   2  11   55.57    1.94 
   6  -2 -11    9.87    0.43 
  -6   2  11    9.37    0.40 
  -6   2  11    9.74    0.39 
   4  -2 -11   62.53    2.26 
  -4   2  11   62.44    2.13 
  -4   2  11   59.35    2.06 
   2  -2 -11  118.37    4.23 
  -2   2  11  117.57    3.84 
  -2   2  11  115.32    3.99 
   0  -2 -11   53.74    1.98 
   0   2  11   53.74    1.91 
   0   2  11   54.78    1.82 
  -2  -2 -11   45.68    1.67 
   2   2  11   43.52    1.61 
  -4  -2 -11    8.98    0.40 
   4   2  11    8.22    0.41 
  -6  -2 -11    0.78    0.11 
   6   2  11    0.51    0.12 
   8   2  11    5.38    0.33 
   8   2  11    5.21    0.34 
  10   2  11   19.49    0.87 
  10   2  11   18.38    0.82 
  12   2  11    3.39    0.30 
  14   2  11    0.05    0.11 
  16   2  11    4.34    0.34 
  18   2  11   -0.02    0.10 
  20   2  11    0.84    0.18 
  22   2  11    1.46    0.21 
  29  -3 -11    4.47    0.53 
  27  -3 -11    0.27    0.18 
  25  -3 -11    0.11    0.16 
  23  -3 -11    0.34    0.16 
 -23   3  11    0.26    0.12 
  21  -3 -11    9.93    0.64 
 -21   3  11    9.92    0.49 
  19  -3 -11    7.44    0.51 
 -19   3  11    6.69    0.37 
  17  -3 -11    5.68    0.43 
 -17   3  11    6.06    0.34 
  15  -3 -11    4.83    0.35 
 -15   3  11    4.42    0.28 
  13  -3 -11    0.24    0.11 
 -13   3  11    0.11    0.05 
 -13   3  11    0.30    0.09 
  11  -3 -11   17.11    0.82 
 -11   3  11   19.01    0.74 
 -11   3  11   20.06    0.72 
   9  -3 -11    0.45    0.10 
  -9   3  11    0.46    0.08 
  -9   3  11    0.31    0.08 
   7  -3 -11    9.05    0.41 
  -7   3  11    8.53    0.38 
  -7   3  11    8.35    0.39 
   5  -3 -11    0.37    0.06 
  -5   3  11    0.31    0.07 
  -5   3  11    0.21    0.07 
  -3   3  11   15.25    0.62 
  -1   3  11    6.67    0.34 
   1   3  11   19.27    0.78 
   3   3  11   16.75    0.71 
   5   3  11    6.22    0.35 
   7   3  11   12.82    0.61 
   9   3  11    2.54    0.25 
  11   3  11    0.34    0.13 
  13   3  11    0.05    0.11 
  15   3  11    0.30    0.14 
  17   3  11    0.26    0.14 
  19   3  11    0.39    0.12 
  28  -4 -11    0.19    0.16 
  26  -4 -11    0.36    0.18 
  24  -4 -11    0.21    0.19 
  22  -4 -11    0.56    0.21 
 -22   4  11    0.94    0.18 
  20  -4 -11    0.71    0.22 
 -20   4  11    0.85    0.16 
  18  -4 -11    2.97    0.35 
 -18   4  11    2.90    0.25 
  16  -4 -11    2.70    0.32 
 -16   4  11    2.88    0.24 
 -14   4  11    1.00    0.15 
  12  -4 -11    0.38    0.13 
 -12   4  11    0.24    0.10 
 -12   4  11    0.15    0.07 
 -10   4  11   12.10    0.53 
 -10   4  11   10.81    0.50 
  -8   4  11    3.42    0.24 
  -8   4  11    3.43    0.23 
  -6   4  11    7.87    0.39 
  -4   4  11    0.83    0.14 
  -2   4  11    0.44    0.11 
   0   4  11   10.12    0.49 
   2   4  11    7.20    0.39 
   4   4  11    9.97    0.50 
   6   4  11    0.86    0.16 
   8   4  11    0.11    0.10 
  10   4  11    0.14    0.12 
  12   4  11    0.47    0.16 
  14   4  11   -0.05    0.11 
  16   4  11    0.37    0.14 
  18   4  11    0.97    0.18 
 -21   5  11    0.08    0.12 
 -19   5  11    7.69    0.44 
 -17   5  11    0.60    0.15 
 -15   5  11   11.30    0.55 
 -13   5  11    7.99    0.44 
 -11   5  11    7.42    0.41 
 -11   5  11    7.59    0.41 
  -9   5  11    0.06    0.09 
  -7   5  11    4.07    0.29 
  -5   5  11    0.15    0.10 
  -3   5  11    0.12    0.09 
  -1   5  11    3.79    0.28 
   1   5  11    6.74    0.40 
   3   5  11   -0.04    0.09 
   5   5  11    5.84    0.38 
   7   5  11    6.52    0.43 
   9   5  11    1.21    0.22 
  11   5  11   -0.04    0.13 
  13   5  11    0.92    0.20 
  15   5  11    1.38    0.22 
 -20   6  11   -0.04    0.13 
 -18   6  11    0.29    0.15 
 -16   6  11    0.31    0.14 
 -14   6  11    0.40    0.15 
 -12   6  11    0.29    0.13 
 -10   6  11    0.73    0.17 
 -10   6  11    0.35    0.14 
  -8   6  11    1.36    0.20 
  -6   6  11    0.32    0.13 
  -4   6  11    0.08    0.10 
  -2   6  11    0.34    0.14 
   0   6  11    2.21    0.26 
   2   6  11    2.19    0.27 
   4   6  11    0.95    0.21 
   6   6  11    0.49    0.17 
   8   6  11    0.74    0.22 
  10   6  11    0.76    0.24 
 -11   7  11    0.18    0.15 
  -7   7  11    2.97    0.32 
  -5   7  11    1.19    0.24 
  -3   7  11    0.63    0.20 
  -1   7  11    0.14    0.15 
   1   7  11    0.70    0.21 
  11   7 -12    0.34    0.12 
   9   7 -12    0.78    0.17 
   7   7 -12    1.09    0.21 
   5   7 -12    0.12    0.09 
   3   7 -12    0.41    0.15 
   1   7 -12    0.46    0.21 
  -1   7 -12    2.54    0.37 
  20   6 -12    0.33    0.14 
  18   6 -12    0.09    0.10 
  16   6 -12    1.56    0.24 
  14   6 -12    0.19    0.12 
  12   6 -12    6.14    0.43 
  10   6 -12    9.61    0.57 
   8   6 -12    2.91    0.32 
   6   6 -12    1.97    0.30 
   6   6 -12    1.66    0.26 
   4   6 -12    4.31    0.39 
   4   6 -12    4.67    0.45 
   2   6 -12    1.64    0.29 
   0   6 -12    0.12    0.16 
  -2   6 -12    0.09    0.19 
  -4   6 -12    1.57    0.33 
  -6   6 -12    0.09    0.21 
  -8   6 -12    2.41    0.42 
 -10   6 -12    3.17    0.50 
  21   5 -12    0.02    0.12 
  19   5 -12    1.93    0.25 
  17   5 -12    1.83    0.28 
  17   5 -12    1.49    0.22 
  15   5 -12    0.07    0.11 
  15   5 -12    0.18    0.13 
  13   5 -12    6.75    0.46 
  13   5 -12    5.82    0.40 
  11   5 -12    3.21    0.33 
  11   5 -12    2.86    0.29 
   9   5 -12    4.76    0.35 
   9   5 -12    4.43    0.38 
   7   5 -12    0.20    0.12 
   7   5 -12    0.07    0.13 
   5   5 -12    2.34    0.31 
   3   5 -12    3.72    0.37 
   1   5 -12   -0.01    0.13 
  -1   5 -12    1.25    0.25 
  -3   5 -12    0.74    0.22 
  -5   5 -12    0.28    0.18 
  -7   5 -12    0.30    0.21 
  -9   5 -12   -0.08    0.17 
 -11   5 -12   -0.11    0.20 
 -13   5 -12    0.78    0.30 
  26   4 -12    1.35    0.30 
  24   4 -12    1.48    0.29 
  22   4 -12    0.34    0.16 
  20   4 -12    1.02    0.22 
  20   4 -12    1.02    0.18 
  18   4 -12    7.36    0.50 
  18   4 -12    7.56    0.42 
  16   4 -12    2.20    0.28 
  16   4 -12    1.47    0.20 
  14   4 -12    2.95    0.26 
  14   4 -12    3.24    0.32 
  12   4 -12    4.15    0.34 
  12   4 -12    4.30    0.30 
  10   4 -12   -0.08    0.09 
  10   4 -12   -0.12    0.07 
   8   4 -12   39.05    1.64 
   6   4 -12    9.77    0.57 
   4   4 -12    1.03    0.20 
   2   4 -12    7.37    0.49 
   0   4 -12    4.54    0.37 
  -2   4 -12    1.84    0.27 
  -4   4 -12    4.65    0.41 
  -6   4 -12    0.21    0.16 
  -8   4 -12    0.59    0.21 
 -10   4 -12    0.95    0.26 
 -12   4 -12    0.45    0.22 
 -14   4 -12    4.58    0.52 
 -16   4 -12    0.02    0.24 
  29   3 -12    1.02    0.30 
  27   3 -12    5.56    0.53 
  25   3 -12    1.77    0.31 
  23   3 -12    1.77    0.28 
  21   3 -12    0.49    0.17 
  21   3 -12    0.71    0.14 
  19   3 -12   27.70    1.12 
  19   3 -12   30.81    1.32 
  17   3 -12   24.15    1.11 
  17   3 -12   24.68    0.96 
  15   3 -12    0.06    0.09 
  15   3 -12    0.12    0.07 
  13   3 -12    4.53    0.33 
  13   3 -12    4.67    0.28 
  11   3 -12    4.37    0.32 
  11   3 -12    4.52    0.28 
   9   3 -12    1.41    0.19 
   7   3 -12    8.74    0.50 
   5   3 -12    2.52    0.25 
   3   3 -12    0.90    0.18 
   1   3 -12   23.84    1.08 
  -1   3 -12    7.33    0.48 
  -3   3 -12   28.65    1.29 
  -5   3 -12    0.11    0.14 
  -7   3 -12   24.72    1.19 
  -9   3 -12    2.77    0.36 
 -11   3 -12    0.25    0.17 
 -13   3 -12    1.45    0.29 
 -15   3 -12    0.49    0.20 
 -17   3 -12    0.13    0.13 
 -19   3 -12    0.54    0.17 
  30   2 -12    4.28    0.51 
  28   2 -12    9.25    0.67 
  26   2 -12   14.19    0.84 
  24   2 -12    5.56    0.45 
  22   2 -12    0.66    0.19 
  20   2 -12    3.82    0.34 
  18   2 -12    1.73    0.15 
  18   2 -12    1.22    0.22 
  16   2 -12    0.51    0.14 
  16   2 -12    0.52    0.09 
  14   2 -12    5.43    0.35 
  12   2 -12   -0.01    0.07 
  12   2 -12    0.03    0.05 
  10   2 -12   -0.09    0.06 
   8   2 -12   38.61    1.56 
   6   2 -12    9.17    0.49 
   4   2 -12    0.60    0.14 
   2   2 -12   47.05    1.88 
   0   2 -12   17.42    0.82 
  -2   2 -12    4.14    0.32 
  -4   2 -12    0.01    0.09 
  -6   2 -12    0.26    0.13 
  -8   2 -12   16.95    0.89 
   8  -2  12   17.46    0.82 
 -10   2 -12   17.57    0.92 
  10  -2  12   17.20    0.83 
 -12   2 -12    0.00    0.13 
  12  -2  12   -0.05    0.09 
  14  -2  12    1.05    0.27 
  14  -2  12    1.42    0.25 
  16  -2  12    1.54    0.34 
  16  -2  12    1.95    0.30 
  18  -2  12    1.04    0.23 
  18  -2  12    1.67    0.38 
  20  -2  12    2.00    0.44 
  20  -2  12    1.30    0.25 
  31   1 -12    0.33    0.27 
  29   1 -12    3.78    0.47 
  27   1 -12    0.68    0.23 
  25   1 -12    0.20    0.15 
  23   1 -12    4.27    0.41 
  21   1 -12    9.17    0.57 
  19   1 -12   32.75    1.42 
  17   1 -12   13.18    0.49 
  17   1 -12   12.82    0.67 
  15   1 -12    0.20    0.10 
  15   1 -12    0.11    0.05 
  13   1 -12    0.31    0.06 
  13   1 -12    0.11    0.07 
  11   1 -12   26.85    1.12 
   9   1 -12   48.95    1.90 
   7   1 -12    0.28    0.09 
   5   1 -12   21.73    0.93 
   3   1 -12   14.02    0.64 
  -3  -1  12   13.29    0.57 
   1   1 -12    2.77    0.23 
  -1  -1  12    2.68    0.19 
  -1   1 -12   37.61    1.51 
   1  -1  12   37.16    1.40 
  -3   1 -12    6.63    0.41 
   3  -1  12    7.44    0.38 
  -5   1 -12   20.29    0.91 
   5  -1  12   18.85    0.82 
  -7   1 -12    0.25    0.12 
   7  -1  12    0.50    0.13 
  -9   1 -12    0.25    0.14 
   9  -1  12    0.32    0.11 
  11  -1  12    6.65    0.41 
  11  -1  12    5.79    0.48 
  13  -1  12    2.98    0.30 
  13  -1  12    2.81    0.38 
  15  -1  12    0.39    0.17 
  15  -1  12    0.24    0.13 
  17  -1  12    2.22    0.30 
  17  -1  12    2.66    0.40 
  19  -1  12    0.08    0.17 
  19  -1  12    0.16    0.12 
  21  -1  12    0.17    0.23 
  21  -1  12    0.13    0.11 
  32   0 -12   12.27    0.91 
  30   0 -12    1.18    0.33 
  28   0 -12   11.34    0.76 
  26   0 -12    9.17    0.64 
  24   0 -12    0.28    0.15 
  22   0 -12   15.81    0.84 
  20   0 -12    2.78    0.31 
 -20   0  12    2.42    0.22 
  18   0 -12   27.03    1.18 
 -18   0  12   25.76    1.00 
  16   0 -12    1.00    0.17 
 -16   0  12    0.94    0.14 
  14   0 -12    9.55    0.51 
 -14   0  12   10.18    0.45 
  12   0 -12    0.30    0.09 
 -12   0  12    0.35    0.08 
  10   0 -12   24.05    1.00 
 -10   0  12   24.71    0.90 
   8   0 -12  252.68    9.23 
  -8   0  12  252.28    8.56 
  -8   0  12  259.91    8.26 
   6   0 -12   49.32    1.90 
  -6   0  12   51.43    1.70 
  -6   0  12   48.68    1.73 
   4   0 -12   16.17    0.70 
  -4   0  12   16.15    0.63 
  -4   0  12   16.81    0.62 
   2   0 -12    5.87    0.33 
  -2   0  12    6.45    0.30 
  -2   0  12    6.12    0.27 
   0   0 -12   22.62    0.87 
   0   0  12   22.63    0.80 
   0   0  12   17.04    0.71 
  -2   0 -12    0.82    0.13 
   2   0  12    0.80    0.12 
   2   0  12    0.76    0.07 
  -4   0 -12   20.26    0.92 
   4   0  12   22.38    0.86 
   4   0  12   21.45    0.74 
  -6   0 -12    0.00    0.06 
   6   0  12   -0.01    0.06 
   8   0  12    2.06    0.25 
   8   0  12    1.61    0.19 
  10   0  12    0.43    0.15 
  10   0  12    0.42    0.12 
  12   0  12    7.26    0.43 
  12   0  12    8.06    0.54 
  14   0  12    3.14    0.39 
  14   0  12    4.07    0.30 
  16   0  12   15.49    0.88 
  16   0  12   14.16    0.72 
  18   0  12    3.89    0.46 
  18   0  12    3.61    0.35 
  20   0  12    1.09    0.30 
  20   0  12    1.53    0.24 
  22   0  12    0.14    0.10 
  22   0  12    0.04    0.23 
  31  -1 -12    0.38    0.17 
  29  -1 -12    4.09    0.51 
  27  -1 -12    0.18    0.17 
  25  -1 -12   -0.12    0.12 
 -25   1  12    0.06    0.09 
  23  -1 -12    4.01    0.41 
 -23   1  12    3.88    0.28 
  21  -1 -12    8.43    0.55 
 -21   1  12    8.33    0.43 
  19  -1 -12   31.33    1.37 
 -19   1  12   30.83    1.16 
  17  -1 -12   12.35    0.66 
 -17   1  12   12.98    0.56 
  15  -1 -12   -0.04    0.07 
 -15   1  12    0.12    0.07 
  13  -1 -12    0.28    0.10 
 -13   1  12    0.28    0.08 
  11  -1 -12   29.31    1.20 
 -11   1  12   30.03    1.07 
   9  -1 -12   49.30    1.86 
  -9   1  12   49.58    1.67 
  -9   1  12   47.31    1.66 
   7  -1 -12    0.39    0.08 
  -7   1  12    0.33    0.08 
  -7   1  12    0.27    0.05 
  -5   1  12   20.34    0.75 
  -5   1  12   20.18    0.74 
   3  -1 -12   13.43    0.59 
  -3   1  12   14.56    0.56 
  -3   1  12   14.26    0.53 
   1  -1 -12    2.64    0.18 
  -1   1  12    2.84    0.18 
  -1   1  12    2.85    0.16 
  -1  -1 -12   38.85    1.49 
   1   1  12   38.32    1.40 
   3   1  12    7.36    0.30 
   3   1  12    7.43    0.37 
   5   1  12   19.59    0.80 
   5   1  12   19.66    0.69 
  -7  -1 -12    0.43    0.12 
   7   1  12    0.59    0.07 
   7   1  12    0.55    0.13 
   9   1  12    0.33    0.12 
   9   1  12    0.25    0.10 
  11   1  12    5.72    0.36 
  11   1  12    5.73    0.41 
  13   1  12    3.11    0.29 
  13   1  12    3.03    0.33 
  15   1  12   -0.05    0.10 
  15   1  12    0.11    0.12 
  17   1  12    2.51    0.29 
  17   1  12    2.44    0.34 
  19   1  12    0.14    0.17 
  19   1  12    0.18    0.12 
  21   1  12    0.39    0.12 
  30  -2 -12    4.84    0.55 
  28  -2 -12   10.24    0.74 
  26  -2 -12   14.07    0.87 
  24  -2 -12    5.47    0.48 
 -24   2  12    5.91    0.35 
  22  -2 -12    0.73    0.20 
 -22   2  12    0.65    0.14 
  20  -2 -12    3.99    0.38 
 -20   2  12    3.85    0.27 
  18  -2 -12    1.13    0.21 
 -18   2  12    1.45    0.18 
  16  -2 -12    0.14    0.10 
 -16   2  12    0.53    0.11 
  14  -2 -12    5.35    0.35 
 -14   2  12    5.91    0.31 
  12  -2 -12    0.17    0.08 
 -12   2  12    0.15    0.03 
 -12   2  12    0.03    0.06 
  10  -2 -12    0.44    0.09 
 -10   2  12    0.11    0.03 
 -10   2  12    0.08    0.06 
   8  -2 -12   41.86    1.58 
  -8   2  12   39.92    1.43 
  -8   2  12   41.64    1.43 
   6  -2 -12    9.44    0.42 
  -6   2  12    9.51    0.40 
  -6   2  12    9.35    0.39 
   4  -2 -12    0.50    0.07 
  -4   2  12    0.57    0.09 
  -4   2  12    0.59    0.08 
   2  -2 -12   47.34    1.76 
  -2   2  12   47.48    1.70 
  -2   2  12   48.91    1.63 
   0  -2 -12   19.04    0.73 
   0   2  12   18.86    0.70 
   0   2  12   18.31    0.74 
  -2  -2 -12    3.94    0.23 
   2   2  12    4.69    0.23 
   2   2  12    4.46    0.26 
  -4  -2 -12    0.08    0.06 
   4   2  12    0.05    0.08 
   4   2  12    0.07    0.05 
  -6  -2 -12    0.42    0.09 
   6   2  12    0.32    0.07 
   6   2  12    0.23    0.10 
  -8  -2 -12   14.98    0.70 
   8   2  12   16.52    0.59 
   8   2  12   15.23    0.70 
  10   2  12   17.68    0.79 
  12   2  12   -0.08    0.09 
  14   2  12    1.55    0.23 
  16   2  12    1.26    0.21 
  18   2  12    1.78    0.25 
  20   2  12    1.40    0.23 
  29  -3 -12    0.65    0.21 
  27  -3 -12    5.47    0.55 
  25  -3 -12    1.81    0.34 
  23  -3 -12    2.07    0.34 
 -23   3  12    1.72    0.22 
  21  -3 -12    0.64    0.21 
 -21   3  12    0.57    0.14 
  19  -3 -12   32.54    1.44 
 -19   3  12   30.63    1.18 
  17  -3 -12   23.01    1.09 
 -17   3  12   23.14    0.90 
  15  -3 -12    0.03    0.09 
 -15   3  12    0.06    0.08 
  13  -3 -12    5.02    0.35 
 -13   3  12    5.28    0.25 
 -13   3  12    5.15    0.30 
  11  -3 -12    4.91    0.32 
 -11   3  12    5.24    0.25 
 -11   3  12    5.58    0.30 
   9  -3 -12    1.86    0.17 
  -9   3  12    1.28    0.15 
  -9   3  12    1.48    0.12 
   7  -3 -12    9.75    0.43 
  -7   3  12    9.00    0.40 
  -7   3  12    8.79    0.42 
   5  -3 -12    3.37    0.18 
  -5   3  12    2.83    0.20 
  -5   3  12    3.06    0.19 
  -3   3  12    0.73    0.11 
  -1   3  12   27.44    1.04 
   1   3  12    7.80    0.40 
   3   3  12   27.48    1.07 
   5   3  12    0.42    0.13 
   7   3  12   26.58    1.08 
   9   3  12    2.87    0.27 
  11   3  12    0.49    0.16 
  13   3  12    1.25    0.22 
  15   3  12    0.37    0.15 
  17   3  12    0.35    0.14 
  19   3  12    0.19    0.11 
  28  -4 -12    2.99    0.44 
  26  -4 -12    1.45    0.31 
  24  -4 -12    1.08    0.27 
  22  -4 -12    0.81    0.23 
 -22   4  12    0.49    0.15 
  20  -4 -12    0.79    0.22 
 -20   4  12    1.01    0.17 
  18  -4 -12    7.49    0.53 
 -18   4  12    7.34    0.40 
  16  -4 -12    2.06    0.28 
 -16   4  12    1.85    0.21 
  14  -4 -12    2.05    0.26 
 -14   4  12    3.38    0.24 
 -12   4  12    4.64    0.26 
 -12   4  12    4.19    0.28 
 -10   4  12    0.03    0.08 
 -10   4  12    0.01    0.06 
  -8   4  12   38.16    1.42 
  -8   4  12   38.90    1.40 
  -6   4  12    8.53    0.42 
  -4   4  12    1.33    0.16 
  -2   4  12    7.87    0.40 
   0   4  12    3.92    0.27 
   2   4  12    2.39    0.23 
   4   4  12    4.76    0.32 
   6   4  12    0.43    0.13 
   8   4  12    0.58    0.16 
  10   4  12    0.96    0.20 
  12   4  12    0.66    0.17 
  14   4  12    4.24    0.38 
  16   4  12    0.22    0.12 
 -23   5  12    0.02    0.13 
 -21   5  12    0.10    0.12 
 -19   5  12    1.18    0.20 
 -17   5  12    1.20    0.19 
 -15   5  12    0.05    0.10 
 -13   5  12    5.55    0.34 
 -11   5  12    3.42    0.25 
 -11   5  12    3.22    0.26 
  -9   5  12    4.56    0.30 
  -9   5  12    4.86    0.31 
  -7   5  12    0.03    0.09 
  -5   5  12    2.30    0.23 
  -3   5  12    3.56    0.27 
  -1   5  12   -0.07    0.07 
   1   5  12    1.33    0.20 
   3   5  12    0.65    0.14 
   5   5  12    0.42    0.15 
   7   5  12    0.63    0.18 
   9   5  12    0.09    0.14 
  11   5  12   -0.07    0.15 
  13   5  12    0.88    0.19 
 -20   6  12    0.16    0.16 
 -18   6  12   -0.03    0.13 
 -16   6  12    1.44    0.24 
 -14   6  12    0.13    0.12 
 -12   6  12    5.17    0.36 
 -10   6  12    9.30    0.51 
  -8   6  12    2.82    0.28 
  -6   6  12    1.97    0.24 
  -4   6  12    4.59    0.34 
  -2   6  12    1.76    0.23 
   0   6  12    0.06    0.11 
   2   6  12    0.32    0.15 
   4   6  12    1.42    0.24 
   6   6  12    0.25    0.17 
   8   6  12    3.13    0.36 
  10   6  12    3.28    0.38 
 -11   7  12    0.11    0.16 
  -9   7  12    0.20    0.18 
  -7   7  12    0.94    0.22 
  -5   7  12    0.16    0.15 
  -3   7  12    0.31    0.18 
  -1   7  12    0.36    0.19 
   1   7  12    3.02    0.36 
   9   7 -13    0.96    0.20 
   7   7 -13    0.98    0.20 
   5   7 -13    0.18    0.12 
   3   7 -13    1.36    0.24 
   1   7 -13    1.83    0.32 
  20   6 -13    0.27    0.11 
  18   6 -13    0.27    0.12 
  16   6 -13    1.03    0.20 
  14   6 -13    1.23    0.23 
  12   6 -13    1.49    0.24 
  10   6 -13    1.93    0.27 
   8   6 -13   -0.04    0.14 
   8   6 -13    0.10    0.12 
   6   6 -13    0.45    0.16 
   6   6 -13    0.71    0.21 
   4   6 -13    0.52    0.21 
   4   6 -13    0.59    0.17 
   2   6 -13    0.08    0.16 
   0   6 -13    0.37    0.21 
  -2   6 -13    0.01    0.19 
  -4   6 -13    0.00    0.20 
  -6   6 -13    0.06    0.22 
  -8   6 -13    0.03    0.25 
  21   5 -13    9.12    0.52 
  19   5 -13    3.51    0.32 
  19   5 -13    3.11    0.37 
  17   5 -13    3.39    0.31 
  17   5 -13    3.81    0.38 
  15   5 -13    5.60    0.42 
  15   5 -13    4.50    0.34 
  13   5 -13    0.18    0.13 
  13   5 -13    0.21    0.13 
  11   5 -13    6.70    0.44 
  11   5 -13    7.94    0.51 
   9   5 -13    2.90    0.33 
   9   5 -13    2.17    0.27 
   7   5 -13   10.25    0.63 
   7   5 -13   10.52    0.58 
   5   5 -13    2.39    0.32 
   3   5 -13    4.07    0.39 
   1   5 -13    0.48    0.17 
  -1   5 -13    4.52    0.45 
  -3   5 -13    1.59    0.30 
  -5   5 -13    0.47    0.20 
  -7   5 -13    0.37    0.21 
  -9   5 -13   -0.04    0.20 
 -11   5 -13    0.03    0.23 
 -13   5 -13    1.21    0.39 
  28   4 -13    0.66    0.28 
  26   4 -13    0.40    0.22 
  24   4 -13    4.38    0.45 
  22   4 -13    0.13    0.14 
  20   4 -13    3.28    0.36 
  20   4 -13    3.42    0.27 
  18   4 -13    0.64    0.14 
  18   4 -13    0.64    0.18 
  16   4 -13   10.38    0.54 
  16   4 -13   11.80    0.63 
  14   4 -13    2.57    0.25 
  14   4 -13    2.37    0.29 
  12   4 -13    6.92    0.41 
  12   4 -13    7.34    0.47 
  10   4 -13   18.82    0.84 
  10   4 -13   19.76    0.94 
   8   4 -13   29.32    1.30 
   6   4 -13    4.38    0.37 
   4   4 -13    0.33    0.14 
   2   4 -13   16.80    0.87 
   0   4 -13    2.41    0.31 
  -2   4 -13    1.15    0.24 
  -4   4 -13   -0.01    0.14 
  -6   4 -13    0.04    0.14 
  -8   4 -13    1.01    0.26 
 -10   4 -13    0.82    0.26 
 -12   4 -13    0.07    0.21 
 -14   4 -13    0.17    0.24 
 -16   4 -13    0.11    0.23 
  29   3 -13    4.20    0.49 
  27   3 -13    0.09    0.17 
  25   3 -13    2.98    0.39 
  23   3 -13    1.88    0.30 
  21   3 -13    3.11    0.35 
  19   3 -13   19.65    0.97 
  19   3 -13   19.45    0.80 
  17   3 -13    0.04    0.11 
  17   3 -13   -0.04    0.07 
  15   3 -13    7.40    0.38 
  15   3 -13    7.15    0.46 
  13   3 -13    4.12    0.27 
  13   3 -13    4.17    0.32 
  11   3 -13    5.64    0.38 
  11   3 -13    5.77    0.33 
   9   3 -13    1.80    0.23 
   7   3 -13    0.01    0.09 
   5   3 -13   26.06    1.14 
   3   3 -13   30.13    1.31 
   1   3 -13    0.27    0.14 
  -1   3 -13   18.83    0.92 
  -3   3 -13    7.29    0.50 
  -5   3 -13    4.95    0.43 
  -7   3 -13    0.09    0.15 
  -9   3 -13   -0.13    0.12 
 -11   3 -13    0.15    0.14 
 -13   3 -13    2.63    0.39 
 -15   3 -13    3.39    0.44 
 -17   3 -13    2.69    0.40 
 -19   3 -13    0.46    0.18 
  32   2 -13   -0.08    0.24 
  30   2 -13    0.14    0.21 
  28   2 -13    0.19    0.19 
  26   2 -13    0.56    0.21 
  24   2 -13    0.35    0.16 
  22   2 -13    2.53    0.32 
  20   2 -13    2.08    0.28 
  18   2 -13    0.00    0.09 
  18   2 -13    0.02    0.06 
  16   2 -13    9.63    0.41 
  16   2 -13    9.02    0.53 
  14   2 -13    0.44    0.12 
  12   2 -13    0.08    0.06 
  12   2 -13    0.19    0.08 
  10   2 -13    1.02    0.16 
   8   2 -13   18.76    0.85 
   6   2 -13    1.64    0.21 
   4   2 -13    0.89    0.16 
   2   2 -13    0.41    0.13 
   0   2 -13   -0.01    0.09 
  -2   2 -13    0.46    0.14 
  -4   2 -13    0.26    0.13 
  -6   2 -13    0.46    0.15 
   6  -2  13    0.37    0.13 
  -8   2 -13    2.28    0.31 
   8  -2  13    3.45    0.33 
 -10   2 -13    1.44    0.26 
  10  -2  13    1.32    0.24 
 -12   2 -13    0.33    0.17 
  12  -2  13    0.57    0.16 
 -14   2 -13    0.43    0.18 
  14  -2  13    0.46    0.18 
 -16   2 -13    0.12    0.15 
  16  -2  13    0.18    0.15 
 -18   2 -13    0.96    0.24 
  18  -2  13    1.12    0.25 
 -20   2 -13    0.24    0.14 
  20  -2  13    0.32    0.14 
  31   1 -13    0.47    0.28 
  29   1 -13    1.08    0.29 
  27   1 -13    2.41    0.37 
  25   1 -13    1.08    0.24 
  23   1 -13    8.75    0.57 
  21   1 -13    0.26    0.14 
  19   1 -13   14.53    0.75 
  17   1 -13   17.46    0.84 
  17   1 -13   17.42    0.64 
  15   1 -13    2.12    0.23 
  15   1 -13    2.67    0.14 
  13   1 -13    0.61    0.13 
  13   1 -13    0.83    0.09 
  11   1 -13   10.60    0.53 
   9   1 -13    3.30    0.25 
   7   1 -13   14.49    0.67 
   5   1 -13   92.42    3.47 
   3   1 -13   96.22    3.58 
  -3  -1  13   94.60    3.32 
   1   1 -13    0.60    0.13 
  -1  -1  13    0.67    0.12 
  -1   1 -13    3.02    0.25 
   1  -1  13    3.29    0.23 
  -3   1 -13   26.23    1.15 
   3  -1  13   27.10    1.07 
  -5   1 -13    7.66    0.44 
   5  -1  13    5.49    0.36 
  -7   1 -13    2.81    0.30 
   7  -1  13    3.27    0.26 
  -9   1 -13    1.50    0.25 
   9  -1  13    1.51    0.21 
 -11   1 -13    9.49    0.61 
  11  -1  13    9.55    0.53 
  13  -1  13   12.08    0.64 
  13  -1  13   11.94    0.76 
  15  -1  13    9.36    0.69 
  15  -1  13   10.70    0.60 
  17  -1  13    1.34    0.25 
  17  -1  13    1.79    0.35 
  19  -1  13    2.95    0.47 
  19  -1  13    2.85    0.34 
  21  -1  13    0.73    0.33 
  21  -1  13    0.89    0.18 
  32   0 -13   -0.11    0.24 
  30   0 -13    0.12    0.19 
  28   0 -13    0.12    0.19 
  26   0 -13    0.01    0.14 
  24   0 -13    0.11    0.12 
  22   0 -13   -0.01    0.13 
  20   0 -13    0.08    0.15 
 -20   0  13    0.02    0.10 
  18   0 -13    0.19    0.12 
 -18   0  13   -0.02    0.06 
  16   0 -13    0.12    0.09 
 -16   0  13    0.00    0.05 
  14   0 -13    0.05    0.09 
 -14   0  13    0.08    0.06 
  12   0 -13   -0.02    0.06 
 -12   0  13    0.14    0.07 
  10   0 -13    0.08    0.07 
 -10   0  13    0.06    0.06 
   8   0 -13    0.03    0.06 
  -8   0  13    0.04    0.05 
  -8   0  13    0.00    0.03 
   6   0 -13    0.02    0.05 
  -6   0  13    0.04    0.03 
  -6   0  13    0.01    0.04 
   4   0 -13    0.04    0.05 
  -4   0  13    0.05    0.04 
  -4   0  13   -0.02    0.04 
   2   0 -13    0.04    0.05 
  -2   0  13   -0.04    0.04 
  -2   0  13    0.02    0.04 
   0   0 -13    0.47    0.10 
   0   0  13    0.04    0.05 
   0   0  13    0.06    0.04 
  -2   0 -13    0.07    0.08 
   2   0  13    0.05    0.04 
   2   0  13    0.04    0.05 
  -4   0 -13   -0.02    0.07 
   4   0  13   -0.01    0.03 
   4   0  13    0.01    0.05 
  -6   0 -13   -0.03    0.06 
   6   0  13   -0.05    0.06 
  -8   0 -13   -0.04    0.08 
   8   0  13   -0.03    0.07 
  10   0  13   -0.06    0.10 
  10   0  13   -0.08    0.07 
  12   0  13    0.11    0.13 
  12   0  13    0.12    0.09 
  14   0  13    0.09    0.11 
  14   0  13    0.12    0.13 
  16   0  13    0.14    0.15 
  16   0  13    0.25    0.13 
  18   0  13    0.30    0.13 
  18   0  13    0.23    0.18 
  20   0  13    0.17    0.20 
  20   0  13    0.22    0.11 
  31  -1 -13    0.57    0.22 
  29  -1 -13    1.41    0.33 
  27  -1 -13    2.64    0.39 
  25  -1 -13    0.89    0.23 
 -25   1  13    0.79    0.16 
  23  -1 -13    9.10    0.61 
 -23   1  13    9.88    0.49 
  21  -1 -13    0.09    0.13 
 -21   1  13    0.30    0.11 
  19  -1 -13   14.81    0.79 
 -19   1  13   15.90    0.66 
  17  -1 -13   16.16    0.80 
 -17   1  13   16.63    0.68 
  15  -1 -13    2.26    0.24 
 -15   1  13    2.71    0.21 
  13  -1 -13    0.92    0.15 
 -13   1  13    0.88    0.13 
  11  -1 -13   10.27    0.50 
 -11   1  13    9.81    0.44 
 -11   1  13   10.27    0.37 
   9  -1 -13    3.27    0.22 
  -9   1  13    2.98    0.20 
  -9   1  13    3.45    0.16 
   7  -1 -13   14.77    0.64 
  -7   1  13   15.56    0.59 
  -7   1  13   15.36    0.57 
  -5   1  13   93.39    3.21 
  -5   1  13   94.66    3.10 
  -3   1  13   92.04    3.05 
  -3   1  13   93.61    3.19 
   1  -1 -13    0.49    0.10 
  -1   1  13    0.71    0.09 
  -1   1  13    0.55    0.10 
  -1  -1 -13    2.63    0.20 
   1   1  13    2.91    0.20 
   3   1  13   26.79    0.92 
   3   1  13   26.39    1.03 
   5   1  13    5.99    0.36 
   5   1  13    7.59    0.29 
  -7  -1 -13    2.97    0.25 
   7   1  13    3.15    0.24 
  -9  -1 -13    1.22    0.19 
   9   1  13    1.05    0.17 
  11   1  13   10.39    0.60 
  11   1  13    8.97    0.50 
  13   1  13   11.72    0.60 
  13   1  13   11.95    0.70 
  15   1  13    9.81    0.64 
  15   1  13    9.82    0.54 
  17   1  13    1.64    0.25 
  17   1  13    1.47    0.30 
  19   1  13    2.79    0.31 
  21   1  13    1.01    0.19 
  32  -2 -13    0.35    0.15 
  30  -2 -13    0.19    0.16 
  28  -2 -13    0.25    0.18 
  26  -2 -13    0.47    0.20 
 -26   2  13    0.71    0.16 
  24  -2 -13    0.46    0.20 
 -24   2  13    0.30    0.12 
  22  -2 -13    2.26    0.32 
 -22   2  13    2.79    0.24 
  20  -2 -13    1.39    0.25 
 -20   2  13    1.66    0.19 
  18  -2 -13    0.01    0.10 
 -18   2  13    0.15    0.10 
  16  -2 -13    8.63    0.50 
 -16   2  13    9.21    0.43 
  14  -2 -13    0.79    0.15 
 -14   2  13    0.43    0.11 
  12  -2 -13    0.09    0.08 
 -12   2  13    0.10    0.07 
 -12   2  13    0.17    0.03 
 -10   2  13    0.99    0.13 
 -10   2  13    1.18    0.09 
   8  -2 -13   19.64    0.80 
  -8   2  13   18.56    0.73 
  -8   2  13   19.49    0.71 
   6  -2 -13    1.93    0.14 
  -6   2  13    2.05    0.16 
  -6   2  13    1.68    0.13 
   4  -2 -13    1.23    0.10 
  -4   2  13    1.16    0.12 
  -4   2  13    1.03    0.12 
   2  -2 -13    0.42    0.07 
  -2   2  13    0.35    0.09 
  -2   2  13    0.39    0.09 
   0  -2 -13    0.00    0.04 
   0   2  13    0.06    0.07 
   0   2  13    0.05    0.06 
  -2  -2 -13    0.66    0.09 
   2   2  13    0.47    0.09 
   2   2  13    0.56    0.12 
  -4  -2 -13    0.19    0.08 
   4   2  13    0.31    0.11 
   4   2  13    0.13    0.05 
  -6  -2 -13    0.41    0.11 
   6   2  13    0.37    0.12 
   6   2  13    0.56    0.09 
   8   2  13    2.39    0.24 
  10   2  13    1.02    0.18 
  12   2  13    0.60    0.15 
  14   2  13    0.58    0.17 
  16   2  13    0.27    0.12 
  18   2  13    1.15    0.21 
  20   2  13    0.28    0.10 
  29  -3 -13    4.27    0.51 
  27  -3 -13   -0.11    0.14 
  25  -3 -13    3.15    0.42 
 -25   3  13    3.27    0.29 
  23  -3 -13    2.01    0.33 
 -23   3  13    1.93    0.23 
  21  -3 -13    2.79    0.36 
 -21   3  13    3.26    0.27 
  19  -3 -13   19.58    1.00 
 -19   3  13   20.95    0.84 
  17  -3 -13    0.17    0.13 
 -17   3  13    0.16    0.10 
  15  -3 -13    8.17    0.49 
 -15   3  13    8.03    0.41 
 -13   3  13    4.47    0.22 
 -13   3  13    4.38    0.27 
  11  -3 -13    5.64    0.34 
 -11   3  13    5.43    0.30 
 -11   3  13    5.45    0.26 
   9  -3 -13    1.92    0.17 
  -9   3  13    1.72    0.17 
  -9   3  13    1.93    0.14 
   7  -3 -13    0.01    0.05 
  -7   3  13    0.01    0.04 
  -7   3  13   -0.07    0.05 
  -5   3  13   29.19    1.04 
  -5   3  13   26.26    1.02 
  -3   3  13   32.14    1.21 
  -3   3  13   33.07    1.18 
  -1   3  13    0.49    0.11 
   1   3  13   21.04    0.85 
   3   3  13    7.01    0.39 
   5   3  13    5.42    0.34 
   7   3  13    0.27    0.11 
   9   3  13    0.11    0.12 
  11   3  13   -0.01    0.11 
  13   3  13    2.34    0.28 
  15   3  13    3.22    0.33 
  17   3  13    2.68    0.31 
  19   3  13    0.69    0.15 
  28  -4 -13    0.65    0.21 
  26  -4 -13    0.84    0.26 
  24  -4 -13    3.79    0.46 
 -24   4  13    4.65    0.34 
  22  -4 -13    0.30    0.17 
 -22   4  13    0.36    0.14 
  20  -4 -13    3.38    0.38 
 -20   4  13    2.79    0.26 
  18  -4 -13    0.54    0.19 
 -18   4  13    0.59    0.14 
  16  -4 -13   12.12    0.67 
 -16   4  13   11.73    0.56 
 -14   4  13    2.51    0.23 
 -12   4  13    7.52    0.40 
 -12   4  13    7.36    0.36 
 -10   4  13   19.81    0.79 
 -10   4  13   18.69    0.76 
  -8   4  13   27.61    1.07 
  -8   4  13   28.67    1.08 
  -6   4  13    4.55    0.28 
  -6   4  13    3.92    0.26 
  -4   4  13    0.33    0.10 
  -2   4  13   15.78    0.68 
   0   4  13    2.94    0.24 
   2   4  13    1.51    0.19 
   4   4  13    0.18    0.11 
   6   4  13    0.23    0.13 
   8   4  13    1.03    0.20 
  10   4  13    0.91    0.20 
  12   4  13   -0.05    0.09 
  14   4  13    0.10    0.13 
  16   4  13    0.36    0.13 
 -23   5  13    2.38    0.28 
 -21   5  13    8.24    0.47 
 -19   5  13    2.80    0.28 
 -17   5  13    3.18    0.29 
 -15   5  13    4.74    0.32 
 -13   5  13    0.21    0.11 
 -11   5  13    7.93    0.41 
 -11   5  13    7.21    0.42 
  -9   5  13    2.49    0.23 
  -9   5  13    2.72    0.26 
  -7   5  13   10.84    0.53 
  -5   5  13    2.54    0.24 
  -3   5  13    3.47    0.26 
  -1   5  13    0.43    0.13 
   1   5  13    4.19    0.31 
   3   5  13    1.82    0.24 
   5   5  13    0.54    0.17 
   7   5  13    0.37    0.15 
   9   5  13    0.22    0.15 
  11   5  13    0.24    0.18 
  13   5  13    1.71    0.25 
 -20   6  13    0.11    0.15 
 -18   6  13   -0.16    0.11 
 -16   6  13    1.03    0.20 
 -14   6  13    0.60    0.16 
 -12   6  13    1.33    0.21 
 -10   6  13    1.80    0.25 
  -8   6  13    0.12    0.10 
  -8   6  13   -0.04    0.09 
  -6   6  13    0.66    0.15 
  -4   6  13    0.52    0.15 
  -2   6  13    0.15    0.12 
   0   6  13    0.32    0.15 
   2   6  13    0.13    0.12 
   4   6  13    0.08    0.15 
   6   6  13    0.09    0.16 
   8   6  13    0.20    0.19 
  -9   7  13    0.79    0.21 
  -7   7  13    0.41    0.18 
  -5   7  13    0.37    0.17 
  -3   7  13    2.28    0.30 
  -1   7  13    2.19    0.31 
   7   7 -14    0.53    0.14 
   5   7 -14    2.48    0.31 
  20   6 -14    1.61    0.24 
  18   6 -14    1.63    0.24 
  16   6 -14    0.62    0.16 
  14   6 -14    0.13    0.11 
  12   6 -14    0.62    0.17 
  10   6 -14    1.89    0.30 
  10   6 -14    1.43    0.25 
   8   6 -14    0.16    0.18 
   8   6 -14    0.24    0.14 
   6   6 -14    1.38    0.24 
   6   6 -14    1.30    0.27 
   4   6 -14    0.05    0.10 
   4   6 -14   -0.02    0.15 
   2   6 -14    0.94    0.26 
   0   6 -14    2.14    0.37 
  -2   6 -14    1.52    0.33 
  -4   6 -14    0.18    0.23 
  -6   6 -14    1.01    0.33 
  21   5 -14    1.94    0.33 
  21   5 -14    2.21    0.27 
  19   5 -14    1.54    0.23 
  19   5 -14    1.86    0.29 
  17   5 -14    0.04    0.13 
  17   5 -14   -0.07    0.11 
  15   5 -14    1.38    0.22 
  15   5 -14    1.07    0.23 
  13   5 -14    5.33    0.42 
  13   5 -14    4.80    0.36 
  11   5 -14    0.13    0.13 
  11   5 -14    0.14    0.12 
   9   5 -14    0.62    0.17 
   9   5 -14    0.80    0.22 
   7   5 -14    0.68    0.20 
   5   5 -14    0.44    0.17 
   3   5 -14    0.18    0.13 
   1   5 -14    1.26    0.27 
  -1   5 -14   -0.14    0.12 
  -3   5 -14    2.61    0.37 
  -5   5 -14   -0.16    0.15 
  -7   5 -14   -0.13    0.17 
  -9   5 -14    0.14    0.23 
 -11   5 -14    2.25    0.44 
  28   4 -14   -0.08    0.22 
  26   4 -14    0.25    0.21 
  24   4 -14    0.25    0.18 
  22   4 -14    0.82    0.23 
  20   4 -14    2.31    0.32 
  20   4 -14    1.66    0.21 
  18   4 -14   10.56    0.52 
  18   4 -14    9.51    0.60 
  16   4 -14   21.12    0.88 
  16   4 -14   20.03    0.99 
  14   4 -14   15.29    0.79 
  14   4 -14   15.20    0.70 
  12   4 -14   14.37    0.67 
  12   4 -14   14.07    0.75 
  10   4 -14   11.66    0.59 
  10   4 -14   12.13    0.67 
   8   4 -14   34.95    1.52 
   6   4 -14    0.96    0.21 
   4   4 -14    3.80    0.36 
   2   4 -14    1.80    0.28 
   0   4 -14    2.04    0.30 
  -2   4 -14    0.17    0.14 
  -4   4 -14   11.56    0.72 
  -6   4 -14    9.24    0.64 
  -8   4 -14    4.46    0.48 
 -10   4 -14    0.56    0.25 
 -12   4 -14    0.44    0.25 
 -14   4 -14    1.11    0.32 
 -16   4 -14    0.02    0.26 
  29   3 -14    0.42    0.24 
  27   3 -14    0.70    0.23 
  25   3 -14    1.02    0.25 
  23   3 -14    0.32    0.17 
  21   3 -14    8.91    0.57 
  19   3 -14    4.91    0.40 
  19   3 -14    4.53    0.29 
  17   3 -14   14.31    0.63 
  17   3 -14   15.39    0.78 
  15   3 -14    0.08    0.08 
  15   3 -14   -0.08    0.10 
  13   3 -14   23.17    1.05 
  13   3 -14   22.63    0.92 
  11   3 -14    0.12    0.10 
   9   3 -14   11.77    0.63 
   7   3 -14    0.76    0.18 
   5   3 -14    4.98    0.37 
   3   3 -14    4.88    0.37 
   1   3 -14   20.05    0.96 
  -1   3 -14    0.74    0.19 
  -3   3 -14   33.60    1.50 
  -5   3 -14    6.39    0.49 
  -7   3 -14    6.85    0.52 
  -9   3 -14    0.49    0.19 
 -11   3 -14    0.31    0.16 
 -13   3 -14    0.07    0.14 
 -15   3 -14    0.03    0.13 
 -17   3 -14    1.17    0.26 
  32   2 -14    0.45    0.30 
  30   2 -14    0.18    0.21 
  28   2 -14    4.17    0.48 
  26   2 -14    0.07    0.14 
  24   2 -14    0.13    0.14 
  22   2 -14    0.24    0.14 
  20   2 -14   24.66    1.15 
  18   2 -14   22.56    0.85 
  18   2 -14   22.13    1.04 
  16   2 -14    0.31    0.13 
  16   2 -14    0.33    0.08 
  12   2 -14    0.81    0.15 
  10   2 -14    8.69    0.48 
   8   2 -14    0.88    0.16 
   6   2 -14   19.64    0.89 
   4   2 -14    3.97    0.30 
   2   2 -14   29.69    1.28 
   0   2 -14   24.77    1.11 
  -2   2 -14   36.45    1.55 
  -4   2 -14   18.18    0.90 
  -6   2 -14    6.05    0.45 
   6  -2  14    5.43    0.39 
  -8   2 -14    0.13    0.15 
   8  -2  14    0.06    0.12 
 -10   2 -14    7.33    0.53 
  10  -2  14    7.12    0.48 
 -12   2 -14    0.30    0.18 
  12  -2  14    0.29    0.15 
 -14   2 -14    0.27    0.17 
  14  -2  14    0.13    0.14 
 -16   2 -14    0.17    0.17 
  16  -2  14    0.08    0.12 
 -18   2 -14    1.68    0.30 
  18  -2  14    1.15    0.24 
  31   1 -14    0.98    0.32 
  29   1 -14    0.88    0.27 
  27   1 -14    0.60    0.20 
  25   1 -14    0.12    0.14 
  23   1 -14    6.56    0.49 
  21   1 -14    6.23    0.46 
  19   1 -14    0.13    0.12 
  17   1 -14    0.61    0.16 
  17   1 -14    0.60    0.08 
  15   1 -14   19.43    0.92 
  15   1 -14   20.86    0.74 
  13   1 -14    0.24    0.10 
  11   1 -14    0.40    0.11 
   9   1 -14    6.69    0.39 
   7   1 -14    0.23    0.09 
   5   1 -14   17.39    0.79 
   3   1 -14    0.59    0.13 
  -3  -1  14    0.45    0.10 
   1   1 -14    6.18    0.38 
  -1  -1  14    5.70    0.33 
  -1   1 -14   -0.01    0.08 
   1  -1  14   -0.02    0.05 
  -3   1 -14    1.31    0.20 
   3  -1  14    1.53    0.19 
  -5   1 -14    0.01    0.09 
   5  -1  14    0.08    0.08 
  -7   1 -14    0.62    0.16 
   7  -1  14    0.50    0.14 
  -9   1 -14    0.71    0.18 
   9  -1  14    0.81    0.17 
 -11   1 -14    8.43    0.57 
  11  -1  14    8.96    0.52 
 -13   1 -14    0.07    0.15 
  13  -1  14    0.03    0.11 
 -15   1 -14    0.17    0.16 
  15  -1  14    0.01    0.13 
  17  -1  14    0.14    0.12 
  19  -1  14    0.12    0.12 
  19  -1  14    0.21    0.23 
  32   0 -14    1.29    0.35 
  30   0 -14    6.49    0.63 
  28   0 -14   13.98    0.86 
  26   0 -14    3.94    0.44 
  24   0 -14    3.92    0.41 
  22   0 -14   42.16    1.86 
 -22   0  14   45.31    1.62 
  20   0 -14  127.03    4.97 
 -20   0  14  135.70    4.41 
  18   0 -14   57.95    2.22 
 -18   0  14   52.41    1.94 
  16   0 -14   41.65    1.71 
 -16   0  14   42.51    1.52 
  14   0 -14  124.51    4.65 
 -14   0  14  125.33    4.15 
  12   0 -14   86.90    3.26 
 -12   0  14   86.22    2.91 
  10   0 -14   28.97    1.16 
 -10   0  14   27.61    1.04 
   8   0 -14   54.30    2.06 
  -8   0  14   52.08    1.86 
  -8   0  14   54.01    1.83 
   6   0 -14   83.22    3.10 
  -6   0  14   80.61    2.84 
  -6   0  14   84.23    2.76 
   4   0 -14  124.18    4.58 
  -4   0  14  125.30    4.07 
  -4   0  14  122.94    4.24 
   2   0 -14   32.60    1.34 
  -2   0  14   33.15    1.16 
  -2   0  14   33.97    1.23 
   0   0 -14   35.71    1.44 
   0   0  14   35.37    1.32 
   0   0  14   35.76    1.22 
  -2   0 -14   12.11    0.59 
   2   0  14   12.07    0.54 
   2   0  14   11.67    0.45 
  -4   0 -14   13.31    0.65 
   4   0  14   13.22    0.49 
   4   0  14   13.12    0.59 
  -6   0 -14   24.36    1.06 
   6   0  14   22.91    0.96 
  -8   0 -14    2.40    0.27 
   8   0  14    2.12    0.23 
 -10   0 -14    0.04    0.12 
  10   0  14    0.02    0.10 
 -12   0 -14    8.41    0.56 
  12   0  14    9.09    0.51 
  14   0  14   -0.05    0.13 
  14   0  14    0.16    0.12 
  16   0  14    3.86    0.36 
  16   0  14    3.52    0.44 
  18   0  14    1.04    0.20 
  18   0  14    0.68    0.26 
  20   0  14    0.45    0.26 
  20   0  14    0.35    0.13 
  31  -1 -14    0.71    0.24 
  29  -1 -14    0.86    0.26 
  27  -1 -14    0.42    0.20 
 -27   1  14    0.29    0.12 
  25  -1 -14   -0.11    0.13 
 -25   1  14    0.02    0.07 
  23  -1 -14    5.64    0.46 
 -23   1  14    6.71    0.38 
  21  -1 -14    5.75    0.45 
 -21   1  14    6.38    0.37 
  19  -1 -14    0.15    0.13 
 -19   1  14    0.29    0.11 
  17  -1 -14    0.64    0.17 
 -17   1  14    0.59    0.13 
  15  -1 -14   19.20    0.88 
 -15   1  14   19.30    0.77 
  13  -1 -14    0.20    0.09 
 -13   1  14    0.44    0.10 
  11  -1 -14    0.35    0.10 
 -11   1  14    0.39    0.09 
 -11   1  14    0.29    0.04 
   9  -1 -14    6.98    0.36 
  -9   1  14    7.30    0.34 
  -9   1  14    6.79    0.29 
   7  -1 -14    0.38    0.08 
  -7   1  14    0.47    0.07 
  -7   1  14    0.22    0.07 
  -5   1  14   18.37    0.71 
  -5   1  14   18.60    0.69 
  -3   1  14    0.58    0.10 
  -3   1  14    0.55    0.09 
  -1   1  14    6.63    0.34 
  -1   1  14    6.99    0.30 
  -1  -1 -14    0.00    0.05 
   1   1  14    0.02    0.06 
   1   1  14   -0.03    0.02 
   3   1  14    1.55    0.17 
   3   1  14    1.59    0.12 
  -5  -1 -14    0.04    0.07 
   5   1  14    0.03    0.05 
   5   1  14    0.05    0.09 
  -7  -1 -14    0.85    0.16 
   7   1  14    0.55    0.13 
  -9  -1 -14    0.75    0.17 
   9   1  14    0.64    0.14 
 -11  -1 -14    8.98    0.53 
  11   1  14    8.13    0.48 
  13   1  14    0.12    0.13 
  13   1  14   -0.07    0.08 
  15   1  14    0.03    0.14 
  15   1  14    0.12    0.12 
  17   1  14    0.25    0.12 
  19   1  14    0.17    0.10 
  32  -2 -14    0.65    0.19 
  30  -2 -14    0.35    0.17 
  28  -2 -14    4.28    0.50 
  26  -2 -14   -0.03    0.17 
 -26   2  14    0.18    0.11 
  24  -2 -14    0.26    0.16 
 -24   2  14    0.29    0.12 
  22  -2 -14    0.02    0.13 
 -22   2  14    0.35    0.12 
  20  -2 -14   24.30    1.14 
 -20   2  14   24.21    0.96 
  18  -2 -14   19.46    0.96 
 -18   2  14   21.73    0.84 
  16  -2 -14    0.31    0.13 
 -16   2  14    0.67    0.13 
  14  -2 -14    2.64    0.23 
 -14   2  14    2.49    0.21 
  12  -2 -14    0.94    0.15 
 -12   2  14    1.14    0.08 
 -12   2  14    0.92    0.13 
 -10   2  14    9.13    0.37 
 -10   2  14    8.83    0.41 
   8  -2 -14    0.83    0.11 
  -8   2  14    0.72    0.11 
  -8   2  14    0.83    0.09 
   6  -2 -14   21.12    0.83 
  -6   2  14   20.68    0.78 
  -6   2  14   20.61    0.78 
   4  -2 -14    4.03    0.21 
  -4   2  14    3.80    0.23 
  -4   2  14    4.00    0.23 
   2  -2 -14   30.15    1.14 
  -2   2  14   30.11    1.12 
  -2   2  14   29.34    1.06 
   0  -2 -14   28.50    1.09 
   0   2  14   27.80    1.07 
   0   2  14   27.67    1.00 
  -2  -2 -14   39.84    1.47 
   2   2  14   39.70    1.33 
   2   2  14   34.91    1.42 
  -4  -2 -14   19.91    0.83 
   4   2  14   20.05    0.84 
   6   2  14    5.34    0.35 
   6   2  14    6.05    0.28 
   8   2  14    0.27    0.13 
  10   2  14    7.13    0.43 
  12   2  14    0.50    0.16 
  14   2  14    0.52    0.17 
  16   2  14    0.55    0.16 
  18   2  14    1.72    0.25 
  29  -3 -14    0.30    0.18 
  27  -3 -14    0.99    0.26 
  25  -3 -14    0.98    0.26 
 -25   3  14    1.14    0.20 
  23  -3 -14    0.51    0.19 
 -23   3  14    0.22    0.12 
  21  -3 -14    8.50    0.58 
 -21   3  14    8.19    0.45 
  19  -3 -14    4.37    0.39 
 -19   3  14    5.01    0.32 
  17  -3 -14   14.17    0.75 
 -17   3  14   14.41    0.63 
  15  -3 -14    0.17    0.11 
 -15   3  14    0.13    0.09 
 -13   3  14   24.35    0.94 
  11  -3 -14    0.04    0.07 
 -11   3  14    0.03    0.04 
 -11   3  14   -0.01    0.06 
   9  -3 -14   12.56    0.55 
  -9   3  14   11.78    0.49 
  -9   3  14   11.92    0.52 
  -7   3  14    0.76    0.11 
  -7   3  14    1.09    0.14 
  -5   3  14    5.24    0.28 
  -5   3  14    5.05    0.28 
  -3   3  14    4.64    0.28 
  -3   3  14    5.09    0.29 
  -1   3  14   17.66    0.73 
  -1   3  14   20.32    0.78 
   1   3  14    0.61    0.14 
   1   3  14    0.66    0.12 
   3   3  14   32.95    1.20 
   3   3  14   33.86    1.30 
   5   3  14    5.82    0.36 
   7   3  14    6.81    0.42 
   7   3  14    6.44    0.32 
   9   3  14    0.78    0.18 
  11   3  14    0.44    0.15 
  13   3  14   -0.04    0.11 
  15   3  14    0.07    0.11 
  17   3  14    1.17    0.21 
  28  -4 -14    0.16    0.17 
  26  -4 -14   -0.05    0.15 
  24  -4 -14    0.52    0.21 
 -24   4  14   -0.04    0.11 
  22  -4 -14    0.93    0.23 
 -22   4  14    0.73    0.18 
  20  -4 -14    2.71    0.34 
 -20   4  14    1.73    0.22 
  18  -4 -14   10.58    0.63 
 -18   4  14    9.78    0.51 
 -16   4  14   21.96    0.90 
 -14   4  14   15.90    0.69 
 -12   4  14   13.92    0.62 
 -10   4  14   12.46    0.57 
 -10   4  14   12.22    0.53 
  -8   4  14   33.27    1.25 
  -8   4  14   33.93    1.26 
  -6   4  14    0.77    0.13 
  -6   4  14    0.59    0.13 
  -4   4  14    4.18    0.27 
  -4   4  14    3.91    0.27 
  -2   4  14    1.08    0.16 
   0   4  14    3.03    0.24 
   2   4  14   -0.12    0.07 
   4   4  14   11.29    0.57 
   6   4  14    9.62    0.53 
   8   4  14    4.12    0.34 
  10   4  14    0.63    0.18 
  12   4  14    0.55    0.17 
  14   4  14    0.74    0.18 
  16   4  14    0.70    0.16 
 -23   5  14   -0.15    0.12 
 -21   5  14    2.00    0.25 
 -19   5  14    1.46    0.22 
 -17   5  14    0.12    0.11 
 -15   5  14    1.11    0.19 
 -13   5  14    5.10    0.34 
 -11   5  14   -0.06    0.09 
  -9   5  14    0.81    0.15 
  -9   5  14    0.65    0.14 
  -7   5  14    0.33    0.12 
  -7   5  14    0.30    0.11 
  -5   5  14    0.31    0.11 
  -3   5  14    0.18    0.09 
  -1   5  14    1.41    0.19 
   1   5  14    0.23    0.12 
   3   5  14    2.68    0.28 
   5   5  14    0.05    0.12 
   7   5  14   -0.01    0.13 
   9   5  14    0.03    0.14 
  11   5  14    2.36    0.33 
  13   5  14    0.95    0.19 
 -20   6  14    1.76    0.27 
 -18   6  14    1.54    0.25 
 -16   6  14    0.43    0.17 
 -14   6  14   -0.09    0.10 
 -12   6  14    0.61    0.16 
 -10   6  14    1.40    0.23 
  -8   6  14    0.40    0.13 
  -8   6  14    0.22    0.12 
  -6   6  14    1.03    0.18 
  -4   6  14    0.27    0.12 
  -2   6  14    0.84    0.19 
   0   6  14    3.00    0.31 
   2   6  14    2.38    0.29 
   4   6  14    0.17    0.16 
   6   6  14    1.00    0.24 
   8   6  14    1.40    0.29 
  -5   7  14    2.59    0.31 
  18   6 -15    0.40    0.14 
  16   6 -15    0.35    0.13 
  14   6 -15    0.67    0.17 
  12   6 -15    0.25    0.19 
  12   6 -15    0.26    0.14 
  10   6 -15    1.07    0.26 
  10   6 -15    1.06    0.21 
   8   6 -15    0.62    0.17 
   8   6 -15    0.46    0.20 
   6   6 -15    0.05    0.10 
   6   6 -15    0.37    0.20 
   4   6 -15    0.80    0.26 
   2   6 -15    1.08    0.28 
   0   6 -15    1.46    0.33 
  -2   6 -15    2.29    0.41 
  -4   6 -15    0.26    0.24 
  -6   6 -15    0.70    0.32 
  21   5 -15    2.57    0.29 
  21   5 -15    2.88    0.38 
  19   5 -15   -0.15    0.14 
  19   5 -15    0.07    0.12 
  17   5 -15    0.87    0.19 
  17   5 -15    1.36    0.26 
  15   5 -15    1.18    0.21 
  15   5 -15    1.50    0.27 
  13   5 -15    5.52    0.39 
  13   5 -15    6.65    0.47 
  11   5 -15   11.24    0.60 
  11   5 -15   10.57    0.65 
   9   5 -15    8.91    0.58 
   9   5 -15    8.95    0.52 
   7   5 -15   10.32    0.65 
   5   5 -15    0.04    0.12 
   3   5 -15   -0.08    0.12 
   1   5 -15    0.03    0.14 
  -1   5 -15   -0.03    0.14 
  -3   5 -15    0.41    0.21 
  -5   5 -15    1.39    0.31 
  -7   5 -15    0.24    0.22 
  -9   5 -15    0.79    0.30 
 -11   5 -15    1.93    0.43 
  28   4 -15   -0.03    0.21 
  26   4 -15    0.23    0.20 
  24   4 -15   -0.03    0.16 
  22   4 -15    2.36    0.34 
  20   4 -15    0.13    0.14 
  20   4 -15    0.04    0.10 
  18   4 -15    0.19    0.14 
  18   4 -15    0.11    0.11 
  16   4 -15    1.78    0.22 
  16   4 -15    2.01    0.28 
  14   4 -15    0.19    0.11 
  14   4 -15    0.21    0.14 
  12   4 -15    0.42    0.13 
  12   4 -15    0.60    0.17 
  10   4 -15    0.14    0.13 
   8   4 -15    8.54    0.55 
   6   4 -15    9.72    0.59 
   4   4 -15    7.20    0.50 
   2   4 -15    0.06    0.14 
   0   4 -15    3.39    0.38 
  -2   4 -15    1.92    0.30 
  -4   4 -15    0.25    0.18 
  -6   4 -15    1.45    0.29 
  -8   4 -15    0.30    0.21 
 -10   4 -15    0.69    0.27 
 -12   4 -15    0.49    0.28 
 -14   4 -15    0.72    0.32 
  29   3 -15    1.65    0.35 
  27   3 -15    8.17    0.62 
  25   3 -15    1.11    0.26 
  23   3 -15    1.09    0.25 
  21   3 -15    1.28    0.25 
  19   3 -15    3.34    0.35 
  19   3 -15    3.10    0.23 
  17   3 -15    0.06    0.08 
  17   3 -15   -0.02    0.11 
  15   3 -15   12.34    0.66 
  15   3 -15   11.60    0.54 
  13   3 -15    4.41    0.29 
  13   3 -15    4.32    0.35 
  11   3 -15    0.52    0.15 
   9   3 -15   -0.06    0.11 
   7   3 -15   72.28    2.84 
   5   3 -15   -0.10    0.09 
   3   3 -15    9.41    0.57 
   1   3 -15   10.31    0.62 
  -1   3 -15    1.59    0.27 
  -3   3 -15    7.81    0.55 
  -5   3 -15    2.88    0.36 
  -7   3 -15    1.96    0.32 
  -9   3 -15    5.64    0.49 
 -11   3 -15    1.40    0.28 
 -13   3 -15    0.24    0.16 
 -15   3 -15    0.59    0.18 
 -17   3 -15    0.16    0.12 
  32   2 -15    0.32    0.26 
  30   2 -15    0.77    0.26 
  28   2 -15    4.01    0.47 
  26   2 -15    0.57    0.21 
  24   2 -15    2.18    0.32 
  22   2 -15    0.07    0.12 
  20   2 -15    3.89    0.38 
  18   2 -15    2.78    0.19 
  18   2 -15    2.90    0.31 
  16   2 -15    0.16    0.08 
  16   2 -15    0.16    0.11 
  14   2 -15    8.73    0.51 
  12   2 -15    0.92    0.17 
  10   2 -15    5.41    0.36 
   8   2 -15    0.17    0.09 
   6   2 -15    0.45    0.13 
   4   2 -15   21.76    0.99 
   2   2 -15   -0.06    0.08 
   0   2 -15    8.23    0.51 
  -2   2 -15   -0.10    0.09 
  -4   2 -15    3.34    0.35 
  -6   2 -15    1.80    0.29 
   6  -2  15    1.30    0.22 
  -8   2 -15    0.09    0.13 
   8  -2  15   -0.04    0.10 
 -10   2 -15    1.27    0.25 
  10  -2  15    1.25    0.24 
 -12   2 -15   -0.06    0.12 
  12  -2  15   -0.09    0.10 
 -14   2 -15    0.90    0.25 
  14  -2  15    0.94    0.23 
 -16   2 -15    0.00    0.13 
  16  -2  15    0.11    0.14 
 -18   2 -15    0.74    0.20 
  18  -2  15    0.74    0.19 
  33   1 -15    0.53    0.31 
  31   1 -15    7.90    0.67 
  29   1 -15    3.07    0.43 
  27   1 -15    4.44    0.47 
  25   1 -15   23.78    1.18 
  23   1 -15    4.02    0.40 
  21   1 -15   31.54    1.41 
  19   1 -15    0.71    0.18 
  17   1 -15   23.65    1.07 
  15   1 -15   50.73    2.20 
  15   1 -15   60.43    1.94 
  13   1 -15   13.54    0.67 
  11   1 -15   20.02    0.90 
   9   1 -15    0.78    0.15 
   7   1 -15    0.56    0.13 
   5   1 -15   15.90    0.74 
   3   1 -15    0.17    0.09 
  -3  -1  15    0.23    0.08 
   1   1 -15    3.50    0.28 
  -1  -1  15    3.39    0.24 
  -1   1 -15   18.92    0.88 
   1  -1  15   19.04    0.81 
  -3   1 -15   18.28    0.88 
   3  -1  15   19.12    0.82 
  -5   1 -15    3.12    0.31 
   5  -1  15    2.82    0.27 
  -7   1 -15    0.03    0.11 
   7  -1  15    0.00    0.09 
  -9   1 -15   18.10    0.95 
   9  -1  15   19.38    0.87 
 -11   1 -15    0.19    0.15 
  11  -1  15    0.08    0.11 
 -13   1 -15    0.27    0.16 
  13  -1  15    0.31    0.15 
 -15   1 -15    0.54    0.20 
  15  -1  15    0.57    0.18 
 -17   1 -15    2.93    0.40 
  17  -1  15    2.60    0.33 
 -19   1 -15    1.20    0.27 
  19  -1  15    0.56    0.17 
  32   0 -15   -0.02    0.22 
  30   0 -15    0.10    0.20 
  28   0 -15    0.01    0.17 
  26   0 -15    0.01    0.13 
  24   0 -15    0.12    0.13 
  22   0 -15    0.06    0.14 
 -22   0  15    0.07    0.09 
  20   0 -15    0.06    0.12 
 -20   0  15   -0.07    0.07 
  18   0 -15   -0.01    0.10 
 -18   0  15    0.00    0.08 
  16   0 -15   -0.03    0.08 
 -16   0  15   -0.03    0.06 
  14   0 -15   -0.01    0.07 
 -14   0  15   -0.03    0.06 
  12   0 -15    0.06    0.07 
 -12   0  15    0.10    0.07 
  10   0 -15    0.05    0.06 
 -10   0  15    0.01    0.05 
   8   0 -15   -0.04    0.06 
  -8   0  15   -0.01    0.05 
  -8   0  15    0.05    0.04 
   6   0 -15   -0.08    0.05 
  -6   0  15    0.00    0.04 
  -6   0  15   -0.01    0.05 
   4   0 -15    0.05    0.07 
  -4   0  15    0.01    0.05 
  -4   0  15    0.06    0.05 
   2   0 -15    0.09    0.08 
  -2   0  15    0.09    0.05 
  -2   0  15    0.17    0.06 
   0   0 -15    0.14    0.09 
   0   0  15    0.04    0.06 
   0   0  15    0.05    0.05 
  -2   0 -15    0.10    0.09 
   2   0  15    0.02    0.05 
   2   0  15   -0.05    0.04 
  -4   0 -15    0.10    0.10 
   4   0  15    0.01    0.07 
   4   0  15    0.00    0.04 
  -6   0 -15    0.04    0.09 
   6   0  15    0.01    0.08 
  -8   0 -15    0.04    0.10 
   8   0  15    0.03    0.08 
 -10   0 -15   -0.08    0.10 
  10   0  15   -0.09    0.08 
 -12   0 -15   -0.14    0.12 
  12   0  15    0.10    0.11 
 -14   0 -15    0.09    0.14 
  14   0  15    0.07    0.11 
 -16   0 -15    0.09    0.16 
  16   0  15   -0.05    0.09 
 -18   0 -15    0.13    0.15 
  18   0  15    0.25    0.11 
 -20   0 -15    0.10    0.15 
  20   0  15    0.23    0.10 
  33  -1 -15    0.65    0.20 
  31  -1 -15    8.64    0.68 
  29  -1 -15    3.61    0.47 
  27  -1 -15    3.96    0.46 
 -27   1  15    4.01    0.31 
  25  -1 -15   22.82    1.17 
 -25   1  15   23.91    0.98 
  23  -1 -15    3.36    0.38 
 -23   1  15    4.00    0.29 
  21  -1 -15   32.98    1.45 
 -21   1  15   31.68    1.23 
  19  -1 -15    0.83    0.19 
 -19   1  15    0.89    0.16 
  17  -1 -15   20.41    1.01 
 -17   1  15   24.51    0.90 
  15  -1 -15   57.02    2.26 
 -15   1  15   58.02    2.00 
  13  -1 -15   14.05    0.67 
 -13   1  15   14.43    0.60 
  11  -1 -15   20.23    0.86 
 -11   1  15   20.29    0.72 
 -11   1  15   19.62    0.78 
   9  -1 -15    0.70    0.12 
  -9   1  15    0.84    0.12 
  -9   1  15    0.94    0.08 
   7  -1 -15    0.56    0.10 
  -7   1  15    0.45    0.07 
  -7   1  15    0.52    0.10 
  -5   1  15   16.23    0.63 
  -5   1  15   16.48    0.64 
   3  -1 -15    0.08    0.04 
  -3   1  15    0.27    0.07 
  -3   1  15    0.31    0.08 
  -1   1  15    3.60    0.20 
  -1   1  15    3.01    0.21 
   1   1  15   18.26    0.75 
   3   1  15   18.08    0.75 
   3   1  15   17.97    0.66 
  -5  -1 -15    2.22    0.23 
   5   1  15    2.72    0.16 
   5   1  15    2.66    0.24 
  -7  -1 -15    0.18    0.10 
   7   1  15   -0.04    0.08 
  -9  -1 -15   18.89    0.89 
   9   1  15   17.99    0.82 
 -11  -1 -15    0.15    0.13 
  11   1  15    0.32    0.13 
 -13  -1 -15    0.34    0.17 
  13   1  15    0.44    0.15 
  15   1  15    0.89    0.19 
  17   1  15    2.44    0.30 
  19   1  15    0.93    0.18 
  32  -2 -15    0.65    0.19 
  30  -2 -15    0.73    0.23 
  28  -2 -15    3.71    0.47 
  26  -2 -15    0.39    0.20 
 -26   2  15    0.35    0.13 
  24  -2 -15    1.94    0.32 
 -24   2  15    2.18    0.24 
  22  -2 -15    0.33    0.15 
 -22   2  15    0.44    0.13 
  20  -2 -15    3.53    0.36 
 -20   2  15    3.63    0.28 
  18  -2 -15    2.60    0.29 
 -18   2  15    2.98    0.25 
  16  -2 -15    0.30    0.11 
 -16   2  15    0.43    0.11 
  14  -2 -15    8.55    0.47 
 -14   2  15    8.69    0.43 
  12  -2 -15    0.92    0.15 
 -12   2  15    1.04    0.14 
 -12   2  15    0.98    0.08 
 -10   2  15    6.06    0.27 
 -10   2  15    5.55    0.30 
   8  -2 -15    0.23    0.08 
  -8   2  15    0.25    0.08 
  -8   2  15    0.34    0.07 
   6  -2 -15    0.35    0.08 
  -6   2  15    0.32    0.09 
  -6   2  15    0.35    0.08 
   4  -2 -15   21.36    0.87 
  -4   2  15   21.98    0.85 
  -4   2  15   23.05    0.83 
   2  -2 -15    0.13    0.06 
  -2   2  15    0.31    0.10 
  -2   2  15   -0.01    0.06 
   0  -2 -15    7.96    0.38 
   0   2  15    8.13    0.36 
   0   2  15    8.24    0.41 
  -2  -2 -15    0.03    0.06 
   2   2  15   -0.14    0.08 
   2   2  15   -0.04    0.06 
   4   2  15    3.55    0.27 
   6   2  15    2.07    0.23 
   6   2  15    1.60    0.14 
   8   2  15    0.03    0.11 
  10   2  15    1.19    0.21 
  12   2  15    0.03    0.10 
  14   2  15    1.16    0.21 
  16   2  15    0.21    0.11 
  18   2  15    0.54    0.15 
  29  -3 -15    1.98    0.35 
  27  -3 -15    9.73    0.71 
  25  -3 -15    0.76    0.23 
 -25   3  15    0.63    0.17 
  23  -3 -15    1.15    0.26 
 -23   3  15    0.69    0.16 
  21  -3 -15    2.09    0.32 
 -21   3  15    1.71    0.22 
  19  -3 -15    3.69    0.37 
 -19   3  15    3.28    0.28 
  17  -3 -15    0.11    0.12 
 -17   3  15    0.07    0.09 
  15  -3 -15   12.40    0.65 
 -15   3  15   12.81    0.57 
  13  -3 -15    4.71    0.32 
 -13   3  15    4.70    0.29 
  11  -3 -15    0.74    0.13 
 -11   3  15    0.76    0.09 
 -11   3  15    0.95    0.15 
   9  -3 -15   -0.03    0.06 
  -9   3  15   -0.02    0.05 
  -9   3  15    0.00    0.07 
  -7   3  15   67.17    2.37 
  -7   3  15   68.01    2.31 
  -5   3  15    0.04    0.06 
  -5   3  15    0.13    0.08 
  -3   3  15    8.29    0.42 
  -3   3  15    9.78    0.43 
  -1   3  15   12.17    0.56 
  -1   3  15   11.82    0.52 
   1   3  15    1.95    0.21 
   1   3  15    1.63    0.17 
   3   3  15    7.51    0.37 
   3   3  15    8.27    0.44 
   5   3  15    3.03    0.21 
   5   3  15    3.28    0.27 
   7   3  15    1.47    0.22 
   9   3  15    5.91    0.41 
  11   3  15    1.19    0.22 
  13   3  15    0.40    0.16 
  15   3  15    0.13    0.11 
  17   3  15    0.31    0.11 
  28  -4 -15    0.19    0.16 
  26  -4 -15    0.35    0.21 
 -26   4  15    0.31    0.16 
  24  -4 -15    0.19    0.18 
 -24   4  15   -0.11    0.11 
  22  -4 -15    3.26    0.39 
 -22   4  15    2.48    0.28 
  20  -4 -15    0.00    0.13 
 -20   4  15    0.21    0.12 
 -18   4  15    0.19    0.11 
 -16   4  15    1.86    0.22 
 -14   4  15    0.18    0.11 
 -12   4  15    0.65    0.14 
 -10   4  15   -0.05    0.08 
 -10   4  15    0.05    0.06 
  -8   4  15    7.53    0.38 
  -8   4  15    7.94    0.41 
  -6   4  15    9.84    0.48 
  -6   4  15   10.04    0.47 
  -4   4  15    7.44    0.40 
  -4   4  15    7.80    0.40 
  -2   4  15    0.00    0.09 
  -2   4  15   -0.02    0.07 
   0   4  15    2.94    0.24 
   2   4  15    2.11    0.23 
   4   4  15    0.50    0.15 
   6   4  15    1.30    0.21 
   8   4  15    0.11    0.13 
  10   4  15    0.91    0.22 
  12   4  15    0.80    0.19 
  14   4  15    1.19    0.22 
 -23   5  15    0.79    0.21 
 -21   5  15    2.30    0.28 
 -19   5  15    0.01    0.11 
 -17   5  15    0.80    0.17 
 -15   5  15    0.95    0.19 
 -13   5  15    5.64    0.37 
 -11   5  15   10.39    0.53 
  -9   5  15    8.39    0.46 
  -9   5  15    8.94    0.45 
  -7   5  15    9.96    0.51 
  -7   5  15   10.02    0.50 
  -5   5  15    0.08    0.08 
  -5   5  15    0.18    0.09 
  -3   5  15    0.00    0.08 
  -1   5  15    0.19    0.11 
   1   5  15    0.16    0.12 
   3   5  15    0.59    0.17 
   5   5  15    1.21    0.23 
   7   5  15    0.25    0.16 
   9   5  15    0.87    0.23 
  11   5  15    2.51    0.35 
 -18   6  15    0.03    0.14 
 -16   6  15    0.07    0.13 
 -14   6  15    0.61    0.18 
 -12   6  15   -0.01    0.11 
 -10   6  15    1.50    0.24 
  -8   6  15    0.75    0.16 
  -8   6  15    0.87    0.17 
  -6   6  15    0.27    0.10 
  -6   6  15    0.07    0.11 
  -4   6  15    0.75    0.18 
  -2   6  15    1.11    0.21 
   0   6  15    1.61    0.25 
   2   6  15    2.70    0.32 
   4   6  15    0.47    0.20 
   6   6  15    0.88    0.26 
  18   6 -16    2.29    0.29 
  16   6 -16    0.81    0.19 
  14   6 -16    0.34    0.13 
  12   6 -16    1.54    0.25 
  12   6 -16    1.50    0.30 
  10   6 -16    1.47    0.30 
  10   6 -16    1.72    0.26 
   8   6 -16    7.67    0.51 
   8   6 -16    7.57    0.57 
   6   6 -16    5.84    0.43 
   6   6 -16    5.58    0.53 
   4   6 -16    2.97    0.43 
   2   6 -16    0.95    0.27 
   0   6 -16    0.11    0.21 
  -2   6 -16    1.63    0.37 
  -4   6 -16    0.32    0.29 
  23   5 -16    0.18    0.22 
  21   5 -16    0.34    0.21 
  19   5 -16    0.00    0.14 
  19   5 -16    0.03    0.12 
  17   5 -16    0.46    0.19 
  17   5 -16    0.38    0.14 
  15   5 -16    1.38    0.27 
  15   5 -16    1.62    0.24 
  13   5 -16    1.99    0.25 
  13   5 -16    1.55    0.28 
  11   5 -16    0.30    0.14 
  11   5 -16    0.39    0.17 
   9   5 -16    1.11    0.20 
   9   5 -16    1.38    0.26 
   7   5 -16    0.14    0.14 
   5   5 -16    0.00    0.13 
   3   5 -16    0.04    0.13 
   1   5 -16    0.21    0.17 
  -1   5 -16    0.41    0.22 
  -3   5 -16    0.10    0.17 
  -5   5 -16    0.32    0.22 
  -7   5 -16    0.03    0.20 
  -9   5 -16   -0.19    0.24 
  28   4 -16    4.71    0.54 
  26   4 -16    0.96    0.28 
  24   4 -16    8.66    0.63 
  22   4 -16    4.71    0.46 
  20   4 -16    0.44    0.19 
  20   4 -16    0.53    0.14 
  18   4 -16    0.44    0.18 
  18   4 -16    1.24    0.19 
  16   4 -16    2.12    0.24 
  16   4 -16    2.25    0.30 
  14   4 -16    1.47    0.21 
  14   4 -16    1.72    0.26 
  12   4 -16    0.73    0.20 
  12   4 -16    0.95    0.18 
  10   4 -16    2.15    0.29 
   8   4 -16    2.46    0.32 
   6   4 -16    6.73    0.48 
   4   4 -16   19.14    0.97 
   2   4 -16    4.53    0.40 
   0   4 -16    0.00    0.12 
  -2   4 -16    1.96    0.32 
  -4   4 -16    0.05    0.15 
  -6   4 -16    0.55    0.24 
  -8   4 -16    0.16    0.20 
 -10   4 -16    0.13    0.21 
 -12   4 -16   -0.12    0.22 
 -14   4 -16    1.69    0.41 
  29   3 -16    2.05    0.38 
  27   3 -16    1.78    0.35 
  25   3 -16    0.35    0.19 
  23   3 -16    0.76    0.21 
  21   3 -16    2.93    0.36 
  19   3 -16   17.26    0.84 
  19   3 -16   13.86    0.64 
  17   3 -16    0.15    0.13 
  17   3 -16    0.04    0.08 
  15   3 -16    2.25    0.21 
  15   3 -16    2.11    0.28 
  13   3 -16    1.62    0.25 
  13   3 -16    2.48    0.22 
  11   3 -16   21.36    1.01 
   9   3 -16   22.47    1.05 
   7   3 -16   10.57    0.62 
   5   3 -16   21.17    1.00 
   3   3 -16   -0.12    0.11 
   1   3 -16   20.75    1.02 
  -1   3 -16   40.37    1.75 
  -3   3 -16    3.74    0.40 
  -5   3 -16   13.13    0.78 
  -7   3 -16    0.17    0.16 
  -9   3 -16    0.63    0.23 
 -11   3 -16    0.03    0.14 
 -13   3 -16    0.29    0.16 
 -15   3 -16    0.22    0.15 
  32   2 -16    2.27    0.44 
  30   2 -16    2.39    0.41 
  28   2 -16    4.72    0.50 
  26   2 -16    1.39    0.28 
  24   2 -16    4.32    0.43 
  22   2 -16    0.10    0.12 
  20   2 -16    1.16    0.23 
  18   2 -16    7.97    0.51 
  18   2 -16    8.05    0.37 
  16   2 -16   19.27    0.92 
  16   2 -16   19.40    0.76 
  14   2 -16    0.08    0.10 
  14   2 -16    0.03    0.05 
  12   2 -16   16.11    0.79 
  10   2 -16    2.36    0.26 
   8   2 -16   16.17    0.79 
   6   2 -16   33.57    1.42 
   4   2 -16   30.82    1.34 
   2   2 -16   24.78    1.13 
   0   2 -16    4.44    0.36 
  -2   2 -16   15.47    0.80 
  -4   2 -16    4.19    0.37 
  -6   2 -16    0.68    0.22 
   6  -2  16    0.90    0.20 
  -8   2 -16    1.92    0.32 
   8  -2  16    1.54    0.26 
 -10   2 -16    2.30    0.34 
  10  -2  16    2.51    0.32 
 -12   2 -16    0.17    0.16 
  12  -2  16    0.26    0.15 
 -14   2 -16    2.49    0.38 
  14  -2  16    2.58    0.35 
 -16   2 -16    0.91    0.22 
  16  -2  16    0.68    0.19 
 -18   2 -16    0.89    0.21 
  18  -2  16    1.25    0.23 
  33   1 -16    2.89    0.49 
  31   1 -16    0.06    0.22 
  29   1 -16    2.79    0.41 
  27   1 -16    0.38    0.20 
  25   1 -16    1.62    0.30 
  23   1 -16    0.88    0.21 
  21   1 -16    3.82    0.38 
  19   1 -16    8.53    0.53 
  17   1 -16    8.28    0.50 
  15   1 -16    0.06    0.06 
  15   1 -16    0.00    0.09 
  13   1 -16    4.60    0.33 
  11   1 -16   16.43    0.77 
   9   1 -16    1.13    0.17 
   7   1 -16    1.55    0.21 
   5   1 -16    0.04    0.07 
   3   1 -16    9.19    0.51 
  -3  -1  16    9.50    0.46 
   1   1 -16    1.16    0.19 
  -1  -1  16    1.78    0.19 
  -1   1 -16    0.34    0.13 
   1  -1  16    0.19    0.09 
  -3   1 -16    0.08    0.11 
   3  -1  16    0.09    0.09 
  -5   1 -16    3.27    0.33 
   5  -1  16    3.15    0.29 
  -7   1 -16    6.75    0.49 
   7  -1  16    7.25    0.45 
  -9   1 -16    6.97    0.51 
   9  -1  16    7.87    0.48 
 -11   1 -16   -0.18    0.10 
  11  -1  16   -0.14    0.09 
 -13   1 -16    0.69    0.21 
  13  -1  16    0.80    0.19 
 -15   1 -16    0.22    0.17 
  15  -1  16    0.14    0.12 
 -17   1 -16    0.27    0.16 
  17  -1  16    0.15    0.12 
 -19   1 -16    2.07    0.33 
  19  -1  16    2.10    0.30 
  32   0 -16    1.73    0.38 
  30   0 -16    1.93    0.37 
  28   0 -16    8.27    0.62 
  26   0 -16    0.97    0.26 
  24   0 -16    4.35    0.43 
  22   0 -16   30.79    1.40 
 -22   0  16   30.64    1.20 
  20   0 -16    5.34    0.42 
 -20   0  16    6.34    0.37 
  18   0 -16    1.79    0.25 
 -18   0  16    2.00    0.22 
  16   0 -16    7.94    0.49 
 -16   0  16    9.22    0.45 
  14   0 -16    3.11    0.26 
 -14   0  16    3.32    0.24 
  12   0 -16   92.31    3.45 
 -12   0  16   90.24    3.08 
  10   0 -16   14.86    0.70 
 -10   0  16   15.82    0.64 
   8   0 -16   23.09    0.98 
  -8   0  16   23.03    0.87 
  -8   0  16   22.73    0.86 
   6   0 -16    9.69    0.48 
  -6   0  16    8.44    0.40 
  -6   0  16    8.74    0.40 
   4   0 -16   18.28    0.81 
  -4   0  16   17.29    0.72 
  -4   0  16   18.44    0.69 
   2   0 -16  149.68    5.43 
  -2   0  16  145.36    4.80 
  -2   0  16  145.75    5.04 
   0   0 -16    5.81    0.37 
   0   0  16    6.69    0.29 
   0   0  16    5.68    0.33 
  -2   0 -16    5.47    0.36 
   2   0  16    5.05    0.32 
   2   0  16    5.67    0.26 
  -4   0 -16   10.35    0.56 
   4   0  16    9.87    0.50 
  -6   0 -16    1.41    0.23 
   6   0  16    1.39    0.19 
  -8   0 -16    2.99    0.32 
   8   0  16    3.47    0.30 
 -10   0 -16    0.61    0.19 
  10   0  16    0.90    0.18 
 -12   0 -16    0.97    0.23 
  12   0  16    1.34    0.23 
 -14   0 -16    0.20    0.16 
  14   0  16   -0.05    0.10 
 -16   0 -16    1.90    0.32 
  16   0  16    2.21    0.29 
 -18   0 -16    3.07    0.40 
  18   0  16    3.49    0.36 
  33  -1 -16    3.25    0.46 
  31  -1 -16    0.06    0.15 
  29  -1 -16    3.05    0.43 
 -29   1  16    3.40    0.32 
  27  -1 -16    0.50    0.21 
 -27   1  16    0.65    0.15 
  25  -1 -16    1.99    0.33 
 -25   1  16    1.84    0.23 
  23  -1 -16    1.00    0.24 
 -23   1  16    0.94    0.18 
  21  -1 -16    3.90    0.38 
 -21   1  16    3.65    0.28 
  19  -1 -16    8.08    0.51 
 -19   1  16    8.37    0.44 
  17  -1 -16    8.77    0.51 
 -17   1  16    8.31    0.43 
  15  -1 -16   -0.05    0.09 
 -15   1  16    0.06    0.08 
  13  -1 -16    4.69    0.31 
 -13   1  16    4.31    0.27 
 -13   1  16    4.36    0.18 
  11  -1 -16   16.03    0.71 
 -11   1  16   14.85    0.63 
 -11   1  16   15.86    0.58 
   9  -1 -16    1.42    0.16 
  -9   1  16    1.09    0.14 
  -9   1  16    1.29    0.11 
   7  -1 -16    1.59    0.16 
  -7   1  16    1.39    0.13 
  -7   1  16    1.69    0.16 
   5  -1 -16    0.04    0.05 
  -5   1  16    0.01    0.05 
  -5   1  16    0.00    0.06 
  -3   1  16    9.20    0.40 
  -3   1  16    8.96    0.42 
  -1   1  16    1.66    0.14 
  -1   1  16    1.35    0.16 
  -1  -1 -16    0.03    0.05 
   1   1  16    0.35    0.10 
   1   1  16    0.22    0.06 
  -3  -1 -16    0.11    0.07 
   3   1  16    0.02    0.08 
   3   1  16    0.07    0.07 
  -5  -1 -16    2.82    0.26 
   5   1  16    2.37    0.24 
  -7  -1 -16    7.55    0.44 
   7   1  16    6.37    0.40 
  -9  -1 -16    7.57    0.47 
   9   1  16    6.90    0.43 
 -11  -1 -16   -0.04    0.12 
  11   1  16    0.08    0.11 
  13   1  16    0.48    0.15 
  15   1  16    0.08    0.11 
  17   1  16    0.41    0.12 
  19   1  16    1.85    0.25 
  32  -2 -16    2.47    0.39 
  30  -2 -16    2.55    0.40 
  28  -2 -16    4.98    0.53 
 -28   2  16    3.92    0.34 
  26  -2 -16    1.49    0.30 
 -26   2  16    1.47    0.22 
  24  -2 -16    5.02    0.47 
 -24   2  16    4.25    0.32 
  22  -2 -16    0.16    0.13 
 -22   2  16   -0.04    0.09 
  20  -2 -16    1.09    0.22 
 -20   2  16    0.86    0.16 
  18  -2 -16    7.95    0.49 
 -18   2  16    7.58    0.42 
  16  -2 -16   19.50    0.91 
 -16   2  16   19.41    0.80 
  14  -2 -16    0.37    0.12 
 -14   2  16    0.28    0.11 
  12  -2 -16   16.25    0.74 
 -12   2  16   16.55    0.61 
 -12   2  16   16.28    0.67 
  10  -2 -16    2.21    0.19 
 -10   2  16    2.35    0.18 
   8  -2 -16   17.57    0.76 
  -8   2  16   18.19    0.71 
  -8   2  16   18.06    0.70 
   6  -2 -16   35.19    1.37 
  -6   2  16   36.21    1.27 
  -6   2  16   35.06    1.30 
   4  -2 -16   38.45    1.47 
  -4   2  16   38.86    1.36 
  -4   2  16   38.79    1.42 
   2  -2 -16   26.92    1.05 
  -2   2  16   26.96    0.98 
  -2   2  16   26.17    1.03 
   0  -2 -16    4.53    0.25 
   0   2  16    3.91    0.28 
   0   2  16    4.42    0.25 
   2   2  16   16.61    0.72 
   2   2  16   16.56    0.64 
   4   2  16    3.98    0.30 
   4   2  16    4.38    0.24 
   6   2  16    0.78    0.17 
   8   2  16    1.57    0.22 
  10   2  16    2.10    0.26 
  12   2  16    0.37    0.14 
  14   2  16    2.15    0.28 
  16   2  16    0.61    0.16 
  18   2  16    0.76    0.15 
  29  -3 -16    2.18    0.38 
  27  -3 -16    1.57    0.32 
 -27   3  16    1.75    0.25 
  25  -3 -16    0.67    0.22 
 -25   3  16    0.38    0.15 
  23  -3 -16    0.59    0.21 
 -23   3  16    0.70    0.17 
  21  -3 -16    3.07    0.36 
 -21   3  16    2.68    0.27 
  19  -3 -16   18.71    0.91 
 -19   3  16   16.97    0.76 
  17  -3 -16    0.17    0.13 
 -17   3  16    0.09    0.10 
  15  -3 -16    2.56    0.26 
 -15   3  16    2.53    0.24 
  13  -3 -16    2.36    0.23 
 -13   3  16    2.08    0.21 
  11  -3 -16   20.94    0.89 
 -11   3  16   20.70    0.83 
 -11   3  16   20.69    0.79 
  -9   3  16   21.84    0.84 
  -9   3  16   22.33    0.87 
  -7   3  16   10.17    0.46 
  -7   3  16    9.54    0.44 
  -5   3  16   20.30    0.81 
  -5   3  16   19.99    0.79 
  -3   3  16    0.03    0.09 
  -3   3  16   -0.09    0.07 
  -1   3  16   24.29    0.96 
  -1   3  16   23.32    0.90 
   1   3  16   41.03    1.43 
   1   3  16   39.22    1.52 
   3   3  16    3.32    0.27 
   3   3  16    3.84    0.24 
   5   3  16   13.92    0.57 
   5   3  16   13.11    0.66 
   7   3  16    0.30    0.15 
   9   3  16    0.71    0.19 
  11   3  16    0.06    0.13 
  13   3  16    0.26    0.12 
  15   3  16    0.22    0.11 
  28  -4 -16    4.30    0.51 
  26  -4 -16    1.20    0.28 
 -26   4  16    1.21    0.23 
  24  -4 -16    8.62    0.62 
 -24   4  16    7.58    0.48 
  22  -4 -16    4.75    0.47 
 -22   4  16    4.27    0.35 
 -20   4  16    0.40    0.15 
 -18   4  16    0.96    0.18 
 -16   4  16    2.12    0.24 
 -14   4  16    1.61    0.21 
 -12   4  16    0.46    0.13 
 -10   4  16    2.36    0.23 
 -10   4  16    2.36    0.18 
  -8   4  16    2.39    0.22 
  -8   4  16    2.29    0.20 
  -6   4  16    7.09    0.37 
  -6   4  16    6.75    0.37 
  -4   4  16   19.44    0.81 
  -4   4  16   19.31    0.80 
  -2   4  16    4.26    0.29 
  -2   4  16    4.65    0.29 
   0   4  16    0.14    0.10 
   0   4  16   -0.05    0.07 
   2   4  16    1.61    0.19 
   2   4  16    1.76    0.23 
   4   4  16    0.16    0.09 
   4   4  16    0.09    0.12 
   6   4  16    0.68    0.18 
   6   4  16    0.81    0.15 
   8   4  16    0.00    0.13 
  10   4  16    0.12    0.15 
  12   4  16    0.19    0.16 
  14   4  16    1.91    0.26 
 -23   5  16    0.43    0.18 
 -21   5  16    0.22    0.15 
 -19   5  16    0.13    0.12 
 -17   5  16    0.72    0.17 
 -15   5  16    1.27    0.21 
 -13   5  16    1.39    0.21 
 -11   5  16    0.18    0.12 
  -9   5  16    0.69    0.15 
  -9   5  16    0.99    0.16 
  -7   5  16   -0.04    0.08 
  -7   5  16    0.03    0.09 
  -5   5  16    0.09    0.08 
  -5   5  16   -0.09    0.07 
  -3   5  16    0.13    0.11 
  -3   5  16    0.08    0.08 
  -1   5  16    0.05    0.11 
  -1   5  16    0.20    0.11 
   1   5  16    0.44    0.14 
   3   5  16    0.24    0.15 
   5   5  16    0.38    0.18 
   7   5  16    0.34    0.17 
   9   5  16    0.20    0.18 
  11   5  16    0.03    0.18 
 -18   6  16    1.50    0.26 
 -16   6  16    0.82    0.21 
 -14   6  16    0.18    0.14 
 -12   6  16    1.22    0.22 
 -10   6  16    1.29    0.22 
  -8   6  16    6.44    0.41 
  -6   6  16    6.02    0.39 
  -6   6  16    6.90    0.42 
  -4   6  16    3.19    0.30 
  -4   6  16    2.63    0.28 
  -2   6  16    0.61    0.14 
  -2   6  16    0.72    0.18 
   0   6  16    0.26    0.16 
   2   6  16    1.11    0.23 
   4   6  16   -0.11    0.15 
  18   6 -17    3.01    0.32 
  16   6 -17    1.54    0.24 
  14   6 -17    0.20    0.12 
  14   6 -17    0.05    0.19 
  12   6 -17    1.05    0.22 
  12   6 -17    0.90    0.26 
  10   6 -17    0.62    0.24 
  10   6 -17    0.68    0.18 
   8   6 -17    0.18    0.20 
   8   6 -17    0.26    0.14 
   6   6 -17    0.18    0.22 
   4   6 -17    0.55    0.26 
   2   6 -17    0.30    0.21 
   0   6 -17   -0.14    0.18 
  -2   6 -17    1.22    0.35 
  -4   6 -17    0.09    0.27 
  23   5 -17    0.51    0.26 
  21   5 -17    2.55    0.37 
  19   5 -17    6.78    0.43 
  19   5 -17    6.57    0.52 
  17   5 -17    5.82    0.40 
  17   5 -17    5.17    0.45 
  15   5 -17    2.83    0.35 
  15   5 -17    2.66    0.30 
  13   5 -17    0.33    0.14 
  13   5 -17    0.30    0.15 
  11   5 -17    0.04    0.12 
  11   5 -17    0.17    0.15 
   9   5 -17   -0.11    0.13 
   7   5 -17    0.73    0.20 
   5   5 -17    0.77    0.22 
   3   5 -17    1.72    0.30 
   1   5 -17    0.54    0.22 
  -1   5 -17    0.41    0.21 
  -3   5 -17    0.90    0.28 
  -5   5 -17    1.59    0.37 
  -7   5 -17    0.02    0.24 
  -9   5 -17    0.10    0.25 
  28   4 -17   -0.01    0.23 
  26   4 -17    1.63    0.34 
  24   4 -17    1.78    0.34 
  22   4 -17    1.08    0.26 
  20   4 -17    0.20    0.16 
  18   4 -17    3.33    0.27 
  18   4 -17    2.91    0.35 
  16   4 -17    0.94    0.19 
  16   4 -17    1.08    0.24 
  14   4 -17   -0.08    0.11 
  14   4 -17    0.22    0.14 
  12   4 -17    7.10    0.42 
  12   4 -17    6.34    0.47 
  10   4 -17    6.23    0.46 
   8   4 -17    0.23    0.15 
   6   4 -17   -0.09    0.10 
   4   4 -17    0.91    0.21 
   2   4 -17   -0.02    0.12 
   0   4 -17    0.17    0.16 
  -2   4 -17    4.09    0.45 
  -4   4 -17    1.73    0.33 
  -6   4 -17    4.32    0.49 
  -8   4 -17    0.29    0.23 
 -10   4 -17    0.07    0.23 
 -12   4 -17    0.14    0.25 
  29   3 -17    0.49    0.26 
  27   3 -17    0.95    0.28 
  25   3 -17    0.78    0.25 
  23   3 -17    1.56    0.29 
  21   3 -17    0.61    0.19 
  19   3 -17   11.80    0.69 
  17   3 -17    9.04    0.45 
  17   3 -17    9.23    0.57 
  15   3 -17    3.53    0.27 
  15   3 -17    4.69    0.36 
  13   3 -17    6.52    0.45 
  11   3 -17   25.03    1.15 
   9   3 -17    0.27    0.15 
   7   3 -17   14.65    0.78 
   5   3 -17    2.08    0.28 
   3   3 -17   24.25    1.15 
   1   3 -17   10.24    0.64 
  -1   3 -17    6.00    0.48 
  -3   3 -17    1.77    0.30 
  -5   3 -17   12.18    0.75 
  -7   3 -17    0.33    0.20 
  -9   3 -17    0.58    0.22 
 -11   3 -17    0.55    0.22 
 -13   3 -17    0.57    0.21 
 -15   3 -17    0.19    0.15 
  32   2 -17    2.18    0.42 
  30   2 -17    1.54    0.34 
  28   2 -17    0.13    0.17 
  26   2 -17    0.88    0.24 
  24   2 -17   -0.03    0.13 
  22   2 -17    1.31    0.24 
  20   2 -17    1.14    0.24 
  18   2 -17    5.92    0.43 
  16   2 -17   -0.01    0.10 
  16   2 -17    0.09    0.07 
  14   2 -17    0.29    0.13 
  12   2 -17    5.19    0.37 
  10   2 -17    0.95    0.19 
   8   2 -17   14.95    0.77 
   6   2 -17   12.27    0.65 
   4   2 -17    0.29    0.13 
   2   2 -17   -0.01    0.11 
   0   2 -17    1.93    0.27 
  -2   2 -17    0.42    0.17 
  -4   2 -17    1.36    0.26 
  -6   2 -17    9.46    0.62 
   6  -2  17    9.96    0.59 
  -8   2 -17    0.20    0.15 
   8  -2  17    0.29    0.16 
 -10   2 -17    0.58    0.21 
  10  -2  17    0.34    0.17 
 -12   2 -17    0.09    0.14 
  12  -2  17    0.04    0.11 
 -14   2 -17    0.17    0.15 
  14  -2  17    0.57    0.18 
 -16   2 -17    0.34    0.15 
  16  -2  17    0.34    0.15 
  33   1 -17   -0.03    0.25 
  31   1 -17    0.66    0.27 
  29   1 -17    0.01    0.17 
  27   1 -17    0.31    0.19 
  25   1 -17   -0.16    0.13 
  23   1 -17    0.87    0.21 
  21   1 -17    0.29    0.14 
  19   1 -17   53.97    2.21 
  17   1 -17   33.72    1.45 
  15   1 -17   23.21    1.04 
  13   1 -17   18.75    0.87 
  11   1 -17   26.34    1.14 
   9   1 -17   26.55    1.15 
   7   1 -17   25.43    1.12 
   5   1 -17   15.35    0.74 
   3   1 -17    4.71    0.35 
  -3  -1  17    5.22    0.32 
   1   1 -17   16.36    0.81 
  -1  -1  17   17.50    0.75 
  -1   1 -17   24.15    1.08 
   1  -1  17   23.55    1.00 
  -3   1 -17    2.88    0.31 
   3  -1  17    3.13    0.28 
  -5   1 -17   17.66    0.90 
   5  -1  17   18.35    0.83 
  -7   1 -17   12.97    0.71 
   7  -1  17   11.48    0.63 
  -9   1 -17    1.43    0.27 
   9  -1  17    1.07    0.20 
 -11   1 -17    1.68    0.29 
  11  -1  17    1.76    0.27 
 -13   1 -17    0.32    0.17 
  13  -1  17    0.64    0.19 
 -15   1 -17    3.56    0.43 
  15  -1  17    2.96    0.35 
 -17   1 -17    0.49    0.18 
  17  -1  17    0.71    0.18 
  32   0 -17    0.20    0.23 
  30   0 -17    0.05    0.15 
  28   0 -17    0.05    0.15 
  26   0 -17    0.06    0.14 
  24   0 -17    0.09    0.13 
  22   0 -17    0.08    0.13 
 -22   0  17    0.11    0.10 
  20   0 -17    0.01    0.11 
 -20   0  17   -0.01    0.09 
  18   0 -17    0.15    0.12 
 -18   0  17   -0.02    0.08 
  16   0 -17    0.17    0.12 
 -16   0  17    0.02    0.07 
  14   0 -17    0.04    0.09 
 -14   0  17   -0.02    0.07 
  12   0 -17    0.12    0.09 
 -12   0  17    0.07    0.07 
  10   0 -17   -0.06    0.06 
 -10   0  17    0.01    0.07 
   8   0 -17    0.01    0.07 
  -8   0  17    0.00    0.05 
  -8   0  17    0.09    0.05 
   6   0 -17   -0.10    0.06 
  -6   0  17    0.04    0.05 
  -6   0  17   -0.01    0.05 
   4   0 -17   -0.08    0.07 
  -4   0  17    0.04    0.05 
  -4   0  17    0.06    0.06 
  -2   0  17    0.23    0.07 
   0   0 -17   -0.05    0.07 
   0   0  17    0.04    0.05 
   0   0  17    0.02    0.05 
  -2   0 -17    0.14    0.10 
   2   0  17    0.02    0.07 
   2   0  17    0.07    0.05 
  -4   0 -17    0.02    0.11 
   4   0  17    0.03    0.09 
  -6   0 -17    0.14    0.12 
   6   0  17    0.12    0.10 
  -8   0 -17   -0.08    0.11 
   8   0  17    0.01    0.08 
 -10   0 -17   -0.10    0.12 
  10   0  17   -0.03    0.10 
 -12   0 -17    0.15    0.13 
  12   0  17    0.13    0.11 
 -14   0 -17   -0.04    0.13 
  14   0  17    0.10    0.11 
 -16   0 -17    0.06    0.16 
  16   0  17    0.14    0.10 
 -18   0 -17    0.18    0.15 
  18   0  17    0.20    0.10 
  33  -1 -17    0.11    0.13 
  31  -1 -17    0.84    0.24 
  29  -1 -17    0.10    0.16 
 -29   1  17    0.17    0.12 
  27  -1 -17    0.38    0.19 
 -27   1  17    0.47    0.15 
  25  -1 -17    0.01    0.14 
 -25   1  17    0.11    0.10 
  23  -1 -17    0.73    0.20 
 -23   1  17    0.84    0.17 
  21  -1 -17    0.27    0.14 
 -21   1  17    0.55    0.15 
  19  -1 -17   54.09    2.23 
 -19   1  17   56.23    1.97 
  17  -1 -17   35.45    1.48 
 -17   1  17   34.53    1.31 
  15  -1 -17   24.83    1.08 
 -15   1  17   24.55    0.96 
  13  -1 -17   22.95    0.95 
 -13   1  17   21.99    0.77 
 -13   1  17   19.28    0.83 
  11  -1 -17   25.18    1.07 
 -11   1  17   25.98    0.93 
 -11   1  17   25.66    0.97 
   9  -1 -17   25.16    1.03 
  -9   1  17   24.08    0.90 
  -9   1  17   24.54    0.93 
   7  -1 -17   23.47    0.96 
  -7   1  17   22.69    0.86 
  -7   1  17   22.44    0.86 
   5  -1 -17   15.46    0.72 
  -5   1  17   17.48    0.66 
  -5   1  17   16.86    0.67 
  -3   1  17    4.65    0.26 
  -3   1  17    4.82    0.27 
  -1   1  17   17.15    0.64 
  -1   1  17   15.87    0.69 
   1   1  17   20.54    0.81 
   1   1  17   24.28    0.91 
   3   1  17    3.16    0.20 
   3   1  17    3.64    0.26 
  -5  -1 -17   17.56    0.84 
   5   1  17   18.97    0.81 
  -7  -1 -17   12.66    0.67 
   7   1  17   12.80    0.63 
  -9  -1 -17    1.68    0.25 
   9   1  17    1.29    0.21 
 -11  -1 -17    2.24    0.29 
  11   1  17    1.81    0.25 
  13   1  17    0.34    0.13 
  15   1  17    3.59    0.35 
  17   1  17    0.74    0.17 
  32  -2 -17    2.19    0.38 
  30  -2 -17    1.46    0.33 
  28  -2 -17    0.33    0.18 
 -28   2  17    0.40    0.15 
  26  -2 -17    0.55    0.21 
 -26   2  17    0.89    0.18 
  24  -2 -17   -0.03    0.13 
 -24   2  17   -0.07    0.09 
  22  -2 -17    1.19    0.24 
 -22   2  17    1.20    0.19 
  20  -2 -17    0.63    0.19 
 -20   2  17    0.73    0.16 
  18  -2 -17    6.28    0.43 
 -18   2  17    6.30    0.38 
  16  -2 -17    0.08    0.10 
 -16   2  17   -0.04    0.09 
  14  -2 -17    0.38    0.12 
 -14   2  17    0.35    0.12 
  12  -2 -17    5.92    0.35 
 -12   2  17    5.47    0.32 
 -12   2  17    5.72    0.26 
  10  -2 -17    1.43    0.16 
 -10   2  17    1.40    0.16 
 -10   2  17    1.38    0.12 
   8  -2 -17   14.59    0.62 
  -8   2  17   11.97    0.56 
  -8   2  17   14.71    0.57 
   6  -2 -17   11.70    0.52 
  -6   2  17   11.87    0.51 
  -6   2  17   11.91    0.51 
   4  -2 -17    0.47    0.09 
  -4   2  17    0.65    0.12 
  -4   2  17    0.35    0.10 
   2  -2 -17   -0.02    0.05 
  -2   2  17    0.06    0.07 
  -2   2  17    0.10    0.09 
   0   2  17    2.04    0.21 
   0   2  17    2.23    0.17 
   2   2  17    0.35    0.12 
   2   2  17    0.40    0.09 
   4   2  17    1.33    0.20 
   4   2  17    1.47    0.14 
   6   2  17    9.93    0.53 
   8   2  17    0.12    0.12 
  10   2  17    0.36    0.15 
  12   2  17    0.06    0.11 
  14   2  17    0.46    0.13 
  16   2  17    0.36    0.12 
  29  -3 -17    0.49    0.19 
  27  -3 -17    0.83    0.26 
 -27   3  17    1.08    0.22 
  25  -3 -17    0.67    0.22 
 -25   3  17    0.77    0.18 
  23  -3 -17    2.10    0.33 
 -23   3  17    1.80    0.24 
  21  -3 -17    0.82    0.21 
 -21   3  17    0.74    0.17 
  19  -3 -17   11.41    0.66 
 -19   3  17   11.51    0.56 
  17  -3 -17    8.84    0.54 
 -17   3  17   10.07    0.49 
  15  -3 -17    2.38    0.25 
  13  -3 -17    6.97    0.42 
 -13   3  17    8.15    0.41 
 -11   3  17   25.91    0.99 
 -11   3  17   25.36    0.96 
  -9   3  17    0.09    0.08 
  -9   3  17    0.16    0.10 
  -7   3  17   14.54    0.61 
  -7   3  17   14.10    0.61 
  -5   3  17    2.10    0.19 
  -5   3  17    2.38    0.21 
  -3   3  17   26.12    0.98 
  -3   3  17   25.92    1.03 
  -1   3  17    9.27    0.49 
  -1   3  17   10.66    0.47 
   1   3  17    5.19    0.30 
   1   3  17    5.37    0.35 
   3   3  17    1.62    0.17 
   3   3  17    1.65    0.22 
   5   3  17   12.57    0.53 
   5   3  17   11.94    0.62 
   7   3  17    0.83    0.19 
   9   3  17    0.56    0.17 
  11   3  17    0.40    0.16 
  13   3  17    0.66    0.15 
  15   3  17    0.05    0.07 
  28  -4 -17    0.28    0.17 
  26  -4 -17    2.38    0.39 
 -26   4  17    1.98    0.28 
  24  -4 -17    2.77    0.39 
 -24   4  17    1.93    0.27 
 -22   4  17    1.25    0.22 
 -20   4  17   -0.01    0.10 
 -18   4  17    2.78    0.28 
 -16   4  17    1.01    0.18 
 -14   4  17    0.07    0.10 
 -12   4  17    6.67    0.38 
 -10   4  17    6.04    0.32 
 -10   4  17    5.41    0.34 
  -8   4  17    0.19    0.09 
  -8   4  17    0.20    0.10 
  -6   4  17    0.00    0.08 
  -6   4  17    0.08    0.08 
  -4   4  17    0.59    0.13 
  -4   4  17    0.81    0.15 
  -2   4  17    0.17    0.09 
  -2   4  17    0.35    0.13 
   0   4  17    0.27    0.11 
   0   4  17    0.21    0.12 
   2   4  17    3.35    0.25 
   2   4  17    3.64    0.31 
   4   4  17    1.91    0.25 
   4   4  17    1.73    0.19 
   6   4  17    4.30    0.36 
   8   4  17    0.21    0.17 
  10   4  17    0.10    0.16 
  12   4  17    0.26    0.19 
 -23   5  17    0.79    0.21 
 -21   5  17    2.95    0.32 
 -19   5  17    6.52    0.42 
 -17   5  17    4.99    0.36 
 -15   5  17    2.81    0.28 
 -13   5  17    0.09    0.12 
 -11   5  17   -0.05    0.10 
  -9   5  17   -0.01    0.08 
  -9   5  17   -0.08    0.08 
  -7   5  17    0.40    0.12 
  -7   5  17    0.56    0.14 
  -5   5  17    0.74    0.16 
  -5   5  17    0.50    0.13 
  -3   5  17    2.47    0.25 
  -3   5  17    1.97    0.23 
  -1   5  17    1.01    0.19 
   1   5  17    0.27    0.14 
   1   5  17    0.29    0.11 
   3   5  17    0.79    0.15 
   3   5  17    0.72    0.19 
   5   5  17    1.01    0.17 
   5   5  17    1.54    0.25 
   7   5  17    0.18    0.16 
   9   5  17    0.21    0.20 
 -18   6  17    2.82    0.33 
 -16   6  17    1.35    0.25 
 -14   6  17    0.41    0.17 
 -12   6  17    0.51    0.18 
 -10   6  17    0.55    0.15 
  -8   6  17    0.17    0.10 
  -6   6  17    0.20    0.14 
  -6   6  17    0.18    0.10 
  -4   6  17    0.76    0.16 
  -4   6  17    0.48    0.16 
  -2   6  17    0.37    0.16 
  -2   6  17    0.20    0.10 
   0   6  17   -0.01    0.08 
   0   6  17   -0.01    0.13 
   2   6  17    0.96    0.17 
   2   6  17    0.76    0.22 
   4   6  17    0.51    0.21 
   4   6  17    0.71    0.14 
  18   6 -18    0.12    0.12 
  16   6 -18    2.79    0.31 
  16   6 -18    2.94    0.42 
  14   6 -18   -0.13    0.18 
  14   6 -18    0.19    0.12 
  12   6 -18    0.59    0.16 
  12   6 -18   -0.04    0.18 
  10   6 -18    1.97    0.28 
  10   6 -18    1.35    0.31 
   8   6 -18    0.19    0.11 
   8   6 -18   -0.13    0.17 
   6   6 -18    7.35    0.61 
   4   6 -18    1.44    0.35 
   2   6 -18    0.12    0.20 
   0   6 -18    0.00    0.23 
  -2   6 -18    0.04    0.25 
  23   5 -18    0.22    0.22 
  21   5 -18    1.88    0.34 
  19   5 -18    0.95    0.26 
  19   5 -18    0.92    0.19 
  17   5 -18    0.13    0.18 
  17   5 -18    0.14    0.13 
  15   5 -18    2.67    0.36 
  15   5 -18    2.65    0.29 
  13   5 -18    0.83    0.19 
  13   5 -18    1.02    0.24 
  11   5 -18   -0.13    0.10 
  11   5 -18    0.08    0.14 
   9   5 -18    0.12    0.15 
   7   5 -18    0.19    0.16 
   5   5 -18    2.05    0.33 
   3   5 -18    3.95    0.43 
   1   5 -18    0.40    0.21 
  -1   5 -18    0.60    0.24 
  -3   5 -18    1.83    0.38 
  -5   5 -18   -0.16    0.21 
  -7   5 -18    0.68    0.31 
  26   4 -18    1.47    0.34 
  24   4 -18    1.24    0.30 
  22   4 -18   -0.14    0.14 
  20   4 -18    0.62    0.20 
  18   4 -18    1.23    0.19 
  18   4 -18    1.00    0.24 
  16   4 -18   20.94    1.05 
  16   4 -18   21.36    0.92 
  14   4 -18   29.28    1.37 
  14   4 -18   30.72    1.23 
  12   4 -18    0.50    0.18 
  10   4 -18   10.39    0.64 
   8   4 -18    5.22    0.43 
   6   4 -18    4.86    0.42 
   4   4 -18    2.19    0.32 
   2   4 -18    5.26    0.45 
   0   4 -18    0.63    0.22 
  -2   4 -18    2.82    0.39 
  -4   4 -18    3.94    0.46 
  -6   4 -18    2.24    0.39 
  -8   4 -18   -0.07    0.20 
 -10   4 -18    0.05    0.22 
 -12   4 -18    0.61    0.19 
  29   3 -18    1.78    0.37 
  27   3 -18    0.20    0.20 
  25   3 -18    3.18    0.42 
  23   3 -18   -0.01    0.15 
  21   3 -18    5.58    0.45 
  19   3 -18    0.90    0.22 
  17   3 -18    0.24    0.14 
  17   3 -18    0.31    0.11 
  15   3 -18    4.29    0.36 
  15   3 -18    4.70    0.30 
  13   3 -18    1.03    0.22 
  11   3 -18   11.44    0.66 
   9   3 -18    9.27    0.58 
   7   3 -18    7.28    0.50 
   5   3 -18    1.03    0.23 
   3   3 -18    4.97    0.42 
   1   3 -18    0.19    0.15 
  -1   3 -18    7.54    0.55 
  -3   3 -18    8.53    0.59 
  -5   3 -18    0.05    0.16 
  -7   3 -18    0.79    0.23 
  -9   3 -18    0.23    0.18 
 -11   3 -18    0.20    0.16 
 -13   3 -18    0.14    0.15 
  32   2 -18    6.16    0.64 
  30   2 -18    0.73    0.29 
  28   2 -18    7.18    0.59 
  26   2 -18    1.42    0.30 
  24   2 -18    0.54    0.20 
  22   2 -18    0.12    0.14 
  20   2 -18   60.43    2.46 
  18   2 -18    4.44    0.37 
  16   2 -18    0.49    0.15 
  16   2 -18    0.35    0.09 
  14   2 -18   10.50    0.60 
  12   2 -18   25.66    1.16 
  10   2 -18    6.23    0.42 
   8   2 -18    9.74    0.58 
   6   2 -18    1.28    0.23 
   4   2 -18    2.16    0.28 
   2   2 -18    3.95    0.35 
   0   2 -18    0.75    0.20 
  -2   2 -18    1.50    0.26 
  -4   2 -18    0.28    0.17 
  -6   2 -18    2.04    0.32 
   6  -2  18    1.30    0.25 
  -8   2 -18    6.38    0.51 
   8  -2  18    5.51    0.44 
 -10   2 -18    7.55    0.57 
  10  -2  18    6.86    0.52 
 -12   2 -18    0.06    0.17 
  12  -2  18    0.09    0.13 
 -14   2 -18    0.53    0.18 
  14  -2  18    0.56    0.19 
 -16   2 -18   -0.07    0.10 
  16  -2  18    0.30    0.13 
  31   1 -18    0.25    0.23 
  29   1 -18    0.46    0.24 
  27   1 -18    0.40    0.21 
  25   1 -18    0.21    0.15 
  23   1 -18    5.78    0.46 
  21   1 -18    0.12    0.13 
  19   1 -18    0.45    0.17 
  17   1 -18    0.63    0.17 
  15   1 -18    3.31    0.29 
  13   1 -18   13.94    0.71 
  11   1 -18    5.83    0.39 
   9   1 -18    1.33    0.20 
   7   1 -18    2.23    0.25 
   5   1 -18    2.98    0.26 
  -5  -1  18    2.83    0.23 
   3   1 -18    8.19    0.50 
  -3  -1  18    8.94    0.46 
   1   1 -18    1.41    0.23 
  -1  -1  18    1.54    0.20 
  -1   1 -18    1.46    0.23 
   1  -1  18    1.87    0.22 
  -3   1 -18    0.07    0.12 
   3  -1  18    0.00    0.08 
  -5   1 -18    0.14    0.14 
   5  -1  18   -0.02    0.09 
  -7   1 -18    0.28    0.17 
   7  -1  18    0.01    0.11 
  -9   1 -18    1.66    0.29 
   9  -1  18    1.87    0.28 
 -11   1 -18    5.80    0.47 
  11  -1  18    4.81    0.41 
 -13   1 -18   -0.01    0.15 
  13  -1  18    0.19    0.13 
 -15   1 -18    0.03    0.14 
  15  -1  18    0.27    0.14 
 -17   1 -18    0.40    0.16 
  17  -1  18    0.31    0.12 
  32   0 -18    5.23    0.56 
  30   0 -18    1.46    0.31 
  28   0 -18    7.79    0.59 
  26   0 -18    9.34    0.65 
  24   0 -18    2.68    0.35 
 -24   0  18    1.91    0.25 
  22   0 -18   16.97    0.89 
 -22   0  18   17.34    0.77 
  20   0 -18   10.16    0.61 
 -20   0  18    9.99    0.52 
  18   0 -18   34.09    1.48 
 -18   0  18   35.35    1.33 
  16   0 -18   95.93    3.79 
 -16   0  18  103.99    3.40 
  14   0 -18   90.31    3.47 
 -14   0  18   92.36    3.11 
  12   0 -18   88.18    3.42 
 -12   0  18   92.46    3.07 
  10   0 -18   45.09    1.77 
 -10   0  18   42.82    1.58 
 -10   0  18   44.63    1.57 
   8   0 -18    2.94    0.24 
  -8   0  18    3.05    0.20 
  -8   0  18    2.79    0.21 
   6   0 -18    3.09    0.25 
  -6   0  18    2.70    0.20 
  -6   0  18    2.85    0.20 
   4   0 -18   22.04    0.98 
  -4   0  18   22.01    0.88 
  -4   0  18   22.39    0.84 
   2   0 -18    0.19    0.10 
  -2   0  18    0.41    0.09 
  -2   0  18    0.19    0.08 
   0   0 -18   14.47    0.73 
   0   0  18   15.14    0.59 
   0   0  18   15.51    0.68 
  -2   0 -18   20.28    0.95 
   2   0  18   20.10    0.76 
   2   0  18   22.25    0.89 
  -4   0 -18   25.31    1.15 
   4   0  18   25.42    1.05 
  -6   0 -18    0.36    0.16 
   6   0  18    0.24    0.12 
  -8   0 -18    2.28    0.30 
   8   0  18    1.74    0.24 
 -10   0 -18   34.42    1.49 
  10   0  18   30.63    1.34 
 -12   0 -18    1.15    0.24 
  12   0  18    0.96    0.20 
 -14   0 -18    0.29    0.17 
  14   0  18    0.43    0.13 
 -16   0 -18    0.34    0.17 
  16   0  18    0.28    0.12 
  31  -1 -18    0.27    0.16 
  29  -1 -18    0.11    0.16 
 -29   1  18    0.52    0.15 
  27  -1 -18    0.46    0.20 
 -27   1  18    0.59    0.16 
  25  -1 -18    0.36    0.17 
 -25   1  18    0.42    0.14 
  23  -1 -18    5.78    0.46 
 -23   1  18    5.65    0.37 
  21  -1 -18    0.19    0.14 
 -21   1  18    0.05    0.10 
  19  -1 -18    0.41    0.15 
 -19   1  18    0.44    0.13 
  17  -1 -18    0.58    0.16 
 -17   1  18    0.94    0.17 
  15  -1 -18    3.45    0.28 
 -15   1  18    3.30    0.26 
  13  -1 -18   13.37    0.64 
 -13   1  18   12.96    0.58 
  11  -1 -18    5.46    0.33 
 -11   1  18    5.75    0.26 
 -11   1  18    4.58    0.30 
   9  -1 -18    1.41    0.17 
  -9   1  18    1.37    0.12 
  -9   1  18    1.30    0.16 
   7  -1 -18    2.26    0.19 
  -7   1  18    1.91    0.18 
  -7   1  18    2.00    0.16 
   5  -1 -18    3.09    0.23 
  -5   1  18    2.81    0.20 
  -5   1  18    3.15    0.21 
  -3   1  18    8.57    0.41 
  -3   1  18    7.94    0.38 
  -1   1  18    1.65    0.16 
  -1   1  18    1.37    0.17 
  -1  -1 -18    0.84    0.15 
   1   1  18    1.73    0.15 
   1   1  18    1.64    0.19 
  -3  -1 -18    0.00    0.08 
   3   1  18   -0.14    0.07 
  -5  -1 -18    0.03    0.10 
   5   1  18    0.24    0.12 
  -7  -1 -18   -0.10    0.13 
   7   1  18    0.02    0.09 
  -9  -1 -18    1.76    0.27 
   9   1  18    1.92    0.25 
  11   1  18    6.18    0.42 
  13   1  18    0.30    0.13 
  15   1  18    0.14    0.10 
  17   1  18    0.28    0.11 
  32  -2 -18    7.89    0.65 
  30  -2 -18    1.26    0.28 
  28  -2 -18    7.18    0.56 
 -28   2  18    6.06    0.42 
  26  -2 -18    1.10    0.27 
 -26   2  18    1.13    0.21 
  24  -2 -18    0.37    0.17 
 -24   2  18    0.21    0.13 
  22  -2 -18    0.10    0.14 
 -22   2  18    0.01    0.10 
  20  -2 -18   58.21    2.42 
 -20   2  18   61.35    2.14 
  18  -2 -18    5.49    0.39 
 -18   2  18    4.70    0.33 
  16  -2 -18    0.43    0.14 
 -16   2  18    0.30    0.13 
  14  -2 -18   10.17    0.55 
 -14   2  18   11.27    0.52 
  12  -2 -18   24.69    1.07 
 -12   2  18   26.53    0.93 
 -12   2  18   24.50    0.98 
  10  -2 -18    6.66    0.37 
 -10   2  18    6.84    0.32 
 -10   2  18    6.62    0.36 
   8  -2 -18    9.39    0.45 
  -8   2  18    9.45    0.42 
  -8   2  18    9.15    0.43 
   6  -2 -18    1.30    0.14 
  -6   2  18    1.11    0.15 
  -6   2  18    1.21    0.15 
   4  -2 -18    2.22    0.17 
  -4   2  18    2.23    0.20 
  -4   2  18    1.96    0.18 
  -2   2  18    3.74    0.26 
  -2   2  18    3.56    0.23 
   0   2  18    0.88    0.13 
   0   2  18    0.76    0.15 
   2   2  18    1.66    0.21 
   2   2  18    1.60    0.15 
   4   2  18    0.19    0.12 
   6   2  18    1.86    0.24 
   8   2  18    5.49    0.38 
  10   2  18    6.38    0.44 
  12   2  18    0.16    0.11 
  14   2  18    0.46    0.15 
  29  -3 -18    2.11    0.37 
 -29   3  18    2.24    0.30 
  27  -3 -18    0.21    0.18 
 -27   3  18    0.49    0.18 
  25  -3 -18    3.19    0.42 
 -25   3  18    3.06    0.31 
  23  -3 -18    0.03    0.13 
 -23   3  18   -0.12    0.09 
  21  -3 -18    6.17    0.47 
 -21   3  18    5.83    0.39 
  19  -3 -18    0.80    0.20 
 -19   3  18    0.86    0.18 
  17  -3 -18    0.39    0.15 
 -17   3  18    0.27    0.12 
  13  -3 -18    1.08    0.17 
 -13   3  18    1.00    0.16 
 -11   3  18   11.07    0.53 
 -11   3  18   11.41    0.49 
  -9   3  18    9.85    0.45 
  -9   3  18   10.23    0.49 
  -7   3  18    6.64    0.36 
  -7   3  18    6.65    0.35 
  -5   3  18    1.45    0.18 
  -5   3  18    1.16    0.16 
  -3   3  18    4.86    0.32 
  -3   3  18    5.09    0.30 
  -1   3  18    0.37    0.13 
  -1   3  18    0.25    0.10 
   1   3  18    8.77    0.42 
   1   3  18    8.96    0.49 
   3   3  18    9.80    0.45 
   3   3  18    9.39    0.52 
   5   3  18    0.14    0.12 
   7   3  18    0.62    0.18 
   9   3  18    0.24    0.14 
  11   3  18   -0.09    0.13 
  13   3  18    0.51    0.14 
  28  -4 -18    3.98    0.48 
 -26   4  18    1.72    0.27 
 -24   4  18    1.03    0.22 
 -22   4  18   -0.02    0.11 
 -20   4  18    0.59    0.17 
 -18   4  18    1.28    0.21 
 -16   4  18   21.42    0.91 
 -14   4  18   32.03    1.24 
 -12   4  18    0.21    0.12 
 -10   4  18   10.78    0.54 
 -10   4  18   11.67    0.51 
  -8   4  18    5.44    0.34 
  -8   4  18    5.90    0.33 
  -6   4  18    4.69    0.31 
  -6   4  18    5.31    0.32 
  -4   4  18    2.56    0.24 
  -4   4  18    2.23    0.22 
  -2   4  18    5.64    0.34 
  -2   4  18    6.04    0.37 
   0   4  18    0.75    0.14 
   0   4  18    0.84    0.18 
   2   4  18    3.57    0.25 
   2   4  18    3.11    0.30 
   4   4  18    4.15    0.36 
   4   4  18    4.05    0.27 
   6   4  18    1.97    0.28 
   8   4  18    0.21    0.16 
  10   4  18    0.00    0.14 
  12   4  18    0.49    0.22 
 -23   5  18    0.51    0.21 
 -21   5  18    1.87    0.26 
 -19   5  18    0.83    0.19 
 -17   5  18   -0.03    0.12 
 -15   5  18    2.73    0.29 
 -13   5  18    0.93    0.19 
 -11   5  18    0.11    0.10 
  -9   5  18    0.16    0.11 
  -7   5  18    0.15    0.10 
  -7   5  18    0.34    0.12 
  -5   5  18    1.94    0.22 
  -5   5  18    2.24    0.24 
  -3   5  18    4.17    0.30 
  -3   5  18    3.60    0.30 
  -1   5  18    0.73    0.18 
  -1   5  18    0.63    0.15 
   1   5  18    0.74    0.19 
   1   5  18    0.52    0.14 
   3   5  18    1.83    0.22 
   3   5  18    2.46    0.30 
   5   5  18    0.19    0.17 
   7   5  18    0.61    0.23 
 -18   6  18    0.11    0.17 
 -16   6  18    2.95    0.33 
 -14   6  18   -0.05    0.12 
 -12   6  18    0.27    0.15 
 -10   6  18    1.77    0.24 
  -8   6  18    0.02    0.09 
  -6   6  18    6.56    0.43 
  -6   6  18    6.46    0.41 
  -4   6  18    1.10    0.22 
  -4   6  18    1.00    0.18 
  -2   6  18    0.13    0.10 
  -2   6  18    0.20    0.15 
   0   6  18   -0.02    0.15 
   0   6  18    0.12    0.08 
   2   6  18    0.18    0.09 
   2   6  18    0.06    0.17 
  16   6 -19    0.21    0.12 
  16   6 -19    0.18    0.21 
  14   6 -19    0.91    0.20 
  14   6 -19    0.39    0.23 
  12   6 -19    0.66    0.16 
  12   6 -19    0.33    0.24 
  10   6 -19    2.35    0.31 
  10   6 -19    1.89    0.36 
   8   6 -19    2.51    0.32 
   8   6 -19    1.91    0.37 
   6   6 -19    0.38    0.25 
   4   6 -19    0.41    0.27 
   2   6 -19    0.08    0.23 
   0   6 -19    2.02    0.41 
  23   5 -19    9.09    0.68 
  21   5 -19    2.77    0.41 
  19   5 -19    0.62    0.22 
  19   5 -19    0.59    0.17 
  17   5 -19    0.17    0.17 
  17   5 -19   -0.08    0.12 
  15   5 -19    0.41    0.16 
  15   5 -19    0.34    0.19 
  13   5 -19    3.55    0.41 
  13   5 -19    3.30    0.33 
  11   5 -19    3.47    0.34 
  11   5 -19    3.73    0.42 
   9   5 -19    1.58    0.30 
   7   5 -19    4.26    0.45 
   5   5 -19    1.14    0.28 
   3   5 -19    8.64    0.63 
   1   5 -19    0.52    0.23 
  -1   5 -19    0.11    0.19 
  -3   5 -19   -0.16    0.20 
  -5   5 -19    0.79    0.31 
  -7   5 -19    0.91    0.34 
  26   4 -19    1.20    0.32 
  24   4 -19    0.00    0.17 
  22   4 -19    0.22    0.18 
  20   4 -19    5.13    0.44 
  18   4 -19    7.44    0.43 
  18   4 -19    6.69    0.52 
  16   4 -19    3.67    0.30 
  16   4 -19    3.92    0.41 
  14   4 -19   -0.12    0.10 
  14   4 -19    0.00    0.13 
  12   4 -19    2.83    0.35 
  10   4 -19   -0.03    0.13 
   8   4 -19    0.09    0.14 
   6   4 -19    0.01    0.14 
   4   4 -19    1.06    0.24 
   2   4 -19    0.36    0.17 
   0   4 -19    0.02    0.15 
  -2   4 -19    3.13    0.42 
  -4   4 -19    2.25    0.39 
  -6   4 -19    0.51    0.25 
  -8   4 -19    0.02    0.23 
 -10   4 -19    0.33    0.19 
  29   3 -19    1.15    0.33 
  27   3 -19    4.31    0.49 
  25   3 -19    5.64    0.53 
  23   3 -19    3.66    0.42 
  21   3 -19    2.34    0.33 
  19   3 -19    0.30    0.15 
  17   3 -19    0.09    0.12 
  17   3 -19    0.10    0.10 
  15   3 -19    0.52    0.17 
  15   3 -19    0.67    0.15 
  13   3 -19    0.81    0.22 
  11   3 -19   28.41    1.30 
   9   3 -19    3.02    0.34 
   7   3 -19   13.83    0.78 
   5   3 -19   30.94    1.40 
   3   3 -19    4.34    0.41 
   1   3 -19    3.35    0.38 
  -1   3 -19    4.38    0.44 
  -3   3 -19    0.04    0.16 
  -5   3 -19    0.15    0.17 
  -7   3 -19    0.27    0.18 
  -9   3 -19    3.13    0.43 
 -11   3 -19    0.27    0.16 
 -13   3 -19    0.14    0.14 
  30   2 -19    1.51    0.34 
  28   2 -19    1.52    0.32 
  26   2 -19   -0.03    0.16 
  24   2 -19    1.33    0.27 
  22   2 -19    0.46    0.17 
  20   2 -19    0.62    0.20 
  18   2 -19   20.46    1.00 
  16   2 -19    0.01    0.11 
  16   2 -19    0.19    0.08 
  14   2 -19    1.30    0.23 
  12   2 -19    8.48    0.53 
  10   2 -19    8.56    0.53 
   8   2 -19    0.21    0.13 
   6   2 -19    4.17    0.35 
   4   2 -19    1.48    0.25 
   2   2 -19    0.05    0.14 
   0   2 -19    0.98    0.22 
  -2   2 -19   11.94    0.71 
  -4   2 -19    2.91    0.36 
  -6   2 -19    1.38    0.29 
   6  -2  19    1.73    0.28 
  -8   2 -19    0.11    0.16 
   8  -2  19   -0.17    0.10 
 -10   2 -19    0.40    0.20 
  10  -2  19    0.21    0.15 
 -12   2 -19    0.44    0.20 
  12  -2  19    0.15    0.13 
 -14   2 -19    0.06    0.15 
  14  -2  19    0.13    0.12 
  31   1 -19    4.93    0.57 
  29   1 -19   16.28    0.97 
  27   1 -19   11.14    0.74 
  25   1 -19    5.31    0.46 
  23   1 -19   20.43    1.05 
  21   1 -19    1.40    0.26 
  19   1 -19    2.03    0.28 
  17   1 -19    2.11    0.27 
  15   1 -19    1.04    0.20 
  13   1 -19    6.02    0.41 
  11   1 -19   23.90    1.08 
   9   1 -19    1.43    0.22 
   7   1 -19   24.50    1.11 
   5   1 -19   31.07    1.37 
  -5  -1  19   33.23    1.27 
   3   1 -19    8.11    0.49 
  -3  -1  19    7.10    0.42 
   1   1 -19   14.43    0.75 
  -1  -1  19   14.66    0.69 
  -1   1 -19    1.16    0.22 
   1  -1  19    1.46    0.21 
  -3   1 -19    0.89    0.21 
   3  -1  19    0.37    0.13 
  -5   1 -19    0.33    0.17 
   5  -1  19   -0.04    0.10 
  -7   1 -19    0.16    0.16 
   7  -1  19    0.20    0.13 
  -9   1 -19    1.78    0.31 
   9  -1  19    1.42    0.25 
 -11   1 -19    0.09    0.15 
  11  -1  19    0.00    0.11 
 -13   1 -19    2.13    0.35 
  13  -1  19    1.61    0.27 
 -15   1 -19    0.50    0.19 
  15  -1  19    0.27    0.11 
  32   0 -19    0.20    0.15 
  30   0 -19    0.08    0.15 
  28   0 -19   -0.03    0.14 
  26   0 -19   -0.05    0.15 
  24   0 -19    0.01    0.13 
 -24   0  19    0.12    0.10 
  22   0 -19    0.09    0.13 
 -22   0  19   -0.05    0.07 
  20   0 -19    0.07    0.13 
 -20   0  19    0.14    0.10 
  18   0 -19    0.13    0.12 
 -18   0  19    0.00    0.08 
  16   0 -19    0.03    0.11 
 -16   0  19    0.12    0.10 
  14   0 -19    0.03    0.10 
 -14   0  19    0.01    0.07 
  12   0 -19    0.10    0.10 
 -12   0  19   -0.03    0.08 
  10   0 -19    0.09    0.08 
 -10   0  19   -0.03    0.07 
 -10   0  19   -0.03    0.04 
   8   0 -19   -0.05    0.07 
  -8   0  19   -0.01    0.05 
  -8   0  19   -0.04    0.06 
   6   0 -19   -0.08    0.08 
  -6   0  19   -0.04    0.05 
  -6   0  19    0.01    0.05 
   4   0 -19    0.02    0.08 
  -4   0  19    0.03    0.06 
  -4   0  19    0.07    0.06 
   2   0 -19    0.01    0.09 
  -2   0  19    0.06    0.07 
  -2   0  19    0.05    0.06 
   0   0 -19    0.04    0.10 
   0   0  19    0.09    0.07 
   0   0  19    0.11    0.09 
  -2   0 -19   -0.01    0.12 
   2   0  19    0.13    0.09 
  -4   0 -19    0.08    0.12 
   4   0  19    0.21    0.11 
  -6   0 -19    0.03    0.13 
   6   0  19    0.09    0.09 
  -8   0 -19   -0.13    0.14 
   8   0  19    0.11    0.11 
 -10   0 -19    0.30    0.17 
  10   0  19    0.37    0.15 
 -12   0 -19    0.15    0.17 
  12   0  19    0.06    0.10 
 -14   0 -19    0.08    0.17 
  14   0  19    0.09    0.10 
  16   0  19    0.25    0.10 
  31  -1 -19    4.68    0.53 
  29  -1 -19   15.47    0.94 
 -29   1  19   15.78    0.77 
  27  -1 -19   11.13    0.73 
 -27   1  19   10.79    0.59 
  25  -1 -19    5.14    0.44 
 -25   1  19    5.29    0.37 
  23  -1 -19   20.24    1.01 
 -23   1  19   19.47    0.86 
  21  -1 -19    1.24    0.24 
 -21   1  19    1.21    0.20 
  19  -1 -19    2.19    0.27 
 -19   1  19    1.76    0.22 
  17  -1 -19    2.55    0.28 
 -17   1  19    2.65    0.26 
  15  -1 -19    0.69    0.15 
 -15   1  19    0.64    0.14 
  13  -1 -19    5.35    0.35 
 -13   1  19    5.28    0.32 
  11  -1 -19   21.70    0.95 
 -11   1  19   20.92    0.82 
 -11   1  19   23.88    0.88 
   9  -1 -19    1.66    0.19 
  -9   1  19    1.89    0.15 
  -9   1  19    1.83    0.18 
   7  -1 -19   26.37    1.13 
  -7   1  19   26.63    1.04 
  -7   1  19   29.46    1.04 
   5  -1 -19   34.34    1.37 
  -5   1  19   32.34    1.21 
  -5   1  19   34.28    1.26 
   3  -1 -19    6.77    0.41 
  -3   1  19    7.88    0.37 
  -3   1  19    7.65    0.39 
  -1   1  19   13.93    0.63 
  -1   1  19   14.52    0.58 
  -1  -1 -19    1.00    0.17 
   1   1  19    1.40    0.14 
   1   1  19    1.68    0.20 
  -3  -1 -19    0.53    0.14 
   3   1  19    0.75    0.16 
  -5  -1 -19    0.20    0.13 
   5   1  19    0.18    0.10 
  -7  -1 -19    0.32    0.16 
   7   1  19    0.18    0.11 
   9   1  19    1.27    0.22 
  11   1  19    0.03    0.10 
  13   1  19    1.96    0.27 
  15   1  19    0.36    0.12 
  30  -2 -19    2.11    0.37 
 -30   2  19    1.81    0.27 
  28  -2 -19    1.48    0.31 
 -28   2  19    1.53    0.24 
  26  -2 -19    0.41    0.19 
 -26   2  19    0.29    0.14 
  24  -2 -19    1.28    0.27 
 -24   2  19    1.44    0.23 
  22  -2 -19    0.46    0.17 
 -22   2  19    0.46    0.14 
  20  -2 -19    0.09    0.14 
 -20   2  19    0.24    0.13 
  18  -2 -19   20.47    0.98 
 -18   2  19   21.32    0.88 
  16  -2 -19    0.19    0.12 
 -16   2  19    0.02    0.10 
  14  -2 -19    1.46    0.20 
 -14   2  19    1.18    0.18 
  12  -2 -19    7.01    0.42 
 -12   2  19    8.47    0.42 
  10  -2 -19    9.43    0.48 
 -10   2  19    9.12    0.41 
 -10   2  19    9.12    0.45 
   8  -2 -19    0.33    0.10 
  -8   2  19    0.28    0.11 
  -8   2  19    0.26    0.09 
   6  -2 -19    3.47    0.23 
  -6   2  19    3.01    0.22 
  -6   2  19    3.68    0.24 
   4  -2 -19    1.19    0.14 
  -4   2  19    0.88    0.14 
  -4   2  19    1.04    0.15 
  -2   2  19   -0.02    0.07 
  -2   2  19    0.08    0.10 
   0   2  19    0.97    0.13 
   0   2  19    0.84    0.16 
   2   2  19   11.87    0.59 
   4   2  19    2.43    0.26 
   6   2  19    1.07    0.19 
   8   2  19    0.05    0.12 
  10   2  19    0.19    0.14 
  12   2  19    0.24    0.11 
  14   2  19    0.11    0.09 
  29  -3 -19    1.51    0.31 
 -29   3  19    1.65    0.27 
  27  -3 -19    4.68    0.51 
 -27   3  19    4.38    0.39 
  25  -3 -19    5.66    0.53 
 -25   3  19    5.56    0.40 
  23  -3 -19    4.37    0.44 
 -23   3  19    4.02    0.34 
  21  -3 -19    2.24    0.32 
 -21   3  19    2.45    0.28 
  19  -3 -19    0.39    0.15 
 -19   3  19    0.46    0.15 
  17  -3 -19    0.01    0.12 
 -17   3  19    0.00    0.11 
  15  -3 -19    0.40    0.12 
 -15   3  19    0.77    0.16 
 -13   3  19    0.70    0.15 
 -11   3  19   26.83    1.04 
  -9   3  19    2.26    0.20 
  -9   3  19    2.48    0.23 
  -7   3  19   13.59    0.60 
  -7   3  19   13.27    0.59 
  -5   3  19   30.78    1.19 
  -5   3  19   30.43    1.15 
  -3   3  19    4.35    0.31 
  -3   3  19    4.41    0.28 
  -1   3  19    3.90    0.26 
  -1   3  19    3.94    0.30 
   1   3  19    4.72    0.34 
   1   3  19    5.18    0.30 
   3   3  19    0.01    0.09 
   3   3  19    0.19    0.13 
   5   3  19    0.13    0.13 
   7   3  19    0.42    0.15 
   9   3  19    2.63    0.32 
  11   3  19    0.39    0.18 
 -26   4  19    1.25    0.24 
 -24   4  19    0.11    0.15 
 -22   4  19    0.48    0.17 
 -20   4  19    4.95    0.37 
 -18   4  19    7.02    0.43 
 -16   4  19    3.85    0.30 
 -14   4  19    0.10    0.11 
 -12   4  19    2.60    0.26 
 -10   4  19    0.38    0.13 
  -8   4  19    0.18    0.11 
  -8   4  19   -0.03    0.08 
  -6   4  19    0.11    0.11 
  -6   4  19    0.10    0.09 
  -4   4  19    1.24    0.18 
  -4   4  19    1.52    0.20 
  -2   4  19    0.41    0.14 
  -2   4  19    0.25    0.11 
   0   4  19    0.19    0.12 
   0   4  19    0.22    0.10 
   2   4  19    3.43    0.25 
   2   4  19    3.61    0.33 
   4   4  19    2.42    0.30 
   6   4  19    1.11    0.24 
   8   4  19    0.12    0.15 
  10   4  19   -0.06    0.16 
 -23   5  19    8.24    0.53 
 -21   5  19    3.05    0.33 
 -19   5  19    0.64    0.19 
 -17   5  19    0.22    0.14 
 -15   5  19    0.46    0.16 
 -13   5  19    3.61    0.32 
 -11   5  19    3.53    0.31 
  -9   5  19    1.57    0.22 
  -7   5  19    3.26    0.30 
  -7   5  19    4.20    0.29 
  -5   5  19    0.90    0.17 
  -5   5  19    1.26    0.20 
  -3   5  19    8.27    0.47 
  -3   5  19   10.45    0.54 
  -1   5  19    0.20    0.11 
  -1   5  19    0.26    0.15 
   1   5  19    0.11    0.10 
   1   5  19    0.29    0.16 
   3   5  19    0.09    0.10 
   3   5  19    0.16    0.14 
   5   5  19    0.63    0.22 
   7   5  19    0.39    0.22 
 -16   6  19    0.06    0.17 
 -14   6  19    0.60    0.19 
 -12   6  19    0.50    0.17 
 -10   6  19    2.08    0.26 
  -8   6  19    2.60    0.28 
  -6   6  19    0.16    0.17 
  -6   6  19    0.30    0.12 
  -4   6  19    0.49    0.18 
  -4   6  19    0.59    0.13 
  -2   6  19    0.01    0.08 
  -2   6  19   -0.11    0.13 
   0   6  19    2.27    0.26 
   0   6  19    2.48    0.33 
  16   6 -20    0.75    0.18 
  14   6 -20    0.58    0.27 
  14   6 -20    0.90    0.18 
  12   6 -20    0.32    0.13 
  12   6 -20    0.24    0.22 
  10   6 -20    0.16    0.22 
  10   6 -20    0.51    0.15 
   8   6 -20    0.36    0.25 
   6   6 -20    1.58    0.37 
   4   6 -20   -0.20    0.22 
   2   6 -20    0.99    0.32 
  23   5 -20   -0.04    0.23 
  21   5 -20   -0.03    0.20 
  19   5 -20   -0.07    0.17 
  17   5 -20    0.66    0.18 
  17   5 -20    0.88    0.24 
  15   5 -20    3.55    0.42 
  15   5 -20    3.70    0.35 
  13   5 -20    0.01    0.16 
  13   5 -20    0.02    0.13 
  11   5 -20    0.61    0.22 
   9   5 -20    0.72    0.23 
   7   5 -20    0.32    0.20 
   5   5 -20    0.45    0.21 
   3   5 -20    0.73    0.25 
   1   5 -20    0.85    0.29 
  -1   5 -20   -0.06    0.21 
  -3   5 -20    0.07    0.24 
  -5   5 -20   -0.08    0.22 
  26   4 -20   -0.09    0.21 
  24   4 -20    4.96    0.52 
  22   4 -20    9.32    0.65 
  20   4 -20    3.84    0.42 
  18   4 -20    2.01    0.32 
  18   4 -20    2.62    0.26 
  16   4 -20    5.08    0.43 
  16   4 -20    5.24    0.36 
  14   4 -20    1.88    0.31 
  14   4 -20    2.37    0.26 
  12   4 -20   -0.01    0.12 
  10   4 -20    2.93    0.36 
   8   4 -20    6.95    0.52 
   6   4 -20    0.05    0.14 
   4   4 -20    0.10    0.15 
   2   4 -20    5.56    0.49 
   0   4 -20    0.05    0.16 
  -2   4 -20    0.01    0.17 
  -4   4 -20    1.33    0.33 
  -6   4 -20    5.98    0.61 
  -8   4 -20    0.39    0.21 
 -10   4 -20    0.92    0.22 
  29   3 -20    1.08    0.32 
  27   3 -20    0.19    0.21 
  25   3 -20   -0.08    0.16 
  23   3 -20    0.21    0.18 
  21   3 -20    2.34    0.34 
  19   3 -20    0.06    0.12 
  17   3 -20    1.24    0.24 
  17   3 -20    1.31    0.18 
  15   3 -20    5.38    0.43 
  13   3 -20    3.67    0.38 
  11   3 -20    0.77    0.21 
   9   3 -20   37.40    1.65 
   7   3 -20   -0.14    0.12 
   5   3 -20    3.66    0.38 
   3   3 -20    0.04    0.14 
   1   3 -20    0.06    0.15 
  -1   3 -20    0.38    0.20 
  -3   3 -20    0.72    0.22 
  -5   3 -20    0.13    0.18 
  -7   3 -20    0.15    0.18 
  -9   3 -20    0.38    0.19 
 -11   3 -20    0.48    0.19 
  30   2 -20    1.51    0.35 
  28   2 -20    1.97    0.37 
  26   2 -20    4.56    0.48 
  24   2 -20    9.22    0.63 
  22   2 -20    0.20    0.15 
  20   2 -20    6.85    0.49 
  18   2 -20   37.95    1.65 
  16   2 -20    9.17    0.57 
  14   2 -20    2.24    0.29 
  12   2 -20   23.09    1.09 
  10   2 -20   64.79    2.59 
   8   2 -20    6.58    0.47 
   6   2 -20    8.55    0.54 
   4   2 -20   25.75    1.20 
   2   2 -20   26.25    1.23 
   0   2 -20   12.99    0.75 
  -2   2 -20   10.28    0.66 
  -4   2 -20    0.00    0.14 
  -6   2 -20    0.48    0.20 
   6  -2  20    0.37    0.18 
  -8   2 -20    0.10    0.17 
   8  -2  20   -0.06    0.12 
 -10   2 -20    0.81    0.24 
  10  -2  20    0.89    0.23 
 -12   2 -20    0.37    0.18 
  12  -2  20    0.26    0.14 
 -14   2 -20    0.43    0.17 
  14  -2  20    0.10    0.12 
  31   1 -20    0.17    0.22 
  29   1 -20    2.27    0.39 
  27   1 -20    0.70    0.25 
  25   1 -20    1.51    0.29 
  23   1 -20    8.15    0.57 
  21   1 -20    0.23    0.14 
  19   1 -20    0.07    0.12 
  17   1 -20    0.90    0.20 
  15   1 -20    9.14    0.55 
  13   1 -20   -0.02    0.10 
  11   1 -20    5.36    0.38 
   9   1 -20    0.08    0.11 
   7   1 -20    1.29    0.23 
   5   1 -20    4.21    0.33 
  -5  -1  20    3.57    0.28 
   3   1 -20   14.27    0.77 
  -3  -1  20   15.82    0.71 
   1   1 -20    0.99    0.20 
  -1  -1  20    0.68    0.16 
  -1   1 -20    0.09    0.14 
   1  -1  20    0.15    0.11 
  -3   1 -20    0.00    0.13 
   3  -1  20    0.15    0.12 
  -5   1 -20    0.45    0.18 
   5  -1  20    0.25    0.13 
  -7   1 -20    0.13    0.16 
   7  -1  20    0.11    0.13 
  -9   1 -20    0.67    0.23 
   9  -1  20    0.65    0.19 
 -11   1 -20    0.21    0.17 
  11  -1  20    0.03    0.12 
 -13   1 -20    0.25    0.17 
  13  -1  20    0.51    0.15 
 -15   1 -20    0.14    0.16 
  15  -1  20    0.18    0.10 
  32   0 -20    0.78    0.20 
  30   0 -20    1.72    0.32 
  28   0 -20    0.38    0.19 
  26   0 -20   20.85    1.10 
  24   0 -20    6.17    0.48 
 -24   0  20    6.01    0.41 
  22   0 -20    5.07    0.43 
 -22   0  20    6.65    0.41 
  20   0 -20   28.40    1.30 
 -20   0  20   28.87    1.15 
  18   0 -20   20.07    0.99 
 -18   0  20   22.07    0.90 
  16   0 -20    1.81    0.24 
 -16   0  20    1.77    0.21 
  14   0 -20   38.17    1.62 
 -14   0  20   40.09    1.46 
  12   0 -20    2.81    0.27 
 -12   0  20    2.59    0.23 
  10   0 -20    0.12    0.09 
 -10   0  20    0.34    0.08 
 -10   0  20    0.03    0.08 
   8   0 -20    3.71    0.28 
  -8   0  20    3.43    0.23 
  -8   0  20    3.53    0.25 
   6   0 -20    8.97    0.52 
  -6   0  20    9.23    0.44 
  -6   0  20    9.31    0.45 
   4   0 -20    7.13    0.44 
  -4   0  20    6.92    0.38 
  -4   0  20    7.35    0.36 
   2   0 -20   22.65    0.98 
  -2   0  20   17.92    0.78 
  -2   0  20   22.28    0.88 
   0   0 -20    0.04    0.11 
   0   0  20    0.01    0.06 
   0   0  20   -0.01    0.08 
  -2   0 -20    3.02    0.31 
   2   0  20    2.63    0.27 
  -4   0 -20    2.64    0.30 
   4   0  20    2.57    0.27 
  -6   0 -20   19.60    0.97 
   6   0  20   18.97    0.88 
  -8   0 -20    0.03    0.16 
   8   0  20    0.18    0.13 
 -10   0 -20    2.29    0.33 
  10   0  20    1.43    0.24 
 -12   0 -20    2.10    0.34 
  12   0  20    2.00    0.27 
 -14   0 -20   -0.02    0.17 
  14   0  20    0.15    0.09 
  31  -1 -20    0.28    0.16 
  29  -1 -20    2.15    0.35 
 -29   1  20    2.19    0.29 
  27  -1 -20    0.79    0.23 
 -27   1  20    0.92    0.20 
  25  -1 -20    1.59    0.30 
 -25   1  20    1.97    0.26 
  23  -1 -20    8.06    0.56 
 -23   1  20    8.32    0.48 
  21  -1 -20    0.19    0.14 
 -21   1  20    0.09    0.11 
  19  -1 -20    0.02    0.11 
 -19   1  20   -0.08    0.09 
  17  -1 -20    0.83    0.20 
 -17   1  20    0.77    0.16 
  15  -1 -20    8.53    0.49 
 -15   1  20    7.65    0.43 
  13  -1 -20    0.10    0.09 
 -13   1  20    0.08    0.09 
  11  -1 -20    4.88    0.33 
 -11   1  20    5.49    0.27 
 -11   1  20    5.06    0.32 
   9  -1 -20    0.08    0.07 
  -9   1  20    0.10    0.06 
  -9   1  20    0.09    0.09 
   7  -1 -20    1.12    0.16 
  -7   1  20    1.30    0.14 
  -7   1  20    1.06    0.16 
   5  -1 -20    4.27    0.29 
  -5   1  20    3.58    0.25 
  -5   1  20    4.18    0.26 
   3  -1 -20   13.29    0.67 
  -3   1  20   14.39    0.63 
  -3   1  20   14.71    0.59 
   1  -1 -20    0.51    0.13 
  -1   1  20    0.63    0.14 
  -1   1  20    0.68    0.12 
  -1  -1 -20    0.11    0.10 
   1   1  20    0.29    0.09 
   1   1  20    0.15    0.11 
  -3  -1 -20    0.05    0.10 
   3   1  20    0.02    0.09 
  -5  -1 -20    0.35    0.16 
   5   1  20    0.28    0.11 
   7   1  20    0.02    0.11 
   9   1  20    0.53    0.17 
  11   1  20    0.03    0.10 
  13   1  20    0.30    0.11 
  15   1  20    0.42    0.12 
  30  -2 -20    2.08    0.36 
 -30   2  20    1.68    0.27 
  28  -2 -20    1.45    0.30 
 -28   2  20    1.81    0.27 
  26  -2 -20    3.81    0.44 
 -26   2  20    4.19    0.36 
  24  -2 -20    8.85    0.60 
 -24   2  20    8.57    0.50 
  22  -2 -20    0.59    0.18 
 -22   2  20    0.42    0.14 
  20  -2 -20    7.00    0.48 
 -20   2  20    6.83    0.42 
  18  -2 -20   38.03    1.62 
 -18   2  20   38.15    1.44 
  16  -2 -20    9.20    0.53 
 -16   2  20    9.64    0.50 
  14  -2 -20    2.97    0.27 
 -14   2  20    2.28    0.24 
 -12   2  20   23.94    0.95 
  10  -2 -20   62.58    2.38 
 -10   2  20   59.04    2.18 
 -10   2  20   65.10    2.17 
   8  -2 -20    6.36    0.36 
  -8   2  20    6.92    0.35 
  -8   2  20    6.65    0.37 
   6  -2 -20    9.86    0.48 
  -6   2  20   10.11    0.47 
  -6   2  20   10.18    0.48 
  -4   2  20   25.28    0.96 
  -4   2  20   25.10    1.01 
  -2   2  20   27.78    1.04 
  -2   2  20   28.23    1.12 
   0   2  20   11.98    0.54 
   0   2  20   13.84    0.63 
   2   2  20   10.16    0.53 
   4   2  20    0.16    0.10 
   6   2  20    0.76    0.19 
   8   2  20    0.00    0.11 
  10   2  20    0.61    0.19 
  12   2  20    0.13    0.10 
  14   2  20    0.52    0.12 
  29  -3 -20    1.36    0.30 
 -29   3  20    1.47    0.26 
  27  -3 -20    0.36    0.19 
 -27   3  20    0.11    0.13 
  25  -3 -20    0.39    0.20 
  23  -3 -20    0.24    0.17 
 -23   3  20    0.20    0.13 
  21  -3 -20    2.83    0.34 
 -21   3  20    2.32    0.27 
  19  -3 -20    0.19    0.14 
 -19   3  20    0.05    0.12 
  17  -3 -20    1.26    0.22 
 -17   3  20    0.90    0.18 
 -15   3  20    4.65    0.33 
 -13   3  20    3.64    0.28 
 -11   3  20    1.03    0.17 
  -9   3  20   36.58    1.36 
  -9   3  20   36.56    1.37 
  -7   3  20   -0.06    0.08 
  -7   3  20    0.00    0.08 
  -5   3  20    3.58    0.27 
  -5   3  20    3.46    0.26 
  -3   3  20    0.12    0.10 
  -3   3  20    0.14    0.09 
  -1   3  20    0.10    0.11 
  -1   3  20    0.20    0.10 
   1   3  20    0.68    0.14 
   1   3  20    0.75    0.17 
   3   3  20    0.94    0.19 
   5   3  20    0.27    0.14 
   7   3  20    0.32    0.14 
   9   3  20    0.27    0.16 
  11   3  20    0.37    0.17 
 -26   4  20   -0.09    0.15 
 -24   4  20    5.19    0.40 
 -22   4  20    8.21    0.50 
 -20   4  20    4.00    0.36 
 -18   4  20    2.49    0.28 
 -16   4  20    4.72    0.35 
 -14   4  20    2.42    0.27 
 -12   4  20    0.16    0.11 
 -10   4  20    2.92    0.27 
  -8   4  20    7.45    0.41 
  -8   4  20    7.44    0.42 
  -6   4  20    0.11    0.10 
  -6   4  20    0.04    0.09 
  -4   4  20    0.35    0.13 
  -4   4  20    0.27    0.11 
  -2   4  20    5.44    0.34 
  -2   4  20    6.04    0.38 
   0   4  20    0.04    0.11 
   0   4  20   -0.14    0.07 
   2   4  20    0.01    0.08 
   2   4  20    0.14    0.13 
   4   4  20    1.13    0.23 
   6   4  20    5.66    0.44 
   8   4  20    0.13    0.17 
  10   4  20    0.47    0.22 
 -23   5  20    0.19    0.17 
 -21   5  20   -0.04    0.15 
 -19   5  20    0.01    0.15 
 -17   5  20    1.08    0.22 
 -15   5  20    3.51    0.33 
 -13   5  20   -0.10    0.09 
 -11   5  20    0.82    0.16 
  -9   5  20    0.77    0.16 
  -7   5  20    0.27    0.11 
  -7   5  20    0.35    0.14 
  -5   5  20    0.32    0.14 
  -5   5  20    0.51    0.14 
  -3   5  20    0.92    0.18 
  -3   5  20    0.97    0.21 
  -1   5  20    1.03    0.18 
  -1   5  20    1.16    0.22 
   1   5  20    0.05    0.14 
   1   5  20   -0.01    0.09 
   3   5  20    0.03    0.17 
   5   5  20   -0.16    0.15 
 -16   6  20    0.44    0.21 
 -14   6  20    0.52    0.19 
 -12   6  20    0.00    0.08 
 -10   6  20    0.47    0.12 
  -8   6  20    0.25    0.09 
  -6   6  20    1.72    0.23 
  -4   6  20    0.03    0.15 
  -4   6  20    0.04    0.07 
  -2   6  20    0.70    0.13 
  -2   6  20    1.21    0.26 
  14   6 -21    0.23    0.24 
  12   6 -21    0.32    0.25 
  12   6 -21    0.38    0.12 
  10   6 -21    0.50    0.14 
  10   6 -21    1.26    0.33 
   8   6 -21   -0.08    0.21 
   6   6 -21    0.04    0.24 
  21   5 -21    1.77    0.36 
  19   5 -21    1.72    0.33 
  17   5 -21    0.57    0.24 
  17   5 -21    0.66    0.18 
  15   5 -21    9.26    0.66 
  15   5 -21    9.29    0.56 
  13   5 -21    5.15    0.50 
  13   5 -21    5.07    0.39 
  11   5 -21    1.05    0.27 
   9   5 -21   -0.06    0.16 
   7   5 -21    0.22    0.20 
   5   5 -21    0.33    0.22 
   3   5 -21    0.10    0.20 
   1   5 -21    0.38    0.23 
  -1   5 -21    0.00    0.22 
  -3   5 -21   -0.11    0.24 
  26   4 -21    0.17    0.25 
  24   4 -21    0.29    0.22 
  22   4 -21    0.20    0.18 
  20   4 -21    0.46    0.19 
  18   4 -21    3.32    0.40 
  16   4 -21    0.19    0.15 
  16   4 -21    0.05    0.12 
  14   4 -21    0.17    0.16 
  12   4 -21    0.11    0.15 
  10   4 -21    0.57    0.20 
   8   4 -21    0.14    0.15 
   6   4 -21    0.69    0.22 
   4   4 -21   -0.06    0.14 
   2   4 -21    0.04    0.17 
   0   4 -21   -0.11    0.15 
  -2   4 -21    0.67    0.26 
  -4   4 -21    3.83    0.50 
  -6   4 -21    0.68    0.27 
  -8   4 -21    0.28    0.16 
  29   3 -21   -0.14    0.22 
  27   3 -21    2.20    0.40 
  25   3 -21    0.11    0.19 
  23   3 -21    0.00    0.14 
  21   3 -21    0.31    0.18 
  19   3 -21    6.06    0.48 
  17   3 -21   10.83    0.66 
  17   3 -21   10.49    0.53 
  15   3 -21   11.21    0.68 
  13   3 -21   13.64    0.77 
  11   3 -21    6.00    0.47 
   9   3 -21   23.06    1.13 
   7   3 -21    0.20    0.15 
   5   3 -21   -0.06    0.11 
   3   3 -21   -0.14    0.13 
   1   3 -21    0.45    0.20 
  -1   3 -21    4.60    0.47 
  -3   3 -21    0.80    0.24 
  -5   3 -21    2.28    0.36 
  -7   3 -21    0.54    0.23 
  -9   3 -21    0.35    0.17 
 -11   3 -21    1.75    0.33 
  30   2 -21   -0.24    0.20 
  28   2 -21    0.22    0.21 
  26   2 -21    0.05    0.18 
  24   2 -21    0.04    0.17 
  22   2 -21    5.19    0.44 
  20   2 -21    4.00    0.40 
  18   2 -21    1.95    0.29 
  16   2 -21    2.76    0.33 
  14   2 -21    1.19    0.23 
  12   2 -21    0.10    0.13 
  10   2 -21    6.29    0.46 
   8   2 -21    9.77    0.61 
   6   2 -21    1.74    0.27 
   4   2 -21    0.29    0.15 
   2   2 -21    0.26    0.16 
   0   2 -21    0.19    0.17 
  -2   2 -21    2.81    0.36 
  -4   2 -21    3.87    0.42 
  -6   2 -21    0.37    0.20 
  -8   2 -21    0.52    0.23 
   8  -2  21    0.52    0.18 
 -10   2 -21    0.45    0.19 
  10  -2  21    0.09    0.13 
 -12   2 -21    0.42    0.19 
  12  -2  21    0.42    0.14 
  31   1 -21    9.91    0.76 
  29   1 -21   -0.01    0.18 
  27   1 -21    4.35    0.47 
  25   1 -21    7.41    0.55 
  23   1 -21    6.72    0.51 
  21   1 -21   -0.02    0.12 
  19   1 -21   18.44    0.94 
  17   1 -21   69.91    2.77 
  15   1 -21   43.90    1.83 
  13   1 -21    2.93    0.31 
  11   1 -21   64.94    2.58 
   9   1 -21    7.16    0.47 
   7   1 -21    4.34    0.36 
   5   1 -21    0.10    0.12 
  -5  -1  21    0.15    0.10 
   3   1 -21    5.49    0.41 
  -3  -1  21    5.48    0.37 
   1   1 -21    0.02    0.13 
  -1  -1  21   -0.07    0.08 
  -1   1 -21    0.44    0.18 
   1  -1  21    0.50    0.16 
  -3   1 -21    6.17    0.47 
   3  -1  21    6.61    0.44 
  -5   1 -21    2.15    0.32 
   5  -1  21    2.33    0.30 
  -7   1 -21    0.24    0.18 
   7  -1  21    0.12    0.14 
  -9   1 -21    0.26    0.18 
   9  -1  21    0.01    0.11 
 -11   1 -21    2.34    0.37 
  11  -1  21    2.75    0.35 
 -13   1 -21    0.30    0.18 
  13  -1  21    0.11    0.10 
  32   0 -21    0.24    0.15 
  30   0 -21    0.11    0.14 
  28   0 -21    0.13    0.16 
  26   0 -21    0.02    0.16 
  24   0 -21    0.14    0.14 
 -24   0  21    0.00    0.10 
  22   0 -21    0.11    0.13 
 -22   0  21    0.04    0.10 
  20   0 -21    0.26    0.15 
 -20   0  21    0.02    0.09 
  18   0 -21   -0.06    0.11 
 -18   0  21   -0.08    0.08 
  16   0 -21    0.10    0.12 
 -16   0  21   -0.04    0.08 
  14   0 -21    0.13    0.11 
 -14   0  21   -0.04    0.08 
  12   0 -21    0.03    0.10 
 -12   0  21    0.01    0.09 
  10   0 -21   -0.04    0.08 
 -10   0  21   -0.03    0.07 
 -10   0  21    0.02    0.05 
   8   0 -21    0.09    0.09 
  -8   0  21    0.05    0.07 
  -8   0  21    0.01    0.05 
   6   0 -21    0.03    0.10 
  -6   0  21   -0.05    0.07 
  -6   0  21    0.01    0.05 
   4   0 -21    0.00    0.09 
  -4   0  21    0.03    0.07 
  -4   0  21    0.11    0.08 
   2   0 -21    0.01    0.11 
  -2   0  21    0.21    0.07 
  -2   0  21    0.15    0.09 
   0   0 -21   -0.12    0.11 
   0   0  21    0.00    0.08 
  -2   0 -21    0.03    0.12 
   2   0  21   -0.06    0.06 
  -4   0 -21   -0.11    0.14 
   4   0  21    0.02    0.09 
  -6   0 -21   -0.03    0.15 
   6   0  21    0.16    0.12 
  -8   0 -21    0.09    0.16 
   8   0  21    0.04    0.12 
 -10   0 -21    0.16    0.17 
  10   0  21   -0.05    0.10 
 -12   0 -21   -0.06    0.17 
  12   0  21    0.03    0.08 
  14   0  21    0.22    0.09 
  31  -1 -21    9.17    0.68 
  29  -1 -21    0.09    0.15 
 -29   1  21    0.22    0.14 
  27  -1 -21    5.71    0.49 
 -27   1  21    5.06    0.39 
  25  -1 -21    7.50    0.56 
 -25   1  21    7.64    0.47 
  23  -1 -21    6.73    0.51 
 -23   1  21    6.82    0.43 
  21  -1 -21    0.12    0.13 
 -21   1  21    0.06    0.10 
  19  -1 -21   18.30    0.91 
 -19   1  21   18.59    0.81 
  17  -1 -21   73.02    2.85 
 -17   1  21   72.50    2.55 
  15  -1 -21   43.59    1.76 
 -15   1  21   42.59    1.59 
  13  -1 -21    3.21    0.27 
 -13   1  21    3.25    0.27 
  11  -1 -21   62.84    2.42 
 -11   1  21   61.97    2.19 
 -11   1  21   62.46    2.18 
   9  -1 -21    7.48    0.42 
  -9   1  21    7.24    0.39 
  -9   1  21    6.66    0.35 
   7  -1 -21    4.14    0.29 
  -7   1  21    3.67    0.26 
  -7   1  21    3.99    0.25 
   5  -1 -21    0.10    0.10 
  -5   1  21    0.16    0.10 
  -5   1  21   -0.01    0.07 
   3  -1 -21    5.16    0.35 
  -3   1  21    5.16    0.30 
  -3   1  21    4.73    0.31 
   1  -1 -21   -0.03    0.08 
  -1   1  21   -0.03    0.08 
  -1   1  21    0.08    0.08 
  -1  -1 -21    0.16    0.11 
   1   1  21    0.36    0.12 
  -3  -1 -21    6.29    0.43 
   3   1  21    6.06    0.39 
   5   1  21    1.89    0.25 
   7   1  21   -0.13    0.09 
   9   1  21    0.15    0.14 
  11   1  21    1.88    0.28 
  13   1  21    0.13    0.10 
  30  -2 -21    0.26    0.17 
 -30   2  21    0.08    0.15 
  28  -2 -21    0.12    0.15 
 -28   2  21    0.16    0.14 
  26  -2 -21    0.04    0.15 
 -26   2  21    0.04    0.12 
  24  -2 -21    0.17    0.14 
 -24   2  21    0.17    0.12 
  22  -2 -21    4.95    0.42 
 -22   2  21    5.21    0.37 
  20  -2 -21    4.01    0.35 
 -20   2  21    3.56    0.32 
  18  -2 -21    1.90    0.26 
 -18   2  21    1.69    0.23 
  16  -2 -21    2.77    0.28 
 -16   2  21    2.47    0.26 
  14  -2 -21    1.09    0.18 
 -14   2  21    0.76    0.16 
  12  -2 -21    0.03    0.06 
 -12   2  21    0.02    0.10 
  10  -2 -21    6.52    0.38 
 -10   2  21    6.33    0.33 
 -10   2  21    6.10    0.36 
   8  -2 -21    8.74    0.45 
  -8   2  21    9.91    0.44 
  -8   2  21    8.78    0.45 
  -6   2  21    1.94    0.19 
  -6   2  21    1.65    0.19 
  -4   2  21    0.28    0.11 
  -4   2  21    0.09    0.09 
  -2   2  21    0.14    0.10 
  -2   2  21    0.08    0.09 
   0   2  21    0.24    0.11 
   0   2  21    0.41    0.13 
   2   2  21    3.52    0.31 
   4   2  21    3.77    0.33 
   6   2  21    0.35    0.14 
   8   2  21    0.48    0.17 
  10   2  21    0.31    0.16 
  12   2  21    0.09    0.14 
  29  -3 -21    0.32    0.18 
 -29   3  21    0.12    0.16 
  27  -3 -21    2.48    0.38 
 -27   3  21    1.57    0.26 
  25  -3 -21    0.00    0.15 
 -25   3  21    0.12    0.15 
  23  -3 -21    0.14    0.16 
 -23   3  21    0.20    0.13 
  21  -3 -21    0.40    0.17 
 -21   3  21    0.27    0.16 
  19  -3 -21    6.39    0.46 
 -19   3  21    5.73    0.40 
 -17   3  21    9.32    0.50 
 -15   3  21    9.81    0.51 
 -13   3  21   12.29    0.59 
 -11   3  21    6.09    0.36 
  -9   3  21   22.31    0.88 
  -9   3  21   20.92    0.88 
  -7   3  21    0.50    0.13 
  -7   3  21    0.43    0.12 
  -5   3  21    0.04    0.09 
  -5   3  21    0.19    0.10 
  -3   3  21    0.08    0.10 
  -3   3  21    0.12    0.10 
  -1   3  21    0.62    0.14 
  -1   3  21    0.43    0.14 
   1   3  21    4.77    0.35 
   1   3  21    5.05    0.30 
   3   3  21    1.10    0.20 
   5   3  21    1.86    0.26 
   7   3  21    0.62    0.20 
   9   3  21    0.19    0.16 
  11   3  21    1.55    0.28 
 -26   4  21    0.45    0.20 
 -24   4  21    0.44    0.20 
 -22   4  21    0.15    0.15 
 -20   4  21    0.72    0.20 
 -18   4  21    3.73    0.34 
 -16   4  21    0.07    0.13 
 -14   4  21    0.18    0.12 
 -12   4  21    0.05    0.11 
 -10   4  21    0.42    0.13 
  -8   4  21    0.07    0.11 
  -8   4  21    0.16    0.12 
  -6   4  21    0.67    0.16 
  -6   4  21    0.63    0.16 
  -4   4  21    0.03    0.09 
  -4   4  21    0.00    0.11 
  -2   4  21    0.20    0.11 
  -2   4  21    0.20    0.13 
   0   4  21    0.07    0.10 
   0   4  21    0.08    0.13 
   2   4  21    0.78    0.20 
   4   4  21    3.99    0.38 
   6   4  21    0.71    0.21 
   8   4  21    0.21    0.18 
 -21   5  21    0.99    0.25 
 -19   5  21    2.38    0.31 
 -17   5  21    0.63    0.19 
 -15   5  21    9.74    0.56 
 -13   5  21    4.83    0.36 
 -11   5  21    0.83    0.18 
  -9   5  21   -0.06    0.09 
  -7   5  21   -0.02    0.08 
  -5   5  21    0.12    0.13 
  -5   5  21    0.16    0.10 
  -3   5  21    0.42    0.13 
  -3   5  21    0.12    0.15 
  -1   5  21    0.69    0.20 
  -1   5  21    1.12    0.18 
   1   5  21    0.30    0.12 
   1   5  21   -0.03    0.14 
   3   5  21    0.12    0.18 
 -14   6  21    0.45    0.20 
 -12   6  21    0.30    0.11 
 -10   6  21    0.32    0.11 
  -8   6  21    0.08    0.08 
  -6   6  21    0.27    0.10 
  -4   6  21    0.19    0.19 
  -4   6  21    0.61    0.14 
  10   6 -22    3.05    0.35 
  21   5 -22   -0.05    0.21 
  19   5 -22    3.53    0.45 
  17   5 -22    0.55    0.17 
  17   5 -22    0.84    0.28 
  15   5 -22    5.09    0.52 
  15   5 -22    4.66    0.38 
  13   5 -22    1.59    0.26 
  13   5 -22    1.17    0.30 
  11   5 -22   -0.03    0.17 
   9   5 -22    2.77    0.41 
   7   5 -22    1.24    0.30 
   5   5 -22    1.03    0.30 
   3   5 -22    0.32    0.23 
   1   5 -22   -0.04    0.21 
  -1   5 -22    0.61    0.29 
  -3   5 -22    2.91    0.51 
  26   4 -22    1.67    0.37 
  24   4 -22    4.09    0.49 
  22   4 -22    4.38    0.49 
  20   4 -22    0.62    0.24 
  18   4 -22    1.94    0.32 
  16   4 -22    1.52    0.30 
  16   4 -22    1.54    0.23 
  14   4 -22    0.43    0.19 
  12   4 -22    0.56    0.21 
  10   4 -22    5.96    0.49 
   8   4 -22    1.94    0.33 
   6   4 -22   15.10    0.88 
   4   4 -22    1.25    0.29 
   2   4 -22    2.70    0.41 
   0   4 -22    0.99    0.28 
  -2   4 -22    0.26    0.23 
  -4   4 -22    1.47    0.34 
  -6   4 -22    0.21    0.16 
  29   3 -22    2.14    0.42 
  27   3 -22    1.02    0.31 
  25   3 -22    1.70    0.33 
  23   3 -22    2.00    0.33 
  21   3 -22    5.19    0.49 
  19   3 -22    2.07    0.32 
  17   3 -22    4.04    0.42 
  15   3 -22    0.10    0.14 
  13   3 -22   -0.12    0.12 
  11   3 -22    0.87    0.23 
   9   3 -22    2.85    0.36 
   7   3 -22    1.63    0.30 
   5   3 -22    0.00    0.12 
   3   3 -22    0.07    0.15 
   1   3 -22    0.07    0.16 
  -1   3 -22    1.21    0.27 
  -3   3 -22    0.20    0.18 
  -5   3 -22    0.77    0.24 
  -7   3 -22    0.66    0.23 
  -9   3 -22    0.41    0.17 
  30   2 -22    5.21    0.58 
  28   2 -22    2.96    0.43 
  26   2 -22    3.31    0.44 
  24   2 -22    3.91    0.44 
  22   2 -22   12.42    0.75 
  20   2 -22    2.18    0.31 
  18   2 -22    0.28    0.15 
  16   2 -22    0.40    0.16 
  14   2 -22    2.31    0.31 
  12   2 -22   35.35    1.56 
  10   2 -22    9.28    0.59 
   8   2 -22    3.57    0.38 
   6   2 -22    3.03    0.35 
   4   2 -22    6.01    0.46 
   2   2 -22    1.59    0.29 
   0   2 -22    0.19    0.17 
  -2   2 -22    9.58    0.65 
  -4   2 -22    0.08    0.14 
  -6   2 -22    0.94    0.26 
  -8   2 -22    1.18    0.29 
 -10   2 -22    0.89    0.25 
 -12   2 -22    0.38    0.15 
  31   1 -22   -0.03    0.22 
  29   1 -22   -0.06    0.16 
  27   1 -22    0.22    0.17 
  25   1 -22    0.59    0.22 
  23   1 -22    0.14    0.16 
  21   1 -22    4.08    0.41 
  19   1 -22    2.22    0.31 
  17   1 -22    6.27    0.45 
  15   1 -22   14.33    0.77 
  13   1 -22    0.33    0.15 
  11   1 -22    3.49    0.34 
   9   1 -22    9.41    0.57 
   7   1 -22   -0.04    0.11 
   5   1 -22    0.36    0.16 
  -5  -1  22    0.31    0.13 
   3   1 -22    6.20    0.45 
  -3  -1  22    5.97    0.40 
   1   1 -22    0.20    0.15 
  -1  -1  22    0.14    0.11 
  -1   1 -22    0.64    0.21 
   1  -1  22    0.81    0.18 
  -3   1 -22    2.47    0.34 
   3  -1  22    2.22    0.29 
  -5   1 -22    4.67    0.44 
   5  -1  22    4.89    0.39 
  -7   1 -22    2.10    0.34 
   7  -1  22    1.89    0.30 
  -9   1 -22    0.70    0.24 
   9  -1  22    0.41    0.19 
 -11   1 -22    0.78    0.24 
  11  -1  22    0.77    0.18 
 -13   1 -22    0.27    0.16 
  13  -1  22   -0.03    0.07 
  32   0 -22    0.54    0.20 
  30   0 -22    2.02    0.33 
  28   0 -22   23.04    1.21 
  26   0 -22   24.73    1.26 
  24   0 -22   20.14    1.05 
 -24   0  22   20.07    0.91 
  22   0 -22   22.72    1.11 
 -22   0  22   21.99    0.97 
  20   0 -22    2.44    0.31 
 -20   0  22    2.58    0.28 
  18   0 -22    6.14    0.44 
 -18   0  22    6.27    0.40 
  16   0 -22   19.26    0.92 
 -16   0  22   19.13    0.83 
  14   0 -22   15.93    0.78 
 -14   0  22   14.62    0.68 
  12   0 -22    0.63    0.16 
 -12   0  22    0.78    0.15 
  10   0 -22    0.65    0.16 
 -10   0  22    0.88    0.16 
 -10   0  22    1.05    0.14 
   8   0 -22    5.14    0.37 
  -8   0  22    4.83    0.31 
  -8   0  22    4.73    0.29 
   6   0 -22    3.60    0.33 
  -6   0  22    2.90    0.24 
  -6   0  22    3.14    0.23 
   4   0 -22   43.25    1.77 
  -4   0  22   43.26    1.53 
  -4   0  22   41.16    1.61 
   2   0 -22    4.54    0.36 
  -2   0  22    4.30    0.31 
   0   0 -22    0.85    0.20 
   0   0  22    0.75    0.16 
  -2   0 -22    0.99    0.22 
   2   0  22    1.12    0.19 
  -4   0 -22    1.34    0.26 
   4   0  22    1.36    0.22 
  -6   0 -22    8.62    0.59 
   6   0  22   10.40    0.57 
  -8   0 -22    8.98    0.59 
   8   0  22    6.97    0.49 
 -10   0 -22    2.40    0.36 
  10   0  22    2.78    0.34 
  12   0  22    1.04    0.20 
  31  -1 -22    0.03    0.14 
 -31   1  22    0.31    0.17 
  29  -1 -22    0.03    0.14 
 -29   1  22    0.21    0.14 
  27  -1 -22    0.12    0.16 
 -27   1  22    0.17    0.14 
  25  -1 -22    0.27    0.18 
 -25   1  22    0.28    0.14 
  23  -1 -22   -0.11    0.13 
 -23   1  22    0.14    0.12 
  21  -1 -22    4.30    0.37 
 -21   1  22    3.80    0.33 
  19  -1 -22    2.94    0.33 
 -19   1  22    2.86    0.29 
  17  -1 -22    5.84    0.42 
 -17   1  22    6.45    0.39 
  15  -1 -22   14.53    0.73 
 -15   1  22   14.51    0.67 
  13  -1 -22    0.29    0.13 
 -13   1  22    0.34    0.12 
  11  -1 -22    2.99    0.27 
 -11   1  22    3.15    0.26 
 -11   1  22    3.12    0.21 
   9  -1 -22    8.95    0.49 
  -9   1  22    8.91    0.45 
  -9   1  22    8.83    0.42 
   7  -1 -22    0.05    0.08 
  -7   1  22   -0.02    0.05 
  -7   1  22   -0.13    0.07 
   5  -1 -22    0.30    0.11 
  -5   1  22    0.33    0.11 
  -5   1  22    0.32    0.12 
   3  -1 -22    5.70    0.38 
  -3   1  22    5.36    0.32 
  -3   1  22    6.73    0.37 
   1  -1 -22    0.07    0.10 
  -1   1  22    0.07    0.10 
  -1   1  22    0.05    0.06 
  -1  -1 -22    0.78    0.19 
   1   1  22    0.60    0.16 
   3   1  22    2.12    0.25 
   5   1  22    4.25    0.33 
   7   1  22    2.10    0.28 
   9   1  22    0.36    0.16 
  11   1  22    0.57    0.20 
  13   1  22    0.21    0.09 
  30  -2 -22    6.06    0.59 
 -30   2  22    6.33    0.47 
  28  -2 -22    3.27    0.43 
 -28   2  22    3.28    0.34 
  26  -2 -22    4.08    0.44 
 -26   2  22    3.81    0.36 
  24  -2 -22    3.86    0.41 
 -24   2  22    2.91    0.32 
  22  -2 -22   13.92    0.77 
 -22   2  22   12.90    0.66 
  20  -2 -22    2.65    0.31 
 -20   2  22    2.33    0.28 
  18  -2 -22    0.33    0.16 
 -18   2  22    0.33    0.14 
  16  -2 -22    0.48    0.15 
 -16   2  22    0.69    0.16 
  14  -2 -22    2.70    0.26 
 -14   2  22    2.29    0.25 
 -12   2  22   32.13    1.23 
  10  -2 -22   10.03    0.51 
 -10   2  22    9.89    0.50 
 -10   2  22    9.74    0.46 
  -8   2  22    3.12    0.25 
  -8   2  22    3.34    0.23 
  -6   2  22    3.35    0.25 
  -6   2  22    3.54    0.25 
  -4   2  22    5.38    0.34 
  -4   2  22    5.53    0.32 
  -2   2  22    1.42    0.17 
  -2   2  22    1.75    0.21 
   0   2  22    0.13    0.11 
   0   2  22    0.09    0.10 
   2   2  22    9.62    0.53 
   4   2  22    0.05    0.10 
   6   2  22    1.81    0.26 
   8   2  22    1.01    0.23 
  10   2  22    1.03    0.23 
  12   2  22   -0.05    0.16 
  29  -3 -22    2.25    0.38 
 -29   3  22    2.52    0.34 
  27  -3 -22    1.00    0.26 
 -27   3  22    1.02    0.23 
  25  -3 -22    2.31    0.36 
 -25   3  22    1.64    0.27 
  23  -3 -22    2.36    0.34 
 -23   3  22    2.04    0.28 
  21  -3 -22    5.03    0.42 
 -21   3  22    4.62    0.37 
 -19   3  22    2.29    0.28 
 -17   3  22    3.76    0.33 
 -15   3  22    0.13    0.11 
 -13   3  22   -0.12    0.08 
 -11   3  22    0.66    0.14 
  -9   3  22    2.81    0.26 
  -9   3  22    2.70    0.23 
  -7   3  22    1.77    0.20 
  -7   3  22    1.56    0.20 
  -5   3  22    0.02    0.09 
  -5   3  22   -0.06    0.09 
  -3   3  22    0.14    0.10 
  -3   3  22   -0.02    0.09 
  -1   3  22    0.02    0.10 
  -1   3  22    0.00    0.09 
   1   3  22    0.96    0.19 
   3   3  22    0.05    0.11 
   5   3  22    0.78    0.20 
   7   3  22    0.59    0.19 
   9   3  22    0.36    0.19 
 -26   4  22    2.24    0.33 
 -24   4  22    4.34    0.41 
 -22   4  22    4.47    0.40 
 -20   4  22    0.98    0.22 
 -18   4  22    1.48    0.25 
 -16   4  22    1.27    0.22 
 -14   4  22    0.18    0.12 
 -12   4  22    0.86    0.17 
 -10   4  22    6.66    0.41 
  -8   4  22    2.00    0.24 
  -8   4  22    2.17    0.23 
  -6   4  22   14.21    0.66 
  -6   4  22   14.07    0.67 
  -4   4  22    1.53    0.21 
  -4   4  22    1.19    0.21 
  -2   4  22    2.81    0.30 
  -2   4  22    2.85    0.26 
   0   4  22    1.34    0.19 
   0   4  22    1.08    0.22 
   2   4  22    0.33    0.16 
   4   4  22    2.07    0.30 
   6   4  22    0.01    0.16 
 -21   5  22   -0.14    0.16 
 -19   5  22    3.30    0.35 
 -17   5  22    0.52    0.19 
 -15   5  22    4.34    0.38 
 -13   5  22    1.88    0.25 
 -11   5  22    0.32    0.12 
  -9   5  22    2.63    0.28 
  -7   5  22    1.64    0.23 
  -5   5  22    0.88    0.20 
  -5   5  22    0.87    0.18 
  -3   5  22    0.18    0.11 
  -3   5  22    0.15    0.15 
  -1   5  22   -0.02    0.09 
  -1   5  22    0.08    0.16 
   1   5  22    0.73    0.22 
   1   5  22    0.44    0.13 
   3   5  22    3.56    0.40 
 -10   6  22    2.63    0.29 
  21   5 -23    2.93    0.44 
  19   5 -23    9.49    0.70 
  17   5 -23    0.16    0.13 
  17   5 -23    0.09    0.18 
  15   5 -23   -0.09    0.17 
  15   5 -23    0.15    0.13 
  13   5 -23    1.09    0.30 
  11   5 -23    0.02    0.19 
   9   5 -23    0.01    0.20 
   7   5 -23    4.82    0.53 
   5   5 -23    0.02    0.21 
   3   5 -23    1.16    0.31 
   1   5 -23    0.16    0.23 
  -1   5 -23    1.97    0.44 
  26   4 -23    2.47    0.44 
  24   4 -23    0.08    0.21 
  22   4 -23    1.43    0.33 
  20   4 -23    0.33    0.22 
  18   4 -23    0.35    0.19 
  16   4 -23    0.00    0.12 
  16   4 -23    0.26    0.17 
  14   4 -23    0.55    0.21 
  12   4 -23    0.65    0.22 
  10   4 -23   -0.12    0.14 
   8   4 -23    0.85    0.25 
   6   4 -23    1.87    0.34 
   4   4 -23    3.21    0.42 
   2   4 -23   -0.05    0.16 
   0   4 -23   -0.03    0.19 
  -2   4 -23   -0.11    0.19 
  -4   4 -23    0.05    0.14 
  -6   4 -23    0.67    0.21 
  29   3 -23    2.07    0.42 
  27   3 -23    4.11    0.51 
  25   3 -23    5.64    0.56 
  23   3 -23    3.79    0.45 
  21   3 -23    2.51    0.36 
  19   3 -23    6.60    0.52 
  17   3 -23    5.63    0.47 
  15   3 -23    2.62    0.35 
  13   3 -23    4.11    0.43 
  11   3 -23    0.10    0.14 
   9   3 -23   -0.04    0.13 
   7   3 -23    1.59    0.29 
   5   3 -23    1.35    0.26 
   3   3 -23    7.42    0.56 
   1   3 -23    2.86    0.38 
  -1   3 -23    0.23    0.18 
  -3   3 -23    1.70    0.33 
  -5   3 -23    0.36    0.19 
  -7   3 -23    0.21    0.16 
  -9   3 -23    0.30    0.17 
  30   2 -23    2.56    0.45 
  28   2 -23    2.24    0.40 
  26   2 -23    0.05    0.18 
  24   2 -23    0.33    0.19 
  22   2 -23    0.07    0.14 
  20   2 -23    0.44    0.18 
  18   2 -23    0.08    0.14 
  16   2 -23    0.42    0.18 
  14   2 -23    1.67    0.28 
  12   2 -23   -0.02    0.13 
  10   2 -23    0.13    0.16 
   8   2 -23    9.03    0.60 
   6   2 -23    0.31    0.16 
   4   2 -23    1.69    0.29 
   2   2 -23    0.05    0.14 
   0   2 -23    0.19    0.18 
  -2   2 -23    1.40    0.29 
  -4   2 -23    0.37    0.21 
  -6   2 -23    0.24    0.18 
  -8   2 -23    0.09    0.16 
 -10   2 -23    0.64    0.21 
  31   1 -23    1.07    0.30 
  29   1 -23    3.10    0.43 
  27   1 -23    7.53    0.59 
  25   1 -23    3.26    0.41 
  23   1 -23   23.50    1.18 
  21   1 -23    3.38    0.38 
  19   1 -23   10.60    0.65 
  17   1 -23   19.55    0.98 
  15   1 -23    8.29    0.54 
  13   1 -23    0.34    0.16 
  11   1 -23    0.47    0.17 
   9   1 -23    9.73    0.59 
   7   1 -23    1.87    0.28 
   5   1 -23    0.77    0.20 
  -5  -1  23    0.78    0.17 
   3   1 -23    4.37    0.39 
  -3  -1  23    5.15    0.36 
   1   1 -23   22.46    1.09 
  -1  -1  23   21.71    0.99 
  -1   1 -23    2.64    0.34 
   1  -1  23    2.21    0.28 
  -3   1 -23    0.37    0.18 
   3  -1  23    0.22    0.14 
  -5   1 -23    3.15    0.39 
   5  -1  23    3.46    0.37 
  -7   1 -23    0.54    0.23 
   7  -1  23    0.33    0.19 
  -9   1 -23    5.38    0.52 
   9  -1  23    4.29    0.46 
 -11   1 -23    0.12    0.16 
  11  -1  23    0.11    0.11 
  32   0 -23   -0.01    0.12 
  30   0 -23    0.02    0.12 
  28   0 -23   -0.05    0.15 
  26   0 -23    0.07    0.16 
  24   0 -23    0.19    0.16 
 -24   0  23   -0.02    0.11 
  22   0 -23    0.07    0.14 
 -22   0  23    0.12    0.11 
  20   0 -23    0.01    0.12 
 -20   0  23    0.10    0.10 
  18   0 -23   -0.06    0.11 
 -18   0  23    0.12    0.11 
  16   0 -23    0.14    0.11 
 -16   0  23    0.03    0.10 
  14   0 -23    0.05    0.11 
 -14   0  23    0.05    0.10 
  12   0 -23    0.11    0.11 
 -12   0  23   -0.10    0.07 
  10   0 -23    0.01    0.10 
 -10   0  23    0.05    0.06 
 -10   0  23   -0.01    0.07 
   8   0 -23   -0.05    0.10 
  -8   0  23   -0.07    0.07 
  -8   0  23    0.07    0.06 
   6   0 -23   -0.01    0.13 
  -6   0  23   -0.07    0.06 
  -6   0  23    0.11    0.09 
   4   0 -23   -0.03    0.12 
  -4   0  23    0.29    0.10 
  -4   0  23    0.08    0.09 
   2   0 -23    0.05    0.11 
  -2   0  23   -0.03    0.08 
  -2   0  23    0.04    0.04 
   0   0 -23    0.05    0.13 
   0   0  23   -0.01    0.09 
  -2   0 -23    0.13    0.16 
   2   0  23    0.07    0.10 
  -4   0 -23    0.04    0.16 
   4   0  23    0.03    0.10 
  -6   0 -23    0.14    0.17 
   6   0  23    0.02    0.11 
  -8   0 -23    0.11    0.18 
   8   0  23   -0.01    0.12 
  10   0  23   -0.06    0.13 
  12   0  23    0.22    0.08 
  31  -1 -23    1.09    0.25 
 -31   1  23    1.22    0.26 
  29  -1 -23    3.01    0.41 
 -29   1  23    3.36    0.36 
  27  -1 -23    7.19    0.57 
 -27   1  23    7.75    0.50 
  25  -1 -23    3.42    0.40 
 -25   1  23    2.78    0.32 
  23  -1 -23   24.74    1.21 
 -23   1  23   25.10    1.07 
  21  -1 -23    3.16    0.35 
 -21   1  23    3.14    0.31 
  19  -1 -23   10.39    0.61 
 -19   1  23   10.05    0.54 
  17  -1 -23   20.64    0.96 
 -17   1  23   18.81    0.85 
  15  -1 -23    8.16    0.49 
 -15   1  23    7.78    0.45 
  13  -1 -23    0.04    0.09 
 -13   1  23   -0.01    0.09 
  11  -1 -23    0.58    0.14 
 -11   1  23    0.82    0.16 
 -11   1  23    0.43    0.09 
   9  -1 -23   10.39    0.56 
  -9   1  23   10.38    0.49 
  -9   1  23   10.55    0.51 
   7  -1 -23    2.08    0.23 
  -7   1  23    1.87    0.20 
  -7   1  23    2.49    0.22 
   5  -1 -23    0.60    0.14 
  -5   1  23    0.44    0.12 
  -5   1  23    0.75    0.14 
   3  -1 -23    4.74    0.34 
  -3   1  23    4.19    0.28 
  -3   1  23    4.53    0.31 
   1  -1 -23   19.86    0.96 
  -1   1  23   21.98    0.91 
   1   1  23    2.50    0.27 
   3   1  23    0.41    0.14 
   5   1  23    3.55    0.34 
   7   1  23    0.46    0.17 
   9   1  23    5.23    0.43 
  11   1  23    0.27    0.16 
  30  -2 -23    2.69    0.40 
 -30   2  23    2.42    0.33 
  28  -2 -23    2.57    0.39 
 -28   2  23    2.72    0.33 
  26  -2 -23    0.14    0.16 
 -26   2  23    0.13    0.14 
  24  -2 -23    0.36    0.18 
 -24   2  23    0.33    0.15 
  22  -2 -23    0.27    0.15 
 -22   2  23    0.24    0.14 
  20  -2 -23    0.40    0.17 
 -20   2  23    0.47    0.15 
  18  -2 -23    0.17    0.13 
 -18   2  23    0.07    0.12 
  16  -2 -23    0.50    0.16 
 -16   2  23    0.68    0.16 
  14  -2 -23    1.27    0.21 
 -14   2  23    1.57    0.21 
  12  -2 -23    0.03    0.06 
 -12   2  23    0.21    0.12 
 -10   2  23    0.11    0.12 
 -10   2  23    0.24    0.08 
  -8   2  23    7.50    0.40 
  -8   2  23    8.03    0.42 
  -6   2  23    0.31    0.12 
  -6   2  23    0.39    0.11 
  -4   2  23    1.69    0.20 
  -4   2  23    1.51    0.19 
  -2   2  23    0.65    0.14 
  -2   2  23    0.57    0.15 
   0   2  23    0.44    0.14 
   2   2  23    1.51    0.23 
   4   2  23    0.14    0.11 
   6   2  23    0.18    0.13 
   8   2  23    0.39    0.16 
  10   2  23    0.50    0.20 
  29  -3 -23    2.85    0.40 
 -29   3  23    1.84    0.31 
  27  -3 -23    4.12    0.47 
 -27   3  23    3.79    0.39 
  25  -3 -23    5.25    0.51 
 -25   3  23    5.30    0.42 
 -23   3  23    4.43    0.39 
 -21   3  23    2.75    0.31 
 -19   3  23    6.03    0.41 
 -17   3  23    5.49    0.38 
 -15   3  23    2.58    0.27 
 -13   3  23    3.93    0.31 
 -11   3  23    0.26    0.12 
  -9   3  23    0.12    0.11 
  -7   3  23    1.81    0.21 
  -7   3  23    1.86    0.21 
  -5   3  23    2.09    0.23 
  -5   3  23    1.85    0.21 
  -3   3  23    7.28    0.43 
  -3   3  23    7.71    0.41 
  -1   3  23    3.03    0.29 
  -1   3  23    2.56    0.23 
   1   3  23    0.23    0.13 
   3   3  23    1.50    0.24 
   5   3  23    0.10    0.13 
   7   3  23   -0.04    0.15 
   9   3  23    0.04    0.16 
 -26   4  23    2.75    0.36 
 -24   4  23    0.13    0.17 
 -22   4  23    0.91    0.22 
 -20   4  23    0.36    0.18 
 -18   4  23    0.34    0.17 
 -16   4  23    0.15    0.12 
 -14   4  23    0.60    0.16 
 -12   4  23    1.32    0.21 
 -10   4  23    0.19    0.11 
  -8   4  23    0.83    0.17 
  -6   4  23    1.48    0.21 
  -6   4  23    2.08    0.24 
  -4   4  23    3.81    0.33 
  -4   4  23    3.83    0.30 
  -2   4  23    0.14    0.13 
  -2   4  23   -0.06    0.10 
   0   4  23    0.07    0.11 
   0   4  23    0.11    0.13 
   2   4  23    0.36    0.18 
   4   4  23    0.17    0.17 
   6   4  23    0.25    0.18 
 -21   5  23    3.57    0.40 
 -19   5  23    8.26    0.54 
 -17   5  23    0.06    0.16 
 -15   5  23    0.24    0.12 
 -13   5  23    1.31    0.21 
 -11   5  23    0.31    0.13 
  -9   5  23    0.09    0.11 
  -7   5  23    4.28    0.33 
  -5   5  23    0.05    0.10 
  -5   5  23    0.30    0.17 
  -3   5  23    0.94    0.18 
  -3   5  23    1.14    0.23 
  -1   5  23    0.44    0.14 
  -1   5  23    0.44    0.19 
   1   5  23    1.66    0.30 
  19   5 -24    1.51    0.36 
  17   5 -24    1.18    0.32 
  15   5 -24    0.23    0.14 
  15   5 -24   -0.05    0.19 
  13   5 -24    1.74    0.36 
  11   5 -24   -0.02    0.19 
   9   5 -24    2.82    0.44 
   7   5 -24    0.26    0.25 
   5   5 -24    0.32    0.27 
   3   5 -24    1.10    0.33 
   1   5 -24    0.27    0.28 
  24   4 -24    3.64    0.48 
  22   4 -24    2.02    0.37 
  20   4 -24    1.13    0.29 
  18   4 -24    3.28    0.42 
  16   4 -24   11.37    0.76 
  16   4 -24   12.60    0.64 
  14   4 -24    1.52    0.30 
  12   4 -24    0.46    0.21 
  10   4 -24    0.67    0.22 
   8   4 -24    0.08    0.18 
   6   4 -24    0.36    0.22 
   4   4 -24    0.45    0.22 
   2   4 -24    0.10    0.21 
   0   4 -24   -0.11    0.19 
  -2   4 -24    0.60    0.21 
  -4   4 -24    0.41    0.17 
  27   3 -24    0.54    0.27 
  25   3 -24    2.54    0.41 
  23   3 -24    1.58    0.33 
  21   3 -24    4.02    0.44 
  19   3 -24    0.10    0.16 
  17   3 -24    2.94    0.37 
  15   3 -24    1.32    0.27 
  13   3 -24    2.70    0.36 
  11   3 -24    2.08    0.32 
   9   3 -24    1.20    0.26 
   7   3 -24    0.65    0.23 
   5   3 -24    1.49    0.29 
   3   3 -24    1.29    0.28 
   1   3 -24    0.29    0.18 
  -1   3 -24    0.17    0.15 
  -3   3 -24    0.10    0.17 
  -5   3 -24    0.07    0.14 
  -7   3 -24    0.27    0.16 
  30   2 -24    4.58    0.55 
  28   2 -24    0.68    0.28 
  26   2 -24    0.19    0.21 
  24   2 -24    0.07    0.18 
  22   2 -24    1.56    0.30 
  20   2 -24    0.16    0.15 
  18   2 -24    3.37    0.39 
  16   2 -24   16.54    0.89 
  14   2 -24   30.55    1.41 
  12   2 -24    2.65    0.35 
  10   2 -24   50.42    2.13 
   8   2 -24    6.92    0.52 
   6   2 -24    0.83    0.23 
   4   2 -24    1.35    0.26 
   2   2 -24    1.95    0.33 
   0   2 -24    2.97    0.39 
  -2   2 -24    3.37    0.42 
  -4   2 -24    0.47    0.21 
  -6   2 -24    2.24    0.38 
  -8   2 -24    0.41    0.18 
  31   1 -24    1.90    0.33 
  29   1 -24    0.24    0.16 
  27   1 -24   -0.02    0.13 
  25   1 -24    0.45    0.20 
  23   1 -24    0.02    0.14 
  21   1 -24    1.18    0.24 
  19   1 -24    3.25    0.36 
  17   1 -24    0.52    0.19 
  15   1 -24    6.70    0.47 
  13   1 -24    4.11    0.39 
  11   1 -24    1.62    0.27 
   9   1 -24    0.50    0.18 
   7   1 -24    0.02    0.13 
   5   1 -24    0.02    0.12 
  -5  -1  24    0.19    0.11 
   3   1 -24    0.03    0.14 
  -3  -1  24    0.01    0.09 
   1   1 -24    0.28    0.16 
  -1  -1  24    0.13    0.12 
  -1   1 -24    4.43    0.43 
   1  -1  24    4.58    0.38 
  -3   1 -24    0.72    0.23 
   3  -1  24    1.08    0.23 
  -5   1 -24    2.96    0.39 
   5  -1  24    4.05    0.41 
  -7   1 -24    4.99    0.50 
   7  -1  24    4.78    0.46 
  -9   1 -24    0.34    0.21 
   9  -1  24    0.58    0.23 
 -11   1 -24    0.25    0.17 
  11  -1  24    0.28    0.12 
  32   0 -24    2.47    0.38 
  30   0 -24    0.50    0.18 
  28   0 -24    1.03    0.25 
  26   0 -24    0.53    0.21 
  24   0 -24   -0.05    0.14 
 -24   0  24   -0.01    0.10 
  22   0 -24    0.06    0.13 
 -22   0  24    0.30    0.13 
  20   0 -24    4.43    0.39 
 -20   0  24    4.36    0.37 
  18   0 -24   10.54    0.63 
 -18   0  24   10.19    0.55 
  16   0 -24   60.12    2.39 
 -16   0  24   58.26    2.14 
  14   0 -24   44.43    1.82 
 -14   0  24   42.23    1.61 
  12   0 -24    0.54    0.16 
 -12   0  24    0.59    0.15 
  10   0 -24    5.86    0.40 
 -10   0  24    4.30    0.30 
 -10   0  24    5.88    0.35 
   8   0 -24    0.11    0.12 
  -8   0  24    0.03    0.08 
  -8   0  24    0.04    0.08 
   6   0 -24    1.59    0.25 
  -6   0  24    1.54    0.20 
  -6   0  24    1.23    0.17 
   4   0 -24    0.60    0.19 
  -4   0  24    0.73    0.16 
  -4   0  24    0.63    0.13 
   2   0 -24    0.24    0.15 
  -2   0  24    0.04    0.09 
   0   0 -24   -0.16    0.12 
   0   0  24    0.13    0.11 
  -2   0 -24    0.28    0.18 
   2   0  24    0.55    0.16 
  -4   0 -24    0.72    0.22 
   4   0  24    0.72    0.19 
  -6   0 -24    0.47    0.21 
   6   0  24    0.57    0.17 
   8   0  24    0.47    0.20 
  10   0  24    0.43    0.20 
  31  -1 -24    1.77    0.31 
 -31   1  24    1.99    0.32 
  29  -1 -24   -0.10    0.13 
 -29   1  24    0.04    0.15 
  27  -1 -24    0.30    0.18 
 -27   1  24    0.43    0.18 
  25  -1 -24    0.83    0.23 
 -25   1  24    0.47    0.17 
  23  -1 -24    0.07    0.14 
 -23   1  24    0.39    0.15 
  21  -1 -24    1.01    0.22 
 -21   1  24    1.28    0.22 
  19  -1 -24    3.04    0.33 
 -19   1  24    3.06    0.30 
  17  -1 -24    0.75    0.19 
 -17   1  24    0.50    0.14 
  15  -1 -24    6.17    0.42 
 -15   1  24    6.23    0.39 
  13  -1 -24    3.94    0.32 
 -13   1  24    4.19    0.31 
  11  -1 -24    1.67    0.23 
 -11   1  24    1.95    0.23 
   9  -1 -24    0.63    0.16 
  -9   1  24    0.55    0.12 
  -9   1  24    0.63    0.15 
   7  -1 -24    0.02    0.10 
  -7   1  24    0.00    0.09 
  -7   1  24    0.10    0.07 
   5  -1 -24   -0.02    0.11 
  -5   1  24    0.21    0.10 
  -5   1  24    0.17    0.10 
   3  -1 -24   -0.01    0.12 
  -3   1  24   -0.01    0.08 
  -3   1  24    0.01    0.08 
  -1   1  24    0.28    0.12 
   1   1  24    4.50    0.34 
   3   1  24    1.31    0.23 
   5   1  24    3.73    0.36 
   7   1  24    4.31    0.40 
   9   1  24    0.75    0.23 
  11   1  24    0.21    0.18 
  30  -2 -24    5.65    0.55 
 -30   2  24    5.06    0.46 
  28  -2 -24    1.17    0.26 
 -28   2  24    0.96    0.24 
  26  -2 -24    0.31    0.18 
 -26   2  24    0.16    0.15 
  24  -2 -24    0.19    0.16 
 -24   2  24    0.04    0.12 
  22  -2 -24    1.55    0.27 
 -22   2  24    1.88    0.28 
  20  -2 -24    0.48    0.18 
 -20   2  24    0.21    0.13 
  18  -2 -24    3.47    0.34 
 -18   2  24    3.31    0.32 
  16  -2 -24   17.57    0.84 
 -16   2  24   16.51    0.77 
  14  -2 -24   29.92    1.27 
 -14   2  24   29.15    1.17 
 -12   2  24    2.38    0.25 
 -10   2  24   46.27    1.69 
  -8   2  24    7.17    0.39 
  -8   2  24    7.00    0.40 
  -6   2  24    0.63    0.14 
  -6   2  24    0.77    0.16 
  -4   2  24    1.81    0.22 
  -4   2  24    1.61    0.20 
  -2   2  24    1.87    0.23 
  -2   2  24    1.83    0.20 
   0   2  24    2.45    0.27 
   2   2  24    2.77    0.30 
   4   2  24    0.22    0.12 
   6   2  24    2.61    0.32 
   8   2  24    0.11    0.15 
  10   2  24    0.08    0.16 
  27  -3 -24    0.94    0.27 
 -27   3  24    0.71    0.22 
 -25   3  24    2.21    0.31 
 -23   3  24    1.43    0.26 
 -21   3  24    3.39    0.34 
 -19   3  24    0.09    0.14 
 -17   3  24    3.22    0.32 
 -15   3  24    1.76    0.24 
 -13   3  24    2.19    0.25 
 -11   3  24    2.05    0.25 
  -9   3  24    1.08    0.19 
  -7   3  24    0.97    0.17 
  -7   3  24    0.61    0.15 
  -5   3  24    1.55    0.20 
  -5   3  24    1.62    0.22 
  -3   3  24    0.98    0.17 
  -3   3  24    0.87    0.18 
  -1   3  24    0.36    0.12 
  -1   3  24    0.23    0.14 
   1   3  24    0.18    0.14 
   3   3  24   -0.02    0.13 
   5   3  24    0.07    0.15 
   7   3  24    0.04    0.16 
 -24   4  24    3.50    0.39 
 -22   4  24    2.12    0.32 
 -20   4  24    1.38    0.25 
 -18   4  24    3.08    0.33 
 -16   4  24   12.34    0.64 
 -14   4  24    2.20    0.27 
 -12   4  24    0.41    0.14 
 -10   4  24    0.75    0.17 
  -8   4  24    0.09    0.12 
  -6   4  24    0.20    0.12 
  -6   4  24    0.77    0.17 
  -4   4  24    0.17    0.12 
  -4   4  24    0.38    0.16 
  -2   4  24    0.15    0.14 
  -2   4  24    0.16    0.12 
   0   4  24    0.07    0.14 
   2   4  24    0.29    0.18 
   4   4  24    0.03    0.15 
 -19   5  24    1.37    0.28 
 -17   5  24    1.70    0.28 
 -15   5  24    0.18    0.10 
 -13   5  24    2.06    0.27 
 -11   5  24   -0.19    0.08 
  -9   5  24    3.49    0.33 
  -7   5  24    0.26    0.12 
  -5   5  24    0.57    0.15 
  -3   5  24    1.68    0.23 
  -3   5  24    1.91    0.29 
  -1   5  24    0.48    0.15 
  -1   5  24    0.19    0.19 
  17   5 -25   -0.05    0.21 
  15   5 -25    2.03    0.29 
  15   5 -25    2.46    0.41 
  13   5 -25    0.30    0.26 
  11   5 -25    0.59    0.30 
   9   5 -25    2.55    0.43 
   7   5 -25    0.04    0.23 
   5   5 -25    2.86    0.48 
   3   5 -25    0.15    0.28 
  24   4 -25    0.02    0.23 
  22   4 -25    0.20    0.23 
  20   4 -25    0.39    0.23 
  18   4 -25    4.14    0.48 
  16   4 -25    0.12    0.18 
  14   4 -25    0.71    0.25 
  12   4 -25   -0.05    0.15 
  10   4 -25    0.00    0.18 
   8   4 -25    1.35    0.31 
   6   4 -25    0.33    0.22 
   4   4 -25    0.42    0.24 
   2   4 -25    0.27    0.24 
   0   4 -25    0.29    0.16 
  -2   4 -25    0.13    0.15 
  27   3 -25    8.14    0.68 
  25   3 -25    0.68    0.27 
  23   3 -25    5.25    0.54 
  21   3 -25    1.70    0.32 
  19   3 -25   -0.17    0.15 
  17   3 -25    2.19    0.35 
  15   3 -25    1.39    0.28 
  13   3 -25    5.38    0.48 
  11   3 -25    6.00    0.50 
   9   3 -25    2.25    0.35 
   7   3 -25    0.65    0.22 
   5   3 -25    1.96    0.34 
   3   3 -25    0.13    0.15 
   1   3 -25    0.40    0.19 
  -1   3 -25    0.23    0.17 
  -3   3 -25    0.18    0.16 
  -5   3 -25    0.49    0.19 
  30   2 -25    0.29    0.26 
  28   2 -25    0.91    0.31 
  26   2 -25    5.00    0.54 
  24   2 -25    2.76    0.39 
  22   2 -25    2.16    0.34 
  20   2 -25    0.16    0.14 
  18   2 -25    1.93    0.32 
  16   2 -25    0.42    0.18 
  14   2 -25    0.21    0.16 
  12   2 -25   11.73    0.71 
  10   2 -25    2.34    0.34 
   8   2 -25    1.31    0.27 
   6   2 -25    4.47    0.45 
   4   2 -25    0.81    0.22 
   2   2 -25    3.11    0.40 
   0   2 -25    0.22    0.17 
  -2   2 -25    0.42    0.21 
  -4   2 -25    0.12    0.17 
  -6   2 -25    0.21    0.17 
  -8   2 -25    0.10    0.16 
  31   1 -25   13.62    0.88 
  29   1 -25    4.38    0.49 
  27   1 -25    5.13    0.52 
  25   1 -25    7.97    0.60 
  23   1 -25    3.51    0.42 
  21   1 -25    8.77    0.60 
  19   1 -25    5.14    0.43 
  17   1 -25   -0.12    0.12 
  15   1 -25    1.57    0.27 
  13   1 -25    9.01    0.58 
  11   1 -25   30.88    1.40 
   9   1 -25    0.10    0.13 
   7   1 -25    0.36    0.18 
   5   1 -25   -0.07    0.13 
  -5  -1  25    0.02    0.10 
   3   1 -25   -0.04    0.13 
  -3  -1  25   -0.03    0.09 
   1   1 -25    0.52    0.20 
  -1  -1  25    0.64    0.18 
  -1   1 -25    0.14    0.18 
   1  -1  25    0.09    0.12 
  -3   1 -25    0.81    0.25 
   3  -1  25    0.85    0.23 
  -5   1 -25    0.03    0.17 
   5  -1  25   -0.03    0.15 
  -7   1 -25    1.06    0.28 
   7  -1  25    1.04    0.27 
  -9   1 -25    0.20    0.17 
   9  -1  25   -0.08    0.17 
  30   0 -25    0.09    0.12 
  28   0 -25    0.13    0.18 
  26   0 -25    0.03    0.14 
  24   0 -25    0.19    0.16 
 -24   0  25    0.08    0.12 
  22   0 -25   -0.08    0.12 
 -22   0  25    0.04    0.11 
  20   0 -25   -0.07    0.12 
 -20   0  25    0.06    0.10 
  18   0 -25    0.03    0.13 
 -18   0  25   -0.08    0.08 
  16   0 -25    0.00    0.13 
 -16   0  25    0.12    0.11 
  14   0 -25    0.11    0.13 
 -14   0  25    0.01    0.10 
  12   0 -25   -0.15    0.11 
 -12   0  25   -0.02    0.09 
  10   0 -25   -0.03    0.11 
 -10   0  25   -0.06    0.08 
 -10   0  25    0.07    0.07 
   8   0 -25   -0.04    0.11 
  -8   0  25    0.02    0.08 
  -8   0  25   -0.02    0.07 
   6   0 -25   -0.02    0.13 
  -6   0  25    0.13    0.09 
  -6   0  25   -0.08    0.07 
   4   0 -25    0.22    0.15 
  -4   0  25    0.09    0.09 
  -4   0  25   -0.03    0.09 
   2   0 -25    0.01    0.13 
  -2   0  25   -0.08    0.09 
   0   0 -25   -0.03    0.14 
   0   0  25    0.08    0.10 
  -2   0 -25    0.03    0.15 
   2   0  25    0.02    0.10 
  -4   0 -25    0.01    0.16 
   4   0  25    0.00    0.12 
   6   0  25    0.04    0.13 
   8   0  25   -0.03    0.15 
  10   0  25   -0.10    0.17 
  31  -1 -25   12.89    0.84 
 -31   1  25   13.41    0.75 
  29  -1 -25    4.44    0.49 
 -29   1  25    4.34    0.42 
  27  -1 -25    4.60    0.48 
 -27   1  25    4.78    0.43 
  25  -1 -25    8.61    0.60 
 -25   1  25    7.92    0.52 
  23  -1 -25    3.33    0.38 
 -23   1  25    2.90    0.32 
  21  -1 -25    7.37    0.52 
 -21   1  25    7.51    0.47 
  19  -1 -25    4.51    0.38 
 -19   1  25    4.62    0.34 
  17  -1 -25   -0.04    0.11 
 -17   1  25    0.04    0.10 
  15  -1 -25    1.66    0.24 
 -15   1  25    1.10    0.20 
  13  -1 -25    9.33    0.54 
 -13   1  25    9.12    0.50 
  11  -1 -25   28.35    1.24 
 -11   1  25   28.70    1.13 
   9  -1 -25    0.05    0.11 
  -9   1  25    0.00    0.09 
  -9   1  25    0.10    0.09 
   7  -1 -25    0.44    0.14 
  -7   1  25    0.28    0.11 
  -7   1  25    0.20    0.09 
   5  -1 -25    0.07    0.11 
  -5   1  25    0.02    0.08 
  -5   1  25   -0.02    0.09 
  -3   1  25    0.06    0.09 
  -3   1  25    0.10    0.09 
  -1   1  25    0.78    0.17 
   1   1  25    0.06    0.11 
   3   1  25    0.71    0.17 
   5   1  25    0.13    0.14 
   7   1  25    1.04    0.24 
   9   1  25    0.10    0.17 
  30  -2 -25    0.81    0.21 
 -30   2  25    0.31    0.19 
  28  -2 -25    1.00    0.25 
 -28   2  25    1.31    0.27 
  26  -2 -25    4.86    0.49 
 -26   2  25    4.72    0.42 
  24  -2 -25    3.56    0.41 
 -24   2  25    3.48    0.36 
  22  -2 -25    2.15    0.31 
 -22   2  25    1.80    0.27 
  20  -2 -25    0.22    0.16 
 -20   2  25    0.16    0.14 
  18  -2 -25    1.94    0.27 
 -18   2  25    2.09    0.27 
  16  -2 -25    0.19    0.15 
 -16   2  25    0.28    0.14 
 -14   2  25   -0.02    0.09 
 -12   2  25   10.47    0.54 
 -10   2  25    2.06    0.24 
  -8   2  25    1.57    0.19 
  -8   2  25    1.59    0.21 
  -6   2  25    3.81    0.29 
  -6   2  25    4.49    0.31 
  -4   2  25    0.80    0.15 
  -4   2  25    0.99    0.17 
  -2   2  25    3.45    0.31 
   0   2  25    0.57    0.16 
   2   2  25    0.23    0.12 
   4   2  25    0.14    0.13 
   6   2  25    0.05    0.14 
   8   2  25    0.16    0.18 
 -27   3  25    8.54    0.57 
 -25   3  25    0.60    0.21 
 -23   3  25    4.73    0.43 
 -21   3  25    2.01    0.29 
 -19   3  25    0.00    0.14 
 -17   3  25    2.05    0.27 
 -15   3  25    1.13    0.21 
 -13   3  25    5.82    0.39 
 -11   3  25    6.16    0.39 
  -9   3  25    1.87    0.23 
  -7   3  25    0.49    0.14 
  -7   3  25    0.79    0.16 
  -5   3  25    1.44    0.21 
  -5   3  25    2.13    0.24 
  -3   3  25    0.12    0.11 
  -3   3  25   -0.04    0.09 
  -1   3  25    0.55    0.16 
   1   3  25   -0.04    0.11 
   3   3  25    0.03    0.13 
   5   3  25    0.62    0.21 
 -24   4  25    0.21    0.21 
 -22   4  25    0.39    0.20 
 -20   4  25    0.44    0.19 
 -18   4  25    3.66    0.36 
 -16   4  25    0.16    0.12 
 -14   4  25    0.64    0.16 
 -12   4  25   -0.05    0.08 
 -10   4  25   -0.01    0.10 
  -8   4  25    1.18    0.20 
  -6   4  25    0.40    0.15 
  -6   4  25    0.63    0.17 
  -4   4  25    0.32    0.14 
  -4   4  25    0.41    0.16 
  -2   4  25    0.87    0.19 
  -2   4  25    1.32    0.23 
   0   4  25    0.34    0.16 
   2   4  25   -0.06    0.16 
 -19   5  25    0.58    0.22 
 -17   5  25    0.32    0.12 
 -15   5  25    2.07    0.27 
 -13   5  25    0.46    0.13 
 -11   5  25    0.77    0.17 
  -9   5  25    2.08    0.26 
  -7   5  25    0.19    0.11 
  -5   5  25    4.18    0.32 
  -3   5  25    0.44    0.13 
  -3   5  25    0.33    0.19 
  15   5 -26    0.99    0.33 
  15   5 -26    1.36    0.23 
  13   5 -26   -0.18    0.21 
  11   5 -26    0.37    0.29 
   9   5 -26    0.18    0.26 
   7   5 -26    3.57    0.52 
  24   4 -26    6.68    0.64 
  22   4 -26    4.14    0.50 
  20   4 -26    2.07    0.39 
  18   4 -26    2.22    0.38 
  16   4 -26    0.27    0.21 
  14   4 -26    0.28    0.20 
  12   4 -26    0.37    0.21 
  10   4 -26    0.54    0.24 
   8   4 -26   -0.01    0.22 
   6   4 -26    1.34    0.33 
   4   4 -26    0.54    0.26 
   2   4 -26    3.00    0.42 
   0   4 -26    0.23    0.14 
  27   3 -26   -0.26    0.20 
  25   3 -26    0.05    0.19 
  23   3 -26    2.61    0.41 
  21   3 -26    2.94    0.41 
  19   3 -26    2.63    0.38 
  17   3 -26    0.06    0.17 
  15   3 -26    0.01    0.16 
  13   3 -26    0.40    0.18 
  11   3 -26    0.22    0.18 
   9   3 -26    0.03    0.15 
   7   3 -26    1.69    0.33 
   5   3 -26    0.05    0.15 
   3   3 -26   -0.01    0.14 
   1   3 -26   -0.05    0.13 
  -1   3 -26    0.18    0.15 
  -3   3 -26    0.00    0.13 
  -5   3 -26    0.14    0.15 
  28   2 -26    3.57    0.50 
  26   2 -26   10.41    0.74 
  24   2 -26    1.48    0.29 
  22   2 -26    6.98    0.55 
  20   2 -26    4.99    0.48 
  18   2 -26    3.48    0.40 
  16   2 -26    0.09    0.15 
  14   2 -26    1.05    0.26 
  12   2 -26    0.49    0.19 
  10   2 -26    4.15    0.43 
   8   2 -26    0.15    0.17 
   6   2 -26    0.87    0.25 
   4   2 -26    0.31    0.19 
   2   2 -26    4.01    0.45 
   0   2 -26    0.78    0.24 
  -2   2 -26    0.08    0.16 
  -4   2 -26    0.82    0.24 
  -6   2 -26    0.04    0.16 
  31   1 -26    2.56    0.37 
  29   1 -26    2.27    0.37 
  27   1 -26    1.51    0.30 
  25   1 -26    6.12    0.52 
  23   1 -26    4.70    0.47 
  21   1 -26    0.18    0.16 
  19   1 -26    0.10    0.13 
  17   1 -26    1.02    0.23 
  15   1 -26    4.71    0.41 
  13   1 -26    0.48    0.18 
  11   1 -26    9.89    0.63 
   9   1 -26    8.16    0.56 
   7   1 -26    0.59    0.20 
   5   1 -26    2.06    0.31 
  -5  -1  26    1.93    0.27 
   3   1 -26   -0.01    0.13 
  -3  -1  26    0.20    0.13 
   1   1 -26    0.35    0.20 
  -1  -1  26    0.25    0.15 
  -1   1 -26    1.24    0.28 
   1  -1  26    0.79    0.22 
  -3   1 -26    1.68    0.32 
   3  -1  26    1.67    0.29 
  -5   1 -26    2.47    0.38 
   5  -1  26    2.32    0.35 
  -7   1 -26    0.73    0.24 
   7  -1  26    0.28    0.20 
  30   0 -26    0.48    0.16 
  28   0 -26    6.00    0.52 
  26   0 -26   15.90    0.92 
  24   0 -26    9.32    0.64 
 -24   0  26    9.38    0.57 
  22   0 -26   11.72    0.73 
 -22   0  26   12.58    0.66 
  20   0 -26    0.49    0.18 
 -20   0  26    0.34    0.14 
  18   0 -26    0.15    0.14 
 -18   0  26   -0.04    0.08 
  16   0 -26    0.90    0.21 
 -16   0  26    0.77    0.18 
  14   0 -26   26.73    1.19 
 -14   0  26   24.08    1.05 
  12   0 -26    0.15    0.14 
 -12   0  26    0.24    0.12 
  10   0 -26    0.55    0.17 
 -10   0  26    0.47    0.14 
 -10   0  26    0.38    0.11 
   8   0 -26    0.42    0.17 
  -8   0  26    0.31    0.12 
  -8   0  26    0.41    0.13 
   6   0 -26    1.31    0.25 
  -6   0  26    1.20    0.20 
  -6   0  26    1.86    0.21 
   4   0 -26    5.51    0.44 
  -4   0  26    5.05    0.37 
   2   0 -26    1.93    0.29 
  -2   0  26    1.77    0.25 
   0   0 -26    3.46    0.37 
   0   0  26    2.96    0.33 
  -2   0 -26    1.20    0.27 
   2   0  26    1.40    0.24 
  -4   0 -26    1.26    0.28 
   4   0  26    1.42    0.26 
   6   0  26    0.88    0.24 
   8   0  26    0.07    0.18 
  31  -1 -26    2.67    0.40 
 -31   1  26    3.44    0.41 
  29  -1 -26    2.18    0.36 
 -29   1  26    1.95    0.31 
  27  -1 -26    1.78    0.31 
 -27   1  26    1.49    0.28 
  25  -1 -26    4.71    0.48 
 -25   1  26    6.03    0.44 
  23  -1 -26    4.79    0.45 
 -23   1  26    4.07    0.38 
  21  -1 -26    0.30    0.17 
 -21   1  26    0.31    0.15 
  19  -1 -26   -0.01    0.12 
 -19   1  26    0.03    0.10 
  17  -1 -26    1.29    0.24 
 -17   1  26    1.47    0.23 
  15  -1 -26    4.84    0.38 
 -15   1  26    4.34    0.33 
  13  -1 -26    0.45    0.16 
 -13   1  26    0.41    0.13 
  11  -1 -26    8.46    0.51 
 -11   1  26    7.90    0.45 
   9  -1 -26    6.91    0.46 
  -9   1  26    7.58    0.41 
  -9   1  26    7.45    0.42 
   7  -1 -26    0.64    0.17 
  -7   1  26    0.60    0.14 
  -7   1  26    0.46    0.13 
  -5   1  26    1.64    0.22 
  -5   1  26    1.34    0.19 
  -3   1  26    0.29    0.11 
  -1   1  26    0.38    0.13 
   1   1  26    0.96    0.21 
   3   1  26    2.47    0.31 
   5   1  26    2.46    0.32 
   7   1  26    1.04    0.25 
  28  -2 -26    3.47    0.43 
 -28   2  26    3.66    0.40 
  26  -2 -26   11.18    0.73 
 -26   2  26   11.30    0.65 
  24  -2 -26    1.21    0.27 
 -24   2  26    1.75    0.27 
  22  -2 -26    7.24    0.53 
 -22   2  26    7.55    0.49 
  20  -2 -26    6.07    0.45 
 -20   2  26    5.63    0.41 
  18  -2 -26    3.97    0.37 
 -18   2  26    3.62    0.34 
 -16   2  26    0.09    0.11 
 -14   2  26    1.10    0.20 
 -12   2  26    0.43    0.15 
 -10   2  26    4.06    0.31 
  -8   2  26    0.01    0.08 
  -8   2  26    0.17    0.11 
  -6   2  26    1.20    0.19 
  -6   2  26    1.12    0.18 
  -4   2  26    0.68    0.15 
  -4   2  26    0.45    0.14 
  -2   2  26    4.01    0.32 
   0   2  26    0.58    0.16 
   2   2  26    0.28    0.14 
   4   2  26    0.90    0.22 
   6   2  26    0.08    0.16 
 -27   3  26   -0.04    0.17 
 -25   3  26    0.21    0.19 
 -23   3  26    2.67    0.34 
 -21   3  26    2.65    0.33 
 -19   3  26    2.88    0.32 
 -17   3  26    0.28    0.14 
 -15   3  26    0.23    0.13 
 -13   3  26    0.41    0.14 
 -11   3  26    0.62    0.16 
  -9   3  26    0.11    0.12 
  -7   3  26    1.82    0.22 
  -7   3  26    1.57    0.22 
  -5   3  26    0.24    0.12 
  -5   3  26    0.19    0.12 
  -3   3  26   -0.05    0.09 
  -3   3  26    0.04    0.11 
  -1   3  26    0.06    0.13 
   1   3  26    0.36    0.16 
   3   3  26    0.06    0.15 
   5   3  26    0.10    0.17 
 -24   4  26    5.12    0.47 
 -22   4  26    4.24    0.42 
 -20   4  26    1.94    0.32 
 -18   4  26    1.81    0.27 
 -16   4  26    0.27    0.13 
 -14   4  26    0.14    0.12 
 -12   4  26    0.23    0.13 
 -10   4  26    0.21    0.12 
  -8   4  26    0.01    0.11 
  -6   4  26    1.34    0.21 
  -4   4  26    0.22    0.13 
  -4   4  26    0.52    0.17 
  -2   4  26    2.79    0.32 
   0   4  26    0.07    0.16 
 -15   5  26    1.33    0.21 
 -13   5  26    0.08    0.10 
 -11   5  26    0.58    0.14 
  -9   5  26    0.07    0.09 
  -7   5  26    2.40    0.28 
  22   4 -27    0.40    0.27 
  20   4 -27    0.99    0.31 
  18   4 -27    1.92    0.37 
  16   4 -27    0.95    0.29 
  14   4 -27    0.19    0.21 
  12   4 -27    0.06    0.20 
  10   4 -27    0.10    0.20 
   8   4 -27   -0.04    0.22 
   6   4 -27    0.37    0.25 
   4   4 -27    0.07    0.15 
   2   4 -27    0.77    0.20 
  27   3 -27   -0.16    0.23 
  25   3 -27    0.34    0.24 
  23   3 -27    6.31    0.61 
  21   3 -27    0.77    0.27 
  19   3 -27    2.66    0.40 
  17   3 -27    1.54    0.31 
  15   3 -27    7.07    0.55 
  13   3 -27    2.01    0.35 
  11   3 -27    0.52    0.20 
   9   3 -27    1.87    0.33 
   7   3 -27    0.04    0.15 
   5   3 -27    0.34    0.17 
   3   3 -27    2.40    0.36 
   1   3 -27    1.71    0.32 
  -1   3 -27    1.03    0.26 
  -3   3 -27    0.59    0.21 
  28   2 -27    0.14    0.25 
  26   2 -27    0.11    0.13 
  24   2 -27    0.20    0.15 
  22   2 -27    1.96    0.34 
  20   2 -27    0.62    0.21 
  18   2 -27    0.72    0.22 
  16   2 -27    0.05    0.13 
  14   2 -27    2.36    0.35 
  12   2 -27    1.86    0.32 
  10   2 -27    0.40    0.19 
   8   2 -27    0.41    0.20 
   6   2 -27    0.01    0.16 
   4   2 -27    1.51    0.31 
   2   2 -27    0.12    0.17 
   0   2 -27    1.54    0.31 
  -2   2 -27    0.13    0.17 
  -4   2 -27    0.42    0.20 
  29   1 -27    0.36    0.15 
  27   1 -27    0.14    0.15 
  25   1 -27    0.35    0.17 
  23   1 -27    5.79    0.49 
  21   1 -27    0.49    0.20 
  19   1 -27    2.39    0.34 
  17   1 -27    3.24    0.38 
  15   1 -27    5.31    0.45 
  13   1 -27    7.94    0.55 
  11   1 -27    1.03    0.25 
   9   1 -27   13.75    0.79 
   7   1 -27    0.18    0.17 
   5   1 -27    4.79    0.46 
   3   1 -27    2.47    0.35 
  -3  -1  27    3.39    0.36 
   1   1 -27    0.67    0.23 
  -1  -1  27    0.67    0.18 
  -1   1 -27    2.69    0.39 
   1  -1  27    3.56    0.39 
  -3   1 -27    1.13    0.29 
   3  -1  27    1.43    0.28 
  -5   1 -27    0.71    0.22 
   5  -1  27    0.40    0.21 
  -7   1 -27    0.88    0.25 
   7  -1  27    0.35    0.23 
  30   0 -27    0.13    0.13 
  28   0 -27    0.11    0.15 
  26   0 -27    0.10    0.15 
  24   0 -27    0.10    0.15 
 -24   0  27    0.09    0.14 
  22   0 -27   -0.02    0.13 
 -22   0  27    0.11    0.12 
  20   0 -27   -0.02    0.12 
 -20   0  27   -0.08    0.08 
  18   0 -27    0.06    0.14 
 -18   0  27   -0.01    0.11 
  16   0 -27   -0.01    0.12 
 -16   0  27   -0.02    0.11 
  14   0 -27    0.06    0.14 
 -14   0  27   -0.07    0.10 
  12   0 -27   -0.04    0.13 
 -12   0  27    0.00    0.09 
  10   0 -27    0.11    0.14 
 -10   0  27    0.10    0.10 
 -10   0  27   -0.01    0.09 
   8   0 -27   -0.02    0.12 
  -8   0  27   -0.02    0.08 
  -8   0  27    0.17    0.10 
   6   0 -27   -0.04    0.13 
  -6   0  27    0.12    0.11 
  -6   0  27    0.10    0.09 
   4   0 -27    0.10    0.16 
  -4   0  27    0.18    0.11 
   2   0 -27   -0.08    0.13 
  -2   0  27    0.03    0.11 
   0   0 -27   -0.12    0.15 
   0   0  27    0.15    0.13 
  -2   0 -27    0.07    0.18 
   2   0  27    0.12    0.13 
   4   0  27    0.21    0.16 
   6   0  27   -0.03    0.15 
  29  -1 -27    0.96    0.25 
 -29   1  27    0.51    0.21 
  27  -1 -27    0.07    0.16 
 -27   1  27    0.23    0.18 
  25  -1 -27    0.61    0.21 
 -25   1  27    0.54    0.19 
  23  -1 -27    5.54    0.46 
 -23   1  27    5.63    0.43 
  21  -1 -27    0.55    0.19 
 -21   1  27    0.49    0.16 
  19  -1 -27    2.06    0.29 
 -19   1  27    2.27    0.28 
  17  -1 -27    3.04    0.33 
 -17   1  27    2.84    0.30 
  15  -1 -27    5.97    0.43 
 -15   1  27    5.07    0.37 
  13  -1 -27    6.90    0.47 
 -13   1  27    7.86    0.45 
  11  -1 -27    1.09    0.21 
 -11   1  27    0.55    0.15 
   9  -1 -27   12.94    0.69 
  -9   1  27   13.34    0.62 
  -9   1  27   12.10    0.61 
  -7   1  27    0.31    0.13 
  -7   1  27    0.22    0.10 
  -5   1  27    4.98    0.35 
  -5   1  27    4.81    0.32 
  -3   1  27    2.17    0.26 
  -1   1  27    0.61    0.16 
   1   1  27    2.85    0.32 
   3   1  27    0.90    0.21 
   5   1  27    0.79    0.22 
   7   1  27    0.53    0.22 
  28  -2 -27    0.77    0.21 
 -28   2  27    0.55    0.22 
  26  -2 -27    0.33    0.17 
 -26   2  27    0.00    0.16 
  24  -2 -27    0.13    0.16 
 -24   2  27   -0.05    0.14 
  22  -2 -27    1.84    0.30 
 -22   2  27    1.92    0.29 
  20  -2 -27    0.65    0.19 
 -20   2  27    0.53    0.16 
 -18   2  27    0.74    0.19 
 -16   2  27    0.28    0.13 
 -14   2  27    2.63    0.29 
 -12   2  27    1.69    0.24 
 -10   2  27    0.32    0.14 
  -8   2  27    0.26    0.13 
  -8   2  27    0.50    0.13 
  -6   2  27   -0.12    0.08 
  -6   2  27    0.24    0.10 
  -4   2  27    1.29    0.20 
  -4   2  27    1.57    0.23 
  -2   2  27    0.25    0.13 
   0   2  27    1.66    0.26 
   2   2  27    0.08    0.14 
   4   2  27    0.28    0.18 
   6   2  27    0.40    0.20 
 -27   3  27    0.14    0.20 
 -25   3  27    0.43    0.20 
 -23   3  27    5.77    0.45 
 -21   3  27    0.96    0.24 
 -19   3  27    2.38    0.30 
 -17   3  27    1.30    0.22 
 -15   3  27    7.02    0.45 
 -13   3  27    2.23    0.28 
 -11   3  27    0.64    0.16 
  -9   3  27    1.60    0.23 
  -7   3  27    0.02    0.11 
  -5   3  27    0.59    0.15 
  -5   3  27    0.73    0.16 
  -3   3  27    2.75    0.30 
  -1   3  27    1.28    0.23 
   1   3  27    1.13    0.23 
   3   3  27    0.27    0.18 
 -22   4  27    0.50    0.23 
 -20   4  27    1.33    0.28 
 -18   4  27    2.06    0.28 
 -16   4  27    0.77    0.18 
 -14   4  27    0.20    0.13 
 -12   4  27    0.27    0.13 
 -10   4  27    0.07    0.12 
  -8   4  27    0.10    0.12 
  -6   4  27    0.44    0.15 
  -4   4  27   -0.02    0.11 
  -4   4  27   -0.01    0.14 
  -2   4  27    0.84    0.22 
  20   4 -28    2.84    0.46 
  18   4 -28    0.61    0.28 
  16   4 -28    1.38    0.34 
  14   4 -28    1.05    0.31 
  12   4 -28   -0.10    0.20 
  10   4 -28    2.35    0.41 
   8   4 -28    1.86    0.40 
   6   4 -28    0.02    0.12 
   4   4 -28    0.13    0.13 
  25   3 -28    2.81    0.45 
  23   3 -28    0.18    0.21 
  21   3 -28    0.81    0.27 
  19   3 -28    0.71    0.25 
  17   3 -28    0.82    0.23 
  15   3 -28    0.29    0.18 
  13   3 -28   -0.15    0.13 
  11   3 -28    2.23    0.36 
   9   3 -28    0.19    0.15 
   7   3 -28    0.00    0.13 
   5   3 -28    0.64    0.20 
   3   3 -28    0.15    0.15 
   1   3 -28    0.26    0.16 
  -1   3 -28    0.46    0.16 
  28   2 -28    0.41    0.17 
  26   2 -28    3.43    0.45 
  24   2 -28    7.55    0.59 
  22   2 -28    0.86    0.23 
  20   2 -28    0.50    0.20 
  18   2 -28    0.02    0.13 
  16   2 -28    1.11    0.27 
  14   2 -28    9.15    0.63 
  12   2 -28    5.46    0.51 
  10   2 -28    6.36    0.52 
   8   2 -28    0.05    0.16 
   6   2 -28   -0.03    0.15 
   4   2 -28    0.56    0.22 
   2   2 -28    1.62    0.32 
   0   2 -28    0.12    0.16 
  -2   2 -28    0.06    0.15 
  -4   2 -28    0.28    0.16 
  29   1 -28    1.09    0.24 
  27   1 -28    0.37    0.17 
  25   1 -28    0.56    0.20 
  23   1 -28    0.75    0.22 
  21   1 -28    0.84    0.24 
  19   1 -28    0.13    0.15 
  17   1 -28    1.37    0.28 
  15   1 -28    0.46    0.19 
  13   1 -28    0.91    0.24 
  11   1 -28    0.33    0.18 
   9   1 -28    7.08    0.53 
   7   1 -28   -0.01    0.16 
   5   1 -28    0.15    0.17 
   3   1 -28    0.10    0.15 
  -3  -1  28    0.14    0.13 
   1   1 -28   -0.05    0.16 
  -1  -1  28    0.05    0.14 
  -1   1 -28    1.13    0.29 
   1  -1  28    1.22    0.26 
  -3   1 -28    0.35    0.21 
   3  -1  28    0.16    0.18 
  -5   1 -28    0.30    0.18 
   5  -1  28    0.14    0.20 
  30   0 -28   15.12    0.94 
  28   0 -28    6.28    0.52 
  26   0 -28    5.72    0.49 
  24   0 -28    0.12    0.16 
 -24   0  28    0.08    0.13 
  22   0 -28    0.49    0.20 
 -22   0  28    0.42    0.15 
  20   0 -28   -0.08    0.13 
 -20   0  28    0.10    0.12 
  18   0 -28   13.84    0.77 
 -18   0  28   12.95    0.68 
  16   0 -28    7.60    0.53 
 -16   0  28    7.45    0.47 
  14   0 -28    2.17    0.31 
 -14   0  28    2.39    0.28 
  12   0 -28    0.87    0.23 
 -12   0  28    0.98    0.19 
  10   0 -28   31.11    1.40 
 -10   0  28   30.88    1.23 
 -10   0  28   30.61    1.26 
   8   0 -28    0.15    0.15 
  -8   0  28    0.04    0.10 
  -8   0  28    0.03    0.09 
   6   0 -28    0.27    0.15 
  -6   0  28    0.34    0.12 
  -6   0  28    0.37    0.13 
   4   0 -28    0.63    0.21 
  -4   0  28    1.21    0.22 
   2   0 -28    1.93    0.31 
  -2   0  28    1.81    0.27 
   0   0 -28    2.31    0.34 
   0   0  28    1.89    0.29 
   2   0  28    0.39    0.19 
   4   0  28    1.02    0.27 
   6   0  28    1.62    0.33 
  29  -1 -28    1.19    0.24 
 -29   1  28    1.44    0.29 
  27  -1 -28    0.07    0.15 
 -27   1  28    0.13    0.16 
  25  -1 -28    0.43    0.19 
 -25   1  28    0.37    0.18 
  23  -1 -28    0.10    0.16 
 -23   1  28    0.56    0.20 
  21  -1 -28    0.89    0.23 
 -21   1  28    0.91    0.20 
  19  -1 -28    0.18    0.14 
 -19   1  28    0.15    0.11 
  17  -1 -28    1.03    0.22 
 -17   1  28    1.18    0.21 
  15  -1 -28    0.37    0.16 
 -15   1  28    0.33    0.14 
  13  -1 -28    1.44    0.24 
 -13   1  28    1.30    0.21 
  11  -1 -28    0.34    0.16 
 -11   1  28    0.29    0.12 
  -9   1  28    7.20    0.43 
  -7   1  28    0.06    0.08 
  -7   1  28    0.10    0.10 
  -5   1  28    0.28    0.12 
  -3   1  28    0.37    0.13 
  -1   1  28   -0.02    0.10 
   1   1  28    1.07    0.23 
   3   1  28    0.30    0.17 
   5   1  28    0.04    0.16 
  28  -2 -28    0.16    0.16 
 -28   2  28    0.26    0.20 
  26  -2 -28    2.85    0.38 
 -26   2  28    2.70    0.36 
  24  -2 -28    8.08    0.58 
 -24   2  28    7.89    0.54 
  22  -2 -28    0.91    0.24 
 -22   2  28    0.74    0.21 
 -20   2  28    0.75    0.19 
 -18   2  28    0.13    0.12 
 -16   2  28    1.29    0.23 
 -14   2  28    8.51    0.50 
 -12   2  28    5.08    0.37 
 -10   2  28    6.68    0.42 
  -8   2  28    0.13    0.11 
  -6   2  28    0.25    0.12 
  -6   2  28    0.20    0.11 
  -4   2  28    0.67    0.15 
  -2   2  28    1.48    0.23 
   0   2  28    0.16    0.13 
   2   2  28    0.15    0.14 
   4   2  28    0.10    0.16 
 -25   3  28    2.29    0.35 
 -23   3  28    0.35    0.19 
 -21   3  28    0.49    0.20 
 -19   3  28    0.56    0.17 
 -17   3  28    0.92    0.18 
 -15   3  28    0.28    0.14 
 -13   3  28    0.02    0.11 
 -11   3  28    2.15    0.27 
  -9   3  28    0.04    0.12 
  -7   3  28   -0.16    0.10 
  -5   3  28    0.82    0.18 
  -5   3  28    0.72    0.18 
  -3   3  28   -0.01    0.12 
  -1   3  28    0.16    0.16 
   1   3  28    0.06    0.16 
 -20   4  28    3.04    0.34 
 -18   4  28    0.59    0.16 
 -16   4  28    1.22    0.22 
 -14   4  28    1.27    0.22 
 -12   4  28    0.35    0.13 
 -10   4  28    1.84    0.26 
  -8   4  28    1.66    0.24 
  -6   4  28    0.17    0.12 
  18   4 -29    2.79    0.46 
  16   4 -29    1.41    0.35 
  14   4 -29   -0.07    0.21 
  12   4 -29    0.61    0.29 
  10   4 -29    0.41    0.28 
   8   4 -29    0.27    0.16 
   6   4 -29    0.21    0.17 
  25   3 -29    1.51    0.37 
  23   3 -29    1.11    0.32 
  21   3 -29    5.71    0.58 
  19   3 -29    3.20    0.42 
  17   3 -29    0.13    0.13 
  15   3 -29    0.21    0.17 
  13   3 -29    0.12    0.15 
  11   3 -29    3.20    0.43 
   9   3 -29    1.27    0.28 
   7   3 -29    0.47    0.18 
   5   3 -29    0.26    0.17 
   3   3 -29    0.38    0.18 
   1   3 -29    0.86    0.22 
  26   2 -29    1.31    0.27 
  24   2 -29    0.41    0.17 
  22   2 -29    3.29    0.42 
  20   2 -29    0.14    0.14 
  18   2 -29    0.63    0.20 
  16   2 -29    1.28    0.28 
  14   2 -29    0.16    0.15 
  12   2 -29    0.72    0.22 
  10   2 -29    0.30    0.18 
   8   2 -29   -0.07    0.15 
   6   2 -29    0.98    0.25 
   4   2 -29   -0.04    0.16 
   2   2 -29    0.59    0.21 
   0   2 -29    0.28    0.17 
  -2   2 -29    0.19    0.17 
  29   1 -29    1.91    0.32 
  27   1 -29    0.88    0.23 
  25   1 -29    5.63    0.49 
  23   1 -29    4.69    0.48 
  21   1 -29    4.69    0.48 
  19   1 -29    0.24    0.16 
  17   1 -29    0.25    0.17 
  15   1 -29    6.42    0.51 
  13   1 -29    1.36    0.28 
  11   1 -29    0.61    0.22 
   9   1 -29    2.10    0.33 
   7   1 -29   -0.10    0.14 
   5   1 -29    0.51    0.21 
   3   1 -29    1.67    0.32 
  -3  -1  29    1.94    0.31 
   1   1 -29    1.55    0.30 
  -1  -1  29    1.39    0.29 
  -1   1 -29    0.33    0.20 
   1  -1  29   -0.02    0.17 
  -3   1 -29    0.17    0.16 
   3  -1  29    0.46    0.23 
  28   0 -29    0.12    0.13 
  26   0 -29    0.10    0.13 
  24   0 -29    0.09    0.14 
 -24   0  29    0.12    0.15 
  22   0 -29    0.07    0.13 
 -22   0  29    0.11    0.11 
  20   0 -29    0.01    0.13 
 -20   0  29    0.05    0.10 
  18   0 -29   -0.01    0.13 
 -18   0  29   -0.12    0.09 
  16   0 -29    0.12    0.15 
 -16   0  29    0.12    0.12 
  14   0 -29    0.08    0.15 
 -14   0  29   -0.09    0.09 
  12   0 -29   -0.05    0.14 
 -12   0  29    0.08    0.11 
  10   0 -29    0.42    0.18 
 -10   0  29    0.03    0.10 
   8   0 -29   -0.09    0.15 
  -8   0  29    0.01    0.09 
  -8   0  29    0.08    0.10 
   6   0 -29    0.03    0.15 
  -6   0  29    0.27    0.12 
   4   0 -29    0.21    0.18 
  -4   0  29    0.17    0.14 
   2   0 -29   -0.12    0.16 
  -2   0  29    0.12    0.13 
   0   0  29    0.10    0.15 
   2   0  29    0.01    0.17 
   4   0  29    0.20    0.20 
  29  -1 -29    1.84    0.32 
 -29   1  29    2.00    0.34 
  27  -1 -29    1.13    0.26 
 -27   1  29    0.60    0.23 
  25  -1 -29    6.05    0.50 
 -25   1  29    5.95    0.50 
  23  -1 -29    4.26    0.45 
 -23   1  29    3.95    0.40 
  21  -1 -29    4.83    0.42 
 -21   1  29    3.48    0.36 
  19  -1 -29    0.34    0.17 
 -19   1  29    0.34    0.14 
  17  -1 -29    0.50    0.18 
 -17   1  29    0.29    0.13 
  15  -1 -29    6.27    0.45 
 -15   1  29    5.82    0.41 
  13  -1 -29    1.49    0.25 
 -13   1  29    1.69    0.24 
 -11   1  29    0.76    0.18 
  -9   1  29    1.92    0.24 
  -7   1  29    0.09    0.09 
  -7   1  29    0.06    0.09 
  -5   1  29    0.80    0.18 
  -3   1  29    1.85    0.26 
  -1   1  29    1.75    0.27 
   1   1  29    0.10    0.14 
   3   1  29    0.44    0.20 
  26  -2 -29    0.96    0.25 
 -26   2  29    0.85    0.25 
 -24   2  29    0.40    0.20 
 -22   2  29    3.58    0.36 
 -20   2  29    0.28    0.14 
 -18   2  29    0.44    0.15 
 -16   2  29    1.06    0.21 
 -14   2  29    0.09    0.12 
 -12   2  29    0.43    0.14 
 -10   2  29    0.27    0.13 
  -8   2  29   -0.10    0.10 
  -6   2  29    1.11    0.19 
  -6   2  29    0.99    0.19 
  -4   2  29    0.04    0.11 
  -2   2  29    0.29    0.14 
   0   2  29    0.04    0.14 
   2   2  29    0.16    0.17 
 -25   3  29    1.87    0.33 
 -23   3  29    1.59    0.29 
 -21   3  29    4.62    0.41 
 -19   3  29    3.51    0.36 
 -17   3  29    0.14    0.12 
 -15   3  29    0.00    0.10 
 -13   3  29   -0.07    0.12 
 -11   3  29    3.15    0.32 
  -9   3  29    1.50    0.24 
  -7   3  29    0.51    0.17 
  -5   3  29    0.24    0.14 
  -3   3  29    0.38    0.15 
  -1   3  29    0.91    0.21 
 -18   4  29    2.90    0.33 
 -16   4  29    1.19    0.21 
 -14   4  29    0.09    0.10 
 -12   4  29    0.86    0.18 
 -10   4  29    0.65    0.16 
  -8   4  29    0.58    0.16 
  -6   4  29    0.09    0.10 
  16   4 -30    1.00    0.33 
  14   4 -30    2.13    0.42 
  12   4 -30   -0.07    0.22 
  10   4 -30    1.70    0.31 
  23   3 -30   -0.07    0.22 
  21   3 -30    0.16    0.15 
  19   3 -30    1.15    0.25 
  17   3 -30    0.31    0.17 
  15   3 -30    0.85    0.23 
  13   3 -30    0.04    0.15 
  11   3 -30    0.15    0.14 
   9   3 -30    0.00    0.12 
   7   3 -30    0.13    0.16 
   5   3 -30    0.20    0.15 
   3   3 -30    0.63    0.18 
  26   2 -30    1.00    0.22 
  24   2 -30    1.88    0.32 
  22   2 -30    3.35    0.42 
  20   2 -30    4.05    0.46 
  18   2 -30    1.86    0.32 
  16   2 -30    0.31    0.18 
  14   2 -30    0.35    0.18 
  12   2 -30    0.47    0.20 
  10   2 -30    0.72    0.23 
   8   2 -30    0.06    0.16 
   6   2 -30    1.99    0.34 
   4   2 -30    1.54    0.31 
   2   2 -30    1.38    0.29 
   0   2 -30    1.48    0.29 
  27   1 -30    0.10    0.14 
  25   1 -30    0.33    0.17 
  23   1 -30    1.23    0.26 
  21   1 -30    0.04    0.13 
  19   1 -30    0.21    0.15 
  17   1 -30    0.17    0.15 
  15   1 -30    2.41    0.36 
  13   1 -30    0.19    0.18 
  11   1 -30    0.12    0.14 
   9   1 -30    0.69    0.23 
   7   1 -30    0.43    0.21 
   5   1 -30   -0.07    0.15 
   3   1 -30    1.28    0.29 
   1   1 -30    0.15    0.17 
  -1  -1  30    0.08    0.17 
  -1   1 -30    0.08    0.16 
   1  -1  30    0.19    0.19 
  28   0 -30    0.41    0.17 
  26   0 -30    0.16    0.15 
  24   0 -30    0.89    0.23 
 -24   0  30    1.24    0.23 
  22   0 -30    8.68    0.61 
 -22   0  30    7.96    0.52 
  20   0 -30    0.04    0.16 
 -20   0  30    0.28    0.12 
  18   0 -30    1.54    0.27 
 -18   0  30    1.26    0.23 
  16   0 -30    8.30    0.57 
 -16   0  30    7.45    0.48 
  14   0 -30    3.62    0.39 
 -14   0  30    4.01    0.35 
  12   0 -30   10.70    0.67 
 -12   0  30   10.41    0.57 
  10   0 -30    0.17    0.16 
 -10   0  30    0.45    0.14 
   8   0 -30    2.98    0.36 
  -8   0  30    3.30    0.33 
  -8   0  30    3.35    0.31 
   6   0 -30    0.66    0.22 
  -6   0  30    0.67    0.18 
   4   0 -30    0.41    0.22 
  -4   0  30    0.41    0.17 
  -2   0  30    2.10    0.31 
   0   0  30    0.27    0.19 
   2   0  30    2.48    0.37 
  27  -1 -30    0.39    0.16 
 -27   1  30    0.16    0.19 
  25  -1 -30    0.32    0.17 
 -25   1  30    0.35    0.20 
  23  -1 -30    1.86    0.32 
 -23   1  30    1.07    0.21 
  21  -1 -30   -0.03    0.14 
 -21   1  30    0.21    0.11 
  19  -1 -30    0.05    0.14 
 -19   1  30    0.07    0.10 
  17  -1 -30    0.19    0.15 
 -17   1  30    0.18    0.12 
  15  -1 -30    2.19    0.29 
 -15   1  30    2.48    0.29 
 -13   1  30    0.14    0.13 
 -11   1  30    0.18    0.12 
  -9   1  30    0.27    0.12 
  -7   1  30    0.54    0.15 
  -5   1  30   -0.03    0.10 
  -3   1  30    1.09    0.22 
  -1   1  30    0.07    0.14 
   1   1  30   -0.01    0.14 
 -26   2  30    1.47    0.31 
 -24   2  30    1.98    0.32 
 -22   2  30    3.19    0.35 
 -20   2  30    3.71    0.37 
 -18   2  30    2.34    0.30 
 -16   2  30    0.13    0.13 
 -14   2  30    0.13    0.12 
 -12   2  30    0.50    0.16 
 -10   2  30    0.42    0.14 
  -8   2  30    0.08    0.11 
  -6   2  30    1.93    0.26 
  -4   2  30    0.76    0.19 
  -2   2  30    1.51    0.26 
   0   2  30    1.51    0.28 
 -23   3  30    0.05    0.17 
 -21   3  30    0.52    0.15 
 -19   3  30    1.25    0.23 
 -17   3  30    0.16    0.12 
 -15   3  30    0.89    0.18 
 -13   3  30    0.18    0.12 
 -11   3  30    0.32    0.14 
  -9   3  30    0.02    0.12 
  -7   3  30    0.02    0.12 
  -3   3  30    1.11    0.23 
 -16   4  30    1.35    0.22 
 -14   4  30    1.99    0.26 
 -12   4  30    0.33    0.11 
 -10   4  30    1.45    0.22 
  21   3 -31    0.45    0.15 
  19   3 -31    3.20    0.42 
  17   3 -31    0.40    0.15 
  15   3 -31    2.59    0.38 
  13   3 -31    1.20    0.27 
  11   3 -31    0.67    0.20 
   9   3 -31    2.26    0.35 
   7   3 -31    0.07    0.14 
   5   3 -31    0.21    0.15 
  24   2 -31    0.35    0.15 
  22   2 -31    0.47    0.17 
  20   2 -31    2.36    0.36 
  18   2 -31    0.05    0.13 
  16   2 -31    0.22    0.17 
  14   2 -31    0.71    0.22 
  12   2 -31    0.26    0.17 
  10   2 -31    0.29    0.17 
   8   2 -31   -0.01    0.14 
   6   2 -31   -0.08    0.14 
   4   2 -31    0.29    0.18 
   2   2 -31    0.24    0.16 
  27   1 -31    0.76    0.19 
  25   1 -31    0.00    0.13 
  23   1 -31    0.30    0.16 
  21   1 -31    0.22    0.14 
  19   1 -31    1.19    0.26 
  17   1 -31    1.20    0.27 
  15   1 -31    4.70    0.48 
  13   1 -31    7.80    0.58 
  11   1 -31    0.62    0.21 
   9   1 -31    2.54    0.38 
   7   1 -31    1.09    0.26 
   5   1 -31    1.14    0.28 
   3   1 -31    2.20    0.37 
   1   1 -31    0.25    0.17 
  -1  -1  31    0.11    0.20 
  26   0 -31    0.22    0.17 
  24   0 -31   -0.03    0.12 
  22   0 -31    0.10    0.15 
 -22   0  31    0.12    0.09 
  20   0 -31    0.08    0.16 
 -20   0  31    0.20    0.12 
  18   0 -31    0.08    0.15 
 -18   0  31    0.05    0.09 
  16   0 -31   -0.15    0.12 
 -16   0  31    0.11    0.13 
  14   0 -31    0.05    0.15 
 -14   0  31   -0.11    0.09 
  12   0 -31    0.08    0.16 
 -12   0  31   -0.02    0.10 
  10   0 -31    0.25    0.17 
 -10   0  31    0.17    0.12 
   8   0 -31    0.18    0.17 
  -8   0  31    0.07    0.12 
   6   0 -31   -0.29    0.16 
  -6   0  31   -0.06    0.11 
  -4   0  31    0.01    0.13 
  -2   0  31   -0.01    0.15 
   0   0  31   -0.03    0.17 
  27  -1 -31    0.51    0.18 
 -27   1  31    0.20    0.20 
  25  -1 -31    0.38    0.17 
 -25   1  31    0.10    0.18 
  23  -1 -31    0.14    0.16 
 -23   1  31    0.18    0.12 
  21  -1 -31    0.06    0.16 
 -21   1  31    0.38    0.13 
  19  -1 -31    1.59    0.29 
 -19   1  31    1.28    0.23 
  17  -1 -31    1.09    0.24 
 -17   1  31    1.37    0.23 
 -15   1  31    5.40    0.39 
 -13   1  31    6.56    0.43 
 -11   1  31    0.54    0.15 
  -9   1  31    2.30    0.27 
  -5   1  31    1.02    0.20 
  -3   1  31    1.80    0.28 
  -1   1  31    0.28    0.18 
 -24   2  31    0.21    0.14 
 -22   2  31    1.01    0.19 
 -20   2  31    2.50    0.31 
 -18   2  31    0.15    0.12 
 -16   2  31    0.28    0.13 
 -14   2  31    0.65    0.17 
 -12   2  31    0.50    0.15 
 -10   2  31   -0.03    0.11 
  -8   2  31   -0.03    0.10 
  -4   2  31    0.18    0.15 
  -2   2  31   -0.04    0.13 
 -21   3  31    0.13    0.10 
 -19   3  31    3.12    0.35 
 -17   3  31    0.51    0.14 
 -15   3  31    2.54    0.31 
 -13   3  31    1.05    0.20 
 -11   3  31    0.73    0.17 
  -9   3  31    2.00    0.27 
  19   3 -32    2.95    0.39 
  17   3 -32    0.14    0.14 
  15   3 -32    1.42    0.29 
  13   3 -32    0.78    0.21 
  11   3 -32    0.47    0.17 
   9   3 -32    0.19    0.13 
  24   2 -32    0.66    0.19 
  22   2 -32    1.11    0.24 
  20   2 -32    0.71    0.20 
  18   2 -32    1.36    0.29 
  16   2 -32    0.98    0.25 
  14   2 -32    3.25    0.43 
  12   2 -32    1.63    0.31 
  10   2 -32    1.82    0.33 
   8   2 -32    0.85    0.24 
   6   2 -32    0.49    0.20 
   4   2 -32    0.13    0.14 
  25   1 -32    0.12    0.13 
  23   1 -32    1.18    0.26 
  21   1 -32    0.22    0.14 
  19   1 -32    0.26    0.16 
  17   1 -32    1.51    0.30 
  15   1 -32    2.00    0.34 
  13   1 -32    6.70    0.54 
  11   1 -32    0.14    0.17 
   9   1 -32    0.50    0.20 
   7   1 -32    0.32    0.19 
   5   1 -32    0.42    0.21 
   3   1 -32    0.13    0.17 
  26   0 -32    1.60    0.28 
  24   0 -32    0.29    0.14 
  22   0 -32    0.72    0.21 
 -22   0  32    0.54    0.16 
  20   0 -32    0.52    0.21 
 -20   0  32    0.38    0.14 
  18   0 -32    0.42    0.18 
 -18   0  32    0.34    0.13 
  16   0 -32    2.18    0.33 
 -16   0  32    2.50    0.30 
  14   0 -32    3.14    0.39 
 -14   0  32    3.11    0.33 
  12   0 -32    0.99    0.26 
 -12   0  32    0.84    0.19 
  10   0 -32   20.07    1.03 
 -10   0  32   18.39    0.86 
   8   0 -32    1.43    0.29 
  -6   0  32    0.18    0.15 
  -4   0  32    1.72    0.30 
  -2   0  32    0.19    0.17 
  25  -1 -32    0.25    0.16 
 -25   1  32    0.42    0.13 
  23  -1 -32    1.17    0.26 
 -23   1  32    1.42    0.24 
  21  -1 -32    0.07    0.16 
 -21   1  32    0.29    0.11 
  19  -1 -32    0.13    0.17 
 -19   1  32    0.32    0.13 
 -17   1  32    1.21    0.22 
 -15   1  32    1.55    0.24 
 -13   1  32    5.51    0.40 
 -11   1  32    0.11    0.10 
  -5   1  32    0.26    0.16 
  -3   1  32   -0.12    0.14 
 -24   2  32    0.73    0.15 
 -22   2  32    1.14    0.21 
 -20   2  32    0.93    0.18 
 -18   2  32    1.18    0.21 
 -16   2  32    0.73    0.18 
 -14   2  32    3.38    0.34 
 -12   2  32    1.45    0.23 
 -10   2  32    1.26    0.21 
  -4   2  32    0.08    0.15 
 -19   3  32    3.25    0.35 
 -17   3  32    0.37    0.13 
 -15   3  32    1.92    0.28 
 -13   3  32    0.44    0.14 
 -11   3  32    0.48    0.15 
  -9   3  32    0.10    0.11 
  22   2 -33    0.35    0.14 
  20   2 -33    0.75    0.19 
  18   2 -33    2.67    0.38 
  16   2 -33    0.45    0.19 
  14   2 -33    0.41    0.19 
  12   2 -33    0.40    0.18 
  10   2 -33    0.63    0.21 
   8   2 -33   -0.05    0.13 
  23   1 -33    0.80    0.22 
  21   1 -33    1.46    0.28 
  19   1 -33    0.23    0.15 
  17   1 -33    0.47    0.18 
  15   1 -33    1.22    0.27 
  13   1 -33    0.71    0.23 
  11   1 -33    3.38    0.43 
   9   1 -33    0.23    0.18 
   7   1 -33    0.33    0.18 
   5   1 -33    0.26    0.19 
  24   0 -33    0.03    0.12 
  22   0 -33    0.08    0.13 
  20   0 -33   -0.06    0.13 
 -20   0  33    0.12    0.10 
  18   0 -33    0.01    0.13 
 -18   0  33   -0.01    0.08 
  16   0 -33    0.03    0.15 
 -16   0  33    0.22    0.11 
  14   0 -33    0.02    0.17 
 -14   0  33    0.17    0.12 
  12   0 -33    0.04    0.18 
  10   0 -33   -0.02    0.17 
  -6   0  33   -0.13    0.16 
  -4   0  33    0.03    0.17 
  23  -1 -33    1.45    0.28 
 -23   1  33    1.02    0.20 
 -21   1  33    1.81    0.26 
 -19   1  33    0.14    0.11 
 -17   1  33    0.46    0.15 
 -15   1  33    1.06    0.21 
 -13   1  33    0.77    0.18 
 -11   1  33    2.98    0.31 
  -5   1  33    0.42    0.19 
 -22   2  33    0.75    0.16 
 -18   2  33    2.32    0.30 
 -16   2  33    1.17    0.21 
 -14   2  33    0.36    0.12 
 -12   2  33    0.24    0.12 
 -10   2  33    1.03    0.19 
  18   2 -34    1.91    0.33 
  16   2 -34    1.56    0.28 
  14   2 -34    3.90    0.47 
  12   2 -34    0.98    0.23 
  21   1 -34    0.32    0.15 
  19   1 -34    0.71    0.21 
  17   1 -34    0.17    0.15 
  15   1 -34    2.21    0.35 
  13   1 -34    0.18    0.16 
  11   1 -34    1.95    0.33 
   9   1 -34    0.35    0.19 
  22   0 -34    2.70    0.38 
  20   0 -34    0.58    0.20 
  18   0 -34    2.34    0.34 
  16   0 -34    0.35    0.19 
  14   0 -34    2.47    0.36 
  12   0 -34    4.16    0.45 
 -21   1  34    0.15    0.10 
 -19   1  34    0.94    0.18 
 -17   1  34    0.36    0.13 
 -15   1  34    2.04    0.27 
 -13   1  34    0.41    0.13 
 -18   2  34    2.20    0.28 
 -16   2  34    1.46    0.22 
 -14   2  34    3.52    0.35 
 -12   2  34    1.04    0.19 
  17   1 -35    1.15    0.24 
  15   1 -35    2.00    0.33 
  13   1 -35    0.71    0.22 
  20   0 -35    0.16    0.15 
  18   0 -35    0.32    0.16 
  16   0 -35    0.03    0.16 
 -19   1  35    1.05    0.19 
 -17   1  35    1.40    0.22 
 -15   1  35    1.55    0.24 
 -13   1  35    0.55    0.14 
   0   0   0    0.00    0.00 
;
_shelx_hkl_checksum              88173
loop_
_space_group_symop_operation_xyz
'x, y, z'
'-x, y, -z+1/2'
'x+1/2, y+1/2, z'
'-x+1/2, y+1/2, -z+1/2'
'-x, -y, -z'
'x, -y, z-1/2'
'-x+1/2, -y+1/2, -z'
'x+1/2, -y+1/2, z-1/2'
loop_
_atom_site_label
_atom_site_type_symbol
_atom_site_fract_x
_atom_site_fract_y
_atom_site_fract_z
_atom_site_U_iso_or_equiv
_atom_site_adp_type
_atom_site_occupancy
_atom_site_site_symmetry_order
_atom_site_calc_flag
_atom_site_refinement_flags_posn
_atom_site_refinement_flags_adp
S1 S 0.22524(2) 0.76136(8) 0.15037(2) 0.04179(17) Uani 1 1 d . .
N1 N 0.28902(6) 0.8190(3) 0.14768(6) 0.0354(3) Uani 1 1 d . .
O1 O 0.39052(6) 0.2349(3) 0.00843(6) 0.0542(4) Uani 1 1 d . .
O2 O 0.56324(6) 0.6718(3) 0.13154(6) 0.0556(4) Uani 1 1 d . .
O3 O 0.20439(6) 0.5412(2) 0.12478(7) 0.0565(4) Uani 1 1 d . .
O4 O 0.23705(9) 0.7949(3) 0.20660(7) 0.0795(6) Uani 1 1 d . .
C1 C 0.32851(7) 1.0024(3) 0.17798(7) 0.0345(4) Uani 1 1 d . .
C2 C 0.32277(8) 1.1678(3) 0.21321(7) 0.0422(4) Uani 1 1 d . .
H2 H 0.2902 1.1659 0.2210 0.051 Uiso 1 1 calc R U
C3 C 0.36736(9) 1.3349(4) 0.23608(8) 0.0489(5) Uani 1 1 d . .
H3 H 0.3652 1.4472 0.2602 0.059 Uiso 1 1 calc R U
C4 C 0.41552(9) 1.3385(4) 0.22376(9) 0.0501(5) Uani 1 1 d . .
H4 H 0.4449 1.4536 0.2397 0.060 Uiso 1 1 calc R U
C5 C 0.42070(8) 1.1751(3) 0.18840(8) 0.0433(4) Uani 1 1 d . .
H5 H 0.4530 1.1803 0.1803 0.052 Uiso 1 1 calc R U
C6 C 0.37664(7) 1.0012(3) 0.16493(7) 0.0339(4) Uani 1 1 d . .
C7 C 0.36570(7) 0.8100(3) 0.12579(7) 0.0334(4) Uani 1 1 d . .
C8 C 0.31231(8) 0.7088(3) 0.11482(7) 0.0339(4) Uani 1 1 d . .
C9 C 0.28664(8) 0.4999(3) 0.07829(8) 0.0412(4) Uani 1 1 d . .
H9A H 0.2431 0.5141 0.0573 0.049 Uiso 1 1 calc R U
H9B H 0.2961 0.3604 0.1014 0.049 Uiso 1 1 calc R U
C10 C 0.31334(8) 0.4804(4) 0.03745(8) 0.0483(5) Uani 1 1 d . .
H10A H 0.3058 0.3244 0.0215 0.058 Uiso 1 1 calc R U
H10B H 0.2928 0.5900 0.0067 0.058 Uiso 1 1 calc R U
C11 C 0.38008(8) 0.5277(3) 0.06425(7) 0.0386(4) Uani 1 1 d . .
C12 C 0.40536(8) 0.7002(3) 0.10538(7) 0.0358(4) Uani 1 1 d . .
C13 C 0.46669(8) 0.7518(3) 0.12942(8) 0.0384(4) Uani 1 1 d . .
H13 H 0.4832 0.8662 0.1572 0.046 Uiso 1 1 calc R U
C14 C 0.50296(8) 0.6314(3) 0.11164(8) 0.0414(4) Uani 1 1 d . .
C15 C 0.47894(8) 0.4564(3) 0.07149(8) 0.0444(5) Uani 1 1 d . .
H15 H 0.5035 0.3745 0.0601 0.053 Uiso 1 1 calc R U
C16 C 0.41810(8) 0.4039(3) 0.04840(7) 0.0403(4) Uani 1 1 d . .
C17 C 0.42727(10) 0.0916(4) -0.00642(9) 0.0603(6) Uani 1 1 d . .
H17A H 0.4472 0.1866 -0.0223 0.090 Uiso 1 1 calc R U
H17B H 0.4026 -0.0226 -0.0337 0.090 Uiso 1 1 calc R U
H17C H 0.4569 0.0137 0.0267 0.090 Uiso 1 1 calc R U
C18 C 0.58906(10) 0.8647(4) 0.16811(10) 0.0592(6) Uani 1 1 d . .
H18A H 0.5686 1.0055 0.1495 0.089 Uiso 1 1 calc R U
H18B H 0.6310 0.8765 0.1779 0.089 Uiso 1 1 calc R U
H18C H 0.5850 0.8429 0.2018 0.089 Uiso 1 1 calc R U
C19 C 0.17635(10) 0.9768(4) 0.10772(13) 0.0701(7) Uani 1 1 d . .
H19A H 0.1382 0.9619 0.1078 0.105 Uiso 1 1 calc R U
H19B H 0.1707 0.9597 0.0699 0.105 Uiso 1 1 calc R U
H19C H 0.1932 1.1280 0.1220 0.105 Uiso 1 1 calc R U
loop_
_atom_site_aniso_label
_atom_site_aniso_U_11
_atom_site_aniso_U_22
_atom_site_aniso_U_33
_atom_site_aniso_U_23
_atom_site_aniso_U_13
_atom_site_aniso_U_12
S1 0.0464(3) 0.0370(3) 0.0598(3) 0.0026(2) 0.0397(3) -0.00039(19)
N1 0.0350(8) 0.0363(8) 0.0426(8) -0.0005(7) 0.0243(7) 0.0024(6)
O1 0.0445(8) 0.0611(9) 0.0571(8) -0.0204(7) 0.0236(7) 0.0088(6)
O2 0.0346(7) 0.0709(10) 0.0688(9) -0.0159(8) 0.0304(7) -0.0005(7)
O3 0.0563(9) 0.0377(8) 0.0935(11) -0.0039(8) 0.0499(8) -0.0064(7)
O4 0.1023(14) 0.0978(13) 0.0744(11) -0.0103(10) 0.0713(11) -0.0289(11)
C1 0.0362(9) 0.0352(9) 0.0356(9) 0.0029(7) 0.0197(7) 0.0056(7)
C2 0.0438(11) 0.0479(11) 0.0425(10) -0.0021(9) 0.0264(9) 0.0068(9)
C3 0.0530(12) 0.0484(11) 0.0472(11) -0.0126(9) 0.0247(9) 0.0037(10)
C4 0.0433(11) 0.0452(11) 0.0589(12) -0.0136(10) 0.0212(9) -0.0026(9)
C5 0.0359(10) 0.0437(10) 0.0535(11) -0.0052(9) 0.0235(8) 0.0012(8)
C6 0.0325(9) 0.0344(9) 0.0371(9) 0.0023(7) 0.0181(7) 0.0066(7)
C7 0.0326(9) 0.0351(9) 0.0374(9) 0.0012(7) 0.0204(7) 0.0048(7)
C8 0.0340(9) 0.0326(9) 0.0392(9) 0.0019(7) 0.0204(7) 0.0068(7)
C9 0.0367(9) 0.0383(10) 0.0498(10) -0.0047(8) 0.0211(8) 0.0010(8)
C10 0.0385(10) 0.0579(13) 0.0491(11) -0.0140(10) 0.0208(9) 0.0044(9)
C11 0.0354(9) 0.0436(10) 0.0403(9) -0.0013(8) 0.0204(8) 0.0071(8)
C12 0.0378(10) 0.0377(10) 0.0378(9) 0.0030(8) 0.0224(8) 0.0076(7)
C13 0.0362(9) 0.0421(10) 0.0428(9) -0.0035(8) 0.0233(8) 0.0025(8)
C14 0.0332(9) 0.0506(11) 0.0454(10) 0.0016(9) 0.0224(8) 0.0056(8)
C15 0.0418(10) 0.0533(12) 0.0460(10) -0.0029(9) 0.0270(8) 0.0132(9)
C16 0.0415(10) 0.0438(10) 0.0374(9) -0.0029(8) 0.0200(8) 0.0092(8)
C17 0.0591(13) 0.0636(14) 0.0601(13) -0.0186(11) 0.0291(11) 0.0146(11)
C18 0.0424(11) 0.0670(15) 0.0725(14) -0.0094(12) 0.0304(10) -0.0069(11)
C19 0.0461(12) 0.0483(13) 0.123(2) 0.0142(14) 0.0455(14) 0.0148(10)
loop_
_atom_type_symbol
_atom_type_description
_atom_type_scat_dispersion_real
_atom_type_scat_dispersion_imag
_atom_type_scat_source
C C 0.0033 0.0016 'International Tables Vol C Tables 4.2.6.8 and 6.1.1.4'
H H 0.0000 0.0000 'International Tables Vol C Tables 4.2.6.8 and 6.1.1.4'
N N 0.0061 0.0033 'International Tables Vol C Tables 4.2.6.8 and 6.1.1.4'
O O 0.0106 0.0060 'International Tables Vol C Tables 4.2.6.8 and 6.1.1.4'
S S 0.1246 0.1234 'International Tables Vol C Tables 4.2.6.8 and 6.1.1.4'
loop_
_geom_angle_atom_site_label_1
_geom_angle_atom_site_label_2
_geom_angle_atom_site_label_3
_geom_angle
O4 S1 O3 119.17(10)
O4 S1 N1 106.83(9)
O3 S1 N1 107.58(8)
O4 S1 C19 109.85(13)
O3 S1 C19 109.00(11)
N1 S1 C19 103.18(9)
C8 N1 C1 108.00(13)
C8 N1 S1 128.38(13)
C1 N1 S1 123.57(11)
C16 O1 C17 118.04(16)
C14 O2 C18 117.92(15)
C2 C1 C6 122.92(16)
C2 C1 N1 129.12(16)
C6 C1 N1 107.90(14)
C3 C2 C1 117.16(17)
C3 C2 H2 121.4
C1 C2 H2 121.4
C2 C3 C4 121.19(17)
C2 C3 H3 119.4
C4 C3 H3 119.4
C5 C4 C3 121.37(19)
C5 C4 H4 119.3
C3 C4 H4 119.3
C4 C5 C6 119.03(17)
C4 C5 H5 120.5
C6 C5 H5 120.5
C5 C6 C1 118.32(15)
C5 C6 C7 134.94(16)
C1 C6 C7 106.69(14)
C8 C7 C6 108.40(14)
C8 C7 C12 120.06(16)
C6 C7 C12 130.85(16)
C7 C8 N1 108.93(15)
C7 C8 C9 124.52(15)
N1 C8 C9 126.28(15)
C8 C9 C10 109.25(15)
C8 C9 H9A 109.8
C10 C9 H9A 109.8
C8 C9 H9B 109.8
C10 C9 H9B 109.8
H9A C9 H9B 108.3
C11 C10 C9 113.78(15)
C11 C10 H10A 108.8
C9 C10 H10A 108.8
C11 C10 H10B 108.8
C9 C10 H10B 108.8
H10A C10 H10B 107.7
C12 C11 C16 118.33(16)
C12 C11 C10 120.06(15)
C16 C11 C10 121.61(17)
C11 C12 C13 120.96(16)
C11 C12 C7 117.20(16)
C13 C12 C7 121.62(16)
C14 C13 C12 119.46(17)
C14 C13 H13 120.3
C12 C13 H13 120.3
O2 C14 C15 115.34(15)
O2 C14 C13 124.17(18)
C15 C14 C13 120.49(17)
C16 C15 C14 119.64(16)
C16 C15 H15 120.2
C14 C15 H15 120.2
O1 C16 C15 123.62(16)
O1 C16 C11 115.29(16)
C15 C16 C11 121.07(17)
O1 C17 H17A 109.5
O1 C17 H17B 109.5
H17A C17 H17B 109.5
O1 C17 H17C 109.5
H17A C17 H17C 109.5
H17B C17 H17C 109.5
O2 C18 H18A 109.5
O2 C18 H18B 109.5
H18A C18 H18B 109.5
O2 C18 H18C 109.5
H18A C18 H18C 109.5
H18B C18 H18C 109.5
S1 C19 H19A 109.5
S1 C19 H19B 109.5
H19A C19 H19B 109.5
S1 C19 H19C 109.5
H19A C19 H19C 109.5
H19B C19 H19C 109.5
loop_
_geom_bond_atom_site_label_1
_geom_bond_atom_site_label_2
_geom_bond_distance
S1 O4 1.4047(17)
S1 O3 1.4129(15)
S1 N1 1.6631(15)
S1 C19 1.739(2)
N1 C8 1.409(2)
N1 C1 1.411(2)
O1 C16 1.367(2)
O1 C17 1.419(2)
O2 C14 1.366(2)
O2 C18 1.416(3)
C1 C2 1.389(2)
C1 C6 1.400(2)
C2 C3 1.378(3)
C2 H2 0.9300
C3 C4 1.389(3)
C3 H3 0.9300
C4 C5 1.378(3)
C4 H4 0.9300
C5 C6 1.399(3)
C5 H5 0.9300
C6 C7 1.450(2)
C7 C8 1.357(2)
C7 C12 1.476(2)
C8 C9 1.488(2)
C9 C10 1.526(2)
C9 H9A 0.9700
C9 H9B 0.9700
C10 C11 1.505(3)
C10 H10A 0.9700
C10 H10B 0.9700
C11 C12 1.392(2)
C11 C16 1.400(2)
C12 C13 1.393(3)
C13 C14 1.387(2)
C13 H13 0.9300
C14 C15 1.385(3)
C15 C16 1.384(3)
C15 H15 0.9300
C17 H17A 0.9600
C17 H17B 0.9600
C17 H17C 0.9600
C18 H18A 0.9600
C18 H18B 0.9600
C18 H18C 0.9600
C19 H19A 0.9600
C19 H19B 0.9600
C19 H19C 0.9600
loop_
_geom_hbond_atom_site_label_D
_geom_hbond_atom_site_label_H
_geom_hbond_atom_site_label_A
_geom_hbond_distance_DH
_geom_hbond_distance_HA
_geom_hbond_distance_DA
_geom_hbond_angle_DHA
_geom_hbond_site_symmetry_A
C19 H19C O3 0.96 2.38 3.292(3) 158.7 1_565
C19 H19B O1 0.96 2.61 3.216(3) 121.4 7_565
C19 H19A O2 0.96 2.54 3.366(3) 143.9 3_455
C17 H17B O3 0.96 2.66 3.431(3) 138.0 7
C2 H2 O4 0.93 2.45 3.216(2) 140.3 4
C2 H2 O4 0.93 2.44 2.972(3) 116.4 .
C2 H2 O4 0.93 2.44 2.972(3) 116.4 .
C2 H2 O4 0.93 2.45 3.216(2) 140.3 4
C17 H17B O3 0.96 2.66 3.431(3) 138.0 7
C19 H19A O2 0.96 2.54 3.366(3) 143.9 3_455
C19 H19B O1 0.96 2.61 3.216(3) 121.4 7_565
C19 H19C O3 0.96 2.38 3.292(3) 158.7 1_565
loop_
_geom_torsion_atom_site_label_1
_geom_torsion_atom_site_label_2
_geom_torsion_atom_site_label_3
_geom_torsion_atom_site_label_4
_geom_torsion
O4 S1 N1 C8 143.97(16)
O3 S1 N1 C8 14.92(18)
C19 S1 N1 C8 -100.23(18)
O4 S1 N1 C1 -38.97(17)
O3 S1 N1 C1 -168.03(14)
C19 S1 N1 C1 76.83(17)
C8 N1 C1 C2 175.89(17)
S1 N1 C1 C2 -1.7(3)
C8 N1 C1 C6 -1.47(18)
S1 N1 C1 C6 -179.04(12)
C6 C1 C2 C3 -0.5(3)
N1 C1 C2 C3 -177.55(17)
C1 C2 C3 C4 0.7(3)
C2 C3 C4 C5 -0.2(3)
C3 C4 C5 C6 -0.5(3)
C4 C5 C6 C1 0.7(3)
C4 C5 C6 C7 177.63(19)
C2 C1 C6 C5 -0.2(3)
N1 C1 C6 C5 177.40(15)
C2 C1 C6 C7 -177.90(16)
N1 C1 C6 C7 -0.34(18)
C5 C6 C7 C8 -175.10(19)
C1 C6 C7 C8 2.09(19)
C5 C6 C7 C12 14.7(3)
C1 C6 C7 C12 -168.13(17)
C6 C7 C8 N1 -3.03(19)
C12 C7 C8 N1 168.44(15)
C6 C7 C8 C9 -177.36(16)
C12 C7 C8 C9 -5.9(3)
C1 N1 C8 C7 2.83(19)
S1 N1 C8 C7 -179.75(13)
C1 N1 C8 C9 177.04(16)
S1 N1 C8 C9 -5.5(3)
C7 C8 C9 C10 -23.3(2)
N1 C8 C9 C10 163.37(17)
C8 C9 C10 C11 42.6(2)
C9 C10 C11 C12 -37.3(3)
C9 C10 C11 C16 143.54(18)
C16 C11 C12 C13 1.3(3)
C10 C11 C12 C13 -177.93(17)
C16 C11 C12 C7 -173.48(16)
C10 C11 C12 C7 7.3(3)
C8 C7 C12 C11 15.1(2)
C6 C7 C12 C11 -175.60(17)
C8 C7 C12 C13 -159.60(17)
C6 C7 C12 C13 9.7(3)
C11 C12 C13 C14 0.7(3)
C7 C12 C13 C14 175.23(16)
C18 O2 C14 C15 173.41(18)
C18 O2 C14 C13 -7.0(3)
C12 C13 C14 O2 178.57(17)
C12 C13 C14 C15 -1.9(3)
O2 C14 C15 C16 -179.43(17)
C13 C14 C15 C16 1.0(3)
C17 O1 C16 C15 5.9(3)
C17 O1 C16 C11 -175.42(18)
C14 C15 C16 O1 179.70(17)
C14 C15 C16 C11 1.1(3)
C12 C11 C16 O1 179.09(16)
C10 C11 C16 O1 -1.7(3)
C12 C11 C16 C15 -2.2(3)
C10 C11 C16 C15 177.01(18)
