#------------------------------------------------------------------------------
#$Date: 2017-11-07 03:11:16 +0200 (Tue, 07 Nov 2017) $
#$Revision: 202779 $
#$URL: file:///home/coder/svn-repositories/cod/cif/1/54/73/1547397.cif $
#------------------------------------------------------------------------------
#
# This file is available in the Crystallography Open Database (COD),
# http://www.crystallography.net/
#
# All data on this site have been placed in the public domain by the
# contributors.
#
data_1547397
loop_
_publ_author_name
'Liu, Bingxian'
'Hu, Panjie'
'Zhang, Ying'
'Li, Yunyun'
'Bai, Dachang'
'Li, Xingwei'
_publ_section_title
;
 Rh(III)-Catalyzed Diastereodivergent Spiroannulation of Cyclic Imines
 with Activated Alkenes.
;
_journal_issue                   19
_journal_name_full               'Organic letters'
_journal_page_first              5402
_journal_page_last               5405
_journal_paper_doi               10.1021/acs.orglett.7b02678
_journal_volume                  19
_journal_year                    2017
_chemical_formula_moiety         'C22 H17 N O3 S'
_chemical_formula_sum            'C22 H17 N O3 S'
_chemical_formula_weight         375.42
_space_group_crystal_system      monoclinic
_space_group_IT_number           14
_space_group_name_Hall           '-P 2yn'
_space_group_name_H-M_alt        'P 1 21/n 1'
_symmetry_space_group_name_Hall  '-P 2yn'
_symmetry_space_group_name_H-M   'P 1 21/n 1'
_atom_sites_solution_hydrogens   geom
_audit_creation_method           SHELXL-2014/7
_cell_angle_alpha                90
_cell_angle_beta                 95.897(9)
_cell_angle_gamma                90
_cell_formula_units_Z            4
_cell_length_a                   10.6461(11)
_cell_length_b                   7.0696(6)
_cell_length_c                   23.381(3)
_cell_measurement_reflns_used    624
_cell_measurement_temperature    293(2)
_cell_measurement_theta_max      20.2880
_cell_measurement_theta_min      3.9600
_cell_volume                     1750.4(3)
_computing_cell_refinement       'CrysAlisPro 1.171.38.43f (Rigaku OD, 2015)'
_computing_data_collection       'CrysAlisPro 1.171.38.43f (Rigaku OD, 2015)'
_computing_data_reduction        'CrysAlisPro 1.171.38.43f (Rigaku OD, 2015)'
_computing_structure_refinement  'SHELXL-2014/7 (Sheldrick, 2014)'
_computing_structure_solution    'SHELXL-2014/7 (Sheldrick, 2014)'
_diffrn_ambient_temperature      293(2)
_diffrn_measured_fraction_theta_full 0.998
_diffrn_measured_fraction_theta_max 0.998
_diffrn_measurement_device_type  'SuperNova, Dual, Cu at zero, EosS2'
_diffrn_measurement_method       '\w scans'
_diffrn_radiation_type           MoK\a
_diffrn_radiation_wavelength     0.71073
_diffrn_reflns_av_R_equivalents  0.1081
_diffrn_reflns_av_unetI/netI     0.2237
_diffrn_reflns_Laue_measured_fraction_full 0.998
_diffrn_reflns_Laue_measured_fraction_max 0.998
_diffrn_reflns_limit_h_max       12
_diffrn_reflns_limit_h_min       -12
_diffrn_reflns_limit_k_max       8
_diffrn_reflns_limit_k_min       -7
_diffrn_reflns_limit_l_max       27
_diffrn_reflns_limit_l_min       -19
_diffrn_reflns_number            7532
_diffrn_reflns_point_group_measured_fraction_full 0.998
_diffrn_reflns_point_group_measured_fraction_max 0.998
_diffrn_reflns_theta_full        24.999
_diffrn_reflns_theta_max         24.999
_diffrn_reflns_theta_min         3.372
_exptl_absorpt_coefficient_mu    0.209
_exptl_absorpt_correction_T_max  1.00000
_exptl_absorpt_correction_T_min  0.68511
_exptl_absorpt_correction_type   multi-scan
_exptl_absorpt_process_details
;
CrysAlisPro 1.171.38.43f (Rigaku Oxford Diffraction, 2015)
Empirical absorption correction using spherical harmonics,
 implemented in SCALE3 ABSPACK scaling algorithm.
;
_exptl_crystal_colour            colorless
_exptl_crystal_density_diffrn    1.425
_exptl_crystal_description       block
_exptl_crystal_F_000             784
_refine_diff_density_max         0.262
_refine_diff_density_min         -0.309
_refine_diff_density_rms         0.061
_refine_ls_extinction_method     none
_refine_ls_goodness_of_fit_ref   0.915
_refine_ls_hydrogen_treatment    constr
_refine_ls_matrix_type           full
_refine_ls_number_parameters     244
_refine_ls_number_reflns         3078
_refine_ls_number_restraints     0
_refine_ls_restrained_S_all      0.915
_refine_ls_R_factor_all          0.1922
_refine_ls_R_factor_gt           0.0758
_refine_ls_shift/su_max          0.000
_refine_ls_shift/su_mean         0.000
_refine_ls_structure_factor_coef Fsqd
_refine_ls_weighting_details
'w=1/[\s^2^(Fo^2^)+(0.0040P)^2^] where P=(Fo^2^+2Fc^2^)/3'
_refine_ls_weighting_scheme      calc
_refine_ls_wR_factor_gt          0.0852
_refine_ls_wR_factor_ref         0.1136
_reflns_Friedel_coverage         0.000
_reflns_number_gt                1377
_reflns_number_total             3078
_reflns_threshold_expression     'I > 2\s(I)'
_cod_data_source_file            ol7b02678_si_003.cif
_cod_data_source_block           436-4-1
_cod_depositor_comments
'Adding full bibliography for 1547395--1547397.cif.'
_cod_database_code               1547397
_shelx_shelxl_version_number     2014/7
_shelx_space_group_comment
;
The symmetry employed for this shelxl refinement is uniquely defined
by the following loop, which should always be used as a source of
symmetry information in preference to the above space-group names.
They are only intended as comments.
;
_shelx_res_file
;

    436-4-1.res created by SHELXL-2014/7

TITL 436-4-1_a.res in P2(1)/n
REM Old TITL 436-4-1 in P21/n #14
REM SHELXT solution in P2(1)/n
REM R1 0.278, Rweak 0.289, Alpha 0.167, Orientation as input
REM Formula found by SHELXT: C22 N O3 S
CELL 0.71073 10.6461 7.0696 23.3808 90 95.897 90
ZERR 4 0.0011 0.0006 0.0025 0 0.009 0
LATT 1
SYMM 0.5-X,0.5+Y,0.5-Z
SFAC C H N O S
UNIT 88 68 4 12 4

L.S. 4
PLAN  5
BOND $H
LIST 6
MORE -1
CONF
fmap 2
acta 52
OMIT -3 50
OMIT -2 4 25
OMIT 10 2 7
REM <olex2.extras>
REM <HklSrc "%.\\436-4-1.hkl">
REM </olex2.extras>

WGHT    0.004000
FVAR       0.38909
S8    5    0.900948    0.919080    0.586638    11.00000    0.03254    0.03117 =
         0.04825   -0.00250    0.01019   -0.01036
O19   4    0.721288    0.320883    0.665132    11.00000    0.04497    0.02357 =
         0.05285    0.00110    0.00907   -0.00779
O20   4    0.890343    1.094369    0.554904    11.00000    0.08531    0.01989 =
         0.07145    0.00501    0.03193   -0.01700
O21   4    1.023936    0.868797    0.612559    11.00000    0.01674    0.08586 =
         0.06932   -0.01262   -0.00147   -0.00413
N9    3    0.796910    0.916050    0.634144    11.00000    0.02833    0.03056 =
         0.02788   -0.01369    0.00565   -0.00942
AFIX  43
H9    2    0.802035    0.990986    0.663266    11.00000   -1.20000
AFIX   0
C7    1    0.832147    0.729767    0.547227    11.00000    0.02188    0.02003 =
         0.03199    0.00244    0.00278   -0.00011
C2    1    0.726516    0.667506    0.570757    11.00000    0.02674    0.01827 =
         0.02240   -0.00353    0.00078    0.00148
C22   1    0.902528    0.500258    0.695862    11.00000    0.02898    0.02389 =
         0.02851    0.00170    0.00045    0.00105
C1    1    0.693891    0.775543    0.623340    11.00000    0.02502    0.01414 =
         0.03483    0.00263    0.00364   -0.00183
C13   1    0.352121    0.826098    0.634188    11.00000    0.03670    0.03755 =
         0.04738   -0.01032    0.01096   -0.00554
AFIX  43
H13   2    0.291701    0.761227    0.652540    11.00000   -1.20000
AFIX   0
C17   1    0.565555    0.865185    0.612889    11.00000    0.02713    0.02389 =
         0.03121   -0.00394    0.00767    0.00139
C6    1    0.873570    0.650811    0.498127    11.00000    0.03065    0.03913 =
         0.03839    0.00616    0.01500    0.00339
AFIX  43
H6    2    0.944435    0.696519    0.482443    11.00000   -1.20000
AFIX   0
C10   1    0.679016    0.648646    0.677396    11.00000    0.02508    0.02276 =
         0.03186   -0.00032    0.00235    0.00510
AFIX  13
H10   2    0.704329    0.724898    0.711653    11.00000   -1.20000
AFIX   0
C18   1    0.765782    0.475670    0.679290    11.00000    0.04291    0.03060 =
         0.02008    0.00304    0.00774    0.00228
C12   1    0.476131    0.768969    0.641619    11.00000    0.02821    0.02531 =
         0.03212   -0.00143    0.00552    0.00267
C4    1    0.698798    0.435139    0.496324    11.00000    0.03682    0.03186 =
         0.04071   -0.00236   -0.00083   -0.00520
AFIX  43
H4    2    0.654117    0.333854    0.478914    11.00000   -1.20000
AFIX   0
C16   1    0.532733    1.019236    0.578447    11.00000    0.03326    0.02692 =
         0.04570   -0.00663    0.00485    0.00076
AFIX  43
H16   2    0.593458    1.083439    0.560102    11.00000   -1.20000
AFIX   0
C15   1    0.407652    1.076836    0.571621    11.00000    0.03673    0.02673 =
         0.05078    0.00572    0.00279    0.01170
AFIX  43
H15   2    0.383936    1.180338    0.548436    11.00000   -1.20000
AFIX   0
C5    1    0.803886    0.500402    0.473698    11.00000    0.04837    0.03268 =
         0.03808   -0.00835    0.00752    0.00918
AFIX  43
H5    2    0.829297    0.442444    0.441085    11.00000   -1.20000
AFIX   0
C23   1    0.951481    0.624822    0.737169    11.00000    0.04352    0.03860 =
         0.03666   -0.00789    0.00658    0.00580
AFIX  43
H23   2    0.897201    0.705372    0.754239    11.00000   -1.20000
AFIX   0
C3    1    0.657792    0.517812    0.544903    11.00000    0.03831    0.02545 =
         0.03356   -0.00145    0.01199   -0.00506
AFIX  43
H3    2    0.585627    0.473841    0.559886    11.00000   -1.20000
AFIX   0
C11   1    0.538020    0.609211    0.676345    11.00000    0.03508    0.03373 =
         0.04085   -0.00018    0.01394   -0.00220
AFIX  23
H11A  2    0.516486    0.488307    0.658320    11.00000   -1.20000
H11B  2    0.512386    0.608630    0.714975    11.00000   -1.20000
AFIX   0
C27   1    0.985435    0.383068    0.669453    11.00000    0.04263    0.03348 =
         0.05703   -0.00570    0.00628    0.00387
AFIX  43
H27   2    0.954810    0.297667    0.641132    11.00000   -1.20000
AFIX   0
C14   1    0.316779    0.979594    0.599549    11.00000    0.03467    0.04233 =
         0.05234   -0.01411    0.00376    0.00555
AFIX  43
H14   2    0.232853    1.018239    0.594792    11.00000   -1.20000
AFIX   0
C24   1    1.079262    0.633633    0.754039    11.00000    0.03941    0.04988 =
         0.05573   -0.00784   -0.01205   -0.00397
AFIX  43
H24   2    1.110336    0.717597    0.782687    11.00000   -1.20000
AFIX   0
C25   1    1.160550    0.517670    0.728301    11.00000    0.03426    0.05430 =
         0.06317    0.01350   -0.00591    0.00097
AFIX  43
H25   2    1.246866    0.521979    0.739552    11.00000   -1.20000
AFIX   0
C26   1    1.113362    0.396162    0.686079    11.00000    0.05365    0.05105 =
         0.06306   -0.00632    0.01376    0.00735
AFIX  43
H26   2    1.168796    0.320266    0.668054    11.00000   -1.20000
AFIX   0
HKLF 4

REM  436-4-1_a.res in P2(1)/n
REM R1 =  0.0758 for    1377 Fo > 4sig(Fo)  and  0.1922 for all    3078 data
REM    244 parameters refined using      0 restraints

END

WGHT      0.0000      0.0000

REM Highest difference peak  0.262,  deepest hole -0.309,  1-sigma level  0.061
Q1    1   0.7607  1.0761  0.6450  11.00000  0.05    0.26
Q2    1   0.7146  0.5488  0.6836  11.00000  0.05    0.26
Q3    1   0.3701  1.0326  0.5977  11.00000  0.05    0.24
Q4    1   0.8577  0.8201  0.5634  11.00000  0.05    0.24
Q5    1   0.4877  0.6615  0.6623  11.00000  0.05    0.23
;
_shelx_res_checksum              42499
_shelx_hkl_file
;
   0   0  -4 1137.64   34.86
   0   0   5    1.62    1.62
   0   0  -5   -0.05    0.77
   0   0  -6   28.19    6.72
   0   0   6   30.21    7.15
   0   0   7    1.37    3.46
   0   0  -7   -0.09    0.77
   0   0   8  105.35   15.72
   0   0  -8  126.16   18.33
   0   0  -9    1.15    2.47
   0   0   9    2.00    2.44
   0   0 -10    8.72    3.81
   0   0  10   15.66    6.72
   0   0 -11    3.94    3.10
   0   0  11    3.11    4.58
   0   0 -12  400.30   35.00
   0   0  12  405.25   37.80
   0   0 -13    6.33    5.86
   0   0  13    4.23    9.21
   0   0  14   53.80   15.97
   0   0  15   -1.19    2.89
   0   0  16  177.96   29.89
   0   0  17    1.92    4.66
   0   0  18   -1.39    5.11
   0   0  18    1.30    5.69
   0   0  19    6.34    9.32
   0   0  19    7.07   10.47
   0   0  20   20.83   12.92
   0   0  20   17.67   10.68
   0   0  21   -1.44    0.94
   0   0  22   86.61   34.90
   0   0  23    2.16    7.34
   0   0  24    9.64   14.36
   0   0  25    3.24   12.21
   0   0  26    4.71   17.22
   0   0  27   -0.11    8.97
   0   0  28   16.58   23.38
   0   0  29   13.42   14.79
   0  -1  -2 2044.89   44.78
   0   1   3   31.29    5.58
   0   1   3   28.46    6.84
   0   1   3   29.44    6.57
   0  -1   3   25.11    5.91
   0  -1   4  234.98   20.47
   0   1   4  256.93   22.02
   0  -1   4  270.42   12.79
   0  -1   5 9980.68   90.58
   0   1  -5 9985.03   89.24
   0  -1   5 9999.00  140.19
   0   1   5 9973.43  147.05
   0  -1   6  699.01   26.55
   0   1  -6  702.38   26.87
   0  -1  -6  690.24   37.77
   0  -1   6  688.45   40.23
   0   1   6  699.50   41.47
   0   1  -7  232.54   17.32
   0   1   7  214.24   24.32
   0  -1   7  225.61   24.37
   0  -1   7  239.64   17.49
   0  -1   8  163.00   22.24
   0  -1  -8  162.37   20.71
   0   1  -8  151.51   15.69
   0  -1   8  158.49   15.83
   0   1   8  157.66   21.96
   0  -1   9  327.14   24.91
   0   1   9  313.96   32.37
   0  -1   9  310.75   31.93
   0   1  -9  335.65   24.73
   0  -1  10  391.95   37.45
   0   1  10  402.97   38.43
   0  -1 -10  386.88   35.19
   0   1 -10  370.22   28.69
   0  -1  10  389.52   29.23
   0  -1  11   32.66   12.31
   0   1  11   28.34   10.79
   0  -1 -11   46.32   18.54
   0   1 -11   31.79    8.83
   0  -1  11   39.56   10.33
   0   1  12   -0.02    2.81
   0   1 -12   -0.98    2.81
   0  -1  12    2.89    5.57
   0  -1  12   -0.66    1.46
   0   1 -13   37.44   11.03
   0   1  13   33.53   12.19
   0  -1  13   33.02   10.53
   0  -1  13   26.44   11.79
   0   1 -14   54.92   14.09
   0   1  14   88.82   27.91
   0  -1  14   46.58   15.45
   0  -1  14   49.19   12.93
   0  -1  15   43.80   15.43
   0   1  15   48.64   14.80
   0   1 -15   62.94   15.58
   0  -1  15   60.72   15.76
   0  -1  16   10.93    8.22
   0   1  16   11.88   10.52
   0  -1  16   10.53    5.24
   0   1  17  219.29   37.14
   0  -1  17  226.30   31.92
   0  -1  17  216.12   36.84
   0  -1  18    9.84   10.42
   0  -1  18   10.07    7.32
   0   1  18   22.76   15.05
   0  -1  19    8.78   10.98
   0  -1  19    4.15    5.21
   0  -1  20   46.00   17.30
   0  -1  20   76.54   29.06
   0  -1  21   13.36   14.50
   0  -1  21    5.56    9.44
   0  -1  22   -0.99    1.01
   0  -1  23   10.97   18.24
   0  -1  24    4.31   12.98
   0   1  24    0.91    2.20
   0   1  25   -2.41    7.60
   0  -1  25    1.97    8.86
   0   1  26   21.65   25.82
   0  -1  26  238.69   64.05
   0   1  27    4.12   11.38
   0  -1  27    2.89   11.64
   0   1  28   -2.43    3.89
   0  -1  28    5.99   12.33
   0   1  29   32.03   36.59
   0  -1  29   47.96   36.10
   0  -2   0 1161.19   51.61
   0   2   0 1169.16   46.75
   0   2   0 1164.58   50.97
   0  -2   0 1157.43   47.17
   0   2   1  197.67   19.09
   0  -2  -1  185.07   20.73
   0   2  -1  200.19   19.15
   0  -2  -1  192.79   19.24
   0   2  -1  194.88   20.89
   0   2   1  198.14   21.26
   0  -2   1  205.97   20.36
   0  -2   1  206.20   23.20
   0  -2   2  162.26   18.37
   0   2  -2  154.83   17.04
   0  -2  -2  150.64   17.14
   0   2   2  173.08   20.03
   0  -2  -2  152.86   18.45
   0   2  -2  151.52   18.46
   0   2   3  851.73   46.28
   0  -2   3  902.75   44.94
   0  -2  -3  867.28   42.82
   0   2  -3  729.18   51.77
   0   2  -3  860.24   41.56
   0  -2  -3  888.72   44.15
   0  -2  -4  149.38   19.37
   0   2   4  158.57   17.71
   0  -2   4  151.76   19.12
   0   2  -4  155.62   18.57
   0  -2  -4  159.29   17.52
   0   2   4  161.33   20.12
   0  -2  -5 2739.73   85.67
   0  -2   5 2718.75   85.34
   0   2  -5 2739.09   82.10
   0   2   5 2728.85   76.40
   0   2   5 2780.65   86.91
   0  -2   6  347.45   17.21
   0   2   6  330.16   30.66
   0  -2   6  338.69   31.42
   0   2  -6  341.84   30.16
   0   2   6  340.24   27.03
   0   2  -7  292.86   29.52
   0  -2   7  265.80   29.87
   0   2   7  284.47   26.29
   0  -2   7  299.56   17.29
   0   2   8  388.38   31.41
   0  -2   8  373.38   20.88
   0  -2   8  380.77   37.01
   0  -2   9    6.10    3.30
   0  -2   9    6.09    6.31
   0  -2  10  255.76   20.51
   0  -2  10  249.77   32.58
   0  -2  11  275.09   36.29
   0  -2  11  332.61   25.30
   0  -2  12   88.63   21.67
   0  -2  12  112.88   15.99
   0  -2  13   38.18   15.23
   0  -2  13   37.74    9.39
   0  -2  14   15.15    7.31
   0  -2  14   13.74   10.55
   0  -2  15   68.21   15.51
   0  -2  15   50.94   16.47
   0  -2  16   22.04   14.05
   0  -2  16   17.47    7.56
   0  -2  17    9.18    5.68
   0  -2  17   11.33   10.25
   0  -2  18   31.81   12.39
   0  -2  18   34.02   17.10
   0  -2  19   28.05   13.80
   0  -2  19   26.62   12.43
   0  -2  20   -5.73    9.00
   0  -2  20   -5.68    4.88
   0  -2  21   10.22    9.76
   0  -2  21   47.75   20.25
   0  -2  22   28.06   22.89
   0  -2  23    2.08    5.72
   0  -2  24   32.89   20.97
   0  -2  25    6.47   12.36
   0  -2  26   30.29   28.36
   0  -2  27   12.32   19.02
   0   2  27   13.21   20.70
   0   2  28   -3.16    8.16
   0  -2  28   15.25   15.26
   0   2  29   -0.52    4.11
   0   3   0    1.76    3.36
   0  -3   0    0.88    4.42
   0   3   0    3.57    3.71
   0   3  -1    2.81    4.55
   0  -3   1    0.73    2.41
   0   3   1   -0.02    4.80
   0   3  -1    3.73    5.14
   0  -3   1    6.21    5.67
   0  -3  -1    3.88    5.94
   0  -3  -1    1.95    2.83
   0   3  -2   17.08    7.04
   0  -3   2   27.55    9.67
   0  -3   2   17.70   11.19
   0   3   2   17.78    5.88
   0   3  -2   22.85    8.95
   0  -3  -2   24.36    8.17
   0  -3  -2   31.24   12.18
   0   3   2   20.17    7.26
   0  -3  -3   -0.25    2.59
   0   3  -3    4.39    5.84
   0   3   3    1.69    3.70
   0  -3   3    5.14    6.19
   0  -3  -3   19.27   11.37
   0   3  -3    3.40    5.35
   0  -3  -4    3.64    8.66
   0  -3   4    2.14    4.06
   0   3  -4   -2.37    3.13
   0   3  -4    0.32    0.93
   0  -3  -4    0.60    2.56
   0   3   4    8.88    7.35
   0   3  -5    3.08    2.00
   0  -3  -5    7.58    6.58
   0   3  -5    6.68    6.98
   0  -3  -5    3.45    2.33
   0   3   5   -1.10    3.38
   0  -3   5    7.85    5.27
   0   3  -6  190.44   24.81
   0  -3  -6  171.54   25.65
   0   3  -6  212.14   29.32
   0  -3   6  204.55   28.24
   0   3   6  205.07   29.14
   0  -3  -6  202.82   23.71
   0   3   7   23.37    9.78
   0   3   7   30.52    9.71
   0   3  -7   29.33   11.68
   0   3  -7   30.25   10.18
   0  -3   7   25.44   10.32
   0   3   8  321.11   31.71
   0  -3   8  329.17   19.14
   0  -3   8  331.74   38.22
   0   3   9  200.08   25.48
   0  -3   9  208.66   30.98
   0  -3   9  209.23   15.51
   0  -3  10    3.34    3.14
   0   3  10   17.08   14.75
   0  -3  10    7.35    7.39
   0   3  11  403.47   39.18
   0  -3  11  352.15   22.12
   0  -3  11  357.94   43.41
   0  -3  12   99.02   12.42
   0  -3  12  112.30   25.82
   0   3  12  107.76   21.19
   0   3  13  300.60   36.61
   0  -3  13  295.12   43.07
   0  -3  13  291.06   23.17
   0   3  14  208.95   32.19
   0  -3  14  202.68   20.45
   0  -3  14  191.19   35.60
   0  -3  15   14.84    5.67
   0   3  15   16.55   10.50
   0  -3  15   25.15   14.45
   0  -3  16    4.43    4.25
   0   3  16   -5.90    7.15
   0  -3  16    4.52    7.38
   0  -3  17    0.18    2.37
   0  -3  17    9.06   13.05
   0  -3  18    2.92    3.34
   0  -3  18    8.38    6.50
   0  -3  19    7.99   10.67
   0  -3  19    3.96    9.31
   0  -3  20   31.79   12.16
   0  -3  20   22.44   14.01
   0  -3  21   26.70   20.71
   0  -3  22    8.34   19.13
   0  -3  23    9.29   14.14
   0  -3  24   10.36   14.68
   0  -3  25   -9.09   14.82
   0  -3  26   22.32   23.07
   0  -3  27   13.21   12.51
   0   3  29    6.55   17.81
   0  -4   0  150.21   21.67
   0   4   0  152.74   26.20
   0   4   0  181.91   29.72
   0   4   1    8.02   12.58
   0   4   1    7.96    6.64
   0  -4   1   -1.17    2.68
   0   4  -1    5.56   13.81
   0   4  -1   12.34    9.20
   0   4   2   25.88    9.20
   0  -4   2   61.42   16.68
   0  -4  -2   47.03   16.19
   0   4   2   34.50   13.11
   0  -4  -2   72.54   19.71
   0   4  -2   26.86   10.11
   0   4  -2   31.16   11.64
   0  -4   2   35.55   12.11
   0  -4  -3    4.36    5.57
   0  -4   3   17.86    9.43
   0   4  -3   11.79    8.49
   0   4  -3   16.71   11.66
   0   4   3    9.60    9.68
   0  -4  -3    5.46    4.68
   0   4   3   11.00    9.69
   0   4  -4   38.25   12.95
   0   4   4   37.68   13.87
   0  -4  -4   44.28   13.62
   0   4   4   45.99   15.22
   0  -4   4   54.52   15.17
   0   4  -4   44.91   16.16
   0   4   5   19.16   10.15
   0  -4  -5   38.12   14.49
   0   4  -5   23.19   11.59
   0  -4  -6   31.56   13.98
   0  -4   6    9.81    9.67
   0   4  -6    5.77    5.36
   0   4   6    7.13    6.25
   0   4  -7   33.64   14.36
   0  -4   7   36.91   13.98
   0  -4  -7   41.66   13.47
   0   4   7   34.86   14.36
   0   4  -8   12.62    9.33
   0  -4   8   17.85   12.35
   0   4   8   21.67   14.29
   0  -4   9  200.64   34.82
   0   4  -9  218.68   34.20
   0  -4   9  177.52   15.45
   0  -4  10   12.26    4.23
   0   4 -10    0.68    1.65
   0  -4  10   17.21   11.31
   0   4 -11   12.37    9.71
   0  -4  11    1.04    6.59
   0   4  11   -2.06    2.87
   0  -4  11    2.89    2.47
   0  -4  12  205.71   37.66
   0  -4  12  183.72   14.81
   0   4  12  180.48   27.35
   0  -4  13   75.52   23.76
   0   4  13   64.53   15.40
   0  -4  13   71.14    9.83
   0  -4  14    7.20    3.88
   0  -4  14    6.93   12.44
   0   4  14    3.28    3.88
   0   4  15   18.46   10.14
   0  -4  15   15.87    5.00
   0  -4  15   10.31    5.10
   0   4  16   38.03   16.26
   0  -4  16   37.80   18.78
   0   4  17   -0.56    4.69
   0  -4  17  -11.29    8.28
   0   4  18   41.57   20.02
   0  -4  18   20.21   14.51
   0  -4  19   26.21   16.36
   0  -4  20   17.97   19.86
   0  -4  21   11.40   13.28
   0  -4  22   71.97   46.70
   0  -4  23   13.60   22.60
   0  -4  24   24.24   19.56
   0  -4  25    6.43   12.60
   0  -4  26   -5.23    1.49
   0  -5   0    3.17    0.55
   0   5   0    7.96   15.39
   0  -5   1  302.45   33.79
   0   5  -1  328.39   44.70
   0   5   1  298.62   42.10
   0  -5  -2   15.55   11.61
   0   5  -2    9.47    8.76
   0   5   2    2.93    6.32
   0  -5   2    6.01    2.86
   0  -5   3   23.05   12.64
   0  -5   3   27.48   10.99
   0   5  -3   18.32    8.99
   0   5   3   34.92   19.89
   0  -5  -3   61.48   29.36
   0   5   4   32.62   16.08
   0   5  -4   19.69   16.22
   0  -5   4    6.39   10.26
   0  -5   4   22.05   12.05
   0  -5  -4   10.77   14.85
   0  -5   5   16.58    9.68
   0   5   5   19.10   10.52
   0  -5   5   20.86    7.46
   0   5  -5   32.63   15.22
   0  -5  -5   20.43   10.54
   0   5   6    4.14    4.35
   0   5  -6   11.31    8.03
   0  -5  -6   -4.40    6.05
   0  -5   6    6.96    7.99
   0   5  -7  146.40   29.12
   0  -5  -7  142.26   25.78
   0   5   7  146.60   31.96
   0  -5   7  137.46   29.07
   0  -5   7  144.60   18.39
   0  -5   8    9.92   12.16
   0   5   8   14.32   13.13
   0  -5   8    2.20    0.81
   0   5  -8    6.16    4.96
   0  -5   9   26.59   15.16
   0   5   9   29.41   16.17
   0   5  -9   16.12   10.07
   0  -5  10   14.26    4.55
   0  -5  10   17.37   13.58
   0   5 -10   12.25   10.14
   0  -5  11   -2.32    6.93
   0  -5  11   14.26    4.24
   0   5 -11   -1.05    7.43
   0   5 -12   -0.27    0.95
   0  -5  12    3.09    7.11
   0  -5  13    3.57    7.56
   0   5 -13   15.25   14.68
   0  -5  14   25.04   15.55
   0   5 -14   20.05   18.47
   0   5 -15   18.53   15.55
   0  -5  15   43.88   22.84
   0  -5  16   24.94   14.44
   0   5 -16  -11.88   14.05
   0   5 -17   16.76   12.62
   0  -5  17   30.08   21.40
   0   5 -18   18.01   17.98
   0  -5  18   25.40   20.95
   0   5 -19  -13.94   15.64
   0  -5  19   12.49    8.92
   0  -5  20   12.23   18.06
   0  -5  21   20.47   21.77
   0  -5  22  363.73   68.32
   0  -5  23   20.66   28.07
   0  -5  24   21.90   25.72
   0   6   0   12.65   18.18
   0   6  -1   21.35   12.44
   0   6   1   21.00   11.52
   0   6  -2   39.79   18.55
   0   6   2   40.77   15.49
   0   6  -3   38.96   19.71
   0   6   3   22.03   14.47
   0   6  -4   39.87   14.99
   0  -6   4   20.65   22.24
   0   6   4   45.87   19.78
   0   6  -5   27.05   13.86
   0   6   5   20.95   12.64
   0   6   6   74.91   26.22
   0  -6   6  101.25   27.00
   0   6  -6   92.36   26.09
   0   6   7   11.66   14.18
   0  -6   7    0.36    5.05
   0   6  -7    1.80    7.52
   0  -6   8    1.30    5.46
   0   6  -8   -2.79    4.32
   0  -6   9    4.33    8.82
   0   6  -9   10.10   13.83
   0   6   9   15.69   16.64
   0  -6  10    1.05    7.52
   0   6 -10    6.87   11.82
   0  -6  11   13.30   15.70
   0   6 -11   12.69    9.56
   0  -6  12    1.25    2.63
   0   6 -12    4.37   11.32
   0  -6  13    2.44    8.29
   0   6 -13    9.95   10.20
   0   6 -14  107.26   35.39
   0  -6  14   51.64   30.54
   0  -6  15    3.75    8.54
   0   6 -15   16.65   17.20
   0  -6  16   -6.55   12.99
   0   6 -16   10.18   13.68
   0  -6  17   10.48   16.79
   0   6 -17   50.49   30.66
   0   6 -18   24.83   27.30
   0  -6  18   12.30   15.78
   0  -6  19    6.04   20.91
   0  -6  20   -0.30   11.61
   0  -6  21    3.36   10.17
   0  -6  22   90.12   50.21
   0   7   0   10.71   10.13
   0   7  -1  106.66   30.94
   0   7   1  115.97   34.92
   0   7  -2   25.15   18.59
   0   7   2   10.80   10.58
   0   7   3   16.10   13.25
   0   7  -3   36.75   22.60
   0   7  -4    4.52   10.46
   0   7   4   48.33   38.23
   0   7   5   21.84   23.29
   0   7  -5   13.05   15.67
   0  -7   6   24.29   28.09
   0   7  -6   36.40   27.78
   0   7   6   18.05   19.03
   0   7   7   36.77   29.18
   0   7  -7   30.90   18.92
   0  -7   7   25.81   15.58
   0  -7   8    6.05   14.77
   0   7  -8    6.13   10.01
   0   7  -9   11.48   12.56
   0  -7   9   18.25   23.29
   0   7   9    7.23   12.98
   0  -7  10    3.93   14.29
   0   7 -10    1.42    3.73
   0   7 -11   32.83   20.79
   0  -7  11   22.81   23.52
   0  -7  12   20.36   19.65
   0   7 -12    5.26    7.91
   0   7 -13  193.16   64.94
   0  -7  13    8.01    9.04
   0  -7  14   27.46   24.01
   0   7 -14    3.49    8.51
   0   7 -15   10.74   19.22
   0  -7  15   11.38   16.72
   0   7 -16   12.85   21.03
   0  -7  16   50.55   29.89
   0  -7  17    2.16   18.68
   0  -7  18   39.45   45.10
   0  -7  19  290.41   75.76
   0  -7  20    4.11   10.83
   0   8   0   11.94   23.37
   0   8  -1   25.91   29.97
   0   8   1    8.98   14.86
   0   8   2    4.88   12.19
   0   8  -2    7.35   14.52
   0   8  -3   21.58   17.07
   0   8   3    3.72    2.70
   0   8  -4   12.80   20.39
   0   8   4    6.35   13.01
   0   8  -5    2.40   11.64
   0   8   5   27.55   35.75
   0   8  -6    6.41   17.09
   0   8   6   10.47   22.68
   0   8  -7   22.62   22.82
   0   8   7   11.70   22.86
   0   8  -8   33.65   25.13
   0   8   8    3.49    1.83
   0  -8   9   17.03   26.77
   0   8  -9    4.50    5.84
   0  -8  10    5.66   16.13
   0   8 -10   12.32   18.48
   0  -8  11   19.07   23.64
   0   8 -11   13.58   18.40
   0  -8  12   16.65   16.97
   0   8 -12   25.61   24.07
   0  -8  13  308.16   98.88
   0   8 -13   15.23   24.31
   0  -8  14   39.00   41.15
   0  -8  15   21.63   20.61
   0  -8  16   15.70   22.54
   0  -8  17   30.49   47.86
   0   9   0    4.99   11.59
   0   9  -1    1.57   14.67
   0   9   1    2.46    6.43
   0   9  -2    3.76   13.05
   0   9   2   22.94   28.84
   0   9  -3   -2.25   10.76
   0   9   3   58.77   41.92
   0   9   4   12.79   25.47
   0   9  -4   10.45   28.01
   0   9  -5   28.53   17.11
   0   9  -6   11.44   21.20
   0   9  -7   38.14   30.37
   0   9  -8   16.89   21.36
   0   9  -9   29.44   28.36
  -1   0  29  134.77   51.16
  -1   0  28   29.59   32.48
  -1   0  27   28.16   27.91
  -1   0  26    8.27   14.62
  -1   0  25    9.15   15.78
  -1   0  25   -0.85    9.34
  -1   0  24    1.27    4.03
  -1   0  24    2.61   10.80
  -1   0  23    8.55    9.64
  -1   0  23   21.23   20.72
  -1   0  22    2.08    7.73
  -1   0  21  190.06   38.63
  -1   0  20   -4.15    8.07
  -1   0  19   -0.65    7.99
  -1   0  18    1.46    6.39
  -1   0  17    3.18    7.77
  -1   0  16    1.26    2.34
  -1   0  15   27.42   10.65
  -1   0  14    7.97    6.87
  -1   0  13   23.94   11.83
  -1   0  12   -2.44    4.16
   1   0 -12    0.88    2.58
   1   0 -11  632.99   43.80
  -1   0  11  626.41   45.27
  -1   0  10    1.57    0.58
   1   0 -10   -1.41    3.29
   1   0  -9  633.41   39.72
  -1   0   9  592.78   39.33
   1   0  -8    8.00    7.27
  -1   0   8    2.47    2.65
   1   0  -7 1354.84   53.87
  -1   0   7 1394.85   52.96
   1   0  -6    1.23    1.98
  -1   0   6    3.57    3.16
  -1   0   5  514.16   28.40
   1   0  -5  514.77   29.04
  -1   0   4    0.79    1.36
   1   0  -4   -0.38    0.79
  -1   0  -3 1480.80   39.80
   1   0   4    0.10    1.51
  -1   0  -4    1.62    2.20
  -1   0  -5    1.62    1.97
   1   0   5    2.06    1.88
  -1   0  -6   -1.23    1.21
   1   0   6   -0.13    1.37
  -1   0  -7   63.58   11.15
   1   0   7   61.96   12.26
   1   0   8    1.31    3.98
  -1   0  -8   -1.89    2.84
   1   0   9   34.75   10.12
  -1   0  -9   38.14    9.32
  -1   0 -10    6.47    6.36
   1   0  10   -0.18    1.43
   1   0  11   39.01   12.12
  -1   0 -11   41.17   10.78
   1   0  12    4.06    5.45
  -1   0 -12    3.79    4.38
   1   0  13   81.04   20.38
  -1   0 -13   36.81   12.02
   1   0  14    0.31    1.52
   1   0  15  203.82   35.80
   1   0  16   -4.25    7.86
   1   0  17    7.43    4.46
   1   0  18    3.82   11.17
   1   0  19   -2.34    4.56
   1   0  20   15.33    8.41
   1   0  21   11.36   13.63
   1   0  22   18.31   20.37
   1   0  23   -0.18    6.12
   1   0  24   -6.62   14.47
   1   0  25   21.86   26.56
   1   0  26    4.67   19.09
   1   0  27    3.31   19.07
   1   0  28   11.46   16.87
   1   0  29   10.75   17.88
  -1  -1  29   46.65   23.19
  -1   1  29    5.80   14.29
  -1   1  28   18.53   20.87
  -1  -1  28   40.72   27.32
  -1   1  27    5.15   18.34
  -1  -1  27   31.70   29.60
  -1  -1  26   31.40   29.46
  -1  -1  26   28.70   20.39
  -1  -1  25   14.89   14.12
  -1  -1  25    4.78   11.39
  -1  -1  24   11.95   16.87
  -1   1  24   10.46   35.07
  -1  -1  24    5.79    9.82
  -1   1  23    1.98    8.73
  -1  -1  23    1.34    5.09
  -1  -1  23   13.19   15.25
  -1  -1  22   22.01   16.84
  -1  -1  22   44.23   16.87
  -1   1  22   53.07   21.78
  -1  -1  21    4.49    4.62
  -1   1  21   14.09   17.35
  -1  -1  20   16.93   12.88
  -1  -1  20   37.72   18.68
  -1   1  20   11.01   10.24
  -1  -1  19   91.15   23.61
  -1   1  19  101.75   26.47
  -1  -1  19   69.64   22.62
  -1   1  18    9.56    9.98
  -1  -1  18    5.19    5.79
  -1   1  17    0.25    1.25
  -1  -1  17   -3.16    7.03
  -1  -1  16  312.08   35.32
  -1  -1  16  264.30   40.01
  -1   1  16  262.77   38.42
  -1   1  15   68.26   19.43
  -1  -1  15   70.18   18.37
  -1  -1  14   35.30   11.92
  -1   1  14   36.80   12.48
   1   1 -14   35.36   11.59
   1  -1 -13    3.76    3.87
  -1  -1  13    5.70    5.61
   1   1 -13    7.29    5.49
  -1   1  13    4.36    4.37
  -1   1  12   10.03    4.23
   1  -1 -12   11.09    5.91
  -1  -1  12    9.53    4.38
   1   1 -12   13.31    8.52
   1  -1 -11    7.31    5.97
  -1  -1  11   12.62    9.80
   1   1 -11    7.56    5.59
  -1   1  11    4.85    5.43
  -1   1  10  294.47   32.19
   1   1 -10  296.66   26.30
  -1  -1  10  316.03   27.58
   1  -1 -10  270.48   27.13
  -1   1   9    0.38    2.28
  -1  -1   9    0.23    0.65
   1   1  -9   -1.37    1.77
   1  -1  -8    9.47    5.12
  -1   1   8   12.12    7.20
  -1  -1   8   10.32    4.54
  -1  -1   7 1413.34   50.16
  -1   1   7 1383.21   61.71
   1  -1  -7 1524.11   57.16
  -1  -1   6   11.68    4.53
  -1   1   6   12.42    5.53
   1  -1  -6   11.17    5.03
  -1   1   6   11.43    4.64
   1  -1  -5  629.42   34.01
  -1   1   5  635.73   36.30
  -1   1   5  610.04   33.24
  -1   1   4 1047.08   41.81
  -1   1   4 1063.32   43.81
   1  -1  -4 1053.88   42.33
  -1   1   3   -0.82    0.67
  -1   1   3    0.00    0.18
  -1   1   2  798.08   34.07
  -1  -1   2  818.14   24.41
   1   1  -2  796.44   23.57
  -1  -1   2  802.26   26.55
  -1   1   2  794.07   31.44
   1  -1  -2  796.73   30.98
  -1  -1   1  182.34   12.45
  -1   1   1  197.67   17.50
   1  -1  -1  194.40   13.54
  -1  -1   1  201.93   10.53
   1   1   0  207.50   21.16
  -1  -1   0  184.54   13.45
   1  -1   0  201.51   12.12
  -1  -1  -1  694.20   28.18
   1   1   1  707.24   38.02
   1  -1   1  707.74   34.12
  -1  -1  -1  695.47   37.81
  -1  -1  -2  305.16   24.73
   1  -1   2  309.13   23.43
   1   1   2  327.97   25.82
   1   1   3   46.34    9.88
   1  -1   3   42.62    8.86
   1  -1   4    3.48    3.16
   1  -1   5 1403.10   57.39
  -1   1  -5 1412.56   30.56
  -1  -1  -6   20.52    6.96
   1  -1   6   17.51    7.12
  -1   1  -6   18.54    4.06
  -1   1  -7   63.81    8.53
   1  -1   7   57.25   13.15
  -1  -1  -7   63.01   12.27
   1  -1   8  102.23   17.92
  -1   1  -8  101.49   12.19
  -1  -1  -8   97.87   16.91
  -1  -1  -9   70.52   14.93
  -1   1  -9   75.50   11.22
   1  -1   9   79.77   16.69
  -1   1 -10  288.91   23.60
  -1  -1 -10  274.01   30.38
   1  -1  10  273.47   32.68
  -1  -1 -11   42.30   12.84
  -1   1 -11   46.64   11.17
   1  -1  11   32.69   11.25
   1  -1  12   40.89   14.57
  -1   1 -12   38.31   10.30
  -1   1 -13   77.94   14.65
   1  -1  13   73.82   19.60
  -1   1 -14   22.98    9.27
   1  -1  14   28.85   12.23
   1  -1  15    6.98    8.66
  -1   1 -15    8.61    7.49
   1  -1  16    7.33    5.09
  -1   1 -16   12.25    7.89
   1  -1  17   20.55   14.53
   1  -1  18   -3.59    8.18
   1   1  19   -0.17    1.95
   1  -1  19    0.54    3.70
   1  -1  20    7.80   15.07
   1   1  20    2.21    7.53
   1   1  21    5.33   10.31
   1  -1  21    5.85   11.06
   1  -1  22   23.36   22.23
   1   1  22   10.16   14.35
   1   1  23    8.61   13.35
   1  -1  23   14.75   19.09
   1  -1  24   26.80   19.81
   1   1  24   18.89   20.15
   1   1  25   42.15   31.45
   1  -1  25   -1.26    6.29
   1  -1  26   15.02   18.91
   1   1  26    2.08   10.97
   1  -1  27    2.96   14.36
   1   1  27    8.56   17.97
   1  -1  28    7.66   15.85
   1   1  28    5.53   14.75
   1   1  29    4.21   12.65
  -1  -2  28   26.98   20.40
  -1  -2  27   17.68   22.71
  -1  -2  26   -3.25    8.85
  -1  -2  25    5.88    9.23
  -1  -2  24   44.01   17.86
  -1  -2  24   34.30   25.93
  -1  -2  23   26.12   13.17
  -1  -2  23    6.99   13.61
  -1  -2  22   31.08   20.63
  -1  -2  22   49.10   18.94
  -1  -2  21   14.51   11.55
  -1  -2  21   26.00   13.51
  -1   2  21   40.34   23.61
  -1  -2  20   21.58   13.12
  -1   2  20   12.91    3.76
  -1  -2  20   14.94    8.75
  -1  -2  19    2.39    3.40
  -1  -2  19    7.10    3.66
  -1   2  19    6.21    6.56
  -1   2  18    9.95   12.19
  -1  -2  18    5.48    8.66
  -1  -2  18    7.12   12.04
  -1  -2  17   87.65   24.04
  -1   2  17   86.98   24.86
  -1  -2  17   83.48   17.99
  -1   2  16    1.87    2.39
  -1  -2  16    4.98    4.36
  -1  -2  16    8.71    6.57
  -1  -2  15    5.71    4.70
  -1  -2  15    0.48    1.27
  -1  -2  14  139.73   20.83
  -1  -2  14  140.33   27.73
  -1   2  14  147.55   30.25
  -1  -2  13   12.76    7.88
  -1   2  13   13.78    9.69
  -1  -2  13   14.09    6.77
  -1   2  12  376.40   43.53
  -1  -2  12  354.58   29.73
  -1  -2  12  352.68   41.24
  -1  -2  11   13.30    6.59
  -1   2  11    2.83    7.64
  -1  -2  11    2.47    5.17
  -1  -2  10  290.82   34.30
  -1  -2  10  284.75   24.45
  -1   2  10  296.77   36.25
  -1   2   9  107.69   21.19
  -1  -2   9  116.51   20.54
  -1  -2   9  108.13   14.56
   1  -2  -9  104.46   18.57
  -1   2   8   47.22   13.39
  -1   2   8   47.35    8.66
   1  -2  -8   38.76   10.73
  -1   2   8   41.66   12.86
  -1  -2   8   44.05   12.20
  -1  -2   8   38.33    8.33
  -1  -2   7    1.94    3.07
  -1   2   7   -0.34    2.41
  -1   2   7    1.76    2.03
  -1   2   7    3.38    3.64
  -1   2   6    1.49    2.47
  -1   2   6    2.35    2.01
  -1   2   6    3.08    4.27
   1  -2  -6    1.66    4.42
  -1  -2   6    0.26    2.06
  -1   2   5  141.00   20.00
   1  -2  -5  147.75   20.55
   1   2  -5  148.96   18.66
  -1   2   5  135.73   19.58
  -1  -2   5  144.09   17.83
   1  -2  -5  135.14   18.22
   1   2  -4  195.69   19.34
  -1   2   4  196.08   22.33
   1   2  -4  203.63   19.38
  -1   2   4  196.52   23.33
   1  -2  -4  191.82   21.22
   1  -2  -4  185.30   13.97
  -1  -2   4  201.84   20.06
   1  -2  -3  360.10   27.51
   1   2  -3  377.87   26.14
   1   2  -3  374.91   24.48
  -1  -2   3  394.78   27.02
  -1   2   3  380.81   29.26
  -1  -2   3  368.77   28.23
  -1   2   3  381.59   32.30
   1   2  -2  527.93   27.19
  -1  -2   2  539.03   33.61
  -1   2   2  526.61   37.05
  -1  -2   2  507.39   28.10
   1  -2  -2  522.75   30.83
   1   2  -2  546.73   31.08
  -1   2   2  534.87   32.48
   1  -2  -1   51.97    9.63
  -1  -2   1   42.19    8.44
  -1   2   1   46.95   11.10
   1   2  -1   43.96    7.34
  -1   2   1   46.31   11.18
   1   2  -1   47.98    9.63
  -1  -2   1   45.66    7.92
  -1   2   1   48.45    9.03
   1   2   0   14.90    5.39
  -1   2   0   12.03    3.90
  -1   2   0   21.37    7.97
   1  -2   0   14.05    4.39
  -1  -2   0   18.92   10.96
  -1  -2   0   12.81    5.29
  -1  -2   0   14.42    4.68
   1   2   0   13.34    3.89
  -1   2   0   15.20    6.53
   1  -2   1    3.91    2.43
   1   2   1    4.30    3.93
  -1  -2  -1    8.12    8.60
  -1   2  -1    1.97    3.80
   1  -2   1    4.25    4.20
   1   2   1    4.71    2.80
  -1  -2  -1    2.52    3.39
   1   2   2  818.23   51.61
  -1   2  -2  856.48   46.91
  -1   2  -2  947.01   53.93
   1  -2   2  851.25   48.40
  -1  -2  -2  873.20   51.78
   1  -2   2  869.85   25.44
   1   2   2  863.43   43.32
  -1  -2  -2  849.96   44.43
   1   2   3  506.73   34.59
  -1  -2  -3  507.95   38.87
   1   2   3  523.59   40.81
  -1  -2  -3  520.47   35.62
   1  -2   3  509.97   38.23
  -1   2  -3  512.03   36.25
  -1   2  -4   42.11   11.23
   1  -2   4   35.76   11.54
  -1  -2  -4   32.48    9.84
   1   2   4   36.54   10.95
   1  -2   5   31.36   10.37
   1   2   5   41.51   10.87
  -1   2  -5   42.14   11.47
   1  -2   6   35.07   10.81
   1   2   6   32.23    9.77
   1   2   7   63.13   15.09
   1  -2   7   61.25   15.53
   1   2   8  325.11   34.21
   1  -2   8  326.01   36.18
   1  -2   9    1.80    4.62
   1  -2  10  462.60   46.01
  -1   2 -11   28.73    6.10
   1  -2  11   30.11   12.93
   1  -2  12   26.36   12.59
  -1   2 -12   32.43    7.35
   1  -2  13   19.65   10.59
  -1   2 -13   25.19    6.32
   1  -2  14  125.86   32.95
  -1   2 -14   90.21   16.50
   1  -2  15   -4.39    7.22
  -1   2 -15    7.37    5.14
   1  -2  16   86.08   24.42
  -1   2 -16   78.61   13.69
  -1   2 -17    6.43    6.48
   1  -2  17    0.00    3.25
  -1   2 -18   22.06   10.75
   1  -2  18   34.26   15.38
   1  -2  19  133.34   39.95
   1  -2  20    2.32    4.87
   1  -2  21    9.00   12.53
   1  -2  22    6.98   13.52
   1  -2  23   -0.93    0.76
   1   2  23    1.93    6.14
   1  -2  24   19.59   23.20
   1   2  24    0.01   13.83
   1   2  25    6.84   16.84
   1  -2  25    8.71   20.90
   1   2  26   56.51   36.41
   1  -2  26   12.03   18.45
   1   2  27   96.64   54.21
   1  -2  27    9.03   14.40
   1   2  28  157.08   63.11
   1  -2  28  -11.03    5.05
   1   2  29   -8.81   12.26
  -1  -3  27   -0.72   16.64
  -1  -3  26   21.85   22.13
  -1  -3  25    6.86   15.20
  -1  -3  24   16.47   19.14
  -1  -3  23   19.61   18.13
  -1  -3  22   17.67   20.12
  -1  -3  21   24.89   20.64
  -1  -3  21    6.37    3.58
  -1  -3  20    0.43    7.00
  -1  -3  20   10.35    6.57
  -1  -3  19  209.72   29.60
  -1  -3  19  179.48   44.63
  -1  -3  18   14.93   13.47
  -1  -3  18    3.78    1.07
  -1  -3  17    3.79    5.29
  -1   3  17    0.41    3.48
  -1  -3  16   -3.52    4.59
  -1  -3  16    8.70    7.93
  -1   3  16   -5.72    7.93
  -1   3  16   -9.33   11.99
  -1   3  15  150.76   23.59
  -1  -3  15  130.83   29.59
  -1  -3  15  141.17   19.69
  -1   3  15  149.22   36.58
  -1  -3  14   69.55   20.61
  -1   3  14   73.66   24.00
  -1  -3  14   64.63   12.97
  -1   3  14   76.06   16.94
  -1  -3  13   46.52   17.20
  -1   3  13   72.26   14.52
  -1   3  13   43.07   18.13
  -1  -3  13   47.56   11.37
  -1  -3  12   52.71   10.76
  -1  -3  12   58.44   17.79
  -1   3  12   52.73   18.41
  -1   3  12   59.33   12.74
  -1   3  11    8.43    4.89
  -1   3  11   11.50    8.80
  -1  -3  11    3.26    2.40
  -1  -3  11   10.43    5.62
  -1   3  10   76.43   13.75
  -1  -3  10   56.00   17.35
  -1   3  10   64.50   17.33
  -1  -3  10   64.18   11.68
  -1   3  10   66.12   18.92
  -1  -3   9    5.00    7.04
  -1   3   9   -0.26    4.02
   1   3  -9    2.32    2.60
  -1   3   9    6.35    4.27
  -1  -3   8   54.83   15.83
  -1   3   8   58.09   16.38
  -1   3   8   48.81   15.11
   1   3  -8  101.65   29.17
   1   3  -7  759.65   49.34
  -1   3   7  752.61   55.88
   1   3  -7  763.95   53.58
  -1   3   7  732.86   58.46
  -1  -3   7  747.23   52.35
  -1  -3   6    2.50    4.34
   1   3  -6    0.05    0.69
   1  -3  -6   -0.59    1.38
   1  -3  -6   -3.02    3.34
  -1   3   6   -1.33    5.72
   1   3  -6    2.18    3.67
  -1   3   6    2.85    5.28
   1  -3  -5   13.59    8.82
  -1   3   5    7.00    5.57
   1   3  -5   14.14    6.91
   1  -3  -5   11.80    5.25
  -1  -3   5    7.96    5.16
   1   3  -5    7.88    5.20
  -1   3   5   10.87    5.74
   1   3  -4   87.78   15.10
  -1   3   4   82.57   17.58
  -1  -3   4  106.00   18.65
   1  -3  -4  143.38   21.14
   1   3  -4   90.34   16.92
   1  -3  -4   89.05   14.18
   1   3  -3    4.62    4.56
  -1   3   3    7.78    6.83
  -1  -3   3    1.99    3.96
   1   3  -3    0.33    2.93
   1  -3  -3    4.81    3.52
  -1  -3   3    3.45    3.03
   1   3  -2   51.20   10.49
   1  -3  -2   44.33   10.11
  -1   3   2   44.21   12.50
  -1   3   2   43.46   14.16
  -1  -3   2   43.86   11.94
   1   3  -2   40.11   11.44
  -1  -3   2   48.22   11.38
  -1  -3   1   67.20   14.36
  -1  -3   1   72.20   13.08
  -1   3   1   72.77   15.64
   1   3  -1   75.27   11.82
   1   3  -1   78.98   15.47
  -1   3   1   77.17   16.59
   1  -3  -1   75.92   12.74
  -1   3   0   10.18    5.66
   1  -3   0   10.11    4.83
  -1  -3   0   14.20    6.34
   1   3   0    6.52    2.12
  -1   3   0    9.90    6.33
   1   3   0    5.72    3.47
  -1  -3  -1   45.35   11.91
   1   3   1   44.07   12.74
  -1  -3  -1   42.32   14.61
   1   3   1   48.49    9.98
   1  -3   1   45.88   12.93
  -1   3  -1   91.46   20.99
   1  -3   1   49.66   10.59
  -1   3  -1   48.23   12.96
   1  -3   2   45.68    8.26
   1  -3   2   47.89   13.15
   1   3   2   60.30   11.25
  -1   3  -2   52.84   13.94
  -1   3  -2   54.07   13.57
   1   3   2   46.45   12.14
  -1  -3  -2   49.92   13.16
  -1  -3  -2   42.87   13.21
   1  -3   3  749.30   29.73
  -1   3  -3  783.53   58.45
  -1   3  -3  725.46   50.28
   1   3   3  732.97   39.99
   1   3   3  714.21   49.66
   1  -3   3  723.50   53.00
  -1  -3  -3  719.80   54.69
  -1  -3  -4    3.75    5.16
  -1   3  -4    8.68    6.17
   1  -3   4    5.52    2.35
  -1   3  -4    8.00    6.73
   1  -3   4    3.65    1.59
   1   3   4    6.46    3.19
   1   3   5  177.55   25.01
   1  -3   5  151.45    9.84
  -1   3  -5  211.81   32.27
   1  -3   5  164.00   26.35
  -1   3  -5  148.14   26.26
  -1  -3  -5  178.53   25.05
   1   3   5  159.39   25.84
  -1  -3  -5  162.39   24.33
   1   3   6   47.38   15.54
   1  -3   6   37.09   12.86
   1  -3   7  647.38   54.48
   1   3   7  695.71   57.15
   1  -3   8  429.68   46.41
   1   3   8  421.75   42.71
   1   3   9   -1.01    1.63
   1  -3   9    1.58    3.02
   1   3  10  100.50   21.78
   1  -3  10   88.91   22.86
   1   3  11  127.15   27.44
   1  -3  11  108.60   24.83
   1  -3  12   95.94   25.50
   1   3  12  100.78   25.54
   1  -3  13   26.23   15.34
   1   3  13   42.78   18.69
   1   3  14   73.82   21.17
   1  -3  14   69.55   21.83
   1   3  15  356.81   50.05
   1  -3  15  180.95   36.63
   1  -3  16   21.88   14.94
   1   3  16   38.06   20.36
   1   3  17  262.69   45.52
   1  -3  17  271.09   49.62
   1  -3  18   24.62   14.60
   1  -3  19   -4.89    9.64
   1  -3  20   23.46   16.31
   1  -3  21   18.56   15.39
   1  -3  22    3.09   10.42
   1  -3  23   64.57   39.55
   1  -3  24   18.60   19.31
   1  -3  25   13.48   14.44
   1  -3  26  148.73   81.25
   1   3  26   59.62   30.57
   1   3  27    9.68   11.66
   1   3  28   17.18    9.06
   1   3  29   30.31   25.66
  -1  -4  26   83.33   36.81
  -1  -4  25   18.53   19.49
  -1  -4  24  135.45   41.33
  -1  -4  23    8.12    9.77
  -1  -4  22    6.74    7.94
  -1  -4  21   11.72   10.65
  -1  -4  20   33.82   25.66
  -1  -4  19   12.06   10.48
  -1  -4  18   35.23   21.55
  -1  -4  17    6.02    8.43
  -1  -4  17    3.07    3.95
  -1   4  17   -6.96    6.42
  -1  -4  16   76.78   25.34
  -1  -4  16   91.01   16.33
  -1   4  16  109.04   20.24
  -1  -4  15   58.89   22.72
  -1  -4  15   72.41   15.42
  -1   4  15   53.07   14.04
  -1  -4  14  205.79   22.06
  -1  -4  14  239.22   43.79
  -1  -4  13    5.85    7.93
  -1  -4  13   15.91    6.81
   1   4 -13    7.41    3.69
   1   4 -12   62.84   21.40
  -1  -4  12   52.60   10.55
  -1  -4  12   46.82   17.39
  -1   4  11    9.15    5.24
  -1  -4  11   32.92   11.31
   1   4 -11   11.92    7.82
  -1  -4  11   10.15    8.16
  -1  -4  10   -0.83    4.30
   1   4 -10   -2.94    6.77
  -1   4  10    6.65    6.77
   1   4  -9   11.71    8.66
  -1  -4   9    3.41    3.40
  -1   4   9    7.36    8.15
   1   4  -8    6.35    5.57
  -1  -4   8   12.45    9.14
  -1   4   8   11.07    9.70
   1   4  -7   23.33    9.33
  -1   4   7   25.31   12.35
   1  -4  -7   26.85    9.03
  -1  -4   7   27.08   11.90
   1   4  -6  102.26   21.30
  -1   4   6   83.54   21.82
   1  -4  -6   99.86   17.07
  -1  -4   6  105.63   20.91
   1  -4  -5  132.45   20.06
  -1  -4   5  128.88   23.05
   1   4  -5  134.51   22.05
  -1   4   5  135.74   27.29
   1   4  -5  148.03   24.60
  -1   4   4   27.62   13.14
   1   4  -4   17.06    9.15
   1  -4  -4   20.27    9.95
  -1  -4   4   16.49    8.08
  -1   4   4   23.52   12.24
   1  -4  -4   20.03    9.53
   1   4  -4   16.33    6.73
   1   4  -3   32.91    9.94
  -1   4   3   33.10   13.27
  -1  -4   3   34.78   11.32
   1  -4  -3   32.47   12.46
  -1   4   3   33.64   12.72
   1   4  -3   29.97   10.50
   1   4  -2  513.37   38.67
  -1  -4   2  571.34   44.92
  -1  -4   2  521.49   52.15
   1  -4  -2  540.91   42.50
  -1   4   2  543.45   52.51
  -1   4   2  532.25   48.69
   1   4  -2  558.58   47.90
   1   4  -1   70.18   17.99
  -1   4   1   77.14   19.29
   1   4  -1   70.71   13.77
  -1  -4   1   78.27   16.49
  -1   4   1   69.04   19.54
   1  -4  -1   85.12   16.25
  -1   4   0  207.95   29.67
   1   4   0  223.35   25.59
  -1   4   0  205.19   32.18
   1  -4   0  195.32   23.02
   1   4   0  229.48   31.04
  -1  -4   0  237.43   43.94
  -1   4  -1  261.83   38.31
   1   4   1  256.74   33.15
  -1  -4  -1  308.82   45.81
   1  -4   1  247.77   25.34
   1   4   1  244.15   26.26
   1   4   2   85.51   20.68
   1   4   2   73.89   14.74
   1  -4   2   76.35   12.42
  -1   4  -2   88.40   21.83
   1  -4   2   74.54   19.35
  -1  -4  -2   80.99   22.73
   1  -4   3   26.57   11.22
   1   4   3   26.86   11.84
   1  -4   3   24.19    7.09
   1   4   3   28.68    9.05
  -1  -4  -3    8.81    5.17
   1  -4   4   21.56    6.51
  -1   4  -4   25.33   13.23
   1   4   4   28.97   12.16
  -1  -4  -4   51.11   18.86
   1  -4   4   72.19   22.57
   1   4   4   22.72   12.84
  -1   4  -5   93.01   21.87
   1  -4   5   93.42   11.72
  -1  -4  -5   77.27   20.18
   1   4   5   78.48   17.40
   1   4   5   92.18   22.60
   1  -4   5   86.18   20.89
   1  -4   6    1.53    1.42
   1   4   6    2.28    3.55
  -1  -4  -6    2.81    8.14
  -1   4  -6   -3.22    4.14
   1  -4   6    0.47    4.97
  -1   4  -7    7.49   12.13
   1  -4   7   29.94   12.04
  -1  -4  -7   36.29   14.91
  -1   4  -8   43.64   16.92
   1  -4   8   56.50   19.27
   1  -4   9   -4.94    6.68
   1   4   9    2.60    7.70
  -1   4  -9   -0.78    2.71
   1   4  10  129.27   26.51
   1  -4  10  112.49   26.37
   1   4  11   15.43   12.57
   1  -4  11    5.69    7.46
   1  -4  12   31.96   16.20
   1   4  12   38.95   21.87
   1   4  13  170.76   33.90
   1  -4  13  146.75   34.58
   1  -4  14   30.00   19.79
   1   4  14    6.96    2.83
   1   4  15   66.06   23.01
   1  -4  15   57.34   24.26
   1   4  16   29.04   19.38
   1  -4  16    1.20    3.93
   1   4  17   35.56   20.04
   1  -4  17   10.52    8.26
   1  -4  18   33.96   20.47
   1   4  18   40.71   22.94
   1   4  19   -1.71    4.97
   1  -4  19    3.04    9.14
   1  -4  20   18.59   17.30
   1   4  20   26.12   16.10
   1  -4  21    7.14   17.98
   1  -4  22   48.98   33.19
   1  -4  23   45.22   26.79
   1  -4  24   14.56    5.96
   1  -4  25   22.37   35.78
   1   4  27    4.24   17.14
   1   4  28   19.49   23.94
  -1  -5  24   21.78   21.20
  -1  -5  23   -9.56   12.76
  -1  -5  22   10.05   15.78
  -1  -5  21    1.54    2.05
  -1  -5  20    3.53   15.16
   1   5 -19   11.85   18.52
  -1  -5  19    8.02   12.83
   1   5 -18    1.47   11.41
  -1  -5  18   12.14   12.08
   1   5 -17    3.37   10.28
  -1  -5  17   13.41   15.66
  -1  -5  16   19.27   16.13
   1   5 -16   23.33   15.18
  -1  -5  15    9.54   12.93
   1   5 -15    4.40    1.24
  -1  -5  14   32.79   18.21
   1   5 -14   28.74   15.69
  -1  -5  13    7.00    5.30
   1   5 -13    9.80    8.26
  -1  -5  13    7.00    8.21
  -1  -5  12    7.39    5.00
   1   5 -12    0.69    6.19
  -1  -5  12   11.08   10.35
   1   5 -11   77.78   20.33
  -1  -5  11   54.33   20.53
   1   5 -10  176.62   31.35
  -1   5  10  180.68   36.64
  -1   5   9  120.26   29.67
  -1  -5   9  133.13   29.55
   1   5  -9  122.80   26.37
   1   5  -8   30.61   17.57
  -1  -5   8   14.05   10.38
   1   5  -7   11.48   12.97
  -1   5   7    1.71    7.44
  -1  -5   7    7.81    8.05
   1  -5  -7   19.20    9.64
   1  -5  -6   36.41   11.39
   1   5  -6   46.23   14.84
  -1   5   6   44.35   21.32
  -1  -5   6   34.46   13.26
  -1   5   5   73.91   23.17
   1   5  -5   61.19   20.00
  -1  -5   5   56.65   17.41
   1  -5  -5   69.03   18.97
   1   5  -4   94.32   23.06
  -1   5   4  102.96   24.90
   1  -5  -4  108.35   23.69
  -1  -5   4  101.70   22.76
   1  -5  -3   30.06   16.00
   1   5  -3   28.33   14.26
  -1   5   3   30.63   14.26
  -1  -5   3   49.83   17.50
  -1   5   2  126.16   28.27
   1   5  -2   92.64   19.04
   1   5  -2  104.15   24.13
   1   5  -1   12.47    8.98
   1  -5  -1   13.69    8.06
   1   5  -1   14.52   10.79
   1  -5   0  248.17   30.20
   1   5   0  214.99   34.22
   1   5   0  225.87   28.52
  -1   5   0  205.99   36.47
   1   5   1   12.97    9.18
   1   5   1    6.88    8.57
   1  -5   1    6.47    3.09
  -1   5  -1    9.88    7.36
  -1   5  -2  645.38   68.06
   1  -5   2  492.72   38.35
   1   5   2  504.05   44.25
   1   5   2  489.12   53.63
   1   5   3  115.94   21.38
   1   5   3  134.26   26.52
   1  -5   3  125.88   17.44
  -1   5  -3  112.80   25.38
   1  -5   3  136.16   29.06
  -1   5  -4   22.53   11.39
   1  -5   4   42.64   13.75
   1  -5   4   29.54   24.82
   1   5   4   17.68   10.70
   1   5   4   23.48   12.01
   1   5   5   99.54   21.23
   1  -5   5  119.78   29.14
   1  -5   5   91.43   13.75
  -1   5  -5  107.09   27.11
   1   5   5   85.91   23.86
  -1   5  -6   13.23   10.32
   1  -5   6   18.15    6.57
  -1  -5  -6   48.01   21.41
   1   5   6   13.34    7.68
   1   5   6   24.48   12.88
   1  -5   6   12.75   10.51
   1  -5   7    7.59    6.75
   1  -5   7    9.66    5.25
  -1  -5  -7   10.76   13.51
   1   5   7   24.27    9.79
   1   5   7    7.21    7.54
  -1   5  -7    0.13    1.38
  -1   5  -8   -4.13    4.04
   1  -5   8   25.17   16.58
   1  -5   9   33.64   14.93
  -1   5  -9   53.76   23.75
   1  -5  10    1.28    4.57
  -1   5 -10  114.26   27.30
   1  -5  11   23.53   13.43
  -1   5 -11    5.06   14.09
   1  -5  12    6.13   12.16
  -1   5 -12   23.92   17.90
   1  -5  13   24.45   16.98
  -1   5 -13   26.51   18.00
  -1   5 -14   -3.32    6.33
   1  -5  14   14.54   15.59
  -1   5 -15   10.53   14.24
   1  -5  15   30.01   23.06
   1   5  16   11.00   13.69
   1  -5  16    6.77   11.90
   1  -5  17   31.45   25.11
   1  -5  18   52.29   30.16
   1  -5  19   26.89   21.71
   1  -5  20   18.09   19.28
   1  -5  21   22.80   18.74
   1  -5  22   25.49   24.50
   1  -5  23   18.94   24.45
  -1  -6  22   12.56   22.43
  -1  -6  21    9.61   22.52
  -1  -6  20   28.24   43.26
  -1  -6  19   12.70   19.65
  -1  -6  18   11.55   18.54
  -1  -6  17    0.10   20.50
  -1  -6  16   19.76   25.82
   1   6 -16   22.45   11.98
  -1  -6  15   74.73   35.70
   1   6 -15   80.92   27.98
   1   6 -14    7.82    6.77
  -1  -6  14   20.29   22.10
   1   6 -13   25.78   14.10
  -1  -6  13   22.70   18.22
   1   6 -12   11.33   13.19
  -1  -6  12    7.43   11.52
   1   6 -11   13.38   12.99
  -1  -6  11    5.56   17.15
  -1   6  11   13.63   14.32
  -1  -6  10    4.45   13.24
   1   6 -10   16.03   13.74
  -1   6  10   12.65   13.00
  -1  -6   9   25.86   23.63
   1   6  -9   59.31   22.39
  -1   6   9   73.86   26.17
  -1  -6   8    7.10   12.45
   1   6  -8   14.31   12.65
  -1   6   8   28.76   16.90
  -1  -6   7    8.07   11.47
  -1   6   7    2.68    6.00
   1   6  -7   10.14   10.88
  -1  -6   6   18.70   19.72
  -1   6   6   49.33   18.55
   1   6  -6   46.80   18.77
  -1   6   5  178.45   38.03
  -1  -6   5  161.70   34.53
   1   6  -5  168.46   33.51
   1   6  -4   54.27   22.91
  -1  -6   4   26.60   21.96
  -1   6   4   65.33   25.26
  -1   6   3   48.07   19.31
   1   6  -3   51.09   19.72
   1   6  -2   35.69   17.29
  -1   6   2   43.91   17.56
   1   6  -1   62.07   23.20
  -1   6   1   56.80   26.35
  -1   6   0   33.17   17.85
   1   6   0   52.59   20.16
   1   6   1   65.06   22.04
  -1   6  -1   70.28   24.75
  -1   6  -2   20.45   18.19
   1   6   2   30.73   15.80
  -1   6  -3   56.78   22.52
   1   6   3   72.37   24.90
  -1   6  -4   41.90   19.62
   1   6   4   41.52   15.53
  -1   6  -5   47.91   18.16
   1  -6   5   61.55   27.38
   1   6   5   36.07   17.57
   1  -6   6   22.32   14.74
  -1   6  -6   20.95   15.24
   1   6   6   22.33   12.84
   1  -6   7  210.65   42.85
   1   6   7  207.66   42.12
  -1   6  -7  232.31   43.74
   1  -6   8   23.08   15.91
  -1   6  -8    4.51    8.40
   1  -6   9    7.10    7.48
  -1   6  -9   11.63   12.14
   1  -6  10   -6.08   13.30
  -1   6 -10   22.13   18.54
   1  -6  11   51.64   26.20
  -1   6 -11   67.73   28.73
   1  -6  12   32.02   24.09
  -1   6 -12   35.32   19.97
  -1   6 -13    2.90   10.63
   1  -6  13    5.84    9.45
  -1   6 -14    7.92   16.25
   1  -6  14   15.17   20.17
  -1   6 -15   -2.14   15.25
   1  -6  15   -1.45    6.26
  -1   6 -16   15.40   15.88
   1  -6  16   21.34   18.71
   1  -6  17   37.71   27.96
  -1   6 -17   25.13   20.95
   1  -6  18   23.68   23.47
  -1   6 -18   65.01   52.18
   1  -6  19   37.07   28.40
  -1   6 -19   87.21   59.02
  -1   6 -20  176.16   62.48
   1  -6  20   24.71   21.43
   1  -6  21   10.89   15.82
  -1  -7  20   58.75   41.99
  -1  -7  19   15.43   25.60
  -1  -7  18   10.24   12.08
  -1  -7  17   88.74   55.01
  -1  -7  16    8.18   18.29
  -1  -7  15   -2.18    4.41
   1   7 -14   60.74   29.36
  -1  -7  14   24.38   18.78
   1   7 -13   19.33   15.08
  -1  -7  13   16.08   14.08
   1   7 -12    9.87   15.14
  -1  -7  12   10.39   23.42
  -1  -7  11    5.12   21.75
  -1   7  11    7.98    6.99
   1   7 -11    9.48    5.49
  -1  -7  10   34.71   30.89
  -1   7  10   69.73   27.06
   1   7 -10  130.21   31.45
   1   7  -9   15.85   15.34
  -1  -7   9   12.95   15.33
  -1   7   9   13.94   14.78
  -1  -7   8    1.66   10.66
  -1   7   8   14.91   15.76
   1   7  -8   -0.14   11.53
  -1   7   7   18.94   20.67
   1   7  -7   19.47   16.70
  -1  -7   7    0.28    7.13
  -1  -7   6    9.80   18.75
  -1   7   6   20.11   13.98
   1   7  -6   19.53   14.63
  -1   7   5   53.76   25.75
   1   7  -5    5.84    3.29
  -1   7   4   28.53   21.94
   1   7  -4   -1.95    2.33
   1   7  -3   53.14   22.63
  -1   7   3   37.66   18.43
   1   7  -2   49.38   22.76
  -1   7   2  162.38   49.49
  -1   7   1    2.03    2.29
   1   7  -1   14.16   17.41
  -1   7   0   66.90   27.92
   1   7   0   74.88   24.38
  -1   7  -1   18.88   18.47
   1   7   1   13.32    9.97
   1   7   2   81.25   31.92
  -1   7  -2   75.01   28.77
  -1   7  -3   94.73   34.98
   1   7   3   56.18   25.83
   1   7   4    8.72   11.71
  -1   7  -4  -19.25   13.18
   1   7   5    6.34   15.18
  -1   7  -5    6.07    8.70
  -1   7  -6   66.29   27.21
   1   7   6    9.93   13.97
   1  -7   7   45.79   25.73
  -1   7  -7   57.02   31.30
  -1   7  -8   -0.21    6.00
   1  -7   8    0.63    2.22
  -1   7  -9    8.96   15.70
   1  -7   9   17.35   17.40
   1  -7  10    7.35   14.82
  -1   7 -10    4.09   13.14
  -1   7 -11    3.21   12.92
   1  -7  11    0.59    6.37
  -1   7 -12   35.90   35.75
   1  -7  12   46.86   31.52
   1  -7  13   10.03   16.86
  -1   7 -13   10.39   23.21
   1  -7  14   49.63   23.16
  -1   7 -14    0.36   10.88
  -1   7 -15   44.34   46.75
   1  -7  15   86.42   54.68
   1  -7  16    5.57   20.76
  -1   7 -16   18.96   24.86
  -1   7 -17    0.44   12.09
   1  -7  17    3.19    7.44
   1  -7  18   34.40   34.47
   1  -7  19    0.60   14.88
  -1  -8  17   34.13   31.82
  -1  -8  16   31.89   39.46
  -1  -8  15   13.03   17.57
  -1  -8  14   53.60   31.35
  -1  -8  13   17.39   28.12
  -1  -8  12   19.80   24.51
   1   8 -11   23.93   21.95
  -1  -8  11    2.49   16.79
  -1   8  10    3.20    7.30
  -1  -8  10   -6.61   14.07
   1   8 -10    4.93    8.81
  -1   8   9   18.26   25.33
   1   8  -9    3.15    3.59
  -1   8   8   -0.12    2.38
   1   8  -8   20.77   25.80
  -1   8   7   -1.78   13.64
   1   8  -7   -4.71    8.97
   1   8  -6   55.75   32.85
  -1   8   6    7.52   17.31
   1   8  -5   42.17   22.13
  -1   8   5    5.33   16.71
   1   8  -4   56.91   29.49
  -1   8   4    6.08   18.48
   1   8  -3   36.73   25.88
  -1   8   3   -3.27    9.73
   1   8  -2   13.17    4.56
  -1   8   2   15.11   33.64
   1   8  -1   11.59   18.46
  -1   8   1   11.71   31.01
   1   8   0   34.42   22.67
  -1   8   0   21.93   18.34
  -1   8  -1    3.44   11.91
   1   8   1    7.46   13.31
  -1   8  -2   -5.60    6.36
   1   8   2   11.39   21.65
  -1   8  -3    2.03   13.80
   1   8   3   -1.49    4.12
   1   8   4    0.76   10.06
  -1   8  -4   25.53   19.89
  -1   8  -5   82.49   35.51
   1   8   5   13.68   23.86
  -1   8  -6   -2.20   11.28
   1   8   6   -0.86    9.19
  -1   8  -7   -3.18   12.54
  -1   8  -8   67.60   34.86
  -1   8  -9   29.84   18.51
   1  -8  10  513.61   89.50
  -1   8 -10   11.78   20.95
  -1   8 -11    9.97   19.00
   1  -8  11    1.02    4.48
  -1   8 -12   49.15   55.01
   1  -8  12    6.00   21.77
   1  -8  13    6.14   16.50
  -1   8 -13    9.23   25.56
   1  -8  14   -5.90   10.31
  -1   8 -14   19.01   16.78
   1  -8  15    5.53    3.73
   1  -8  16   17.69   26.24
   1   9  -7    9.21   18.42
   1   9  -6   25.45   21.19
   1   9  -5  124.33   51.44
   1   9  -4   22.67   22.69
   1   9  -3   16.45   24.77
   1   9  -2   39.94   34.12
  -1   9   2    8.25   17.55
   1   9  -1   43.69   31.93
  -1   9   1   13.79   26.12
  -1   9   0  109.03   41.79
   1   9   0   22.67   19.95
  -1   9  -1   -0.43    8.08
   1   9   1    2.34   10.34
   1   9   2   10.52   26.74
  -1   9  -2   -1.14   14.17
  -1   9  -3   56.20   31.18
   1   9   3   24.12   27.00
  -1   9  -4   23.82   27.46
   1   9   4   10.89   19.37
  -1   9  -5   16.42   14.34
  -1   9  -6   -6.27   15.94
  -1   9  -7    6.60   23.43
  -1   9  -8   12.71   24.87
  -1   9  -9    9.61   27.81
  -1   9 -10    1.86   12.80
  -2   0  29   11.37   16.49
  -2   0  29  138.54   64.24
  -2   0  28   11.51   15.05
  -2   0  28    1.22    9.46
  -2   0  27   -4.16    8.23
  -2   0  27   20.66   22.73
  -2   0  26    9.53   18.61
  -2   0  26   19.31   18.57
  -2   0  25    4.35   11.95
  -2   0  24   24.73   17.24
  -2   0  23    3.84   15.13
  -2   0  22   51.42   23.39
  -2   0  21   -0.66    1.69
  -2   0  20  183.70   35.35
  -2   0  19   -4.43    3.34
  -2   0  18   15.17    7.01
  -2   0  17   -5.04    5.33
  -2   0  16  251.29   36.65
   2   0 -16  234.28   27.48
  -2   0  15   -2.01    5.36
   2   0 -15   -2.32    2.88
  -2   0  14    7.98    5.67
   2   0 -14   12.14    5.34
  -2   0  13    1.50    2.96
   2   0 -13    0.26    1.25
   2   0 -12  324.13   27.42
  -2   0  12  357.36   36.44
   2   0 -11    3.23    8.43
  -2   0  11   -0.50    1.46
   2   0 -11    1.56    3.66
  -2   0  10  163.06   22.50
   2   0 -10  182.90   25.91
   2   0 -10  140.36   15.93
  -2   0   9    0.77    2.64
   2   0  -9    0.66    2.69
   2   0  -9    1.23    3.25
  -2   0   8  283.04   27.55
   2   0  -8  292.97   27.65
   2   0  -8  293.36   19.79
   2   0  -7   -0.44    0.31
   2   0  -7   -0.47    1.72
   2   0  -6  566.43   24.40
   2   0  -6  560.94   35.38
  -2   0   6  538.86   34.76
   2   0  -5    2.14    1.66
  -2   0   5   -0.27    0.89
  -2   0   5    0.29    1.30
  -2   0   4 1484.79   33.34
   2   0  -4 1472.32   39.02
  -2   0   4 1497.40   51.01
  -2   0   3   -0.04    2.39
  -2   0   3    0.26    0.68
  -2   0   2 1217.80   49.01
   2   0  -2 1198.72   49.62
   2   0  -1    0.16    1.41
  -2   0   1    0.63    1.61
   2   0   0   17.16    6.22
   2   0   1    0.10    0.74
  -2   0  -1    0.48    1.47
  -2   0  -2   11.61    4.19
   2   0   2    9.83    3.76
   2   0   3    1.06    1.50
  -2   0  -3    0.53    2.29
   2   0   4  407.16   26.58
  -2   0  -4  406.49   25.40
   2   0   5    1.55    5.22
  -2   0  -5    0.73    3.57
   2   0   6  870.37   44.40
  -2   0  -6  864.26   43.16
   2   0   7    1.10    0.59
  -2   0  -7   14.86    6.38
   2   0   8  119.11   18.62
   2   0   9    0.46    2.40
  -2   0  -9   -0.89    2.07
   2   0  10    3.26    3.08
  -2   0 -10    5.45    3.34
  -2   0 -11   -1.53    1.68
   2   0  11    0.86    2.99
  -2   0 -12   32.75    9.71
   2   0  12   33.70   12.92
  -2   0 -13    0.15    1.68
   2   0  13    0.58    1.73
   2   0  14   -0.26    2.87
   2   0  15   -0.70    1.02
   2   0  16   81.85   26.07
   2   0  17   -0.57    3.57
   2   0  18  247.66   64.93
   2   0  19    7.55   15.17
   2   0  20   18.18   16.29
   2   0  21    7.09    8.47
   2   0  22   12.14   13.95
   2   0  23   10.96   19.42
   2   0  24    3.05    9.82
   2   0  25    5.53   14.53
   2   0  26   40.32   30.29
   2   0  27   50.07   32.92
   2   0  28   16.41   29.97
   2   0  29    4.75   16.41
  -2   1  28   10.34   21.49
  -2  -1  28   -5.63    6.40
  -2   1  27   76.43   35.60
  -2  -1  27   27.32   22.52
  -2  -1  27   23.98   21.17
  -2  -1  26    0.57    6.73
  -2  -1  26   13.39   18.82
  -2   1  26   34.06   32.62
  -2  -1  25    8.72   11.24
  -2  -1  25   19.80   21.97
  -2   1  25   12.76   15.84
  -2   1  24    9.25   11.91
  -2  -1  24    8.44   10.24
  -2  -1  24    0.88    7.72
  -2  -1  23   -3.58   10.58
  -2  -1  23   14.72   12.24
  -2   1  22   73.65   24.43
  -2  -1  22   84.14   27.22
  -2  -1  22   97.08   31.21
  -2   1  21   24.96   14.81
  -2  -1  21   63.61   28.42
  -2  -1  21   30.94   16.98
  -2   1  20   20.52   15.57
  -2  -1  20   29.66   17.16
  -2   1  19    4.34    8.62
  -2  -1  19   10.96   15.21
  -2   1  18  106.86   28.03
  -2  -1  18   95.46   22.58
  -2   1  17    4.74    5.51
  -2  -1  17    3.67    4.24
  -2   1  16   78.33   20.47
  -2  -1  16   92.61   20.03
  -2   1  15   37.38   14.35
  -2  -1  15   34.28   12.66
  -2   1  14  252.43   35.95
  -2  -1  14  257.02   31.54
   2  -1 -14  239.62   29.54
   2  -1 -13    2.51    2.99
  -2  -1  13    6.07    5.22
  -2   1  13    4.04    4.97
  -2  -1  12  149.96   22.37
   2  -1 -12  138.88   20.83
  -2   1  12  150.41   26.19
   2  -1 -11  487.04   37.34
  -2  -1  11  466.62   37.91
  -2   1  11  455.95   43.13
  -2   1  10   22.90    8.77
  -2  -1  10   17.65    7.06
   2  -1 -10   21.59    8.32
  -2   1   9    8.55    5.19
  -2  -1   9    6.67    5.18
   2  -1  -9    8.92    5.31
  -2   1   8   21.96    8.01
   2  -1  -8   23.63    8.26
  -2  -1   8   17.30    6.50
  -2   1   8   20.24    6.64
  -2   1   7  269.67   27.29
   2  -1  -7  261.39   24.40
  -2   1   7  259.73   23.44
  -2  -1   7  269.73   24.36
  -2   1   6    0.89    1.80
  -2   1   6   -0.61    2.05
   2  -1  -6    4.79    4.32
  -2   1   5  641.68   38.21
   2  -1  -5  609.91   35.70
  -2   1   5  618.53   35.11
  -2   1   5  634.97   25.06
  -2   1   4  102.68   14.06
  -2   1   4  108.62   14.88
   2  -1  -4  114.60   15.10
   2  -1  -3  215.58   19.69
   2  -1  -3  218.43   15.03
  -2   1   3  207.13   19.44
   2  -1  -3  239.64   23.52
  -2   1   3  208.95   20.09
   2  -1  -2  153.05   15.56
  -2   1   2  164.06   18.92
  -2  -1   2  156.77   10.16
  -2   1   2  147.28   15.22
   2   1  -1   14.28    8.12
  -2   1   1   10.65    4.50
  -2   1   0  126.50   12.04
   2   1   0  133.50   20.62
   2  -1   1 3502.99   91.07
   2   1   1 3515.94  104.17
   2   1   2   63.20   13.90
   2  -1   2   53.58   11.46
   2   1   3 2216.92   41.57
   2   1   3 2216.40   83.80
   2  -1   3 2200.55   74.00
   2  -1   4  194.39   22.34
   2   1   4  203.54   14.91
   2  -1   5  273.66   28.38
   2   1   5  264.77   19.82
   2   1   6  419.67   27.42
  -2   1  -6  428.35   34.50
   2  -1   6  417.55   35.53
  -2   1  -7   57.26    9.52
   2   1   7   57.68   11.07
   2  -1   7   57.51   14.14
   2  -1   8   56.60   13.86
  -2   1  -8   59.30    9.43
   2   1   8   61.89   12.94
  -2  -1  -9   16.47    8.34
  -2   1  -9   15.99    3.91
   2   1   9   23.12    8.04
   2  -1   9   30.15   10.69
   2   1  10   -0.70    2.68
   2  -1  10    2.46    4.04
  -2   1 -10    1.31    1.26
  -2   1 -11   13.33    6.38
   2  -1  11   21.44    9.40
   2   1  11   14.06    7.15
  -2   1 -12    4.91    4.21
   2  -1  12    6.45    9.37
   2   1  12    3.66    4.32
   2  -1  13   58.83   21.08
  -2   1 -13   49.52   12.32
   2   1  13   50.08   14.90
  -2   1 -14   -2.51    3.16
   2   1  14   -2.50    5.38
   2  -1  14    2.08    4.52
   2  -1  15    6.94    7.32
   2   1  15   15.45   10.59
  -2   1 -15   13.63    6.01
   2  -1  16    1.74    7.40
   2   1  16   18.47   18.30
  -2   1 -16    8.77   12.65
   2   1  17    8.61    6.80
   2  -1  17    2.62    8.42
   2   1  18   -0.89    3.63
   2  -1  18    0.34    1.46
   2   1  19   21.65   16.61
   2  -1  19   29.46   16.71
   2  -1  20   16.91   11.75
   2   1  20   13.35   14.74
   2   1  21   61.32   27.62
   2  -1  21   73.15   31.75
   2   1  22   27.04   19.89
   2  -1  22    9.62   15.80
   2   1  23   10.08   15.43
   2  -1  23   12.19   13.89
   2  -1  24   11.12   13.46
   2   1  24    8.87   14.16
   2  -1  25   15.48   24.05
   2   1  25   10.14   16.92
   2  -1  26    7.22   18.49
   2   1  26   -0.82    7.02
   2  -1  27   21.64   22.34
   2   1  27    6.80   15.17
   2   1  28    6.85   21.52
   2  -1  28   13.80   18.67
   2   1  29   21.17   19.77
  -2  -2  28   31.56   25.85
  -2  -2  27   36.23   23.86
  -2  -2  26    3.55   11.49
  -2   2  26   10.54   29.80
  -2   2  25   29.14   21.41
  -2  -2  25   29.20   23.06
  -2  -2  24   19.41   12.78
  -2   2  24   11.29    7.12
  -2   2  23   53.55   31.21
  -2  -2  23   50.18   22.13
  -2  -2  23   31.77   26.21
  -2  -2  22   14.04   16.09
  -2  -2  22   13.60   12.60
  -2   2  22   18.24   15.45
  -2  -2  21    4.28    6.10
  -2  -2  21    1.66    5.37
  -2   2  21   16.21   11.88
  -2  -2  20    5.31    7.52
  -2  -2  20   12.93   11.47
  -2   2  20    8.69   16.70
  -2  -2  19   57.22   18.85
  -2  -2  19   51.71   20.81
  -2   2  19   61.15   23.06
  -2  -2  18   11.01   10.38
  -2  -2  18    0.59    7.64
  -2   2  18   -6.16    8.47
  -2  -2  17  231.15   31.80
  -2  -2  17  240.60   41.64
  -2   2  17  234.07   40.33
  -2  -2  16   21.27   11.75
  -2   2  16   19.84   12.67
  -2  -2  16   22.60    9.31
  -2   2  15   10.50    8.67
  -2  -2  15    5.84    5.43
  -2  -2  15   15.58   17.67
  -2  -2  14    5.76    6.34
  -2  -2  14    3.82    6.34
  -2   2  14    0.20    5.70
  -2   2  13   38.66   13.54
  -2  -2  13   34.63   13.63
  -2  -2  13   37.13   11.66
  -2  -2  12    9.96    6.54
  -2  -2  12   16.23    8.79
  -2   2  12   24.67   11.20
  -2  -2  11  200.61   24.03
  -2   2  11  226.96   33.65
  -2  -2  11  210.21   30.02
  -2  -2  10  126.28   18.27
  -2   2  10  137.59   24.95
   2  -2 -10  149.09   24.09
  -2  -2  10  141.47   23.41
  -2   2  10  121.68   21.11
   2  -2  -9  195.48   26.52
  -2   2   9  194.10   25.92
  -2   2   9  205.13   29.26
  -2  -2   9  190.34   21.95
  -2  -2   9  199.60   27.11
   2   2  -8    3.84    3.29
  -2  -2   8    0.38    1.80
  -2   2   8   -0.11    2.05
   2  -2  -8    5.01    4.50
  -2   2   8    0.14    3.01
   2   2  -7   62.78   10.01
  -2   2   7   62.90   14.43
   2  -2  -7   76.49   18.15
  -2  -2   7   65.27   13.84
  -2   2   7   60.61   14.65
  -2   2   6    6.88    5.26
   2  -2  -6   11.51    6.89
   2   2  -6   11.09    3.98
  -2  -2   6    9.65    4.15
  -2   2   6    7.92    5.19
   2   2  -5  248.70   17.73
  -2   2   5  234.57   27.31
  -2   2   5  239.06   26.27
  -2  -2   5  240.36   22.63
   2  -2  -5  240.96   25.82
   2  -2  -5  248.56   27.99
   2   2  -4   42.87    7.84
  -2   2   4   32.36    9.09
   2  -2  -4   36.03   11.31
  -2  -2   4   24.45    7.25
  -2  -2   4   33.29    7.54
  -2   2   4   30.79    8.82
   2  -2  -4   33.12    9.05
  -2   2   3    2.19    3.00
   2  -2  -3    7.57    5.83
   2   2  -3    2.57    1.97
  -2   2   3    7.03    4.54
  -2  -2   3    3.74    1.90
   2  -2  -3    7.55    7.09
   2  -2  -2  135.17   16.08
  -2   2   2  140.49   20.64
  -2  -2   2  127.47   14.57
  -2  -2   2  137.60   12.51
  -2   2   2  144.10   16.71
   2   2  -2  137.25   14.23
  -2  -2   1  115.92   10.12
  -2   2   1  109.52   19.07
   2  -2  -1  123.55   14.25
  -2   2   1  111.39   19.27
  -2  -2   1  117.63   14.64
  -2  -2   1  122.36   23.14
  -2   2   1  120.27   14.32
   2   2  -1  111.48   13.53
   2  -2   0    2.22    3.35
  -2  -2   0    5.81    7.32
  -2  -2   0    1.00    2.12
  -2   2   0    1.56    3.21
  -2   2   0   -0.60    4.01
   2  -2   1    0.03    2.00
  -2   2  -1    2.28    3.93
   2  -2   1    3.19    1.92
  -2  -2  -1    4.45    4.36
  -2   2  -1    3.66    2.89
   2   2   1   -2.55    5.24
  -2  -2  -1    8.28    8.05
  -2  -2  -2  139.94   18.36
  -2  -2  -2  130.21   22.61
  -2   2  -2  144.15   11.87
   2   2   2  145.33   24.02
   2  -2   2  137.62   21.60
   2   2   3 1155.62   69.64
  -2  -2  -3 1173.00   68.55
   2  -2   3 1159.01   63.92
  -2   2  -3 1171.47   28.61
   2  -2   4  115.13   20.08
   2   2   4  111.05   22.35
  -2  -2  -4  104.84   20.49
  -2  -2  -4  114.76   17.69
   2  -2   5  265.85   31.27
   2   2   5  264.23   32.92
   2   2   6  383.76   41.88
   2  -2   6  403.88   40.35
   2   2   7    0.02    0.69
   2  -2   7   -4.51    1.19
   2   2   8  893.67   64.65
   2  -2   8  902.69   62.64
   2   2   9   42.23   14.30
  -2   2  -9   38.36    5.66
   2  -2   9   37.43   13.59
  -2   2 -10  178.97   13.57
   2  -2  10  174.79   29.22
   2  -2  11    8.70    7.00
  -2   2 -11   18.49    5.10
  -2   2 -12  167.26   15.83
   2  -2  12  163.84   30.31
  -2   2 -13    8.64    5.66
   2  -2  13    3.43    5.02
   2  -2  14   24.17   12.33
  -2   2 -14   21.02    6.83
   2  -2  15   24.00   15.16
  -2   2 -15   13.12    5.65
  -2   2 -16   37.66    9.97
   2  -2  16   39.39   16.85
   2   2  17   64.25   19.99
  -2   2 -17   99.59   17.74
   2  -2  17   79.26   26.93
   2  -2  18    9.40   12.77
  -2   2 -18   11.49    6.63
   2   2  18    3.42    8.30
   2  -2  19   63.76   31.52
   2   2  19   76.56   25.96
   2  -2  20   -4.62   10.42
   2   2  20   13.72   15.72
   2   2  21   -1.51    2.85
   2  -2  21    5.47   11.08
   2   2  22   61.95   24.59
   2  -2  22   14.89   22.30
   2   2  23   25.95   21.25
   2  -2  23   22.14   21.99
   2  -2  24    3.44   17.07
   2   2  24    8.69   16.78
   2   2  25    7.64   19.87
   2  -2  25    7.92   17.94
   2   2  26   30.02   29.65
   2  -2  26   13.68   23.69
   2  -2  27    4.53   15.22
   2   2  27   11.55   16.05
   2   2  28   71.63   32.58
   2   2  29    7.13   17.59
  -2  -3  27   15.19    2.17
  -2  -3  26   16.35   16.82
  -2  -3  25   -0.77   11.43
  -2  -3  24   26.15   40.11
  -2   3  23   12.95   20.35
  -2  -3  23  146.15   42.44
  -2  -3  22   26.47   15.31
  -2   3  22   23.04   15.71
  -2  -3  22    9.82   11.19
  -2   3  21    4.90   14.80
  -2  -3  21   10.45   11.47
  -2  -3  21   37.48   19.33
  -2   3  20   -2.22    5.19
  -2  -3  20   14.65   10.38
  -2  -3  20    6.67    7.30
  -2   3  19   21.69   22.99
  -2  -3  19   42.53   16.80
  -2  -3  18   97.67   21.87
  -2   3  18   94.53   31.47
  -2  -3  18   89.50   28.14
  -2  -3  17   86.68   26.62
  -2   3  17   68.00   27.71
  -2  -3  17   78.58   17.45
  -2  -3  16  110.12   29.27
  -2  -3  16  115.50   20.32
  -2   3  16  103.04   28.81
  -2   3  16  118.26   19.03
  -2  -3  15    1.65    3.93
  -2  -3  15    1.35    5.29
  -2   3  15   -4.28    5.16
  -2   3  14   34.03   17.71
  -2  -3  14   31.62   10.92
  -2  -3  14   25.39   12.80
  -2   3  14   31.99    8.49
  -2   3  13    0.65    6.91
  -2  -3  13    4.28    6.95
  -2   3  13    2.51    2.56
  -2  -3  13    3.77    4.97
  -2  -3  12  342.63   43.37
  -2   3  12  312.10   43.16
  -2  -3  12  323.88   31.16
  -2  -3  11   87.47   20.76
   2   3 -11   58.28   17.32
  -2  -3  11   92.51   16.63
  -2   3  11   91.04   21.14
  -2   3  11   96.15   23.00
   2   3 -10  385.22   38.09
  -2   3  10  450.46   48.29
  -2  -3  10  407.70   43.51
  -2   3  10  403.03   43.69
  -2  -3   9   73.53   19.29
   2   3  -9   61.17   12.77
  -2   3   9   56.69   16.47
  -2   3   9   50.64   15.56
  -2  -3   8    4.24    5.50
   2   3  -8    1.41    4.99
  -2   3   7   77.11   18.13
  -2   3   7   82.06   19.31
   2   3  -7   79.68   13.88
  -2  -3   7   70.96   15.14
  -2   3   6    6.68    5.46
  -2   3   6    2.59    4.24
  -2  -3   6    7.97    5.95
   2   3  -6    4.55    5.23
   2  -3  -6   10.64    8.28
  -2  -3   5    4.45    4.66
  -2   3   5    3.56    4.51
   2   3  -5    5.10    5.41
   2  -3  -5   -0.15    0.94
   2  -3  -5    0.21    1.16
  -2   3   5    2.29    4.68
  -2  -3   4   24.40    7.22
   2  -3  -4   32.59   11.58
   2   3  -4   30.45    8.67
  -2   3   4   30.14   13.38
  -2  -3   4   28.98   10.44
  -2   3   3   -2.56    4.15
  -2   3   3   -2.25    4.46
   2  -3  -3   -1.38    2.18
   2   3  -3    2.80    4.17
   2   3  -3    5.00    4.81
  -2  -3   3   -2.84    4.45
  -2  -3   3    5.66    6.23
   2   3  -2    2.35    4.28
  -2   3   2    3.04    4.62
   2  -3  -2    4.16    4.88
  -2  -3   2    6.22    5.92
   2   3  -2    1.73    2.41
  -2   3   2    3.18    4.65
  -2  -3   2    1.19    2.31
  -2   3   2   -1.59    1.74
   2   3  -1    9.32    6.39
  -2  -3   1   13.96    5.79
  -2   3   1   10.03    7.23
  -2   3   1   20.37   10.20
  -2  -3   1   14.36   10.82
   2  -3  -1   12.99    5.76
  -2  -3   1   10.51    5.00
   2   3  -1   12.83    4.64
  -2   3   1   11.07    5.99
  -2   3   0   10.65    4.91
  -2   3   0   12.42    8.19
   2  -3   0    8.65    4.54
   2   3   0    7.72    5.00
  -2  -3   0    9.42    6.49
  -2  -3   0   12.81    7.69
  -2   3   0   10.30    5.97
   2   3   0    5.46    2.37
  -2  -3  -1  108.16   24.07
   2  -3   1  104.44   13.47
  -2   3  -1  115.51   22.36
  -2   3  -1   92.47   21.62
   2  -3   1  105.48   22.78
   2   3   1   98.73   17.86
   2   3   1  130.49   14.22
  -2  -3  -1  127.54   22.26
  -2   3  -1   99.39   14.19
   2  -3   2    9.75    9.55
  -2   3  -2   38.10   18.17
  -2  -3  -2    3.84    7.35
   2   3   2    3.57    7.69
  -2  -3  -2    7.63   19.10
  -2   3  -2    3.17    5.06
   2  -3   2    1.17    1.65
   2  -3   3  310.64   37.98
  -2  -3  -3  306.73   39.42
   2  -3   3  323.45   18.30
  -2  -3  -3  306.47   33.02
  -2   3  -3  268.53   40.85
   2   3   3  374.38   47.62
   2   3   3  356.73   23.13
  -2  -3  -4  148.59   27.97
   2   3   4  142.59   27.30
  -2  -3  -4  147.63   24.28
   2  -3   4  160.34   27.17
   2   3   5  539.68   54.40
  -2  -3  -5  552.03   51.09
   2  -3   5  559.92   51.47
   2   3   6   12.46   10.28
   2  -3   6   23.41   12.39
   2   3   7  133.45   27.68
   2  -3   7  118.10   25.10
   2  -3   8  304.22   40.53
   2   3   8  310.91   42.76
   2   3   9   55.25   18.39
   2  -3   9   57.45   18.55
   2  -3  10  254.51   39.67
   2   3  10  248.80   40.51
   2   3  11    7.16    3.12
   2  -3  11   21.27   11.77
   2  -3  12   -2.93    6.93
   2   3  12   23.32   16.58
   2  -3  13    6.71   11.08
   2   3  13    2.88    8.83
   2   3  14   27.55   18.37
   2  -3  14   31.54   14.58
   2  -3  15   -3.85    6.24
   2   3  15    5.70    3.19
   2  -3  16   11.61   12.88
   2   3  16   13.59   15.44
   2  -3  17   64.33   24.02
   2   3  17   76.29   29.19
   2  -3  18   50.50   28.31
   2   3  18   65.41   25.04
   2  -3  19   15.85   17.57
   2   3  19  208.17   51.57
   2  -3  20    3.83   12.94
   2   3  21    6.60    7.03
   2  -3  21   -0.92   12.89
   2  -3  22   28.48   24.83
   2   3  22   18.00   15.75
   2  -3  23   18.27   21.33
   2   3  23    5.53    5.07
   2   3  24   15.36   18.22
   2  -3  24   55.09   33.96
   2  -3  25    4.71   14.57
   2   3  25   11.31   18.38
   2  -3  26   38.58   47.04
   2   3  26    1.76   10.56
   2   3  27   27.14   33.98
   2   3  28   -3.12    6.43
   2   3  29   -1.08   14.44
  -2  -4  26   31.01   30.40
  -2  -4  25 1425.87  194.76
  -2  -4  24  235.43   65.58
  -2  -4  23   -2.32   12.72
  -2  -4  22    0.65   11.15
  -2  -4  21   -9.26   13.40
  -2  -4  20   14.61   21.10
  -2  -4  19    8.78    8.71
  -2   4  18   16.22   20.70
  -2  -4  18   49.08   22.70
  -2  -4  18   15.91    6.04
   2   4 -18    4.86    6.97
   2   4 -17   35.46   20.68
  -2  -4  17   84.52   16.69
  -2   4  17   71.18   32.06
  -2  -4  17   90.18   27.92
   2   4 -16    9.67    8.40
  -2  -4  16   11.41   11.30
  -2  -4  16   18.72    9.73
  -2   4  16   -2.78   11.47
   2   4 -15   16.85   14.70
  -2   4  15   23.17   14.04
  -2  -4  14  342.96   33.24
   2   4 -14  328.42   42.16
  -2  -4  14  338.81   50.42
  -2   4  14  350.69   55.11
   2   4 -13   55.56   14.43
  -2   4  13   74.55   26.53
  -2  -4  13   91.50   20.41
  -2  -4  13   52.45   20.00
  -2  -4  12  112.95   27.40
  -2   4  12   97.36   25.47
   2   4 -12  127.70   22.75
  -2   4  12  112.05   28.52
  -2  -4  12  107.89   17.39
  -2   4  11   47.50   17.31
   2   4 -11   39.99   12.88
  -2  -4  11   42.39   15.24
  -2   4  11   38.71   17.07
  -2   4  10    6.27    5.03
  -2   4  10    6.76    6.95
   2   4 -10    8.09    4.47
  -2  -4  10   16.09   11.30
  -2   4   9  109.55   37.15
  -2   4   9   72.22   20.49
  -2  -4   9   59.34   17.15
   2   4  -9   62.45   15.24
  -2   4   8   35.83   15.00
  -2   4   8   37.31   16.20
  -2  -4   8   27.53   12.45
   2   4  -8   27.38   13.07
  -2   4   7   10.83   10.01
  -2   4   7   13.44    8.12
   2   4  -7   14.12    8.16
  -2  -4   7   11.14    7.12
   2  -4  -7    8.35    3.84
  -2   4   6   38.49   14.46
   2  -4  -6   48.43   10.75
   2   4  -6   25.28   12.19
  -2   4   6   31.61   11.92
  -2  -4   6   37.94   11.97
  -2   4   5  112.30   22.05
  -2   4   5  100.01   24.46
   2   4  -5   98.88   17.73
   2  -4  -5  113.38   17.41
  -2  -4   5  104.47   19.14
   2   4  -5  132.50   22.74
   2   4  -4  190.52   26.70
   2  -4  -4  188.07   24.78
  -2  -4   4  229.41   27.61
  -2   4   4  198.15   28.58
  -2  -4   4  197.36   29.88
  -2   4   4  173.63   30.52
   2   4  -4  175.07   22.25
   2   4  -3   60.29   12.04
  -2   4   3   61.92   18.09
   2  -4  -3   68.28   15.21
   2   4  -3   39.18   14.41
  -2  -4   3   48.72   16.88
  -2  -4   3   60.93   13.52
   2   4  -2   12.07    8.78
   2  -4  -2   13.85    9.92
   2   4  -2   11.81    6.04
  -2  -4   2    7.94    4.82
  -2   4   2   13.85   11.05
  -2  -4   2   10.13    5.68
   2  -4  -1   41.66   10.12
   2   4  -1   39.30    8.89
  -2  -4   1   44.13   14.21
  -2   4   1   44.24   15.14
   2   4  -1   32.18   13.07
   2  -4   0  372.89   29.28
  -2   4   0  352.72   43.80
   2   4   0  396.27   28.47
   2   4   0  349.81   39.23
   2   4   1  101.51   20.23
   2  -4   1   98.07   14.41
  -2   4  -1  102.32   24.60
   2   4   1   98.66   13.67
   2   4   2    6.79    3.39
   2  -4   2    6.09    5.58
   2   4   2   12.29   11.11
  -2   4  -2    1.13    3.62
   2  -4   2    6.15    8.20
  -2   4  -3    9.86    7.11
   2  -4   3   13.07    4.39
   2   4   3   13.50    8.56
   2   4   3    9.56    4.57
  -2  -4  -3   17.12    8.66
  -2  -4  -4  243.90   38.20
   2  -4   4  270.65   18.47
  -2   4  -4  250.16   39.41
   2  -4   4  231.65   36.09
   2   4   4  247.31   23.29
   2  -4   5   22.62    4.56
   2  -4   5   24.89   12.20
  -2   4  -5   38.93   17.81
   2   4   5   31.99    9.24
  -2  -4  -5   36.07   14.69
  -2   4  -6    6.45   10.29
   2  -4   6    4.99    8.99
  -2  -4  -6   21.48   15.63
  -2   4  -7    6.92    9.20
   2   4   7    5.46    3.60
   2  -4   7    1.80    2.78
   2   4   8    5.83   10.25
   2  -4   8   17.92   16.02
   2   4   9   22.99   18.14
   2  -4   9    8.54    6.93
   2  -4  10   58.95   21.12
   2   4  10   69.44   23.83
   2  -4  11   30.52   16.17
   2   4  11   25.56   15.96
   2  -4  12  105.25   28.06
   2   4  12   88.41   24.23
   2  -4  13   11.50   11.28
   2   4  13   45.26   26.81
   2  -4  14   57.03   23.77
   2   4  14   67.74   26.69
   2  -4  15   58.72   23.48
   2   4  15   65.83   24.17
   2  -4  16    0.14    4.31
   2   4  16   13.16   18.95
   2  -4  17    4.11    8.43
   2   4  17   10.80   17.83
   2  -4  18   36.78   25.13
   2   4  18   57.80   31.73
   2  -4  19   11.91   19.23
   2   4  19   -0.01   13.18
   2  -4  20   36.33   26.14
   2   4  20   51.58   28.28
   2  -4  21  -12.41   15.66
   2   4  21   78.92   38.87
   2  -4  22   19.48   18.73
   2   4  23  167.46   45.81
   2  -4  23   13.26   19.28
   2  -4  24   -3.79    8.17
   2   4  24   -1.51    3.73
   2  -4  25   11.83   26.75
   2   4  25    5.46   12.68
  -2  -5  25   86.97   45.81
  -2  -5  24   20.11   25.79
  -2  -5  23  -14.20   16.62
  -2  -5  22    7.85   19.08
  -2  -5  21   24.11   20.85
  -2  -5  20   14.73   17.91
  -2  -5  19   15.29   19.56
  -2  -5  18   14.09   17.09
  -2  -5  17   61.53   27.51
   2   5 -17   78.91   19.77
  -2  -5  16    2.93    5.44
   2   5 -16   11.33    9.66
   2   5 -15   30.23   15.47
  -2  -5  15    8.63    7.72
  -2  -5  14   12.78   12.48
   2   5 -14    1.51    5.75
  -2  -5  14   15.55    8.75
  -2  -5  13    2.38    5.25
   2   5 -13   -3.45    3.47
  -2  -5  13   13.07    8.81
  -2   5  13   11.55   20.61
  -2  -5  12   28.35   16.36
   2   5 -12    9.55   10.03
  -2   5  12   25.21   15.23
  -2   5  11   40.30   20.58
  -2  -5  11   40.09   16.32
   2   5 -11   43.15   14.51
  -2   5  10   15.86   12.81
   2   5 -10    5.56    5.07
  -2  -5  10   20.19   11.98
   2   5  -9  476.35   48.11
  -2   5   9  482.90   59.38
  -2  -5   9  386.28   52.71
  -2  -5   8    1.14    7.03
   2   5  -8   -4.28    6.31
  -2   5   8   21.65   21.30
  -2   5   7   22.42   23.59
   2   5  -7   41.78   22.60
  -2  -5   7    1.27    7.83
   2  -5  -7   24.75   11.24
  -2   5   6   15.32   10.21
   2   5  -6   15.79    7.20
   2  -5  -6   34.75   13.35
  -2  -5   6   13.65    8.44
  -2   5   5  166.40   34.69
  -2  -5   5  144.68   26.32
   2  -5  -5  210.31   31.56
   2   5  -5  184.12   29.05
  -2   5   4   88.68   26.07
   2   5  -4   71.32   18.43
   2   5  -4   88.61   17.65
  -2  -5   4   98.76   21.35
   2   5  -3    2.96    2.95
  -2  -5   3    0.42    2.24
  -2   5   3   14.55   15.29
   2   5  -3   10.55   12.15
   2   5  -2    8.65    6.95
   2   5  -2    6.07    7.21
  -2   5   2    6.72    7.68
   2  -5  -1  123.42   22.98
  -2   5   1  120.88   29.72
   2   5  -1  117.47   18.49
   2   5  -1  130.72   25.07
  -2   5   0   35.95   14.77
   2   5   0   44.47   17.72
   2  -5   0   38.41   11.62
   2   5   0   36.26   10.33
   2   5   1   37.14   21.52
   2   5   1   18.23    7.91
  -2   5  -1   20.82   14.76
   2  -5   1   12.97    6.15
   2   5   2   29.27    8.27
  -2   5  -2   19.71    8.56
   2  -5   2   37.12   10.03
   2   5   2   55.97   19.64
   2  -5   3  276.17   25.02
   2   5   3  222.77   25.24
   2   5   3  230.59   35.26
  -2   5  -3  211.77   37.73
   2   5   4   10.75    8.45
   2  -5   4    5.88    2.64
   2   5   4   22.08   15.84
  -2   5  -4    1.63    0.82
   2  -5   4    7.26   10.36
   2  -5   5   36.36    6.96
   2   5   5   59.69   17.48
   2  -5   5   36.22   16.28
  -2   5  -5   36.04   18.59
  -2   5  -6   83.13   23.02
   2  -5   6   61.54   21.14
   2   5   6   69.37   18.34
  -2   5  -7    3.95    3.73
   2  -5   7   12.15   11.44
   2   5   7    5.07    7.23
   2  -5   8   17.49   13.72
   2   5   8   39.05   15.76
  -2   5  -8   14.03    9.10
  -2   5  -9   82.57   25.37
   2  -5   9    6.68    9.85
  -2   5 -10   58.20   33.49
   2  -5  10  102.48   29.80
   2  -5  11   13.78   15.00
  -2   5 -11   24.52   26.00
  -2   5 -12    7.51    9.26
   2   5  12   16.96    8.65
   2  -5  12   17.36   12.15
   2  -5  13    5.31    8.81
  -2   5 -13    9.34   10.56
   2   5  13   14.32   14.22
   2   5  14   40.21   18.98
   2  -5  14    9.06    6.81
   2  -5  15   26.36   25.10
   2   5  15   14.11   21.04
   2  -5  16   17.41   13.60
   2   5  16   31.27   21.14
   2  -5  17   16.89   25.30
   2   5  17   13.42    8.72
   2  -5  18   13.58   21.60
   2  -5  19   37.51   33.96
   2  -5  20   27.44   23.36
   2  -5  21   18.54   17.72
   2  -5  22   18.68   22.49
   2  -5  23   -1.61   18.01
  -2  -6  23   -0.90   17.19
  -2  -6  22   44.06   36.72
  -2  -6  21   18.76   24.36
  -2  -6  20   22.51   21.75
  -2  -6  19   13.61   21.23
  -2  -6  18    3.33   23.15
  -2  -6  17   -1.86   11.44
  -2  -6  16   11.89   13.99
  -2  -6  15    7.79   15.91
  -2  -6  14   44.62   23.33
   2   6 -14   67.25   22.07
  -2  -6  13    6.56   17.82
  -2   6  13   -1.76    4.98
   2   6 -13   35.37   16.18
  -2   6  12  111.81   34.38
  -2  -6  12   76.03   30.33
   2   6 -12  148.09   30.44
   2   6 -11   16.89   10.66
  -2   6  11   14.40   14.15
  -2  -6  11   23.13   14.63
  -2  -6  10    2.26   10.08
   2   6 -10   10.21    6.57
  -2   6  10   11.09   12.78
  -2   6   9   57.76   23.98
   2   6  -9   76.97   21.54
  -2  -6   9   31.61   22.14
  -2   6   8   38.50   23.60
   2   6  -8   29.69   14.28
  -2  -6   8   21.10   20.64
   2   6  -7   11.01    8.57
  -2   6   7   58.87   30.24
  -2  -6   6   26.70   15.86
   2   6  -6   35.83   18.44
  -2   6   6   61.49   24.47
  -2  -6   5   12.42    4.71
   2   6  -5   12.37   13.70
  -2   6   5   10.89    8.40
   2   6  -4  257.08   42.80
  -2  -6   4  219.07   44.01
  -2   6   4  251.07   48.97
   2   6  -3   34.37   15.87
  -2   6   3   35.86   17.72
  -2   6   2  133.60   34.37
   2   6  -2  130.28   28.53
  -2   6   1   -2.56    6.28
   2   6  -1    1.66    4.70
   2   6   0   88.21   25.32
  -2   6   0   89.92   26.66
   2   6   0   88.27   18.13
   2   6   1   31.88    9.23
   2   6   1   32.09   14.17
  -2   6  -1   36.35   18.21
   2   6   2  112.90   19.22
   2   6   2  121.18   28.02
  -2   6  -2   97.17   28.20
  -2   6  -3   39.21   17.58
   2   6   3   36.68   17.27
  -2   6  -4  125.92   32.39
   2   6   4  101.56   30.07
  -2   6  -5   56.53   20.83
   2  -6   5   63.71   24.30
  -2   6  -6   -1.85    7.83
   2  -6   6   22.17   18.05
   2  -6   7   13.59   11.59
  -2   6  -7   32.11   21.37
   2  -6   8   88.57   30.27
  -2   6  -8   94.77   29.35
  -2   6  -9   21.68   11.50
   2  -6   9    3.41    1.02
   2  -6  10   35.29   22.38
  -2   6 -10   36.85   22.95
   2  -6  11    6.89   12.15
  -2   6 -11    4.71    4.76
  -2   6 -12   38.08   25.33
   2  -6  12   26.47   18.64
  -2   6 -13    6.91   16.88
   2  -6  13    4.40   13.30
   2  -6  14    6.74    5.49
  -2   6 -14   35.35   24.90
  -2   6 -15   22.40   21.91
   2  -6  15   -8.21    4.19
   2  -6  16   11.77   17.95
  -2   6 -16   27.94   23.92
   2  -6  17    3.55   13.35
  -2   6 -17   22.15   25.48
   2  -6  18  251.58   93.08
  -2   6 -18   15.19   24.30
   2  -6  19  985.67  145.23
  -2   6 -19   11.45   20.30
  -2   6 -20   10.92   21.50
   2  -6  20   71.21   40.64
  -2   6 -21   16.19   22.53
  -2  -7  21   82.72   36.50
  -2  -7  20   26.12   23.36
  -2  -7  19   -3.55    6.15
  -2  -7  18   37.93   25.86
  -2  -7  17   31.94   26.41
  -2  -7  16   25.78   20.57
  -2  -7  15   30.11   31.34
  -2  -7  14    1.49    9.36
  -2  -7  13    1.28   10.22
  -2   7  13   19.35   16.31
  -2  -7  12   55.34   35.62
  -2   7  12   43.00   28.78
   2   7 -12    6.38   10.37
   2   7 -11   20.04   14.00
  -2   7  11   27.28   25.55
  -2  -7  11    6.48    4.46
   2   7 -10    8.75   13.37
  -2  -7  10    0.05    3.80
   2   7  -9   93.45   26.83
  -2  -7   9   52.23   22.79
  -2   7   9   71.42   33.31
   2   7  -8   47.56   24.65
  -2  -7   8   14.70   19.77
  -2   7   8   58.17   26.84
  -2   7   7    4.96   13.45
  -2  -7   7   10.02   18.22
   2   7  -6    3.10    3.67
  -2   7   6    8.71   16.16
  -2  -7   6   11.74   11.77
   2   7  -5    3.69    8.79
  -2   7   5   28.21   22.34
  -2   7   4   49.56   22.52
   2   7  -4   31.79   18.77
   2   7  -3   23.75   15.35
  -2   7   3   27.80   21.72
  -2   7   2    1.50    5.28
   2   7  -2   19.80   16.43
  -2   7   1   41.10   23.13
   2   7  -1   21.61   11.27
   2   7   0   -0.97    8.52
  -2   7   0    8.22   16.99
   2   7   1   20.59   17.78
  -2   7  -1    0.06    4.25
  -2   7  -2    4.96   24.94
   2   7   2    9.20   12.20
  -2   7  -3   70.08   30.84
   2   7   3   36.04   25.83
  -2   7  -4   24.01   19.66
  -2   7  -5    1.48    9.29
  -2   7  -6   -1.49    5.00
   2  -7   7   35.75   22.68
  -2   7  -7   18.13   12.32
  -2   7  -8   -3.70    8.62
   2  -7   8    4.43    7.75
  -2   7  -9   44.59   28.59
   2  -7   9   87.04   37.08
   2  -7  10   15.52   26.71
  -2   7 -10    1.05    5.44
  -2   7 -11  -14.29   19.44
   2  -7  11   11.85   16.10
   2  -7  12   28.79   19.65
  -2   7 -12   34.89   23.89
   2  -7  13   51.50   51.74
  -2   7 -13    8.90    8.42
   2  -7  14    5.30   10.78
  -2   7 -14   51.57   33.23
  -2   7 -15   23.66   17.52
   2  -7  15   42.08   38.72
  -2   7 -16   24.99   22.08
   2  -7  16    8.68   18.41
  -2   7 -17   93.59   52.28
   2  -7  17   -7.16    6.12
   2  -7  18   49.46   41.34
  -2   7 -18   28.27   32.52
  -2   7 -19  -10.52    6.55
  -2   8  11   28.02   23.83
  -2   8  10   24.49   19.64
   2   8  -9   52.82   28.44
  -2   8   9   12.75   18.12
   2   8  -8  175.54   48.20
  -2   8   8   -3.32   13.87
   2   8  -7   24.83   23.68
  -2   8   7    6.23    7.27
   2   8  -6   10.65   13.50
  -2   8   6    1.93   11.70
   2   8  -5   -0.41    6.64
  -2   8   5   14.03   26.04
   2   8  -4   25.92   25.18
  -2   8   4    3.07   12.62
   2   8  -3   26.64   21.82
  -2   8   3    2.51   21.90
  -2   8   2   11.57   26.82
   2   8  -2   38.26   38.40
   2   8  -1   -0.83   14.90
  -2   8   1   -7.24   13.67
  -2   8   0   25.97   33.74
   2   8   0   14.00    3.47
   2   8   1   11.09   21.20
  -2   8  -1   14.43   27.39
   2   8   2  108.53   34.20
  -2   8  -2   20.29   31.71
  -2   8  -3    0.11    6.94
  -2   8  -4    7.26   19.09
  -2   8  -5   19.85   24.24
  -2   8  -6   13.20   21.52
  -2   8  -7    3.90    7.70
  -2   8  -8  310.92   71.33
  -2   8  -9    7.75   13.79
   2  -8  10   32.11   42.19
  -2   8 -10   22.72   20.08
  -2   8 -11    6.83    3.75
   2  -8  11   26.18   23.72
   2  -8  12    6.74   18.17
  -2   8 -12   42.11   36.24
  -2   8 -13   18.29   21.29
   2  -8  13    6.28   10.88
   2  -8  14   31.20   58.93
  -2   8 -14    7.48   21.15
  -2   8 -15   48.38   26.03
  -2   8 -16   14.62   47.15
   2   9  -5   23.89   21.36
   2   9  -4    7.96    8.92
   2   9  -3  102.29   49.20
   2   9  -2   41.57   35.58
   2   9  -1   -1.43   14.48
   2   9   0   20.85   28.35
   2   9   1    5.49    8.40
  -2   9  -3    4.95   17.57
  -2   9  -4    5.83   26.87
  -2   9  -5    8.88   32.00
  -3   0  31    6.02   20.17
  -3   0  30    3.18   18.38
  -3   0  29  356.64   80.63
  -3   0  28    2.42   45.66
  -3   0  27   27.12   33.38
  -3   0  26    5.37    9.97
  -3   0  25   10.09   18.12
  -3   0  24   -5.46   10.31
  -3   0  23    0.16    7.38
  -3   0  22   12.96   11.80
  -3   0  21   22.59   12.09
  -3   0  20    0.35    1.56
  -3   0  19  186.74   34.78
  -3   0  18    1.97    5.98
   3   0 -17  220.05   25.96
  -3   0  17  206.15   34.68
  -3   0  16   -3.66    5.88
   3   0 -16   10.90    2.02
   3   0 -15  163.15   21.45
  -3   0  15  156.94   27.29
  -3   0  14    1.75    3.27
   3   0 -14    5.29    5.22
  -3   0  13  184.40   27.47
   3   0 -13  177.97   20.51
  -3   0  12    5.65    7.03
   3   0 -12    2.59    2.04
  -3   0  11   -3.41    5.30
   3   0 -11    0.61    3.77
  -3   0  10   -1.84    1.60
   3   0 -10   -0.07    1.11
  -3   0   9  542.97   42.15
   3   0  -9  530.39   28.74
   3   0  -8    1.54    1.34
  -3   0   8   -1.93    4.57
   3   0  -7  464.98   25.59
  -3   0   7  471.67   36.18
  -3   0   7  476.90   23.22
  -3   0   6   -0.28    1.06
  -3   0   6    1.17    1.29
  -3   0   6    4.85    6.27
  -3   0   5 1376.16   58.66
  -3   0   5 1372.28   38.91
  -3   0   5 1376.16   66.10
  -3   0   4    2.38    2.69
   3   0  -4    1.77    1.75
  -3   0   4   -1.02    2.33
   3   0  -3  762.47   48.55
  -3   0   3  775.27   47.81
  -3   0   2   -4.34    4.13
   3   0  -2    3.35    3.98
   3   0  -1   21.89    8.38
  -3   0   1   22.00    7.99
  -3   0   0    0.65    1.49
   3   0   0   -1.55    1.38
  -3   0  -1   40.15    8.24
   3   0   2   -0.67    2.08
  -3   0  -2    4.15    7.80
  -3   0  -3   28.82    8.03
   3   0   3   32.95    9.17
  -3   0  -4   -0.91    2.63
   3   0   4   -1.18    2.65
   3   0   5  242.89   24.44
  -3   0  -5  238.52   22.94
  -3   0  -6    0.11    0.21
   3   0   6    1.33    2.02
   3   0   7    8.48    5.82
  -3   0  -7    9.80    5.76
  -3   0  -8    3.35    4.28
   3   0   8    0.22    1.37
   3   0   9   86.19   18.16
  -3   0  -9   98.24   17.63
   3   0  10    0.69    6.16
  -3   0 -11  121.17   19.29
   3   0  11  114.52   22.39
  -3   0 -12    6.24    7.57
   3   0  12    2.15    4.66
   3   0  13    3.48    5.91
   3   0  14   -2.54    4.88
   3   0  15   36.89   19.96
   3   0  16   -0.64    6.42
   3   0  17    6.49    9.84
   3   0  18    5.37   10.21
   3   0  19   12.91   13.94
   3   0  20   11.41   15.69
   3   0  21    6.80   11.68
   3   0  22   22.37   27.04
   3   0  23    1.54   12.23
   3   0  24  -11.49   15.46
   3   0  25    5.71   14.74
   3   0  26    8.75   13.24
   3   0  27    8.62   20.96
   3   0  28   14.16   27.32
  -3   1  30   -6.01    0.93
  -3   1  29   92.17   46.92
  -3  -1  29    8.07   21.44
  -3   1  28   10.55   20.36
  -3  -1  28    6.90   18.54
  -3  -1  28   19.10   22.47
  -3   1  27   11.70   11.39
  -3  -1  27   22.81   27.40
  -3  -1  27   -1.03    4.93
  -3   1  26    3.06   12.61
  -3  -1  26   13.48   13.28
  -3  -1  26   13.47   19.93
  -3  -1  25    1.88   21.21
  -3  -1  25    1.53   12.37
  -3   1  25   10.06   13.26
  -3   1  24   62.60   33.10
  -3  -1  24   71.74   29.48
  -3  -1  23    8.18   13.24
  -3   1  23    9.29   15.85
  -3   1  22    0.78    4.94
  -3  -1  22   15.55   15.52
  -3  -1  21    4.55    2.10
  -3   1  21   -2.22    9.03
  -3   1  20   -4.95    9.68
  -3  -1  20   -2.85    6.28
  -3   1  19   24.23   14.57
  -3  -1  19   36.79   15.88
   3   1 -19   32.96   12.37
  -3  -1  18    8.19    5.50
  -3   1  18   11.66    9.15
   3   1 -18   19.61    8.13
   3   1 -17   36.77    8.93
  -3  -1  17   38.67   15.60
  -3   1  17   40.68   16.12
  -3   1  16    1.86    2.75
  -3  -1  16    2.52    7.16
   3   1 -16    2.24    3.97
  -3   1  15  231.03   35.86
  -3  -1  15  219.86   31.36
   3   1 -15  217.22   20.95
   3  -1 -14  210.38   27.22
  -3   1  14  201.69   33.67
  -3  -1  14  197.55   29.34
   3   1 -14  207.18   19.00
  -3   1  13   50.11   15.40
  -3  -1  13   58.91   15.68
   3  -1 -13   46.85   13.63
   3   1 -13   49.13    9.02
   3   1 -12  144.87   13.66
   3  -1 -12  141.68   21.38
  -3   1  12  148.97   26.16
  -3  -1  12  142.37   22.89
   3  -1 -11  648.26   44.48
  -3  -1  11  586.86   46.05
   3   1 -11  678.29   26.73
  -3   1  11  668.90   53.72
  -3   1  10 1051.05   64.06
  -3   1  10 1055.96   51.76
   3  -1 -10 1052.56   55.19
   3   1 -10 1017.70   29.57
  -3  -1  10 1059.79   59.73
   3  -1  -9    2.33    3.96
  -3   1   9    9.43    6.58
  -3  -1   9    9.12    5.43
  -3   1   9    5.89    3.92
  -3   1   8  395.29   36.38
  -3   1   8  391.71   30.48
  -3   1   8  406.67   30.07
   3  -1  -8  384.48   31.89
  -3  -1   8  377.28   33.41
   3  -1  -7  204.91   22.99
  -3   1   7  206.56   20.40
  -3   1   7  202.38   21.78
  -3   1   7  209.93   25.83
  -3   1   6    2.81    3.09
  -3   1   6    4.90    5.71
   3  -1  -6    4.09    4.57
  -3   1   6    4.34    4.00
   3  -1  -5  151.77   21.02
   3  -1  -5  190.68   23.59
  -3  -1   5  142.47   25.67
  -3   1   5  158.36   16.75
  -3   1   5  149.57   18.18
  -3   1   5  155.97   20.26
  -3   1   4  217.39   22.21
  -3  -1   4  228.08   30.55
   3  -1  -4  238.58   21.32
  -3   1   4  223.08   23.52
  -3   1   3    0.48    1.69
  -3   1   3    0.43    1.33
   3  -1  -3    5.47    4.28
  -3   1   2  684.09   37.41
   3   1  -2  704.26   54.30
   3  -1  -2  708.80   39.95
   3   1  -1   74.96   17.42
  -3   1   0   10.07    5.18
   3   1   0   13.45    9.02
   3   1   1   11.79    6.38
  -3   1  -1   12.63    5.78
  -3  -1  -1   15.47    3.77
  -3  -1  -2   24.17    4.72
   3   1   2   22.28   10.10
  -3   1  -2   32.02   12.35
   3  -1   2   18.83    8.15
   3   1   2   21.93    5.18
   3   1   3   12.87    7.28
  -3  -1  -3   15.21    4.38
   3   1   3   16.74    4.57
  -3   1  -3   16.99    7.65
   3  -1   3   15.02    7.42
   3  -1   4  345.79   33.00
   3   1   4  330.37   37.72
   3   1   4  320.03   22.04
  -3   1  -4  331.80   31.22
  -3  -1  -4  336.42   20.56
   3  -1   5   96.55   17.70
   3   1   5   81.65   11.89
  -3   1  -5   83.84   15.88
   3  -1   6    1.97    3.93
   3   1   6   -0.13    0.21
  -3   1  -6    2.13    5.55
   3  -1   7   63.38   15.60
  -3   1  -7   61.47   14.67
   3   1   7   67.57   12.05
   3  -1   8   16.73   11.18
   3   1   8   10.90    5.30
  -3   1  -8   19.58    9.63
   3   1   9   17.60    7.29
   3  -1   9   21.10    9.81
   3  -1  10   67.22   18.07
   3   1  10   69.15   15.33
  -3   1 -10   71.50   13.49
  -3   1 -11   38.12    9.75
   3   1  11   63.84   16.51
   3  -1  11   38.63   14.44
  -3   1 -12    6.67    4.48
   3   1  12    3.10    4.77
   3  -1  12    5.11    5.41
  -3   1 -13   30.87    8.98
   3   1  13   33.15   12.03
   3  -1  13   21.87   11.67
  -3   1 -14    2.79    3.05
   3   1  14    0.25    1.87
   3  -1  14    4.36    6.22
  -3   1 -15   16.15    8.28
   3   1  15   10.87    5.92
   3  -1  15   10.16    9.35
   3  -1  16   10.52    9.63
   3   1  16   10.67   11.04
   3  -1  17    6.49   11.19
   3   1  17    2.59    7.37
   3  -1  18    1.49    5.30
   3   1  18    3.34    7.86
   3  -1  19    2.87    8.48
   3   1  19    6.85   10.65
   3  -1  20    1.40    4.73
   3   1  20   10.09    7.19
   3   1  21   28.00   26.89
   3  -1  21    7.19    9.15
   3   1  22   30.40   22.97
   3  -1  22   17.09   19.39
   3  -1  23   15.38   19.20
   3   1  23   11.18   16.99
   3   1  24   -0.95    5.80
   3  -1  24   11.35   17.71
   3   1  25   32.90   25.81
   3  -1  25    4.57   22.16
   3   1  26   68.07   35.87
   3  -1  26   18.02   23.39
   3   1  27   11.02    9.39
   3  -1  27    9.06   16.06
   3  -1  28   31.32   42.59
   3   1  28   55.56   46.84
   3   1  29   10.56   21.50
  -3   2  29    7.04   18.32
  -3   2  28    4.26   22.56
  -3  -2  28    7.09   14.14
  -3  -2  27   38.33   26.54
  -3   2  27   16.93   16.58
  -3   2  26   12.01   30.25
  -3  -2  26   18.45   28.51
  -3  -2  26   -2.41    7.71
  -3   2  25    0.00   14.08
  -3  -2  25   -0.99    5.08
  -3  -2  25   11.33   10.89
  -3   2  24   45.02   21.73
  -3  -2  24    8.37   12.91
  -3  -2  24   40.65   29.71
  -3   2  23    9.66   13.87
  -3  -2  23    6.04   10.48
  -3  -2  23   -1.54    8.98
  -3  -2  22   29.59   17.04
  -3  -2  22   11.73   14.50
  -3   2  22   33.65   28.87
  -3   2  21   36.41   36.19
  -3  -2  21   59.58   19.38
  -3  -2  21   62.58   23.89
  -3   2  20    5.21    5.69
  -3  -2  20   23.10   16.25
  -3  -2  20    8.54   10.46
  -3  -2  19  201.29   33.16
  -3  -2  19  221.71   43.02
  -3   2  19  211.71   44.17
  -3   2  18  107.14   30.33
  -3  -2  18  105.73   23.40
  -3  -2  18  114.18   30.75
  -3  -2  17   16.08   11.15
  -3  -2  17   26.11   19.81
  -3   2  17    7.05    8.46
  -3  -2  16  223.69   31.70
  -3   2  16  214.93   39.96
  -3   2  15   34.36   16.42
  -3  -2  15   46.55   14.50
  -3  -2  14    4.25    5.37
  -3   2  14   26.19   15.75
  -3  -2  13   26.37   10.35
  -3   2  13   33.39   12.79
  -3   2  12   62.21   18.92
  -3  -2  12   63.26   15.68
  -3   2  12   67.41   16.04
   3   2 -11   -2.65    2.54
  -3   2  11    4.56    3.06
  -3  -2  11   -0.89    3.22
  -3   2  11    0.77    2.50
   3  -2 -10   75.60   17.38
   3   2 -10   54.93    8.74
  -3   2  10   84.40   19.15
  -3   2  10   86.73   19.23
  -3  -2  10   82.03   16.67
   3   2  -9    4.94    2.29
  -3   2   9    3.40    4.69
  -3   2   9    4.36    4.12
   3  -2  -9   11.41    7.98
  -3   2   8    2.82    3.64
  -3   2   8    0.11    1.82
   3   2  -8    1.13    1.23
   3  -2  -8    2.83    5.31
   3   2  -7    9.30    2.46
  -3   2   7    9.08    5.35
  -3   2   7   10.97    6.65
   3  -2  -7    3.90    5.99
  -3   2   6 1269.97   65.15
   3  -2  -6 1343.10   66.71
  -3   2   6 1317.78   66.72
   3  -2  -6 1371.20   72.96
  -3   2   5   99.66   17.37
   3  -2  -5   94.71   10.71
   3  -2  -5  125.55   23.39
  -3  -2   5   88.23   11.39
  -3   2   5  110.02   19.26
   3  -2  -5  106.49   17.88
  -3   2   4   86.05   14.93
   3  -2  -4  100.34   17.91
  -3   2   4   84.38   16.88
   3  -2  -4   89.52   19.69
  -3  -2   4  101.45   11.34
  -3   2   3    2.27    1.81
   3  -2  -3   -0.57    1.02
  -3  -2   3    1.40    2.60
  -3   2   3    2.82    3.31
  -3  -2   2  203.54   17.92
   3  -2  -2  212.72   22.17
  -3   2   2  196.79   21.29
  -3  -2   2  205.46   14.56
  -3   2   2  199.69   27.83
  -3   2   1  412.37   29.36
  -3  -2   1  426.09   28.81
  -3  -2   1  437.85   17.12
  -3   2   1  452.49   43.02
  -3   2   0   30.39    7.32
   3   2   0   38.17   14.10
  -3  -2   0   34.31    8.80
  -3   2  -1  114.47   13.72
   3   2   1  119.76   25.29
  -3   2  -2    5.24    3.57
   3  -2   2   -3.57    5.94
   3   2   2   -1.20    3.50
  -3   2  -3 1083.46   36.15
  -3  -2  -3 1086.39   72.98
   3   2   3 1075.26   75.85
   3  -2   3 1082.09   67.72
  -3   2  -4   37.44    6.45
   3   2   4   31.08    5.15
   3  -2   4   35.43   12.76
   3   2   4   38.73   13.69
   3   2   5   58.10   17.27
   3   2   5   46.76    7.01
   3  -2   5   47.93   14.34
   3   2   6  531.50   55.03
   3  -2   6  568.47   50.59
   3   2   6  567.59   28.42
   3   2   7   14.28    9.72
   3  -2   7   10.75    6.75
   3   2   7   15.24    5.58
   3   2   8   62.09   18.61
   3   2   8   57.09   11.52
   3  -2   8   66.32   18.36
  -3   2  -9   64.15    8.85
   3  -2   9   58.66   17.49
   3   2   9   69.19   22.31
   3   2   9   70.50   13.84
   3  -2  10   13.14    8.08
   3   2  10   18.43   11.20
   3   2  10   20.18    7.80
  -3   2 -10   21.38    6.43
   3   2  11    4.50    5.67
   3  -2  11    3.59    2.81
  -3   2 -11    6.73    4.81
  -3   2 -12   52.47    9.39
   3   2  12   50.58   14.39
   3  -2  12   48.70   18.52
   3  -2  13    4.57    5.38
  -3   2 -13    4.94    4.10
   3   2  13    4.84    7.50
  -3   2 -14   26.73    7.87
   3  -2  14   24.97   18.60
   3   2  14   30.74   15.61
   3  -2  15   26.12   16.37
  -3   2 -15   48.07   11.65
   3   2  15   31.91   13.44
   3  -2  16    9.01   12.24
   3   2  16   -4.56    5.45
   3  -2  17    9.43   13.53
  -3   2 -17    0.50    3.08
   3   2  17   16.16   15.95
   3   2  18   22.86   11.06
   3  -2  18   31.08   17.64
   3  -2  19   32.33   19.67
   3   2  19   37.56   13.88
   3  -2  20   23.46   21.54
   3   2  20   22.63   12.79
   3   2  21   38.51   20.99
   3  -2  21   25.28   27.14
   3   2  22    3.19    5.07
   3  -2  22    6.14   12.23
   3  -2  23   -1.66    8.07
   3   2  23   -0.02    4.15
   3  -2  24    3.83    8.29
   3   2  24   10.22   18.90
   3   2  25   13.09   18.78
   3  -2  25    9.48   22.49
   3  -2  26   10.59   12.91
   3   2  26   -0.48   11.27
   3  -2  27   20.80   23.11
   3   2  27    4.53   17.50
   3   2  28    5.29   20.03
   3   2  29   -3.49   18.06
  -3   3  27    7.76   13.96
  -3  -3  27   10.02   14.57
  -3   3  26    2.79   17.07
  -3  -3  26    9.89   12.58
  -3   3  25  -15.61   13.98
  -3  -3  25   11.36   18.83
  -3  -3  24   66.44   36.40
  -3   3  24   47.78   30.71
  -3   3  23   38.34   29.93
  -3  -3  23   28.22   22.64
  -3  -3  23   68.79   24.04
  -3  -3  22   19.12   15.05
  -3  -3  22   -1.69   14.71
  -3   3  22   18.12   13.89
  -3  -3  21   41.60   15.04
  -3  -3  21   55.42   30.45
  -3   3  21   35.61   27.99
  -3   3  20   18.83   13.38
  -3  -3  20   -3.38    7.49
  -3  -3  20    6.05   11.38
  -3   3  19   68.95   28.27
  -3  -3  19   77.55   19.35
  -3  -3  19  105.54   31.34
  -3  -3  18    2.88    5.88
  -3  -3  18   -5.07    6.02
  -3   3  17   21.04   18.84
  -3  -3  17   28.56   15.97
  -3  -3  17   29.80   12.78
  -3   3  17   26.17    6.89
  -3   3  16   12.30   10.35
  -3  -3  16   12.18   10.45
  -3  -3  16   12.85    9.50
  -3  -3  15   51.89   15.77
   3   3 -15   34.97   14.48
  -3  -3  15   51.84   19.71
  -3   3  15   40.00   20.77
  -3  -3  14   52.93   16.01
  -3  -3  14   56.70   20.12
   3   3 -14   23.15   10.67
  -3   3  14   48.49   26.97
   3   3 -13   26.62    7.46
  -3   3  13   32.06   17.46
  -3  -3  13   33.73   11.36
  -3  -3  13   34.59   14.36
  -3   3  13   30.78   12.91
  -3   3  12   79.00   22.76
  -3   3  12   78.73   21.26
  -3  -3  12   73.29   18.91
  -3  -3  12   76.61   17.74
   3   3 -12   90.80   13.31
  -3   3  11  251.84   38.49
  -3  -3  11  279.27   35.61
  -3   3  11  253.74   37.05
   3   3 -11  274.18   22.45
   3   3 -10   19.81    6.37
  -3   3  10   12.57    6.05
  -3   3  10   31.93   17.51
  -3  -3  10   23.55   10.54
  -3   3   9  136.94   26.01
  -3  -3   9  134.65   22.90
   3   3  -9  145.09   16.34
  -3   3   8   11.38    8.64
  -3   3   8    4.97    6.32
  -3  -3   8    7.49    5.63
   3   3  -8    3.22    2.65
  -3   3   7    6.84    6.96
   3   3  -7    1.30    1.71
  -3  -3   7    5.82    4.70
  -3   3   7    0.56    3.90
  -3   3   6  103.83   20.34
  -3   3   6  105.42   22.00
  -3  -3   6   99.64   16.33
   3   3  -6  100.25   13.57
   3   3  -5   25.69    8.10
  -3   3   5   27.69   11.25
  -3  -3   5   20.37    8.50
  -3   3   5   22.88   10.50
  -3  -3   5   22.33    7.38
   3  -3  -5   27.05   10.73
  -3  -3   4   13.12    5.26
  -3   3   4   12.99    6.49
   3   3  -4    7.72    4.90
   3  -3  -4   16.45    7.51
  -3  -3   4   18.64    6.19
  -3   3   4    8.72    5.56
   3   3  -3   15.25    5.93
  -3   3   3   18.32    8.91
  -3  -3   3   15.97    6.26
   3  -3  -3   11.45    4.07
  -3   3   3   11.97    6.38
  -3  -3   3   15.83    6.26
  -3   3   2   89.23   15.82
  -3  -3   2   98.60   11.86
  -3  -3   2  120.28   20.38
  -3   3   2   90.18   20.58
   3  -3  -2  101.93   16.46
  -3   3   1  175.72   21.74
  -3   3   1  165.91   28.76
   3  -3  -1  185.33   23.24
  -3  -3   1  160.09   14.05
  -3  -3   1  162.58   21.48
  -3  -3   0   33.07   15.92
  -3  -3   0   28.59   10.07
   3  -3   0   24.06    6.57
  -3   3   0   20.02    8.85
  -3   3   0   29.07    8.78
  -3   3  -1  226.53   21.74
  -3  -3  -1  244.48   37.80
  -3  -3  -1  247.39   28.30
  -3   3  -1  225.80   37.13
   3  -3   1  228.86   21.08
  -3   3  -2  329.45   24.12
   3   3   2  317.88   45.85
  -3   3  -2  326.29   42.50
   3  -3   2  308.64   40.25
  -3  -3  -2  331.45   34.11
  -3  -3  -2  324.78   44.42
   3   3   3   50.93   19.07
  -3  -3  -3   60.17   20.29
  -3   3  -3   53.26    8.57
  -3  -3  -3   53.02   14.17
   3  -3   3   47.31   16.35
  -3  -3  -4    9.55   10.42
  -3   3  -4    8.58    3.20
   3   3   4   -0.48    6.12
   3  -3   4    9.22    8.82
   3  -3   5  217.09   35.20
   3   3   5  236.39   39.30
  -3  -3  -5  212.08   34.61
  -3   3  -5  193.86   12.12
   3  -3   6   14.96    7.85
   3   3   6   14.30   13.40
   3  -3   7  167.21   31.04
   3   3   7  157.58   33.32
   3   3   8  101.75   26.36
   3  -3   8   97.85   25.56
   3  -3   9   31.70   15.10
   3   3   9   41.62   16.08
   3   3  10   18.27   16.49
   3  -3  10  140.81   36.85
   3   3  11  156.90   34.80
   3  -3  11  160.91   34.78
   3  -3  12   12.18    8.98
   3   3  12   20.86   15.15
   3   3  13   58.53   22.56
   3  -3  13   53.43   21.67
   3   3  13   92.67   23.52
   3   3  14   11.01   12.10
   3  -3  14   10.47   11.21
   3   3  14    8.26    6.39
   3  -3  15    7.50    6.91
   3   3  15    2.28    8.01
   3   3  15   23.08   13.46
   3   3  16   90.87   31.40
   3  -3  16   67.11   34.20
   3   3  16   45.57   16.13
   3  -3  17   -3.65   11.36
   3   3  17   -3.58   12.89
   3   3  17    9.10   11.75
   3  -3  18    5.58   10.66
   3   3  18   17.38   19.50
   3   3  18   44.33   31.52
   3   3  19   11.48    5.72
   3   3  19    1.73    1.22
   3  -3  20   29.15   25.63
   3   3  20   41.68   16.37
   3   3  20   67.74   28.18
   3   3  21   13.99   18.00
   3   3  21   34.23   23.95
   3  -3  21    0.76    5.52
   3  -3  22    6.07   12.91
   3   3  22    7.87   12.13
   3   3  22    3.32    9.27
   3   3  23   25.37   22.90
   3  -3  23   11.40   20.71
   3   3  24   48.18   35.12
   3   3  24   38.94   25.10
   3  -3  24   17.76   23.55
   3   3  25   76.13   45.32
   3   3  25   54.37   27.43
   3  -3  25   14.38   21.80
   3   3  26   37.07   30.61
   3   3  27    3.26    4.83
  -3  -4  26   13.21   24.01
  -3  -4  25   33.97   25.62
  -3  -4  24   16.00   23.01
  -3  -4  23   50.33   32.62
  -3   4  23    8.25   11.07
  -3   4  22    1.22   11.21
  -3  -4  22    6.42    7.39
  -3   4  21   12.90   33.24
  -3  -4  21   -5.61    8.77
  -3   4  20    9.48   10.19
  -3  -4  20   23.87   19.46
  -3   4  19   15.94   18.63
  -3  -4  19   37.18   14.15
  -3  -4  19   32.77   17.87
  -3  -4  18    3.63    2.46
  -3   4  18    3.72    6.06
  -3  -4  17   14.82   12.76
  -3  -4  17   32.32   14.74
  -3   4  17   33.18   23.91
   3   4 -17   16.37    8.89
  -3   4  16  168.53   46.42
  -3  -4  16  183.98   31.55
  -3  -4  16  114.80   29.96
   3   4 -16   99.63   18.92
  -3   4  15    0.07    3.26
  -3  -4  15    9.22   10.57
   3   4 -15    7.33    5.95
  -3  -4  15   19.22   13.55
  -3   4  14   52.24   29.67
  -3  -4  14   20.77   14.25
  -3   4  14   25.49   16.60
  -3  -4  14   22.30    9.72
   3   4 -14   23.66    9.07
   3   4 -13   19.47   10.94
  -3   4  13   17.36   11.40
  -3  -4  13    3.39    6.25
  -3  -4  13   -1.25    5.67
  -3   4  13    6.47    6.49
  -3   4  12   64.25   21.46
  -3   4  12   60.42   20.73
   3   4 -12   60.49   12.72
  -3  -4  12   79.25   28.65
   3   4 -11   22.58   12.73
  -3   4  11    1.17    2.78
  -3   4  11    6.51   10.96
  -3  -4  11    1.24    4.71
  -3   4  10    5.52    7.39
  -3   4  10    2.77    5.49
  -3  -4  10    3.05    6.13
   3   4 -10    1.97    4.26
  -3   4   9    4.27    5.78
  -3  -4   9    6.92    8.56
   3   4  -9   13.24    6.94
  -3   4   9    0.55    5.54
  -3   4   8    4.08    5.72
  -3  -4   8    3.04    1.13
   3   4  -8   -0.99    4.15
  -3   4   8   11.01   13.46
  -3   4   7   11.33    9.33
  -3  -4   7    8.63    7.21
  -3   4   7   10.32   10.06
   3   4  -7    4.29    2.68
  -3   4   6   -2.37    4.45
  -3  -4   6    4.59    5.30
  -3   4   6    3.17    7.41
   3  -4  -6    1.27    1.60
  -3  -4   5   43.62   11.29
   3   4  -5   46.37   12.38
  -3  -4   5   24.06   14.86
  -3   4   5   40.81   15.76
  -3   4   5   55.56   17.12
  -3   4   4   92.60   19.33
  -3  -4   4   71.12   18.50
  -3   4   4   75.02   21.14
  -3  -4   4  104.35   18.60
   3   4  -4   75.36   16.92
  -3   4   3  117.85   23.85
   3  -4  -3   99.76   18.18
  -3  -4   3  129.80   19.69
   3   4  -3   62.89   19.00
  -3  -4   3  107.52   20.10
  -3   4   3  130.63   29.44
  -3   4   2   41.73   14.29
  -3   4   2   17.71   11.04
   3  -4  -2   31.55   10.73
  -3  -4   2   28.07   14.32
  -3  -4   2   28.69    8.06
   3   4  -2   28.17   10.09
  -3  -4   1    1.30    3.33
   3  -4  -1    3.81    3.07
  -3   4   1    6.12    6.12
   3   4  -1   -0.16    2.28
  -3   4   1    3.67    4.31
  -3   4   0   23.73    9.25
   3  -4   0   17.49    6.53
  -3   4   0   13.33    9.48
  -3   4  -1   25.36   15.48
  -3   4  -1   14.93    4.89
   3  -4   1   17.57    7.45
   3   4   1   14.24    4.47
  -3   4  -2   51.37   21.54
   3  -4   2   82.82   14.70
   3   4   2   64.20    7.75
   3   4   3    1.56    2.10
  -3   4  -3   -3.01    7.74
   3  -4   3    2.77    5.71
  -3   4  -4   47.35   17.33
   3   4   4   54.08    8.13
   3  -4   4   45.87   18.07
   3  -4   5   17.50   12.68
  -3   4  -5    3.62    9.45
   3   4   5    5.30    3.57
   3   4   5   12.91   13.95
   3  -4   6  105.19   27.41
   3   4   6  120.10   32.08
   3   4   6  104.81   13.73
  -3   4  -6  139.88   31.36
   3  -4   7   23.61   15.23
   3   4   7   13.66   10.50
   3   4   8   33.18   24.55
   3  -4   8    8.98    7.91
   3   4   9   22.10   12.67
   3  -4   9   20.47   13.00
   3  -4  10   76.05   24.88
   3   4  10   89.17   31.14
   3   4  11   -6.67   11.30
   3  -4  11   15.60   12.15
   3   4  12   81.30   33.03
   3  -4  12   48.82   21.96
   3  -4  13   19.32   14.03
   3   4  13   27.68   21.40
   3   4  14    2.84    1.97
   3  -4  14    8.31   12.17
   3  -4  15   12.46    8.18
   3   4  15   13.89   15.24
   3  -4  16   28.65   19.39
   3   4  16   36.89   23.09
   3  -4  17   28.42   15.85
   3   4  17   22.91   12.57
   3   4  17   12.18   16.72
   3  -4  18   13.88   17.09
   3   4  18    9.10    7.55
   3   4  18   16.54   17.22
   3   4  19   -4.94    7.32
   3  -4  19   12.29   13.61
   3   4  19    3.23   20.21
   3  -4  20   26.35   29.98
   3   4  20   17.26   17.60
   3   4  20    8.42   11.23
   3   4  21   30.36   17.33
   3  -4  21   42.62   31.50
   3   4  21   52.66   35.15
   3  -4  22    4.55    3.81
   3   4  22   24.56   27.79
   3  -4  23   -0.24    4.38
   3  -4  24   34.02   30.60
  -3  -5  25    1.53    9.91
  -3  -5  24   30.00   32.89
  -3  -5  23   24.73   27.09
  -3  -5  22  129.11   48.90
  -3  -5  21    0.40   12.73
  -3  -5  20   12.46   20.58
  -3  -5  19   23.08   25.64
  -3  -5  18   52.30   27.82
  -3  -5  17   61.15   28.49
  -3  -5  16   11.46   22.82
  -3  -5  16   22.35   11.72
  -3   5  15    3.43    8.99
  -3  -5  15    4.07    3.37
  -3  -5  15   12.54    9.96
   3   5 -15    5.81    8.23
   3   5 -14   -2.49    6.13
  -3   5  14    8.64    9.04
  -3  -5  14   10.08   13.56
  -3   5  13   22.34   14.70
  -3  -5  13   15.90   10.79
   3   5 -13   47.69   15.06
  -3   5  13   37.91   19.76
  -3   5  12   13.70    9.85
  -3   5  12    3.65    7.86
  -3  -5  12    1.07    7.99
   3   5 -12    3.53    9.26
  -3   5  11   64.57   24.01
  -3  -5  11   74.20   22.47
   3   5 -11  111.26   22.06
  -3   5  11   76.82   26.06
  -3   5  10    7.28   11.80
  -3  -5  10    0.67    3.80
  -3   5  10    7.34   11.29
   3   5 -10    6.36    4.60
  -3   5   9   32.59   17.46
  -3  -5   9   12.29   18.61
  -3   5   9   24.33   16.47
   3   5  -9   34.16   13.42
  -3  -5   8    5.73   11.32
  -3   5   8    4.43    3.33
   3   5  -8    1.72    6.02
  -3   5   8    8.82   11.93
   3   5  -7   24.91   11.34
  -3   5   7   15.40    9.38
   3  -5  -7   21.33    6.42
  -3  -5   7   13.80   12.53
  -3   5   7   36.95   18.09
  -3   5   6   -5.83    6.90
   3   5  -6   -1.70    2.62
  -3  -5   6   -2.30    4.15
  -3   5   6   33.57   18.03
   3  -5  -6   25.04   11.64
  -3   5   5   39.03   17.77
  -3  -5   5   30.95   11.50
  -3   5   4   63.31   25.35
   3   5  -4   59.84   17.59
  -3  -5   4   57.51   13.69
  -3   5   3   10.36    9.68
  -3  -5   3    6.13    6.19
   3   5  -3    1.84    5.14
   3   5  -2   20.90   11.82
  -3   5   2   47.71   26.20
  -3   5   1    4.09    6.45
   3  -5  -1    0.55    3.91
   3   5  -1   15.48    7.68
   3   5  -1   -5.46    5.50
  -3   5   0   87.01   25.44
   3  -5   0   88.88   15.95
   3   5   0   85.86   12.97
   3   5   0   80.36   21.48
   3  -5   1   59.15   13.11
   3   5   1   58.21   10.73
  -3   5  -1   51.78   21.45
   3   5   2   14.15    4.96
   3  -5   2    8.85    5.47
  -3   5  -2    0.36    4.44
   3   5   3   12.77    4.44
   3  -5   3   18.38    6.80
  -3   5  -3   13.11    6.30
   3   5   4   60.96   10.14
  -3   5  -4   59.86   23.27
   3  -5   4   59.70   22.20
   3   5   5    3.10    0.94
  -3   5  -5    1.52    4.12
   3  -5   5   11.99   12.14
  -3   5  -6    6.32   11.47
   3  -5   6    8.13    9.47
   3   5   6    6.26    2.87
  -3   5  -7   73.18   27.87
   3   5   7   87.67   15.36
   3  -5   7   64.65   22.77
   3  -5   8  112.01   31.38
  -3   5  -8   97.16   29.33
   3   5   8  108.35   16.00
   3  -5   9    8.86    8.61
  -3   5  -9   17.53   16.60
  -3   5 -10    6.80   13.31
   3  -5  10   -3.17    7.39
   3   5  10    5.97    6.41
   3   5  11   37.68   20.54
  -3   5 -11   20.26   18.89
   3  -5  12   44.90   22.89
   3   5  12  110.24   41.27
   3   5  13   10.11   21.40
   3  -5  13   -7.32   11.05
   3   5  14    6.26   15.05
   3  -5  14    4.78   17.65
   3   5  15   -1.94   12.40
   3  -5  15   16.04   27.64
   3  -5  16   16.06   19.41
   3   5  16   23.45   17.07
   3  -5  17    9.14   12.50
   3   5  17   46.72   32.91
   3  -5  18   16.05   15.51
   3   5  18    4.24    7.67
   3  -5  19   22.17   17.66
   3  -5  20   12.01   17.18
   3  -5  21   10.03   27.40
   3  -5  22    8.01   16.96
  -3  -6  23   62.45   48.62
  -3  -6  22    9.12   25.03
  -3  -6  21    4.88    9.41
  -3  -6  20   74.64   44.12
  -3  -6  19   10.43   14.57
  -3  -6  18   -7.56   14.14
  -3  -6  17   18.09   19.20
  -3  -6  16    9.22   17.50
  -3   6  15   11.05   17.66
  -3  -6  15   -1.66    7.00
  -3  -6  14   -1.50    6.89
  -3   6  14  288.81   57.48
  -3   6  13   15.96   15.07
  -3  -6  13   23.73   21.66
  -3  -6  12   -3.46    6.64
   3   6 -12    3.86    1.81
  -3  -6  11  120.57   32.43
  -3   6  11  102.98   33.62
   3   6 -11  117.91   23.84
  -3  -6  10    7.44   12.88
   3   6 -10   25.53   12.20
  -3   6  10   22.41   15.46
  -3   6   9  161.82   38.16
   3   6  -9  197.17   32.39
  -3  -6   9  107.61   29.94
  -3   6   8   30.44   20.94
  -3  -6   8   22.93   13.59
   3   6  -8   26.26   12.16
   3   6  -7   10.18    6.52
  -3   6   7   34.63   28.81
  -3  -6   7    2.60    8.08
  -3   6   6   44.36   21.62
  -3  -6   6    5.02   12.26
   3   6  -6   21.30   12.23
   3   6  -5    9.43    7.64
  -3   6   5    1.03    7.52
  -3  -6   5    9.11    8.55
   3   6  -4   17.91   13.50
  -3   6   4   46.80   33.51
  -3  -6   4   15.80   11.00
   3   6  -3    5.24   10.80
  -3   6   3   16.44   14.42
   3   6  -2   12.71   10.70
  -3   6   2   -1.60    2.78
   3   6  -1   78.03   24.98
  -3   6   1   96.07   29.99
  -3   6   0   18.36   15.02
   3   6   0    3.00    5.43
  -3   6  -1   14.40   16.49
  -3   6  -2    2.10    6.48
  -3   6  -3  140.32   35.47
  -3   6  -4   18.76   14.21
  -3   6  -5   52.81   21.42
   3  -6   6   15.02   13.49
  -3   6  -6    9.24   13.64
  -3   6  -7    9.65   11.64
   3  -6   7    6.76   11.68
  -3   6  -8    0.35    4.43
   3  -6   8   -0.93    0.83
  -3   6  -9    0.52    6.49
   3  -6   9   17.50   31.42
   3  -6  10    5.54   14.20
  -3   6 -10   80.34   35.20
  -3   6 -11   27.34   29.32
   3  -6  11   29.92   31.64
   3  -6  12   -5.97   13.50
  -3   6 -12    3.66   16.25
  -3   6 -13   11.36   21.33
   3  -6  13   56.81   38.98
  -3   6 -14    9.31   14.18
   3  -6  14    7.40   17.17
   3  -6  15   17.41   18.12
  -3   6 -15   -2.15   14.01
  -3   6 -16   -0.77    8.04
   3  -6  16   -2.45   12.04
   3  -6  17  229.49   60.68
  -3   6 -17    2.42   14.98
  -3   6 -18   52.55   31.88
   3  -6  18   14.49   14.08
   3  -6  19   12.43   24.48
  -3   6 -19   16.55   19.96
  -3   6 -20  -17.87   16.20
  -3   6 -21  140.72   63.85
  -3   6 -22   18.32   38.58
  -3  -7  21   21.88   27.54
  -3  -7  20   85.42   44.47
  -3  -7  19   24.61   24.06
  -3  -7  18   11.76   21.50
  -3  -7  17    7.70   22.57
  -3  -7  16    2.01   13.11
  -3  -7  15    0.11    9.21
  -3   7  14   78.63   42.62
  -3  -7  14   55.80   26.73
  -3   7  13   13.10   17.50
  -3  -7  13   18.53   19.79
  -3   7  12    8.94   14.44
  -3  -7  12   19.22   18.82
  -3   7  11   36.28   23.73
  -3  -7  11    8.97   13.61
  -3   7  10    2.87   10.26
   3   7 -10   22.36   15.82
  -3  -7  10    3.29   12.65
  -3   7   9   20.16   25.23
   3   7  -9    5.07    9.83
  -3   7   8   37.20   24.70
   3   7  -8    5.07    4.04
   3   7  -7   84.00   25.32
  -3   7   7   66.73   30.41
   3   7  -6   29.54   16.23
  -3   7   6   25.59   19.15
  -3   7   5   11.92   12.38
   3   7  -5   88.54   29.33
  -3   7   4   10.65   13.97
   3   7  -4    1.92    6.38
  -3   7   3   27.84   22.57
   3   7  -3   23.43   17.48
  -3   7   2    2.76    3.90
   3   7  -2   24.08   18.02
   3   7  -1   11.82   15.54
  -3   7   1   34.47   24.33
  -3   7   0   25.08   26.54
  -3   7  -1   14.05   13.02
  -3   7  -2    8.42   12.65
  -3   7  -3   10.01   21.49
  -3   7  -4    1.69   13.48
  -3   7  -5   23.54   26.07
  -3   7  -6    3.15    9.34
  -3   7  -7    9.84   14.09
  -3   7  -8  191.46   51.74
   3  -7   8   53.64   30.88
  -3   7  -9   16.09   21.25
   3  -7   9   19.41   25.17
  -3   7 -10   29.30   35.85
   3  -7  10   14.94   22.84
   3  -7  11    8.24    7.36
  -3   7 -11    9.75   12.88
  -3   7 -12   84.51   40.00
   3  -7  12    1.08   15.13
  -3   7 -13    0.59    8.78
   3  -7  13   88.04   37.52
  -3   7 -14   49.51   30.74
   3  -7  14   -0.36   11.05
  -3   7 -15    3.70    6.15
   3  -7  15   74.60   46.28
  -3   7 -16   63.70   38.22
   3  -7  16   11.67   28.46
  -3   7 -17    3.94    1.82
  -3   7 -18   39.70   33.06
  -3   7 -19  119.77   49.76
  -3   8  11  -10.18   16.14
  -3   8  10   10.63   15.07
  -3   8   9  191.65   77.53
  -3   8   8    4.74   23.10
  -3   8   7   26.35   25.28
   3   8  -7   29.81   24.78
  -3   8   6    2.03    4.19
   3   8  -6    6.17   17.61
   3   8  -5  -11.25   14.71
  -3   8   5    9.81   20.68
  -3   8   4    7.43   15.62
   3   8  -4   19.46   22.71
   3   8  -3   13.28   13.20
  -3   8   3    3.61   14.34
  -3   8   2    3.77   14.70
   3   8  -2   11.60   10.34
  -3   8   1   23.22   28.34
  -3   8   0    1.68    9.40
  -3   8  -1   14.00   22.78
  -3   8  -2  -24.76   17.04
  -3   8  -3   56.05   35.44
  -3   8  -4    0.37    8.10
  -3   8  -5   54.91   34.90
  -3   8  -6    5.98   23.95
  -3   8  -7   -0.96   10.74
  -3   8  -8   20.12   21.53
  -3   8  -9   40.64   29.91
  -3   8 -10   18.68   20.12
  -3   8 -11   23.93   25.22
   3  -8  11   -6.91   11.36
  -3   8 -12   13.49   20.01
   3  -8  12   58.45   38.48
  -3   8 -13   16.06   16.88
  -3   8 -14  108.15   42.19
  -3   8 -15    7.12   20.72
  -4   0  31    0.79   11.74
  -4   0  30   27.18   38.51
  -4   0  29   -5.68   17.53
  -4   0  28   26.29   23.30
  -4   0  27   48.51   24.39
  -4   0  26   33.63   22.83
  -4   0  25   11.53   24.27
  -4   0  24    3.03   19.41
  -4   0  23    4.11   11.97
  -4   0  22   13.75   16.93
  -4   0  21    5.22   11.52
  -4   0  20   20.66   14.33
   4   0 -19   -3.46    3.04
  -4   0  19   -6.34    5.83
  -4   0  18    7.39    7.86
   4   0 -18   20.45   10.32
  -4   0  17    3.13    5.48
   4   0 -17   15.01    9.05
  -4   0  16   12.90    9.06
   4   0 -16    9.05    5.18
   4   0 -15    6.36    5.33
  -4   0  15   -3.79    4.87
  -4   0  14  249.88   35.50
   4   0 -14  273.87   27.87
   4   0 -13   -0.17    3.97
  -4   0  13    1.85    6.93
  -4   0  12  173.90   28.14
   4   0 -12  176.85   19.35
   4   0 -11    4.23    2.11
  -4   0  11   -1.83    2.99
   4   0 -10    6.57    4.78
  -4   0  10   17.63    9.86
  -4   0   9   -2.92    2.62
  -4   0   9   -2.17    3.03
  -4   0   9    2.23    1.92
  -4   0   8  120.84   23.54
  -4   0   8  132.90   13.44
  -4   0   8  142.76   23.12
  -4   0   7    2.07    2.93
  -4   0   7    1.78    2.41
  -4   0   7   -2.54    4.55
  -4   0   6    2.44    2.00
  -4   0   6    8.17    9.12
  -4   0   6    2.36    2.38
  -4   0   5    0.75    3.85
  -4   0   5    0.69    1.69
  -4   0   4  427.03   40.98
   4   0  -4  455.85   44.21
  -4   0   3    7.12    6.54
   4   0  -3    2.71    3.60
   4   0  -2  625.89   51.21
  -4   0   2  623.89   48.56
   4   0  -1   -2.33    4.22
   4   0   0   98.52   21.75
  -4   0   0   77.75   14.74
   4   0   1    2.44    6.18
  -4   0  -1    1.24    2.91
  -4   0  -2  148.77   19.97
  -4   0  -3    2.85    3.06
   4   0   3   -0.24    2.20
   4   0   4  501.35   39.15
  -4   0  -4  532.60   37.50
   4   0   5   -1.14    2.90
  -4   0  -5   -1.55    1.84
   4   0   6 1569.28   72.13
  -4   0  -6 1554.31   67.09
   4   0   7   -1.70    3.42
  -4   0  -7    5.62    4.55
   4   0   8   28.74   10.81
  -4   0  -8   35.60    9.91
   4   0   9   -2.00    1.99
  -4   0  -9    1.29    3.11
   4   0  10  143.19   25.06
   4   0  11   -1.98    6.15
   4   0  12   27.31   12.22
   4   0  13    0.68    4.97
   4   0  14   37.78   17.87
   4   0  15    0.64    2.26
   4   0  16   37.13   18.65
   4   0  17    0.15    3.92
   4   0  18   70.05   27.40
   4   0  19   -2.89    2.87
   4   0  20   80.15   35.85
   4   0  21   -0.28   12.93
   4   0  22   42.85   25.31
   4   0  23   -5.89   13.94
   4   0  24   17.11   17.82
   4   0  25    0.11    8.22
   4   0  26    5.01    6.42
   4   0  27    3.75   12.15
   4   0  28    0.75    5.86
  -4  -1  30   28.77   31.39
  -4   1  29    7.94   15.55
  -4  -1  29   16.33   21.08
  -4  -1  28   11.83   22.08
  -4  -1  28   23.07   25.78
  -4   1  28    4.87   23.52
  -4   1  27   -3.58   19.50
  -4  -1  27   11.17   19.76
  -4  -1  27   -6.66    6.22
  -4   1  26    6.44   18.78
  -4  -1  26   -0.43    9.16
  -4   1  25    8.43    5.23
  -4  -1  25    1.63    9.09
  -4  -1  24    4.11    1.17
  -4   1  24  118.10   37.22
  -4   1  23   28.64   23.83
  -4  -1  23   16.71   16.12
  -4   1  22   97.31   27.97
  -4  -1  22   29.05   21.40
  -4   1  21   33.79   21.11
  -4  -1  21    2.95    8.71
  -4   1  20    0.02    6.98
  -4  -1  20    2.07    2.72
  -4   1  19   31.26   17.19
  -4  -1  19   16.42   11.31
  -4   1  18   16.38   12.21
  -4  -1  18    3.20    6.76
   4   1 -18   23.18    8.76
  -4   1  17   15.85   10.57
  -4  -1  17    0.68    5.28
   4   1 -17    8.52    5.59
  -4   1  16   -1.04    2.73
  -4  -1  16    6.03    7.76
   4   1 -16   10.59    5.53
   4  -1 -15   30.02   16.41
  -4   1  15    4.01    7.39
  -4  -1  15    9.18    8.65
   4   1 -15   28.39    9.02
  -4   1  14    9.81    5.23
  -4  -1  14   13.29    8.74
   4   1 -14   14.07    4.43
   4  -1 -14    7.99    7.67
  -4   1  13  158.67   28.60
   4   1 -13  163.89   13.57
   4  -1 -13  163.32   23.93
  -4  -1  13  171.61   27.90
  -4   1  12   -1.15    4.88
   4  -1 -12   -0.68    2.63
  -4  -1  12    5.84    6.04
   4   1 -12    1.13    1.55
  -4   1  12   -3.30    5.06
  -4   1  11    3.73    5.06
  -4  -1  11    4.71    5.94
  -4   1  11    8.13    5.00
  -4   1  11    4.75    2.71
   4  -1 -11    7.55    5.67
  -4   1  10  119.13   22.43
  -4  -1  10  130.03   22.04
   4  -1 -10  121.09   20.88
  -4   1  10  134.72   18.47
  -4   1  10  118.52   18.89
  -4   1   9  648.52   51.41
  -4  -1   9  617.61   48.09
  -4   1   9  632.61   43.42
  -4   1   9  643.33   41.50
   4  -1  -9  608.46   46.70
  -4   1   8   60.74   16.05
   4  -1  -8   63.28   14.79
  -4  -1   8   61.96   18.87
  -4   1   8   66.50   13.82
  -4   1   8   58.95   12.98
  -4   1   7   35.85   10.09
  -4   1   7   38.23   12.78
  -4  -1   7   29.33   12.93
  -4   1   7   27.94    9.32
  -4   1   6   33.25    9.03
  -4   1   6   33.72    9.05
  -4   1   6   38.89   11.75
  -4  -1   6   34.95   15.24
  -4   1   5   10.73    5.69
   4  -1  -5   11.22    6.51
  -4  -1   5   16.38   12.96
  -4   1   5   10.49    5.21
  -4   1   4   49.35   13.75
  -4  -1   4   45.31   14.78
  -4   1   4   41.13   10.51
   4  -1  -4   48.79   12.30
   4   1  -3   60.73   17.71
  -4   1   3   60.12   13.12
   4  -1  -3   63.83   14.51
  -4   1   3   37.03   13.97
   4  -1  -2   -3.34    4.75
   4   1  -2    6.46    6.71
  -4   1   1   38.29   11.49
   4   1  -1   43.04   14.70
  -4  -1   0  100.50   12.97
  -4   1   0  103.25   18.97
   4   1   0  105.37   23.28
  -4   1  -1  709.90   50.05
  -4  -1  -1  743.81   34.46
   4   1   1  710.21   61.41
  -4  -1  -2   45.66    8.54
  -4   1  -2   41.56   12.30
   4  -1   2   34.95   12.14
   4   1   2   48.46   16.62
  -4  -1  -3    3.85    2.51
   4   1   3    3.73    4.80
   4   1   3    2.78    2.18
  -4   1  -3    2.60    1.62
   4  -1   3    7.61    3.91
   4   1   4   -1.44    6.49
  -4   1  -4    0.22    3.96
  -4  -1  -4    6.11    5.10
   4   1   4    0.39    1.31
   4  -1   4    2.74    4.34
   4  -1   5  141.43   23.95
   4   1   5  122.81   16.52
  -4   1  -5  128.17   21.88
  -4  -1  -5  113.68   14.45
   4   1   5  130.67   27.86
  -4   1  -6   57.41   15.11
   4   1   6   63.97   12.68
  -4  -1  -6   59.74   11.44
   4  -1   6   61.03   16.19
  -4   1  -7   63.65   15.80
   4   1   7   65.55   13.47
  -4  -1  -7   67.85   12.64
   4  -1   7   57.59   16.52
   4  -1   8   -1.70    4.73
   4   1   8    4.48    4.68
   4  -1   9   15.96   12.86
   4   1   9    3.98    4.91
   4  -1  10    2.77    5.80
   4   1  10    7.95    8.25
   4  -1  11  270.34   39.17
   4   1  11  269.76   32.91
  -4   1 -12   30.21    9.50
   4   1  12   28.99   12.61
   4  -1  12   22.27   13.45
  -4   1 -13   36.32   12.35
   4  -1  13   22.71   14.86
   4   1  13   27.89   10.99
  -4   1 -14   83.47   17.44
   4  -1  14   88.23   30.09
   4   1  14   89.94   21.36
   4  -1  15   36.50   20.25
   4   1  15   43.55   15.50
   4  -1  16    5.30   10.39
   4   1  16   46.76   29.00
   4  -1  17    9.43   13.82
   4   1  17   21.38   13.13
   4   1  18   57.92   23.73
   4  -1  18   31.78   22.45
   4   1  19    6.79    9.01
   4  -1  19    6.27   13.68
   4   1  20   34.92   22.45
   4  -1  20   71.84   29.10
   4   1  21   11.62   13.42
   4  -1  21   10.95   14.11
   4  -1  22   -6.46    9.72
   4   1  22    3.36   14.36
   4   1  23   11.30   18.57
   4  -1  23   21.24   23.55
   4   1  24   -4.03   10.78
   4  -1  24   -2.61   12.23
   4   1  25    3.65   16.37
   4  -1  25    3.68   13.13
   4   1  26   -1.57    7.99
   4  -1  26   10.19   14.03
   4  -1  27    7.18   24.58
   4   1  27   47.13   39.62
   4   1  28    5.56   25.30
   4   1  29   17.83   23.16
  -4   2  28    4.46   14.30
  -4  -2  28   55.29   40.56
  -4   2  27   16.88   23.39
  -4  -2  27   11.16   11.51
  -4   2  26   41.80   32.88
  -4  -2  26    3.18   12.18
  -4  -2  26   17.66   25.07
  -4  -2  25   -3.13    1.90
  -4  -2  25   15.31    9.21
  -4   2  24   13.56   12.02
  -4  -2  24    5.04   10.41
  -4  -2  24    1.90    6.17
  -4   2  23   18.43   19.82
  -4  -2  23   14.27   16.96
  -4   2  22    4.37    6.47
  -4  -2  22    0.96    9.62
  -4  -2  22    5.04    9.03
  -4   2  21    8.60   16.66
  -4  -2  21   38.27   16.35
  -4  -2  21   37.67   27.18
  -4   2  20    8.00   13.45
  -4  -2  20   22.21   14.64
  -4   2  19   32.69   19.90
  -4  -2  19   32.69   17.42
  -4   2  18   55.33   24.52
  -4  -2  18   45.88   16.04
  -4  -2  17  220.97   34.26
  -4   2  17  202.74   39.95
   4   2 -17  220.54   17.34
  -4  -2  16   22.31   10.73
   4   2 -16   18.78    5.15
  -4   2  15  167.71   34.34
  -4  -2  15  159.21   28.34
   4   2 -15  127.75   10.20
  -4   2  15  148.11   21.05
  -4   2  14   13.21    9.47
  -4  -2  14    6.51    5.48
  -4   2  14   11.57    6.42
  -4  -2  13   11.70   10.00
  -4   2  13    0.75    3.31
  -4   2  13    7.29    8.31
  -4   2  13    5.87    4.18
  -4   2  12    2.67    1.05
  -4  -2  12    0.04    1.40
  -4   2  12    1.78    6.64
  -4   2  12   -1.40    1.99
  -4   2  11  143.33   28.62
  -4   2  11  112.18   13.07
  -4   2  11  114.45   21.65
  -4  -2  11  100.71   20.24
  -4   2  10   11.73    3.84
  -4   2  10   10.06    5.92
   4  -2  -9   50.62   16.46
  -4   2   9   43.98   14.53
  -4   2   9   43.29   14.59
   4  -2  -8   42.00   18.23
  -4   2   8   37.26   12.82
  -4   2   8   28.69   12.27
  -4   2   7  100.86   19.68
   4  -2  -7  115.36   23.04
  -4   2   7  100.74   19.16
  -4   2   6  116.60   20.01
   4  -2  -6  139.90   22.96
   4  -2  -6  125.44   15.67
  -4   2   6  119.38   20.94
  -4  -2   5   15.63    4.22
  -4   2   5   12.95    6.81
  -4   2   5   17.77    9.16
   4  -2  -5   20.72    9.14
   4  -2  -5   11.32    5.15
   4  -2  -4   50.10   10.86
  -4   2   4   49.67   14.30
  -4   2   4   48.67   12.17
  -4  -2   4   51.85    8.29
  -4   2   3   57.46   14.63
  -4  -2   3   62.45   10.06
  -4   2   2   52.95   11.33
  -4   2   2   60.34   17.28
  -4  -2   2   57.68    9.87
  -4   2   1   16.99    9.81
   4   2  -1    4.51    3.25
  -4   2   1    4.33    4.73
  -4   2   0  134.54   17.18
   4   2   0  132.57   29.72
  -4   2  -1   62.56   11.27
   4   2   1   59.76   20.66
   4   2   2   54.69   19.44
  -4   2  -2   42.56    8.98
   4  -2   2   54.59   15.78
   4   2   3   55.72   19.11
   4  -2   3   56.11   17.04
   4   2   4  214.05   15.04
   4  -2   4  237.20   34.73
   4   2   4  228.02   38.66
   4  -2   5   88.74   21.36
   4   2   5   95.15   11.11
   4   2   5   92.06   24.59
   4   2   6  621.72   65.66
   4  -2   6  671.87   59.70
   4   2   6  650.41   31.94
   4   2   7   15.69    4.99
   4   2   7   16.49   11.83
   4  -2   7   21.20   13.50
   4   2   8   49.59   13.50
   4   2   8   41.24   18.32
   4  -2   8   48.15   17.82
   4  -2   9  234.76   37.26
   4   2   9  237.33   25.28
   4   2   9  252.98   42.13
   4  -2  10   10.61    8.05
   4   2  10   21.99   15.10
   4   2  10   15.72    6.27
  -4   2 -11  140.65   16.10
   4   2  11  169.59   39.15
   4  -2  11  138.25   32.47
   4   2  11  134.89   21.97
   4  -2  12   16.58   18.69
  -4   2 -12   -2.02    0.96
   4   2  12    9.84   10.37
   4  -2  13   43.90   23.35
  -4   2 -13   72.51   12.23
   4   2  13   66.35   17.07
  -4   2 -14   31.43   10.99
   4   2  14    7.15    6.37
   4  -2  14    7.10   10.10
   4  -2  15   25.45   17.96
   4   2  15   46.84   16.43
  -4   2 -15   43.19   11.48
   4  -2  16    9.52   11.64
   4   2  16    6.02    7.69
  -4   2 -16    7.12    8.02
   4   2  17    4.05    5.77
   4  -2  17   -3.72    8.91
   4   2  18    0.05    6.66
   4  -2  18    6.52   13.77
   4  -2  19    6.37   17.08
   4   2  19   -3.78    7.50
   4  -2  20   18.66   23.30
   4   2  20   21.26   14.58
   4  -2  21   13.35   18.22
   4   2  21   28.48   18.82
   4  -2  22   13.99   21.70
   4   2  22   41.63   21.85
   4  -2  23    5.94   14.88
   4   2  23   43.22   27.79
   4  -2  24    8.02   21.84
   4   2  24    2.83   12.80
   4   2  25    9.33   10.72
   4  -2  25   40.27   35.90
   4  -2  26   12.41   12.62
   4   2  26    9.14   13.87
   4   2  27    5.09   20.44
   4   2  28   17.04   24.22
  -4   3  27   41.75   40.75
  -4  -3  27   -1.52   13.96
  -4  -3  26  134.62  136.23
  -4   3  26   -0.43    7.95
  -4   3  25    6.39   17.12
  -4  -3  25   43.03   31.19
  -4   3  24   -1.09   16.65
  -4  -3  24    8.04   10.08
  -4  -3  24   34.42   27.71
  -4   3  23   30.85   18.60
  -4  -3  23   -4.17    2.20
  -4  -3  23   14.27   14.32
  -4   3  22  109.93   34.21
  -4  -3  22   47.02   18.44
  -4  -3  22   73.71   35.48
  -4  -3  21   10.04   14.09
  -4  -3  21    0.40    9.83
  -4   3  20   41.84   23.67
  -4  -3  20   42.66   17.58
  -4  -3  20   40.45   21.58
  -4   3  19   62.24   31.37
  -4  -3  19   62.47   17.23
  -4  -3  19   79.15   26.64
  -4  -3  18   11.83    8.76
  -4  -3  18   -0.65    2.65
  -4   3  17    4.51    8.30
  -4  -3  17    2.19    3.08
  -4  -3  17    9.15    6.77
  -4   3  16  216.84   41.46
  -4  -3  16  182.09   31.69
   4   3 -16  173.79   14.35
  -4  -3  16  198.13   39.71
  -4   3  15    1.88    6.60
  -4  -3  15   12.16    8.83
  -4  -3  15    1.12    5.63
   4   3 -15    5.25    2.56
  -4  -3  14  168.43   28.26
  -4   3  14  158.58   34.73
  -4  -3  14  182.01   32.80
  -4   3  14  137.53   28.34
  -4   3  13   18.00   11.59
  -4   3  13   19.34   17.22
  -4  -3  13   10.36    8.01
  -4  -3  13    6.91    6.63
  -4   3  12   10.21    9.41
  -4  -3  12   24.90   12.42
  -4   3  12   30.20   17.01
  -4   3  11   14.06   15.85
  -4   3  11   -1.55    3.65
  -4  -3  11   24.52   10.62
  -4   3  10   21.00   11.31
  -4  -3  10   14.67    8.18
  -4   3   9   41.85   13.63
  -4   3   9   46.50   14.87
  -4  -3   9   65.48   17.50
  -4   3   8   44.52   14.83
  -4  -3   8   53.45   13.52
  -4   3   8   56.10   16.70
  -4   3   7   75.85   18.19
  -4  -3   7   95.37   20.04
  -4   3   6    3.13    4.38
  -4   3   6    5.19    6.46
  -4  -3   6    3.05    2.45
  -4  -3   6    5.25    4.91
   4  -3  -6    2.45    2.44
  -4   3   5  188.81   27.44
  -4  -3   5  185.41   19.29
  -4  -3   5  184.83   20.29
  -4   3   5  195.86   31.33
  -4  -3   4   48.54   10.09
  -4   3   4   39.90   12.79
  -4   3   4   47.70   12.53
  -4  -3   4   50.05    9.70
   4  -3  -4   79.40   16.49
  -4   3   3   38.96   11.43
  -4  -3   3   39.22    7.33
   4  -3  -3   50.36   14.95
  -4  -3   3   45.66   10.74
  -4   3   3   41.66   14.81
  -4   3   2    8.99    8.21
  -4   3   2    7.58    3.65
  -4  -3   2   19.42    9.86
  -4  -3   2    8.01    3.28
   4  -3  -2    8.65    6.19
  -4   3   1    5.42    3.32
  -4  -3   1    9.36    6.57
  -4   3   1    2.36    3.55
  -4  -3   0   73.72   15.12
  -4   3   0   58.96   12.28
  -4   3   0   68.28   19.19
  -4   3  -1   34.30    9.50
  -4   3  -1   29.86   13.91
   4   3   1   28.92   14.86
  -4  -3  -1   44.55   14.61
  -4  -3  -2   28.93   10.46
  -4   3  -2   10.22    4.32
   4   3   2   43.14   29.18
   4   3   3   52.29   21.91
  -4   3  -3   48.81    9.39
   4  -3   3   41.43   17.14
  -4   3  -4   69.06   10.18
   4   3   4   67.69   23.38
   4  -3   4   64.68   19.48
   4   3   5  200.58   38.96
  -4   3  -5  183.71   15.05
   4  -3   5  173.63   33.74
  -4   3  -6  190.09   14.13
   4  -3   6  188.17   35.34
   4   3   6  175.50   12.18
   4   3   6  204.77   41.90
  -4   3  -7   56.38    6.80
   4  -3   7   71.22   22.16
   4   3   7   71.34   11.11
   4   3   7   54.00   20.78
   4  -3   8  359.00   49.29
   4   3   8  351.19   24.14
   4   3   8  345.06   54.24
   4   3   9   77.04   12.50
   4   3   9   96.13   28.52
   4  -3   9   83.54   23.52
   4   3  10   21.51    8.11
   4  -3  10   15.25    9.67
   4  -3  11  120.45   34.00
   4   3  11   95.74   16.04
   4   3  11   96.85   28.96
   4   3  12   40.88   11.36
   4  -3  12   31.72   18.17
   4   3  12   48.08   25.65
   4  -3  13   28.23   18.11
   4   3  13   16.23    7.64
   4   3  13    8.78    7.08
   4  -3  14   42.76   21.73
   4   3  14   35.22   13.10
   4   3  14   24.52    3.69
   4  -3  15   10.25   10.87
   4   3  15   -1.02    3.52
   4   3  15   -0.40    9.71
   4  -3  16   17.29   19.58
   4   3  16    6.14    5.82
   4   3  16    7.66    9.86
   4   3  17   15.95   11.24
   4  -3  17   -0.19    9.21
   4   3  17    2.75    7.59
   4  -3  18   18.56   17.82
   4   3  18   39.46   16.12
   4   3  19   28.19   20.37
   4  -3  19   18.16   26.21
   4   3  19   33.43   16.17
   4   3  20   31.44   17.50
   4  -3  20   11.14   19.56
   4   3  20    8.28    8.77
   4   3  21    8.36   17.81
   4  -3  21    5.12   12.93
   4   3  21   46.72   23.43
   4  -3  22    4.07   10.95
   4   3  22   14.55   19.37
   4   3  22   38.63   33.91
   4   3  23    9.30   14.69
   4   3  23   43.03   42.02
   4  -3  23   -1.36    7.47
   4  -3  24    9.84   17.97
   4   3  24   64.60   44.42
   4   3  24   33.92   24.36
   4   3  25   30.88   33.37
   4  -3  25   66.67   74.84
  -4  -4  26  -11.02   18.76
  -4   4  25   16.73   30.82
  -4  -4  25    5.17   14.17
  -4  -4  24   26.45   31.73
  -4   4  24    5.97   19.31
  -4   4  23    0.66   15.13
  -4  -4  23   17.80   24.31
  -4   4  22   15.44   15.27
  -4  -4  22    7.33   20.47
  -4   4  21   21.17   22.32
  -4  -4  21    9.48    8.40
  -4  -4  20   14.08    9.01
  -4  -4  20    3.22    8.67
  -4   4  19    5.99   12.78
  -4  -4  19    6.81    9.46
  -4  -4  19    7.14   13.35
  -4   4  18   26.25   15.99
  -4  -4  18   18.20   15.44
  -4  -4  18   26.65   14.39
  -4   4  17   -3.31    7.96
  -4  -4  17    9.17   12.07
  -4  -4  17   -2.42    0.79
  -4   4  16   -1.14    5.54
  -4  -4  16    2.62   10.01
  -4  -4  16   -1.69    3.47
  -4   4  15   17.90   17.92
  -4  -4  15   22.01   13.40
  -4   4  15   27.22   18.43
  -4   4  14  168.50   35.44
  -4  -4  14  159.63   27.57
  -4   4  14  150.48   36.03
  -4  -4  14  181.29   34.77
   4   4 -14  184.54   18.27
  -4   4  13   29.58   15.87
  -4   4  13   30.43   16.93
   4   4 -13   19.21    5.98
  -4  -4  13   23.09   13.80
   4   4 -12    8.96    4.53
  -4   4  12    0.07    2.58
  -4   4  12   21.03   19.26
  -4  -4  12    3.31    6.66
  -4   4  11  123.46   28.50
  -4   4  11  178.92   51.87
  -4  -4  11   88.41   26.09
   4   4 -11  121.13   15.81
  -4   4  10  192.97   34.36
  -4   4  10  157.92   32.38
  -4  -4  10  150.31   25.77
   4   4 -10  160.92   18.75
  -4  -4   9   95.71   20.88
  -4   4   9   92.03   24.87
  -4   4   9  111.73   27.28
   4   4  -9  109.23   15.61
  -4  -4   8   19.00    7.40
  -4   4   8   16.22   11.90
  -4   4   8   27.13   13.77
   4   4  -8   26.47    7.78
  -4   4   7    1.25   10.89
  -4  -4   7   -1.01    3.12
  -4   4   7    1.11    3.78
  -4  -4   6   34.36   10.97
  -4   4   6   23.60   11.52
  -4   4   6   55.43   19.06
  -4  -4   6   15.49   10.61
  -4   4   5   10.09    6.74
  -4  -4   5   19.04    8.39
  -4   4   5   10.27    6.78
  -4  -4   5   10.30    6.24
  -4  -4   4   14.81    5.30
  -4  -4   4   18.40    8.59
  -4   4   4   20.18    9.74
  -4   4   4   23.00   13.41
  -4   4   3    7.06    5.94
  -4  -4   3   21.92    8.34
  -4  -4   3    8.50    7.01
  -4   4   3    8.35    8.21
  -4   4   2   22.39   12.45
   4  -4  -2   21.81    9.82
  -4   4   2   14.07    9.39
  -4  -4   2   17.45    5.62
  -4  -4   2   14.65    7.40
  -4   4   1   17.66   10.07
  -4   4   1   36.29   25.49
   4  -4  -1   12.16    6.57
  -4  -4   1   21.50   10.73
  -4   4   0   32.36   23.71
  -4   4   0   35.79   13.24
  -4   4  -1   19.14    8.55
  -4   4  -1   15.64   11.35
  -4   4  -2   77.62   24.16
  -4   4  -2   58.61   12.82
  -4   4  -3   42.24    9.14
  -4   4  -3   30.53   18.08
   4   4   4   43.37   15.98
  -4   4  -4   54.93    9.49
  -4   4  -4   56.78   19.88
   4  -4   4   57.20   22.33
  -4   4  -5    1.04    2.71
   4  -4   5    7.02    9.11
   4   4   5   14.81   14.72
   4   4   6  128.02   35.55
   4  -4   6   33.21   14.96
   4  -4   7   45.77   23.46
   4   4   7   33.82   16.48
   4   4   8   44.34    7.87
   4   4   8   39.07   20.36
   4  -4   8   47.33   27.51
   4  -4   9    7.43   18.21
   4   4   9    1.43    0.79
   4   4   9    8.29   11.13
   4   4  10  216.93   46.27
   4   4  10  213.94   21.31
   4  -4  10  200.50   41.65
   4   4  11  109.20   37.05
   4   4  11   96.38   16.38
   4  -4  11   98.25   30.57
   4  -4  12   65.92   29.82
   4   4  12   68.98   15.15
   4   4  12   82.22   27.66
   4  -4  13  124.70   35.10
   4   4  13  147.38   23.72
   4   4  13  155.80   43.10
   4   4  14   41.29   19.80
   4  -4  14   54.93   24.42
   4   4  14   19.08   13.42
   4   4  15    6.73   10.14
   4  -4  15    9.88   14.93
   4   4  16    0.26    2.92
   4  -4  16   16.94   20.91
   4   4  16   20.07   16.70
   4  -4  17   11.35   17.80
   4   4  17   10.89    7.87
   4   4  17   24.50   17.26
   4  -4  18   40.35   32.84
   4   4  18   21.72   13.08
   4   4  18   12.13   17.26
   4  -4  19   24.95   22.74
   4   4  19   61.44   35.10
   4  -4  20  -18.19   11.53
   4   4  20   30.31   36.85
   4  -4  21   11.77   17.69
   4   4  21    4.22   17.67
   4  -4  22   26.05   26.85
   4   4  22   61.96   44.22
   4  -4  23   49.35   32.19
  -4  -5  25  -14.94   13.54
  -4  -5  24   18.33   28.90
  -4  -5  23    4.06   14.30
  -4   5  22   27.78   28.50
  -4  -5  22   43.49   41.76
  -4   5  21   10.96   22.49
  -4  -5  21    6.19   13.27
  -4  -5  20   10.23   22.41
  -4   5  20   -0.25    8.45
  -4  -5  19  396.04   95.62
  -4   5  19    0.00   11.88
  -4   5  18    1.01   10.00
  -4  -5  18   66.66   27.81
  -4   5  17    4.00    8.06
  -4  -5  17    1.43    6.97
  -4  -5  17    8.83   10.10
  -4   5  16   34.19   18.70
  -4  -5  16    3.97   14.59
  -4  -5  16   21.16   17.17
  -4   5  16    1.75    9.52
  -4   5  15   15.66   12.18
  -4  -5  15   29.53   17.23
  -4  -5  15   37.79   14.40
  -4   5  14   18.65   14.97
  -4   5  14   16.31   15.02
  -4  -5  14   30.09   15.75
  -4  -5  13   59.90   23.64
  -4   5  13  103.49   33.39
  -4   5  13   95.77   29.59
   4   5 -12    6.32    5.50
  -4   5  12    2.18    3.68
  -4  -5  12    0.73    4.23
   4   5 -11   22.21    9.71
  -4   5  11    7.33   10.15
  -4   5  10   13.97    5.84
  -4  -5  10   19.74   12.90
  -4   5  10   12.74   10.13
   4   5 -10   34.01   11.22
  -4  -5   9   80.48   23.43
  -4   5   9  117.87   32.78
   4   5  -9  134.76   21.82
  -4   5   9  114.74   28.47
  -4   5   8  139.44   34.10
  -4  -5   8  110.09   24.28
   4   5  -8  152.29   23.80
  -4   5   8  150.50   32.96
  -4  -5   7   27.70   10.82
  -4   5   7   32.51   16.87
  -4   5   7   44.52   20.14
   4   5  -7   27.91    8.91
  -4  -5   6   50.13   14.26
  -4   5   6   67.62   32.01
  -4   5   6   34.05   16.06
   4   5  -6   36.75   14.30
  -4   5   5   11.11    8.07
  -4   5   5   13.80   12.49
  -4  -5   5   43.42   16.59
  -4   5   4  179.90   29.68
  -4  -5   4  221.78   26.53
  -4   5   4  192.97   37.65
  -4   5   3   85.54   20.04
  -4  -5   3   88.56   15.77
  -4   5   2   31.59   15.78
  -4   5   2   36.12   11.81
  -4   5   1  206.54   29.84
   4  -5  -1  182.00   25.60
  -4   5   0   27.09   13.29
   4  -5   0   17.95    9.38
  -4   5   0   15.64   12.65
   4  -5   1   25.29   11.04
  -4   5  -1    9.41    8.43
  -4   5  -2    8.17    8.50
  -4   5  -3    1.61    4.87
  -4   5  -4   -1.93    7.43
   4  -5   5  128.56   35.83
  -4   5  -5  130.06   39.80
  -4   5  -6    3.80   11.33
   4  -5   6  -12.06   12.71
  -4   5  -7  136.98   39.20
   4  -5   7  130.03   33.92
  -4   5  -8    6.42   13.64
   4   5   8   35.38   30.83
   4  -5   8   11.91   13.13
   4   5   9   79.56   34.00
  -4   5  -9   65.34   28.52
   4  -5   9   61.61   25.02
   4   5  10    6.52   12.73
   4  -5  10    5.20    7.53
   4   5  11   24.95   21.83
   4  -5  11   29.24   16.99
   4   5  12   41.84   30.45
   4  -5  12    6.19    7.48
   4  -5  13   18.04   19.00
   4   5  13    2.77   13.77
   4  -5  14    6.21   10.28
   4   5  14   15.60   16.81
   4  -5  15   11.55   16.71
   4   5  15  122.59   52.04
   4   5  16   33.29   25.17
   4  -5  16   12.57   22.17
   4   5  17   37.92   30.13
   4  -5  17   34.02   29.11
   4   5  18   50.54   31.39
   4  -5  18   17.14   18.47
   4  -5  19    5.88   15.70
   4   5  19  170.83   56.80
   4  -5  20    7.71   17.13
   4  -5  21   13.28   16.28
  -4  -6  23   44.42   33.35
  -4  -6  22   -0.50    5.79
  -4  -6  21   32.10   28.35
  -4  -6  20    9.48   19.44
  -4  -6  19   15.74   20.17
  -4  -6  18   28.71   31.70
  -4  -6  17    1.98   11.68
  -4  -6  16    4.32   15.28
  -4   6  16   -2.92    7.15
  -4   6  15    9.44   16.37
  -4  -6  15   11.35   21.31
  -4   6  14   -7.78    8.40
  -4  -6  14    2.39    7.67
  -4  -6  13    6.39   12.13
  -4   6  13    3.82    8.70
  -4  -6  12   40.39   20.33
  -4   6  12   36.54   21.84
  -4  -6  11    0.63    4.98
  -4   6  11    9.27   11.89
  -4  -6  10   -2.10    4.87
   4   6 -10   13.51    9.57
  -4   6  10   11.23   13.19
  -4  -6   9    7.46   11.95
   4   6  -9   15.53   10.61
  -4   6   9   22.01   15.88
  -4   6   8  357.72   61.03
  -4  -6   8  294.07   41.18
   4   6  -8  375.32   43.97
   4   6  -7   40.02   13.70
  -4   6   7   35.03   20.89
  -4  -6   7   35.54   15.58
  -4  -6   6  229.68   35.15
   4   6  -6  276.91   39.24
  -4   6   6  262.32   50.72
  -4  -6   5   18.54   11.61
  -4   6   5   26.00   17.87
  -4   6   4   19.78   20.17
  -4   6   3   14.94   13.74
  -4   6   2   50.21   25.60
  -4   6   1   40.20   20.96
  -4   6   0   44.10   20.77
  -4   6  -1    6.81    9.35
  -4   6  -2   22.85   16.79
  -4   6  -3    3.48    8.65
  -4   6  -4  108.89   32.72
  -4   6  -5    6.35   11.84
  -4   6  -6   20.56   18.39
  -4   6  -7   12.06   18.84
   4  -6   7   16.95   12.02
  -4   6  -8    0.82    2.31
   4  -6   8  -11.24   13.76
  -4   6  -9   17.89   19.18
   4  -6   9    5.51    7.59
   4  -6  10   12.57   18.81
  -4   6 -10   10.08   19.25
  -4   6 -11   -5.15   10.28
   4  -6  11   10.45   16.80
  -4   6 -12  131.55   67.38
   4  -6  12   28.88   27.94
  -4   6 -13   -0.89    4.95
   4  -6  13   97.73   37.18
  -4   6 -14    7.85   25.92
   4  -6  14    9.28    6.56
  -4   6 -15    2.26   14.69
   4  -6  15   14.13   21.81
  -4   6 -16    8.97   19.45
   4  -6  16   11.03   18.92
   4  -6  17   11.46   14.72
  -4   6 -17  105.11   49.56
  -4   6 -18   14.87   27.38
   4  -6  18  106.46   31.12
  -4   7  16   17.06   19.05
  -4   7  15    0.50   12.26
  -4   7  14   -2.34    7.01
  -4   7  13    4.43   11.65
  -4   7  12    1.82   15.48
  -4   7  11   49.87   23.74
  -4   7  10   13.09   14.38
  -4   7   9   26.34   22.78
  -4   7   8   34.73   21.46
   4   7  -7   50.53   21.41
  -4   7   7   31.49   19.61
  -4   7   6   24.25   27.34
   4   7  -6   -0.19    8.89
  -4   7   5   16.79   20.85
  -4   7   4   31.42   20.86
  -4   7   3  126.45   38.06
  -4   7   2   10.21   15.62
  -4   7   1  152.89   46.89
  -4   7   0   10.60   11.84
  -4   7  -1    2.85    7.90
  -4   7  -2   23.84   17.98
  -4   7  -3   23.72   17.87
  -4   7  -4   16.15   24.08
  -4   7  -5   25.52   27.82
  -4   7  -6   17.00   19.40
  -4   7  -7   14.72   25.22
  -4   7  -8   10.40   28.76
   4  -7   9   -2.55   12.49
  -4   7  -9   13.66   27.47
   4  -7  10   27.30   21.66
  -4   7 -10   -8.62   10.56
  -4   7 -11   12.97   21.94
   4  -7  11   20.61   20.47
  -4   7 -12   20.00   27.96
   4  -7  12   18.62   28.56
  -4   7 -13    3.28   14.46
   4  -7  13   20.96   27.48
  -4   7 -14  544.49   95.66
   4  -7  14  106.41   55.55
  -4   7 -15   14.11   26.44
   4  -7  15   -6.50   16.39
  -4   7 -16    0.26   13.20
  -4   7 -17    8.75   21.18
  -4   7 -18    2.78    0.55
  -4   8   9   19.12   19.97
  -4   8   8   12.51   15.01
  -4   8   7  346.85   78.83
  -4   8   6   31.45   25.23
  -4   8   5   39.33   39.05
  -4   8   4   17.22   24.85
  -4   8   3   -6.90   12.09
  -4   8   2   24.64   30.35
  -4   8   1    9.04   17.29
  -4   8   0    7.75   23.90
  -4   8  -1   62.53   36.58
  -4   8  -2    1.47    7.29
  -4   8  -3   28.11   19.60
  -4   8  -4   71.43   41.46
  -4   8  -5    3.51   18.33
  -4   8  -6   14.46   16.98
  -4   8  -7   39.58   42.66
  -4   8  -8    8.63   23.92
  -4   8  -9   10.41   35.53
  -4   8 -10   10.79   22.77
  -4   8 -11   11.78   34.29
  -5   0  30   24.13   42.10
  -5   0  29    0.92   11.50
  -5   0  28   16.95   25.67
  -5   0  27   37.31   29.51
  -5   0  26    3.10    7.34
  -5   0  25    0.76    3.08
  -5   0  24    6.41   14.90
  -5   0  23   36.58   23.99
  -5   0  22    8.71   16.04
  -5   0  21   14.77   12.72
  -5   0  20   -3.21    7.01
  -5   0  19   71.70   23.62
  -5   0  18    3.06    8.00
   5   0 -18    0.85    4.95
  -5   0  17    9.22   11.55
   5   0 -17   14.22    7.42
  -5   0  16    0.97    7.25
   5   0 -16   16.57    8.82
   5   0 -15   86.66   16.48
  -5   0  15   92.47   22.95
  -5   0  14    2.39    8.89
   5   0 -14    4.51    4.03
  -5   0  13  366.41   43.49
   5   0 -13  134.91   28.86
  -5   0  12   -1.83    2.65
  -5   0  12   15.17   11.98
  -5   0  11  343.38   40.06
  -5   0  11  339.48   43.66
  -5   0  10   14.68    5.87
  -5   0  10    2.13    4.89
  -5   0  10   -0.73    4.28
  -5   0   9  145.04   24.54
  -5   0   9  142.13   14.88
  -5   0   9  136.71   26.32
  -5   0   8    0.54    2.79
  -5   0   8    0.75    1.90
  -5   0   7  132.04   23.02
  -5   0   7  146.11   26.83
  -5   0   7  136.55   15.91
  -5   0   6   -1.93    2.52
  -5   0   6   -4.66    6.49
   5   0  -5   90.48   22.80
  -5   0   5   81.71   18.75
   5   0  -4    7.29    7.36
  -5   0   4    4.01    7.99
  -5   0   3  107.42   21.94
   5   0  -3  110.76   24.13
   5   0  -2   10.76    8.39
   5   0  -1 1738.31   97.10
  -5   0   0   -2.67    3.64
   5   0   0    3.82    6.14
   5   0   1    5.48   12.61
  -5   0  -1    3.44    3.63
   5   0   2   -1.64    3.92
  -5   0  -2    1.59    1.59
  -5   0  -3    6.79    5.04
  -5   0  -4    2.74    4.21
   5   0   4    0.84    4.39
  -5   0  -5   93.50   17.71
   5   0   5  157.93   23.66
   5   0   6    6.64    7.68
  -5   0  -6   20.37   20.27
  -5   0  -7   50.52   13.01
   5   0   7   69.88   19.53
  -5   0  -8   -1.36    2.68
   5   0   8    2.62    6.63
   5   0   9   33.28   12.01
   5   0  10    0.63    3.96
   5   0  11  545.08   54.13
   5   0  12    3.79    6.68
   5   0  13    5.28    7.97
   5   0  14    2.75    2.32
   5   0  15   31.43   24.02
   5   0  16    3.97    5.62
   5   0  17   43.66   22.41
   5   0  18    6.17   11.13
   5   0  19   47.37   31.33
   5   0  20   10.95   26.58
   5   0  21   23.09   19.16
   5   0  22   11.86   13.66
   5   0  23    7.54   12.46
   5   0  24   -2.83    6.04
   5   0  25   20.60   31.53
   5   0  26   -1.62    2.39
   5   0  27   -5.25   19.56
  -5  -1  30    4.57    4.12
  -5  -1  29    8.82   15.14
  -5   1  29    0.56    6.33
  -5  -1  28  250.86   72.63
  -5   1  28   14.19   22.47
  -5   1  27   21.21   31.02
  -5  -1  27    4.54    8.97
  -5   1  26    2.59   30.51
  -5  -1  26   18.75   17.32
  -5   1  25   -3.40   11.33
  -5  -1  25   53.79   28.05
  -5   1  24    0.03    4.50
  -5  -1  24    3.86   17.53
  -5   1  23   10.99   28.11
  -5  -1  23    5.88    8.54
  -5   1  22    4.29   13.92
  -5  -1  22    5.99   13.20
  -5   1  21   23.21   23.28
  -5  -1  21   16.03   15.25
  -5   1  20    6.93   12.87
  -5  -1  20    4.76    4.61
  -5   1  19   50.47   30.72
  -5  -1  19   20.37   12.90
  -5   1  18  131.01   30.97
  -5  -1  18  148.44   30.00
   5   1 -17    9.56    4.31
  -5   1  17   30.01   15.88
  -5  -1  17   33.85   14.75
  -5   1  17   34.84   15.54
  -5   1  16  106.00   25.32
  -5   1  16   82.84   25.86
  -5  -1  16  103.63   23.65
   5  -1 -16  100.42   19.78
  -5   1  15   27.64   12.97
   5  -1 -15   29.25   12.21
  -5  -1  15   18.19   12.04
  -5   1  15   38.67   18.05
   5  -1 -14   43.67   13.82
  -5   1  14   40.10   16.36
  -5   1  14   50.45   17.28
  -5  -1  14   38.94   14.38
  -5   1  13   12.51   11.51
   5  -1 -13   25.20   15.08
  -5   1  13   11.62   11.81
  -5   1  13   14.41    7.78
  -5   1  12   46.34   12.26
   5  -1 -12   62.93   22.45
  -5   1  12   51.87   15.04
  -5   1  12   45.62   15.13
  -5  -1  12   47.34   14.75
  -5   1  11    4.34    4.03
   5  -1 -11   18.81    9.32
  -5   1  11   14.91    9.72
  -5  -1  11    5.94    6.84
  -5   1  11    7.12    5.72
  -5   1  10   16.87    8.30
  -5   1  10   12.97    7.69
  -5  -1  10   16.38    8.56
  -5   1  10   12.19    5.17
  -5   1   9  161.33   27.22
  -5   1   9  146.65   20.68
  -5   1   9  146.63   23.28
  -5   1   8   86.01   18.83
  -5   1   8   81.00   18.84
  -5   1   8   75.71   14.73
  -5   1   7    6.87    7.44
  -5   1   7    0.72    1.13
  -5   1   7    5.00    4.55
   5  -1  -6  676.08   52.65
  -5   1   6  685.28   50.83
  -5   1   6  684.96   46.63
  -5   1   5  102.42   18.46
  -5   1   5   84.04   17.16
   5  -1  -5   94.86   21.67
  -5   1   4  129.74   20.88
  -5   1   4   97.77   23.13
   5  -1  -4  124.15   23.40
  -5  -1   4  185.09   41.40
   5   1  -4  120.53   28.45
   5   1  -3    5.25    8.73
   5  -1  -3   10.81   13.86
  -5  -1   3    9.92    9.20
   5  -1  -2   79.07   18.62
   5   1  -2   77.63   22.82
  -5   1   1  177.52   28.30
   5  -1  -1  191.65   29.72
   5   1  -1  179.90   34.31
  -5  -1   0   21.65    8.34
   5   1   0   17.99   11.39
  -5   1   0   32.91   13.47
  -5   1  -1   11.49    7.62
   5   1   1   13.81   11.27
  -5  -1  -1   32.08    8.71
  -5   1  -2  268.51   32.76
  -5  -1  -2  265.29   23.99
   5   1   2  259.09   41.11
  -5   1  -3   16.66    7.24
  -5  -1  -3   22.21    6.94
   5  -1   3   21.05    9.78
   5   1   3   22.66   12.40
   5   1   4  303.92   28.35
   5  -1   4  305.02   37.80
  -5   1  -4  321.48   34.99
  -5  -1  -4  302.27   25.86
   5   1   4  319.56   47.49
   5   1   5   14.71    7.50
  -5  -1  -5    3.80    2.81
   5   1   5   11.71    9.34
   5  -1   5    6.28    5.59
   5   1   6   94.92   27.47
   5   1   6  101.86   17.89
  -5  -1  -6   95.56   15.15
   5  -1   6   95.07   21.82
   5  -1   7  134.35   26.80
   5   1   7  131.71   20.55
  -5  -1  -7  136.69   18.47
   5   1   8   55.76   13.66
  -5  -1  -8   45.77   11.14
   5  -1   8   46.20   15.02
   5   1   9    0.65    1.13
   5  -1   9   -0.11    2.36
   5  -1  10   11.84    9.86
   5   1  10   14.99    9.11
   5  -1  11   41.85   22.02
   5   1  11   60.81   16.46
   5  -1  12   15.95   15.77
   5   1  12   38.58   18.14
   5  -1  13   22.64   14.60
   5   1  13   35.98   14.77
   5  -1  14    2.76    6.17
   5   1  14    7.67   12.91
   5  -1  15   27.94   20.47
   5   1  15   42.41   16.57
   5  -1  16  189.66   45.09
   5   1  16  266.78   40.03
   5  -1  17   32.43   25.47
   5   1  17   35.56   16.65
   5  -1  18   -0.94    4.06
   5   1  18    6.10    8.67
   5  -1  19   48.03   34.22
   5   1  19   13.49    8.35
   5  -1  20    0.80    6.39
   5   1  20    9.58   15.77
   5  -1  21   18.53   25.32
   5   1  21   13.59   12.90
   5  -1  22   13.61   20.46
   5   1  22   23.97   25.08
   5  -1  23   42.61   27.93
   5   1  23   13.17   25.64
   5   1  24   43.80   28.67
   5  -1  24   13.31   25.65
   5  -1  25   -5.20    4.53
   5   1  25   -0.84   12.16
   5  -1  26    9.79    3.87
   5   1  26   16.47   18.94
   5   1  27   41.22   30.31
   5   1  28   63.10   45.90
  -5  -2  28   -3.16   14.85
  -5   2  27   46.76   41.71
  -5  -2  27   14.33   19.23
  -5  -2  27   21.73   23.34
  -5   2  26   30.68   25.06
  -5  -2  26   57.41   29.48
  -5  -2  26   47.32   29.90
  -5   2  25   15.80   32.16
  -5  -2  25    3.69    9.09
  -5  -2  25   17.55   21.48
  -5   2  24   16.44   23.10
  -5  -2  24   13.02    7.17
  -5  -2  24   29.61   21.89
  -5   2  23   31.32   26.56
  -5  -2  23    6.54   11.44
  -5   2  22   14.58   11.95
  -5  -2  22   16.82    9.58
  -5   2  21   31.12   28.05
  -5  -2  21   18.06   15.66
  -5   2  20   57.25   30.03
  -5  -2  20   58.39   23.42
  -5   2  19   17.27   17.78
  -5  -2  19   25.27   15.48
  -5   2  18   29.27   21.00
  -5  -2  18   51.73   18.62
  -5   2  17   11.36    7.72
  -5  -2  17   20.60   14.35
  -5   2  16   24.85   15.53
  -5  -2  16   30.35   13.55
  -5  -2  15    1.26    3.71
  -5   2  15    3.89    3.49
  -5  -2  14  154.54   28.29
  -5   2  14  135.35   30.23
  -5   2  14  146.05   25.64
  -5   2  14  144.73   18.76
  -5   2  13    3.55    2.69
  -5   2  13    3.05    5.70
  -5  -2  13   10.32    5.75
  -5   2  12   12.27   10.11
  -5   2  12    0.87    2.14
  -5  -2  12    8.47    8.75
  -5   2  11   93.67   23.18
  -5   2  11  147.84   27.55
  -5   2  10   44.68   14.22
  -5   2  10   56.55   17.81
  -5   2   9   10.20   10.53
  -5   2   9    1.78    4.49
  -5   2   8  136.54   26.06
  -5   2   8  123.82   22.62
  -5   2   7  250.83   32.54
  -5   2   7  241.18   31.64
   5  -2  -7  254.58   26.67
  -5   2   6   79.77   18.95
  -5  -2   6   49.09    6.76
  -5   2   6   52.51   15.44
   5  -2  -6   55.12   14.09
  -5  -2   5   20.65    5.97
  -5   2   5   18.09    9.95
  -5   2   5   11.41    8.47
   5  -2  -5   16.36    7.91
  -5   2   4   89.81   18.50
  -5  -2   4   91.47   12.29
  -5   2   4   96.46   23.03
   5  -2  -4   92.30   18.18
   5  -2  -3   54.26   16.33
  -5   2   3   53.63   15.39
  -5   2   3   49.69   13.11
  -5   2   2   13.42    7.11
  -5   2   2    7.56    7.52
   5   2  -2   25.00   16.89
  -5   2   1  101.00   17.57
   5   2  -1   89.73   26.63
   5   2   0   90.75   29.32
  -5   2   0   73.51   14.01
  -5  -2   0   64.78    9.37
  -5   2  -1   31.61    9.26
  -5  -2  -1   36.12    6.25
   5   2   1   36.10   13.83
  -5  -2  -2    2.43    2.41
   5   2   2   -8.00   10.18
  -5  -2  -3   55.61    7.37
   5  -2   3   56.67   17.56
   5   2   3   63.60   22.20
   5  -2   4    7.03    5.09
   5   2   4   14.15   11.75
   5   2   5   23.05   16.92
   5   2   5    8.65    3.76
   5  -2   5   15.90   10.01
   5  -2   6  113.33   26.41
   5   2   6  117.74   15.05
   5   2   6  104.61   30.81
   5   2   7  205.40   40.67
   5   2   7  166.12   18.83
   5  -2   7  132.00   29.25
   5   2   8   99.92   33.63
   5  -2   8  103.82   33.87
   5   2   8   84.01   14.90
   5   2   9   14.08    9.47
   5   2   9   19.56    6.56
   5  -2   9   13.99   12.89
   5   2  10   43.00   21.87
   5   2  10   37.94   11.32
   5  -2  10   42.79   18.93
   5   2  11   84.02   29.87
   5   2  11   81.78   18.30
   5  -2  11   66.99   24.20
   5  -2  12   12.89   20.18
   5   2  12   17.49   20.14
   5   2  12   14.96   13.48
   5   2  13    5.49   13.77
   5   2  13   -1.05    5.24
  -5   2 -14   36.31    9.37
   5   2  14   39.01   15.15
   5  -2  14   19.42   16.24
   5  -2  15    3.62    6.54
   5   2  15   -3.22    5.13
   5  -2  16   30.58   20.11
   5   2  16   61.65   21.78
   5  -2  17   28.12   24.40
   5   2  17   17.75   13.27
   5  -2  18   -2.03    5.55
   5   2  18   10.08    7.31
   5  -2  19   15.06   17.44
   5   2  19    9.83    4.92
   5  -2  20    7.92   20.50
   5   2  20   29.24   18.43
   5  -2  21   23.04   29.67
   5   2  21   41.20   18.65
   5  -2  22    8.80   21.77
   5   2  22    2.53   15.02
   5  -2  23    8.55   26.27
   5   2  23  -10.94   14.40
   5  -2  24    6.32   18.23
   5   2  24    2.80   12.49
   5  -2  25   30.88   31.16
   5   2  25    7.02   20.79
  -5  -3  27  176.97   55.29
  -5   3  26   -8.54   18.26
  -5  -3  26    3.99   14.39
  -5   3  25   17.05   20.78
  -5  -3  25   11.25   17.12
  -5  -3  25   60.04   21.87
  -5   3  24   17.14   20.99
  -5  -3  24   26.10   20.91
  -5  -3  24   36.17   41.22
  -5   3  23    2.05    8.67
  -5  -3  23   25.32   18.54
  -5  -3  23    5.72   12.93
  -5   3  22   -0.51   11.19
  -5  -3  22    6.19   10.73
  -5  -3  22    7.95   20.10
  -5   3  21   20.29   20.45
  -5  -3  21   16.33   13.11
  -5  -3  21   24.32   19.20
  -5   3  20    0.00    2.66
  -5  -3  20   10.39   12.90
  -5  -3  20   20.32   15.93
  -5   3  19   23.90   18.46
  -5  -3  19   13.42   11.61
  -5  -3  19    3.68   10.18
  -5   3  18    5.28   13.18
  -5  -3  18    1.98    8.64
  -5  -3  18   -2.75    7.64
  -5   3  17   25.30   21.09
  -5  -3  17    7.24    9.20
  -5  -3  17   22.04   15.45
  -5   3  16   -0.89    4.64
  -5  -3  16    5.22    8.22
  -5  -3  16    1.32    7.89
  -5   3  16   11.07   12.40
  -5   3  15  103.55   25.48
  -5   3  15   65.36   28.44
  -5  -3  15  100.13   23.77
  -5  -3  15  102.31   27.52
  -5   3  14    2.21    6.24
  -5  -3  14   86.38   28.46
  -5   3  14   -1.11    7.05
  -5  -3  14   80.47   34.46
  -5   3  13  202.79   40.00
  -5  -3  13  200.21   35.49
  -5   3  13  180.40   31.62
  -5   3  12   21.23   13.54
  -5   3  12   30.28   14.99
  -5  -3  12   25.08   11.30
  -5   3  11    8.55    8.34
  -5   3  11   13.70   11.15
  -5   3  10    9.84    6.02
  -5   3  10   49.95   17.88
  -5   3   9  372.80   48.43
  -5   3   9  231.97   34.57
  -5   3   8   -3.98    5.60
  -5   3   8    6.37   10.90
  -5   3   7    8.89   12.73
  -5   3   7   13.96    7.78
  -5  -3   7    1.67    2.88
   5  -3  -7    4.72    4.17
  -5  -3   7    4.23    4.04
  -5   3   6   -3.70    5.73
  -5   3   6    3.26    4.68
  -5  -3   6    2.24    3.12
  -5  -3   6    0.76    2.82
   5  -3  -6    1.89    3.40
  -5   3   5  149.37   24.81
  -5  -3   5  155.16   17.29
  -5  -3   5  150.64   18.56
   5  -3  -5  158.29   21.12
  -5   3   5  153.08   28.81
  -5   3   4   38.77   12.92
  -5  -3   4   26.35    6.37
  -5  -3   4   26.51    7.64
  -5   3   4   25.66   10.64
  -5   3   3   51.00   17.62
  -5   3   3   47.43   11.89
  -5  -3   3   55.87   11.68
  -5  -3   3   50.33    8.16
  -5   3   2   41.72   11.78
  -5   3   2   41.55   16.21
  -5  -3   2   38.90    6.00
  -5  -3   2   46.30   11.27
  -5  -3   1   10.94    7.87
  -5   3   1    2.34    2.23
  -5   3   1   13.79    7.42
  -5   3   0  244.00   26.99
  -5  -3   0  261.22   30.33
   5   3   0  231.41   45.84
  -5   3   0  235.23   41.69
  -5   3  -1   23.83    7.66
   5   3   1   26.47   14.40
  -5  -3  -1   14.37    4.87
  -5   3  -2    9.09    4.10
   5   3   2    9.22    7.42
  -5   3  -3    9.83    5.49
   5   3   3   37.10   22.75
  -5   3  -4   62.51   11.02
   5  -3   4   49.60   18.55
   5   3   4   66.10   28.19
  -5   3  -5   83.97   13.06
   5   3   5   66.19   25.35
   5  -3   5   92.19   25.89
  -5   3  -6   15.29    5.94
   5  -3   6   20.48   13.45
   5   3   6   12.66   13.44
   5   3   7    1.98    1.48
  -5   3  -7    8.82    4.65
   5  -3   7   -1.40    7.08
   5   3   8   16.66   23.82
  -5   3  -8    2.88    3.05
   5  -3   8   -0.19    3.80
   5   3   8    4.52    3.59
  -5   3  -9  169.68   15.06
   5  -3   9  155.60   34.50
   5   3   9  172.72   18.62
   5   3   9  167.41   42.66
   5   3  10   27.56    8.84
  -5   3 -10   27.05    5.99
   5  -3  10   29.36   16.94
   5   3  10   22.71   13.50
   5  -3  11  128.33   36.69
   5   3  11  156.17   41.22
  -5   3 -11  144.53   13.40
   5   3  11  170.16   23.24
   5   3  12  118.51   20.86
   5  -3  12   45.81   23.32
   5   3  12  133.92   45.86
   5   3  13  166.74   26.42
   5  -3  13  113.78   34.80
   5   3  13  166.99   46.29
   5  -3  14   20.48   17.98
   5   3  14   42.59   14.46
   5   3  14   74.79   44.38
   5  -3  15   10.72   12.89
   5   3  15   31.40   15.01
   5   3  15   24.77   20.53
   5  -3  16   11.98   21.34
   5   3  16   12.27   12.65
   5   3  17    5.56   12.02
   5  -3  17    2.45    8.56
   5   3  17   -5.48    5.09
   5  -3  18    5.91   19.57
   5   3  18    6.85    7.94
   5   3  19   44.34   34.19
   5  -3  19   18.13   24.45
   5   3  19   20.91   12.23
   5  -3  20   10.85   17.73
   5   3  20   26.36   19.07
   5   3  20   24.96   12.57
   5   3  21    0.67   12.84
   5  -3  21  -12.43    4.70
   5   3  22   81.93   49.08
   5  -3  22    3.75   18.70
   5   3  23   39.98   30.09
   5  -3  23    3.36    7.17
   5   3  24  307.65   95.07
   5  -3  24   20.53   21.30
   5   3  25   30.52   29.84
   5   3  26   55.35   49.61
  -5  -4  26   54.83   39.04
  -5  -4  25  -13.85    4.65
  -5   4  24    2.90    3.13
  -5  -4  24    1.14    7.34
  -5   4  23    8.31   10.73
  -5  -4  23   29.05   22.45
  -5   4  22   -3.58    6.37
  -5  -4  22   19.18   25.29
  -5   4  21   18.13   24.48
  -5  -4  21   26.93   21.04
  -5  -4  21   26.16   21.10
  -5  -4  20   18.93   13.12
  -5  -4  20   30.58   23.03
  -5   4  20   30.16   18.09
  -5   4  19   29.34   17.41
  -5  -4  19    4.95    9.75
  -5  -4  19   12.06   13.37
  -5   4  18   15.94   22.21
  -5  -4  18    1.04    1.17
  -5  -4  18   -7.51    8.37
  -5  -4  17    0.47    9.00
  -5  -4  17    1.76    8.11
  -5   4  16   26.32   17.44
  -5  -4  16    9.99    6.91
  -5   4  16   10.38   11.35
  -5   4  15   24.72   14.83
  -5   4  15   37.63   26.28
  -5  -4  15   21.38   23.60
  -5  -4  15   22.11   14.45
  -5   4  14   73.17   29.76
  -5   4  14   49.92   20.41
  -5  -4  14   11.84   19.10
  -5   4  13    3.64    6.69
  -5   4  13   -0.23    1.79
  -5  -4  13   -1.54    3.99
  -5   4  12   41.35   18.51
  -5   4  12   36.92   16.76
  -5  -4  12   11.66   13.68
  -5   4  11   45.83   19.02
  -5   4  11   30.70   16.65
  -5  -4  11   25.17   21.32
  -5   4  10  110.96   30.02
  -5   4  10  113.18   30.02
  -5  -4  10  138.09   24.19
  -5   4   9    1.94    3.97
  -5  -4   9   14.04   12.28
  -5   4   9    5.07    5.53
  -5   4   8  134.57   29.02
  -5  -4   8  143.09   22.13
  -5   4   8  136.30   30.92
  -5   4   7   15.29   11.24
  -5  -4   7    5.89    3.43
  -5  -4   7    6.11    6.29
  -5   4   7    7.22    7.33
  -5   4   6   19.55   11.93
  -5   4   6   17.03   10.88
  -5  -4   6   23.38    7.37
  -5  -4   6   14.85    7.31
   5  -4  -6   16.15    4.83
  -5  -4   5   36.01    8.67
  -5   4   5   42.49   16.43
  -5   4   5   45.26   16.05
  -5  -4   5   38.28   11.98
  -5  -4   4   68.06   14.93
  -5   4   4   77.04   17.97
  -5   4   4   77.81   23.99
  -5  -4   4   78.63   12.30
  -5   4   3  141.31   24.28
  -5  -4   3  164.91   24.51
  -5   4   3  134.64   31.46
  -5  -4   3  147.48   14.61
  -5   4   2    3.25    6.85
  -5   4   2   -2.86    7.09
  -5  -4   2   -0.15    2.03
  -5   4   1   29.77   19.73
  -5   4   1   28.11   14.34
  -5   4   0    9.43    6.31
  -5   4   0    7.21    9.17
  -5   4  -1    3.02    5.69
  -5   4  -1    2.74    5.42
  -5   4  -2   32.79    9.77
  -5   4  -2   43.13   22.59
  -5   4  -3   35.04    9.39
  -5   4  -3   23.64   16.87
   5   4   3   41.03   21.53
  -5   4  -4   97.56   14.96
  -5   4  -4  114.07   29.85
   5   4   4  101.89   32.84
  -5   4  -5   44.91    8.85
   5   4   5   53.89   23.74
   5  -4   5   56.09   21.94
  -5   4  -6    3.70    4.13
   5   4   6    7.28   11.78
   5  -4   6   23.41   23.09
   5  -4   7   60.58   22.43
  -5   4  -7   46.18    6.62
   5   4   7   46.97   23.60
   5  -4   8  211.46   44.18
   5   4   8  194.37   48.57
   5  -4   9   90.12   28.76
   5   4   9   77.12    9.00
   5   4   9  115.23   36.62
   5   4  10   56.02    9.19
   5  -4  10   55.25   23.16
   5   4  10   61.75   28.53
   5   4  11   16.81    4.66
   5  -4  11   44.14   39.03
   5   4  11   26.62   16.92
   5   4  12   -3.64    2.00
   5  -4  12    0.48    7.07
   5   4  13   19.97   16.76
   5  -4  13    9.81   12.29
   5  -4  14   19.89   21.81
   5   4  14   55.36   31.70
   5   4  15   21.21   16.91
   5  -4  15    6.31   15.09
   5   4  16   44.11   32.19
   5  -4  16   10.81   17.44
   5   4  17   18.74   22.86
   5  -4  17    5.15   14.12
   5   4  18   62.60   47.14
   5  -4  18   -4.85   17.54
   5  -4  19    6.52   22.18
   5   4  19    2.71    7.35
   5  -4  20   13.03   19.15
   5   4  20   -0.37   12.98
   5  -4  21    4.76    4.72
   5   4  21  114.22   60.89
   5  -4  22   32.20   27.39
   5   4  22   35.57   38.76
   5   4  23  -21.81   34.54
  -5  -5  25   35.91   34.72
  -5  -5  24    8.70   18.13
  -5  -5  23    2.18   11.82
  -5   5  22   25.61   27.65
  -5  -5  22   35.49   30.97
  -5   5  21   -4.73   14.25
  -5  -5  21   60.88   28.36
  -5   5  20   19.60   20.58
  -5  -5  20   44.11   27.06
  -5   5  19    8.12   17.95
  -5  -5  19   20.37   19.97
  -5   5  18    0.00    5.63
  -5  -5  18   18.06   19.76
  -5  -5  18    8.38   12.54
  -5   5  17    3.87   17.78
  -5  -5  17    0.10    7.96
  -5  -5  17   -0.06    4.98
  -5   5  17    0.93    3.64
  -5   5  16   13.01   17.20
  -5   5  16   -3.60    6.03
  -5  -5  16   11.54   11.82
  -5  -5  16    9.79   11.37
  -5   5  15   26.69   20.85
  -5   5  15   40.46   28.21
  -5  -5  15    9.47   13.70
  -5  -5  15   45.69   24.39
  -5   5  14   10.84   15.48
  -5   5  14   12.76   16.18
  -5  -5  14    8.78   15.28
  -5   5  13  -15.57   12.21
  -5   5  13    0.01    8.24
  -5  -5  13    1.01    7.15
  -5   5  12   50.49   20.51
  -5  -5  12   19.86   14.70
  -5   5  12   48.95   21.42
  -5   5  11   13.67   11.47
  -5  -5  11    2.11    9.78
  -5   5  11    7.89   11.80
  -5   5  10    9.18   11.83
  -5   5  10   12.70   14.24
  -5  -5   9   23.86   11.92
  -5   5   9   14.24    8.47
  -5   5   9   25.60   15.10
  -5  -5   8   99.10   21.54
  -5   5   8  144.89   33.25
  -5   5   8  128.87   34.23
  -5  -5   7   89.22   18.42
  -5   5   7  106.82   27.57
  -5   5   7   75.92   27.21
  -5  -5   6   72.65   14.61
  -5   5   6   78.43   24.25
  -5   5   6   52.46   19.60
  -5   5   5   53.33   23.55
  -5   5   5   41.99   15.02
  -5  -5   5   48.45   11.23
  -5   5   4   21.87   15.81
  -5   5   4   18.95   10.02
  -5  -5   4   24.26    8.95
  -5   5   3   48.65   14.83
  -5   5   3   56.32   27.23
  -5   5   2   -3.85    6.82
  -5   5   2   45.60   27.86
  -5   5   1   74.02   18.42
  -5   5   1   84.73   29.52
  -5   5   0   -5.73    5.85
  -5   5   0    3.84    5.05
  -5   5  -1    7.30    4.44
  -5   5  -1   14.23    8.38
  -5   5  -2    7.24    3.65
  -5   5  -2   35.48   21.97
  -5   5  -3   66.28   13.70
  -5   5  -3   58.87   28.91
  -5   5  -4   10.14    9.97
  -5   5  -5    1.83    8.93
   5  -5   6    0.52    2.07
  -5   5  -6   30.67   26.23
  -5   5  -7   13.73   15.20
   5  -5   7   13.56   16.31
   5   5   7   11.69   15.29
   5   5   8   69.49   30.87
  -5   5  -8   57.54   25.37
   5  -5   8   56.28   23.59
   5  -5   9   14.49   20.40
   5   5   9    0.99    4.12
   5   5  10   32.27   28.35
   5  -5  10    0.12    9.00
   5  -5  11   63.49   34.92
   5   5  11   81.57   41.14
   5  -5  12   48.64   28.51
   5   5  12   60.85   30.46
   5   5  13    0.54    9.22
   5  -5  13   10.73   22.98
   5  -5  14   13.36   16.92
   5   5  14  -17.31   24.85
   5   5  15   25.07   21.03
   5  -5  15    2.10   13.27
   5   5  16   27.82   16.77
   5  -5  16   77.48   39.50
   5   5  17    6.44   21.89
   5  -5  17   -1.70    5.33
   5   5  18   38.53   46.40
   5  -5  18   19.83   22.32
   5   5  19   18.48   14.84
   5  -5  19    1.02   10.81
   5   5  20    7.07   13.78
   5  -5  20   18.85   35.25
  -5  -6  23   44.43   30.33
  -5  -6  22   14.80   35.33
  -5  -6  21    5.94   12.47
  -5   6  20    0.00    4.55
  -5  -6  20   -3.04    3.61
  -5   6  19   19.60   22.71
  -5  -6  19    9.36   12.65
  -5   6  18   13.49   25.33
  -5  -6  18   40.33   39.75
  -5   6  17    8.07   18.15
  -5  -6  17   10.71   23.10
  -5   6  17   38.14   33.66
  -5   6  16    2.82   11.98
  -5  -6  16    4.21   10.17
  -5   6  15    7.02    7.34
  -5   6  15   12.33    9.26
  -5  -6  15   15.36   22.41
  -5   6  14    2.12    9.80
  -5   6  14   19.01   22.55
  -5  -6  14   10.23   12.21
  -5  -6  13    8.89   17.71
  -5   6  13    2.13    9.27
  -5   6  13   17.38   12.95
  -5  -6  12    3.07   11.14
  -5   6  12    2.72   12.03
  -5   6  12   12.31   15.74
  -5   6  11    3.73    8.01
  -5   6  11   11.32   17.40
  -5   6  10   42.41   24.90
  -5   6  10   18.09   15.20
  -5   6   9    4.91    6.92
  -5   6   9   17.48   17.41
  -5   6   8    8.85    7.42
  -5   6   8   13.32   17.95
  -5   6   7    9.73   14.75
  -5   6   7   -0.28    8.49
  -5   6   6   19.58   10.46
  -5   6   6   30.54   19.52
  -5   6   5   23.17    5.58
  -5   6   5   32.97   20.78
  -5   6   4  -13.50   10.37
  -5   6   4    1.02    8.34
  -5   6   3   11.44   13.84
  -5   6   2   84.05   30.91
  -5   6   1    2.66    7.70
  -5   6   0    1.98    7.38
  -5   6  -1   30.85   19.27
  -5   6  -2   99.26   34.55
  -5   6  -3   51.80   27.09
  -5   6  -4    0.86    7.44
  -5   6  -5   25.52   20.26
  -5   6  -6   37.84   31.88
  -5   6  -7   23.98   23.19
   5  -6   8   12.10   20.34
  -5   6  -8    0.87   11.80
  -5   6  -9   12.63   22.05
   5  -6   9   31.64   28.13
  -5   6 -10    0.13   11.83
   5  -6  10   -3.75    2.73
  -5   6 -11   -1.97    5.10
   5  -6  11   59.91   37.63
   5  -6  12   22.91   21.79
  -5   6 -12   68.82   37.24
  -5   6 -13    9.10   15.38
   5  -6  13  -30.22   24.24
   5   6  14   28.44   32.51
  -5   6 -14    5.62   14.04
  -5   6 -15    6.09   25.73
   5  -6  15   -1.69   11.31
   5  -6  16   11.54   25.48
  -5   6 -16    6.98   26.25
   5  -6  17  -12.38   22.79
  -5   7  16   11.40   20.37
  -5   7  15   53.90   37.73
  -5   7  14    5.33   21.27
  -5   7  13    1.88    9.11
  -5   7  12    5.23   12.51
  -5   7  11   34.39   23.81
  -5   7  10   -4.72   13.74
  -5   7   9    0.52   10.06
  -5   7   8   -2.04   10.99
  -5   7   7    7.26   13.25
  -5   7   6   15.54   12.15
  -5   7   5   11.99   18.11
  -5   7   4   19.32   21.25
  -5   7   3    1.02    4.42
  -5   7   2    9.57   16.45
  -5   7   1   -4.94   11.26
  -5   7   0   57.36   24.63
  -5   7  -1   29.03   28.95
  -5   7  -2   10.37   19.06
  -5   7  -3    5.58    7.56
  -5   7  -4   41.14   29.95
  -5   7  -5   11.54   20.76
  -5   7  -6   62.75   33.42
  -5   7  -7   12.86   39.57
  -5   7  -8   16.61   23.45
  -5   7  -9    9.31   17.07
  -5   7 -10    0.55    8.76
  -5   7 -11   21.56   22.81
   5  -7  11   28.05   33.77
  -5   7 -12   38.88   57.00
   5  -7  12   -0.37    1.70
  -5   7 -13   -1.22   11.41
   5  -7  13   12.08   28.62
  -5   7 -14    0.87   11.53
  -5   7 -15   10.53   28.93
  -5   8   6   17.07   12.36
  -5   8   5    2.97   22.92
  -5   8   4   29.60   38.42
  -5   8   3   22.63   19.07
  -5   8   2   24.83   28.00
  -5   8   1   13.29   20.44
  -5   8   0   13.05   27.09
  -5   8  -1   12.43   20.86
  -5   8  -2    7.49   12.90
  -5   8  -3    8.71   15.54
  -5   8  -4    4.21   23.19
  -5   8  -5   -2.22   10.19
  -5   8  -6   20.21   15.86
  -6   0  28    4.62   21.76
  -6   0  27    2.31    7.81
  -6   0  26    2.31   24.93
  -6   0  25    0.54   13.19
  -6   0  24    3.03    5.97
  -6   0  23   70.37   47.46
  -6   0  22   18.40   14.99
  -6   0  21    4.80   13.74
  -6   0  20   19.31   15.28
  -6   0  19   -0.34    8.72
  -6   0  18   92.66   24.55
  -6   0  17    7.32    9.85
  -6   0  16   21.74   15.67
  -6   0  15    6.20    7.00
  -6   0  14    8.45   10.57
  -6   0  13    3.10    5.95
  -6   0  12   98.04   24.69
  -6   0  11    2.20    3.39
  -6   0  11   -1.88    5.91
  -6   0  10  339.25   41.84
  -6   0  10  340.38   25.06
  -6   0   9    9.37    8.91
  -6   0   9    0.49    2.09
  -6   0   8   34.45    8.96
  -6   0   8   35.81   13.70
  -6   0   7   -1.64    2.13
  -6   0   7   -3.47    8.29
  -6   0   6  301.74   32.12
   6   0  -6  335.85   46.59
  -6   0   6  380.11   46.93
   6   0  -5    3.67    9.69
   6   0  -4  227.05   39.20
   6   0  -3   15.45   10.58
   6   0  -2  583.39   62.19
   6   0  -1    0.98    4.01
  -6   0   1    2.83    6.13
  -6   0   0   59.19   23.96
   6   0   0    4.52    7.99
  -6   0  -1    8.30    8.74
   6   0   1    9.09    6.86
  -6   0  -2  299.59   33.63
   6   0   2  286.86   43.59
   6   0   3   -7.29    7.13
  -6   0  -3   -3.72    3.16
  -6   0  -4  292.62   32.89
  -6   0  -5   11.85   11.45
   6   0   5    3.81    6.79
   6   0   6  206.76   32.37
  -6   0  -6  204.25   27.40
   6   0   7   -4.27    6.87
   6   0   8  265.87   36.69
   6   0   9    1.63    2.64
   6   0  10    6.66    6.72
   6   0  11    2.98    4.95
   6   0  12  324.94   44.77
   6   0  13   11.44   22.55
   6   0  14   14.14   12.50
   6   0  15   26.95   14.51
   6   0  16    0.23    4.68
   6   0  17   -5.59    9.16
   6   0  18   39.30   24.89
   6   0  19    5.23    8.05
   6   0  20   -3.03   11.83
   6   0  21   26.38   16.99
   6   0  22   56.38   31.37
   6   0  23   10.43   16.77
   6   0  24   -0.62   20.03
   6   0  25   44.85   40.75
   6   0  26   35.74   36.43
   6   0  27    2.03   18.85
  -6  -1  29   43.50   43.24
  -6   1  28   51.68   50.28
  -6  -1  28    7.29   15.20
  -6   1  27    9.98   21.45
  -6  -1  27   26.46   29.84
  -6   1  26   -6.64   10.18
  -6  -1  26   31.37   36.81
  -6   1  25    0.09   23.27
  -6  -1  25    5.23   22.31
  -6   1  24    3.69   27.22
  -6  -1  24   26.64   19.01
  -6   1  23   11.61   15.31
  -6  -1  23   17.82   16.52
  -6   1  22    0.00    3.10
  -6  -1  22    1.32    7.99
  -6   1  21   -1.10   10.73
  -6  -1  21    2.87    8.95
  -6   1  20   13.50   14.77
  -6  -1  20   54.30   27.50
  -6   1  19    0.00    5.18
  -6  -1  19   -0.33    9.67
  -6   1  18    1.68    5.89
  -6  -1  18   12.97   13.35
  -6   1  17    0.48    3.20
  -6  -1  17    8.59    7.89
  -6   1  16   79.79   24.32
  -6  -1  16   69.13   20.30
   6  -1 -16  180.80   39.13
  -6   1  16  200.01   40.90
  -6   1  15   25.68   14.52
  -6  -1  15   28.24   16.20
  -6   1  15   36.75   12.06
   6  -1 -15   10.85    7.28
  -6   1  14   47.91   23.61
  -6  -1  14   25.45   13.01
  -6   1  14   25.01   12.94
  -6   1  14   27.33   11.45
  -6   1  13   32.57    9.40
  -6   1  13   32.66   15.65
  -6   1  13   59.80   20.32
  -6  -1  13   31.99   12.96
  -6   1  12   24.01    8.18
  -6   1  12   30.80   14.29
  -6   1  12   17.51    9.68
  -6  -1  12   18.01   10.75
  -6   1  11   19.40   10.62
  -6   1  11    8.26    8.40
  -6  -1  11   27.96   15.42
  -6   1  11    4.34    7.05
  -6   1  10   79.50   24.39
  -6   1  10   45.53   16.20
  -6   1  10   38.45   11.04
  -6   1   9   16.18    6.23
  -6   1   9   27.24   12.02
  -6   1   9   30.82    9.93
  -6   1   8   99.69   21.67
  -6   1   8   99.66   22.00
  -6  -1   8   86.52    8.96
  -6   1   8   98.10   17.89
  -6  -1   7    1.80    1.91
  -6   1   7    0.99    4.18
  -6   1   7    0.89    4.23
   6  -1  -7   -0.14    2.27
  -6   1   6   20.29   11.06
  -6   1   6   24.79   13.66
   6  -1  -6   10.48    7.25
  -6   1   5  161.19   26.48
   6   1  -5  180.50   38.90
   6  -1  -5  163.70   30.78
  -6   1   5  194.06   28.22
   6   1  -4    1.18    4.22
   6  -1  -4    9.51   10.27
   6   1  -3    7.24   10.73
   6  -1  -3    3.42    3.85
   6   1  -2   37.91   15.90
   6  -1  -2   51.65   19.09
   6  -1  -1   45.93   17.56
  -6  -1   1   43.11   12.02
   6   1  -1   42.50   18.44
   6  -1   0   97.57   26.12
  -6  -1   0   87.72   16.39
   6   1   0   91.85   26.55
  -6  -1  -1  284.37   27.85
   6   1   1  280.07   47.31
  -6  -1  -2  144.28   19.70
   6   1   2  121.97   30.37
  -6  -1  -3  323.28   29.32
   6   1   3  295.05   49.29
  -6  -1  -4  120.54   18.86
   6   1   4  110.87   29.50
   6   1   5   37.52   17.97
  -6  -1  -5   62.01   14.35
   6  -1   5   55.15   17.85
   6   1   6    2.03   12.01
  -6  -1  -6    6.30    5.56
   6   1   6   17.58   13.57
   6  -1   6    1.94    4.84
   6   1   7  215.40   28.74
   6  -1   7  221.14   35.68
  -6  -1  -7  205.77   24.93
   6   1   7  214.23   44.97
   6   1   8   82.71   28.82
  -6  -1  -8   75.40   15.56
   6   1   8   91.42   20.82
   6  -1   8   77.69   23.64
   6   1   9  112.74   21.25
  -6  -1  -9   79.97   16.14
   6  -1   9   83.75   28.88
   6  -1  10  174.45   35.45
   6   1  10  196.88   30.38
   6   1  11    1.12    2.30
   6  -1  11   18.23   12.66
   6   1  12    5.92    6.04
   6  -1  12    7.22   22.98
   6   1  13   81.55   22.26
   6  -1  13   58.45   26.64
   6   1  14   84.72   23.59
   6  -1  14   64.14   27.14
   6  -1  15   12.89   12.81
   6   1  15   24.55   15.88
   6  -1  16    3.12    4.03
   6   1  16    1.44    6.36
   6  -1  17    2.35   10.62
   6   1  17   10.87   13.96
   6  -1  18    0.00   13.60
   6   1  18   15.43   14.09
   6  -1  19    9.34   15.59
   6   1  19    4.47   10.96
   6  -1  20   -1.21    5.74
   6   1  20   28.18   23.04
   6  -1  21    2.70   10.95
   6   1  21    1.34    5.80
   6  -1  22   10.85   25.68
   6   1  22    8.26   17.05
   6  -1  23   22.91   20.74
   6   1  23   60.78   35.79
   6  -1  24   26.81   65.26
   6   1  24   12.57   17.88
   6  -1  25    3.11   14.55
   6   1  25   13.98   14.43
   6  -1  26    7.52   19.59
   6   1  26   22.80   20.62
  -6  -2  28   -4.91   12.82
  -6  -2  27   18.84   23.07
  -6  -2  27   20.80   24.92
  -6   2  26   -1.01    3.64
  -6  -2  26    5.53   11.45
  -6   2  25   30.71   31.86
  -6  -2  25   37.24   32.46
  -6   2  24  -30.83   18.56
  -6  -2  24   17.78   17.39
  -6  -2  23  603.93   79.62
  -6   2  23   11.91   25.83
  -6   2  22    0.00    7.39
  -6  -2  22    1.10    3.43
  -6   2  21   20.64   20.92
  -6  -2  21   21.17   22.36
  -6   2  20   10.28   14.47
  -6  -2  20   15.61   13.00
  -6   2  19   -4.32    6.59
  -6  -2  19    2.41    7.20
  -6   2  18   16.47   15.31
  -6  -2  18   12.40   10.56
  -6   2  17   50.63   26.28
  -6  -2  17   54.39   18.49
  -6   2  16   21.81   12.60
  -6  -2  16    5.34    8.69
  -6   2  15   14.32    8.79
  -6   2  15   35.57   19.41
  -6  -2  15    7.70    9.32
  -6   2  15   14.47   11.01
  -6   2  14    8.53    7.93
  -6   2  14   18.28   13.87
  -6  -2  14   12.25    8.23
  -6  -2  13  116.38   28.86
  -6   2  13   73.52   19.84
  -6   2  13   67.63   22.56
  -6   2  12   -3.44    5.54
  -6   2  12   30.86   13.52
  -6   2  11   10.70   10.59
  -6   2  11   -0.50    3.73
  -6   2  10   48.69   19.68
  -6   2  10   30.27   13.09
  -6   2   9   12.48   13.33
  -6   2   9   23.06   14.84
  -6   2   8   17.50   10.38
  -6   2   8    5.67    4.53
  -6   2   7   12.90    9.71
  -6   2   7   11.81    7.37
  -6  -2   7   13.04    3.31
   6  -2  -7   16.87    8.08
  -6  -2   6   18.42    5.51
  -6   2   6   17.63    8.71
  -6   2   6   16.06    6.74
   6  -2  -6   20.96   11.70
  -6   2   5  150.64   25.48
  -6   2   5  159.01   28.48
   6  -2  -5  135.15   25.06
  -6   2   4  240.34   32.03
   6  -2  -4  253.58   33.90
  -6   2   4  215.11   35.99
   6  -2  -3    7.71    6.29
  -6   2   3   -4.06    7.94
  -6   2   3    5.02    4.65
   6   2  -3   21.74   19.37
   6  -2  -2   10.19    8.43
  -6   2   2   -2.78    4.39
   6   2  -2   11.56   15.07
  -6   2   1   11.59    7.11
   6   2  -1    2.40    4.00
  -6  -2   1    4.37    2.94
  -6   2   0   41.30   11.67
   6   2   0   65.65   27.28
  -6  -2   0   45.84    9.40
  -6  -2  -1   10.81    9.81
   6   2   1    1.50    4.21
  -6  -2  -2    9.93    4.85
   6   2   2    6.90    6.79
  -6  -2  -3    5.28    2.54
   6   2   3   -4.11    8.36
  -6  -2  -4    1.59    2.96
   6   2   4    1.08    5.90
  -6  -2  -5   60.39    9.30
   6  -2   5   49.51   20.57
   6   2   5   51.77   21.03
   6  -2   6   26.22   16.04
   6   2   6   34.42   18.23
   6   2   7   16.95    7.84
   6  -2   7   17.36   12.88
   6   2   7   15.13   12.28
   6  -2   8   34.55   21.49
   6   2   8   70.42   14.58
   6   2   8   69.73   25.92
   6  -2   9  277.71   51.75
   6   2   9  341.45   33.54
   6   2   9  380.97   64.83
   6   2  10   11.46    9.37
   6   2  10   26.69   13.22
   6   2  11   19.72   16.38
   6   2  11   15.97    8.75
   6  -2  11   10.48   13.25
   6   2  12    5.72    2.92
   6   2  12   -3.31    6.67
   6  -2  12    0.49    3.91
   6   2  13   61.81   24.81
   6   2  13   30.92   13.70
   6  -2  13   15.94   14.18
   6   2  14   21.50   11.18
   6   2  14   20.36   10.92
   6  -2  14   19.82   18.44
   6  -2  15   50.74   27.59
   6   2  15   66.65   34.70
   6   2  15   64.13   19.94
   6  -2  16   47.33   34.74
   6   2  16   76.67   33.41
   6   2  16  100.35   26.31
   6  -2  17   -2.35    5.46
   6   2  17   21.39   23.68
   6   2  17   37.87   21.27
   6  -2  18   26.86   23.84
   6   2  18   41.59   16.49
   6  -2  19   21.10   19.44
   6   2  19    5.24    9.20
   6  -2  20   20.02   24.53
   6   2  20   -2.37    4.20
   6  -2  21   15.00   25.88
   6   2  21   26.53   21.58
   6  -2  22   -1.08   16.61
   6   2  22    3.55    8.07
   6  -2  23    1.83    9.07
   6  -2  24    6.90    8.23
  -6  -3  26    8.27   21.36
  -6   3  25   -4.41   16.61
  -6  -3  25    2.54    8.58
  -6  -3  25   42.10   36.58
  -6  -3  24   24.99   13.85
  -6  -3  24   -4.77   12.43
  -6   3  23    1.69    8.92
  -6  -3  23   19.53   21.23
  -6  -3  23   16.99   20.40
  -6   3  22    5.31    9.84
  -6  -3  22    9.20   17.55
  -6  -3  22   33.16   25.37
  -6   3  21   13.45   11.88
  -6  -3  21   20.56   17.38
  -6  -3  21  -10.93   12.10
  -6   3  20   27.49   26.07
  -6  -3  20   28.49   15.54
  -6  -3  20   22.26   17.70
  -6   3  19    0.00    6.74
  -6  -3  19   15.02   14.58
  -6  -3  19    3.26    3.36
  -6   3  18   27.45   22.73
  -6  -3  18   27.75   13.46
  -6  -3  18   64.88   25.60
  -6   3  17   17.12   12.09
  -6  -3  17   10.97    9.51
  -6   3  17   15.24   13.91
  -6   3  16   22.60   17.11
  -6   3  16   -5.78   11.59
  -6  -3  16    6.19    7.22
  -6   3  15    8.46    9.31
  -6   3  15    1.52    3.41
  -6  -3  15    6.69    9.70
  -6   3  14   12.64   14.98
  -6   3  14   10.29   10.40
  -6  -3  14    8.40    8.84
  -6   3  13   -1.32    3.76
  -6   3  13    1.73    6.05
  -6   3  12   93.77   27.66
  -6   3  12   94.04   24.06
  -6   3  11   -0.52    3.65
  -6   3  11    8.10    9.40
  -6   3  10   47.87   17.02
  -6   3  10   35.77   16.26
  -6   3   9   72.70   21.70
  -6   3   9   80.49   21.86
  -6   3   8  123.38   27.35
  -6   3   8  125.43   26.03
  -6   3   7   15.39   11.57
  -6   3   7    9.58    8.72
   6  -3  -7   21.68   10.02
  -6  -3   7    9.51    4.00
  -6   3   6    7.55    9.11
  -6  -3   6    9.02    4.38
  -6   3   5   16.02    9.76
  -6  -3   5    9.32    4.03
  -6   3   5   16.64   10.45
   6  -3  -5   18.39    9.64
   6  -3  -4    5.85    6.66
  -6   3   4   -3.58    6.50
  -6  -3   4    7.20    6.05
  -6   3   4    8.59   10.53
  -6  -3   3   20.21    7.35
  -6   3   3   21.25   10.06
  -6   3   3   17.91   11.36
  -6  -3   2    9.54    7.79
  -6   3   2    8.58    7.78
  -6   3   2    7.18    5.97
  -6  -3   2    5.48    2.47
  -6  -3   1    9.22    8.59
  -6   3   1    3.67    1.77
  -6   3   1    5.61    7.20
   6   3  -1   10.45   16.03
  -6   3   0   13.82    7.53
   6   3   0   11.08   10.92
  -6  -3   0   15.20    8.00
  -6   3  -1    8.56    6.45
   6   3   1    2.37    3.14
  -6   3  -2   92.73   17.34
   6   3   2   68.09   25.44
  -6   3  -3   15.17    6.70
   6   3   3   25.68   21.38
  -6   3  -4   89.73   15.54
   6   3   4   84.13   30.70
  -6   3  -5    3.88    3.56
   6  -3   5   24.29   13.78
   6   3   5   12.55   14.87
  -6   3  -6   48.98   13.62
   6  -3   6   17.99   15.76
   6   3   6   51.94   26.35
  -6   3  -7   77.47   13.81
   6  -3   7   51.15   22.97
   6   3   7  111.77   35.21
  -6   3  -8   32.83   10.62
   6  -3   8   28.67   23.61
   6   3   8   46.80   22.06
   6   3   9   29.05    7.55
   6  -3   9    7.76    8.30
   6   3   9   39.02   25.29
   6  -3  10   54.76   29.30
   6   3  10   45.10   11.29
   6   3  10   54.54   31.68
   6  -3  11  239.37   53.31
   6   3  11  344.41   31.27
   6   3  11  346.11   65.47
   6   3  12   30.77   10.98
   6  -3  12   13.31   12.98
   6   3  12   13.76   14.48
   6   3  13   23.66   10.41
   6  -3  13   20.93   20.30
   6   3  13   32.66   21.77
   6   3  14   70.11   17.04
   6  -3  14   59.27   29.47
   6   3  14  100.40   38.57
   6   3  15   30.22   14.65
   6  -3  15   20.23   23.82
   6   3  15   38.77   21.63
   6  -3  16   14.02   17.48
   6   3  16   40.27   28.03
   6  -3  17    8.20   12.19
   6   3  17  -11.74   19.83
   6   3  18   35.55   30.27
   6  -3  18   -1.15    4.05
   6  -3  19    9.18   22.43
   6   3  19   14.05   28.26
   6   3  20    4.61   19.25
   6  -3  20   14.93   18.36
   6   3  21   48.50   40.54
   6  -3  21   13.97   17.93
   6   3  22   86.36   69.50
   6  -3  22    4.85   14.77
   6   3  23    5.85   28.80
   6  -3  23   12.71   22.83
   6   3  24    9.38   13.41
   6   3  25   27.85   34.70
  -6  -4  25   -8.44   16.69
  -6  -4  24  -10.03   13.30
  -6   4  23   34.56   34.77
  -6  -4  23   -8.40   15.40
  -6   4  22    6.63   20.62
  -6  -4  22   29.85   20.61
  -6  -4  22    7.53   14.49
  -6   4  21   18.81   25.94
  -6  -4  21   28.64   18.16
  -6  -4  21   14.14   24.47
  -6   4  20   56.32   24.91
  -6  -4  20   19.30   16.63
  -6  -4  20    3.58   15.99
  -6  -4  19    1.13    1.79
  -6  -4  19    3.39   17.90
  -6   4  18    0.00    6.02
  -6  -4  18   -0.07    7.63
  -6  -4  18   -6.60   11.21
  -6   4  17    7.00    6.72
  -6  -4  17    1.62   10.74
  -6   4  17    2.62    8.74
  -6   4  16    1.90    9.63
  -6   4  16   20.08   23.46
  -6  -4  16   26.84   22.43
  -6  -4  16    5.23    9.36
  -6   4  15   29.09   16.65
  -6   4  15   24.11   14.60
  -6  -4  15   18.66   19.09
  -6  -4  15   27.94   15.71
  -6   4  14    4.09    9.03
  -6  -4  14    0.22    9.34
  -6   4  13   49.05   22.67
  -6   4  13   55.13   25.14
  -6  -4  13   45.80   19.94
  -6   4  12   10.26   10.91
  -6   4  12    2.69    6.55
  -6  -4  12    7.03    7.03
  -6   4  11   42.00   17.91
  -6   4  11   36.31   19.87
  -6  -4  11   30.50   12.58
  -6   4  10    3.14    9.21
  -6  -4  10   11.40   10.12
  -6   4  10    0.62    6.29
  -6   4   9   10.10    9.94
  -6  -4   9    1.01    4.26
  -6   4   9    1.56    8.35
  -6   4   8    3.70    4.86
  -6  -4   8    7.81    6.18
  -6   4   8    1.06    0.97
  -6   4   7  130.48   32.96
  -6   4   7  125.74   28.60
  -6  -4   7  126.90   18.57
   6  -4  -7  118.46   17.19
  -6   4   6  127.47   31.19
  -6   4   6  135.82   26.99
  -6  -4   6  120.34   17.85
  -6  -4   6  129.16   18.52
   6  -4  -6  127.85   21.19
  -6  -4   5    9.22    7.69
  -6  -4   5    1.21    2.33
  -6   4   5    3.51    6.24
  -6   4   5    2.02    5.35
  -6  -4   4   27.35    8.72
  -6   4   4    1.69    2.62
  -6   4   4    6.51   13.34
  -6  -4   4   14.13   10.39
  -6   4   3  181.49   28.59
  -6   4   3  197.02   40.67
  -6  -4   3  168.99   12.93
  -6  -4   3  203.28   27.62
  -6   4   2   14.35   13.04
  -6   4   2    4.73    5.02
  -6   4   1   10.78    5.44
  -6   4   1   23.45   15.33
  -6   4   0  124.00   21.28
  -6   4   0  120.52   32.94
  -6   4  -1   12.64    8.22
  -6   4  -1   14.95   15.86
  -6   4  -2  139.20   20.39
  -6   4  -2  145.08   35.79
   6   4   2  138.97   40.02
  -6   4  -3   27.44    8.52
  -6   4  -3   29.60   18.88
   6   4   3   36.75   22.51
  -6   4  -4   13.08    6.95
   6   4   4   -2.19    9.53
  -6   4  -5   11.04    6.75
   6   4   5    9.74   18.14
  -6   4  -6  229.52   21.40
   6  -4   6  202.73   44.58
   6   4   6  242.57   55.04
  -6   4  -7   -1.51    1.94
   6  -4   7    1.54    5.50
   6   4   7    7.52   10.66
  -6   4  -8    9.46    4.29
   6  -4   8    7.72   15.78
   6   4   8   23.27   19.77
   6   4   9   38.13   23.21
   6  -4   9   17.11   18.47
   6  -4  10   20.39   26.91
   6   4  10   61.74   31.27
   6  -4  11   34.88   27.43
   6   4  11   20.94   17.74
   6  -4  12   -0.41    9.04
   6   4  12    5.21   17.45
   6  -4  13   17.97   25.43
   6   4  13   56.58   28.22
   6  -4  14   -3.89    7.62
   6   4  14    5.09   23.76
   6  -4  15   24.70   31.32
   6   4  15  -25.74   20.86
   6  -4  16   52.27   28.73
   6   4  16   28.03   33.67
   6   4  17   61.25   34.48
   6  -4  17  247.78   80.98
   6  -4  18   32.86   31.18
   6   4  18   56.04   46.21
   6   4  19   81.19   50.57
   6  -4  19   10.31   13.49
   6   4  20   22.08   29.71
   6  -4  20   12.48   14.68
   6  -4  21   35.01   28.66
   6   4  21   70.54   45.70
   6   4  22   11.42   33.17
   6   4  23   50.43   46.85
  -6  -5  24   22.40   31.26
  -6  -5  23   34.70   29.38
  -6  -5  22   22.22   20.08
  -6   5  21   64.89   64.58
  -6  -5  21   11.64   17.89
  -6   5  20    3.50   11.18
  -6  -5  20   24.48   23.22
  -6   5  19   -1.06   11.29
  -6  -5  19    7.40   18.57
  -6   5  18    0.03    7.01
  -6  -5  18    9.13    9.30
  -6  -5  18   17.74   13.09
  -6   5  18   27.24   20.29
  -6   5  17   29.37   18.27
  -6   5  17   -0.16   11.01
  -6  -5  17   38.92   32.40
  -6  -5  17    6.92    4.11
  -6   5  16   39.83   26.22
  -6   5  16   12.42   23.60
  -6  -5  16    2.92   10.85
  -6  -5  16   17.55   19.97
  -6   5  15    0.30    8.10
  -6   5  15    0.00    1.97
  -6  -5  15    6.01    9.72
  -6   5  14   11.98    2.82
  -6   5  14    0.92    6.71
  -6  -5  14    2.04    6.20
  -6   5  13    0.06    4.43
  -6   5  13    4.53   12.12
  -6  -5  13   -1.44    6.00
  -6   5  12   -2.88    9.57
  -6  -5  12    4.01    6.53
  -6   5  12   15.17   19.07
  -6   5  11  113.14   34.63
  -6  -5  11   64.86   19.70
  -6   5  11   73.49   30.23
  -6   5  10   15.10   12.36
  -6  -5  10   20.81   12.71
  -6   5  10   10.99   14.25
  -6  -5   9    3.23    0.68
  -6   5   9    1.55    1.29
  -6  -5   8   27.45   11.44
  -6   5   8   51.24   22.62
  -6   5   8   42.89   25.36
  -6  -5   7   21.17    8.28
  -6   5   7   37.15   17.76
  -6   5   7   19.70   15.25
  -6   5   6   21.77   13.66
  -6   5   6   31.53   15.84
  -6   5   5  103.61   30.03
  -6   5   5  132.80   29.26
  -6   5   4   18.96   12.60
  -6   5   4    2.12    6.42
  -6   5   3   80.17   20.80
  -6   5   3   95.11   34.20
  -6   5   2   35.05   13.52
  -6   5   2   34.42   17.59
  -6   5   1   27.85   10.53
  -6   5   1   29.10   20.40
  -6   5   0   31.64   16.61
  -6   5   0   42.66   15.01
  -6   5  -1  142.24   24.70
  -6   5  -1  160.71   39.76
  -6   5  -2    7.61    5.22
  -6   5  -2   44.49   32.54
  -6   5  -3   12.17    4.87
  -6   5  -3   62.42   24.05
  -6   5  -4   13.67    6.01
  -6   5  -4   17.75   19.38
  -6   5  -5    5.12   11.42
  -6   5  -6    6.88   11.59
   6   5   6    5.43   10.29
  -6   5  -7   18.52   15.52
   6   5   7   31.87   28.04
  -6   5  -8    4.88   20.24
   6  -5   8    2.85    9.70
   6   5   8   -2.67   16.24
   6  -5   9   21.16   17.86
   6   5   9   63.98   41.35
   6  -5  10    0.94    2.99
   6   5  10   -0.34   19.07
   6   5  11   63.27   29.54
   6  -5  11   43.50   29.76
   6   5  12   18.79   24.74
   6  -5  12    8.39   15.92
   6  -5  13  115.80   43.01
   6   5  13   60.83   34.69
   6  -5  14   24.60   20.79
   6   5  14   39.76   28.27
   6  -5  15   36.38   29.40
   6   5  15   39.22   25.57
   6  -5  16   30.07   26.61
   6   5  16   64.82   45.62
   6   5  17   15.01   19.55
   6  -5  17   -4.12    6.59
   6   5  18   53.08   44.75
   6  -5  18    9.78   10.84
   6   5  19   62.58   37.85
   6   5  20   48.81   48.05
  -6   6  19   67.87   46.77
  -6   6  18   88.79   53.82
  -6   6  18    3.73   14.39
  -6   6  17    9.64   21.90
  -6   6  17    2.11   13.74
  -6   6  16    6.68   24.59
  -6   6  16    9.48   15.10
  -6   6  15    5.56   14.42
  -6   6  15   11.16   24.29
  -6   6  14   39.60   25.77
  -6   6  14    4.74   19.46
  -6   6  13   19.60   18.49
  -6   6  13   -0.61    8.96
  -6   6  12    5.37    5.63
  -6   6  12   15.18   14.77
  -6   6  11    2.07    8.99
  -6   6  11    7.24   12.46
  -6   6  10    7.93    9.15
  -6   6  10   21.67   25.30
  -6   6   9    5.39   10.08
  -6   6   9   -7.10   12.10
  -6   6   8   45.35   21.57
  -6   6   8    2.66    7.95
  -6   6   7   29.77   18.14
  -6   6   7   27.79   26.37
  -6   6   6  160.94   41.23
  -6   6   6   57.56   29.92
  -6   6   5   58.30   21.28
  -6   6   5   54.91   28.60
  -6   6   4   34.68   19.88
  -6   6   4   44.62   18.29
  -6   6   3    7.50   11.15
  -6   6   3    8.75   11.24
  -6   6   2   54.66   19.79
  -6   6   2   53.07   26.64
  -6   6   1   19.67   12.08
  -6   6   1   14.65   14.88
  -6   6   0   31.61   14.83
  -6   6   0   24.86   13.86
  -6   6  -1    8.33   12.16
  -6   6  -2    8.55   11.69
  -6   6  -3    1.72   12.58
  -6   6  -4   13.36   13.41
  -6   6  -5    3.96    9.88
  -6   6  -6   67.35   35.30
  -6   6  -7   27.03   24.64
  -6   6  -8   26.02   21.03
  -6   6  -9    6.48   12.97
  -6   6 -10    9.21   20.52
   6  -6  10   -5.22    6.83
   6  -6  11   11.21   20.58
  -6   6 -11   -7.36   15.24
  -6   6 -12   24.52   24.71
   6  -6  12   28.64   36.04
   6   6  12   35.73   39.37
   6   6  13    2.68   18.21
   6  -6  13   26.97   26.56
  -6   6 -13   12.08   30.12
  -6   6 -14    7.76   23.72
   6   6  14   52.20   39.81
  -6   6 -15   31.44   33.82
   6   6  15   32.66   15.04
   6  -6  15    4.17   19.32
   6   6  16  177.93   61.83
  -6   7  14   12.39   21.34
  -6   7  13   84.04   43.73
  -6   7  12   41.21   36.51
  -6   7  11   10.38   18.55
  -6   7  10    3.04   13.02
  -6   7   9   24.77   30.41
  -6   7   8    1.65    4.65
  -6   7   7  123.12   48.01
  -6   7   6   18.58   21.84
  -6   7   5   53.92   36.94
  -6   7   4   12.54   12.70
  -6   7   3   15.62   16.85
  -6   7   2    6.44   16.64
  -6   7   1    4.92    7.43
  -6   7   0   44.63   29.53
  -6   7  -1   31.34   29.62
  -6   7  -2   20.73   19.35
  -6   7  -3   51.65   28.36
  -6   7  -4    3.02   12.73
  -6   7  -5    3.95    8.46
  -6   7  -6   14.03   28.74
  -6   7  -7   28.29   41.36
  -6   7  -8   14.19   24.41
  -6   7  -9   15.25   26.24
  -6   7 -10   23.30   29.90
  -6   7 -11   26.56   32.75
  -7   0  27    9.60   18.00
  -7   0  26    2.87   15.27
  -7   0  25   45.59   34.11
  -7   0  24    6.19   13.72
  -7   0  23    5.83   17.36
  -7   0  22    1.61    3.81
  -7   0  21   30.74   24.76
  -7   0  20    3.55    9.67
  -7   0  19   21.94   21.40
  -7   0  18   91.17   27.34
  -7   0  17  129.03   36.47
  -7   0  16   -4.13    5.40
  -7   0  15   93.57   27.62
  -7   0  14    6.32    6.11
  -7   0  13   23.26   14.41
  -7   0  12   14.46    6.54
  -7   0  12   24.58   19.46
  -7   0  11  107.77   26.87
  -7   0  11  112.13   14.84
  -7   0  10   -0.56    5.07
  -7   0  10   15.13   11.37
  -7   0   9   34.65    8.72
  -7   0   9   29.23   14.37
  -7   0   8    2.64    5.90
  -7   0   8   47.52   19.66
  -7   0   7  115.27   20.85
   7   0  -6    5.24    6.37
   7   0  -5   33.20   16.11
   7   0  -4    2.26    5.72
   7   0  -3  173.63   36.77
   7   0  -2   -4.46    8.72
   7   0  -1   56.33   20.79
  -7   0   0    4.13    8.04
   7   0   0    3.64    5.07
  -7   0  -1   31.39   17.18
   7   0   1   12.52    9.10
   7   0   2    4.55   10.24
   7   0   3  140.99   35.16
   7   0   4   15.74   25.41
   7   0   5   16.96   17.93
   7   0   6    2.89    3.49
   7   0   7   64.02   19.46
   7   0   8    2.93    5.42
   7   0   9   96.99   25.65
   7   0  10   -4.20    4.42
   7   0  11   -6.37    3.38
   7   0  12   36.39   18.92
   7   0  13    8.68   10.94
   7   0  14    0.34    7.00
   7   0  15   97.73   30.08
   7   0  16   -6.97    9.20
   7   0  17   80.47   33.66
   7   0  18  -10.67   13.96
   7   0  19  142.02   46.67
   7   0  20   -4.25   10.42
   7   0  21   45.44   35.01
   7   0  22   16.56   25.04
   7   0  23   14.48   25.48
   7   0  24  129.79   51.77
   7   0  25   18.10   14.92
   7   0  26   41.67   29.11
  -7  -1  28    5.92   19.19
  -7  -1  27    4.64   12.30
  -7   1  26   91.97   41.73
  -7  -1  26   19.59   25.65
  -7   1  25   17.51   26.16
  -7  -1  25    2.13    1.76
  -7   1  24   13.30   44.97
  -7  -1  24   21.59   19.15
  -7   1  23   11.85   17.61
  -7  -1  23   32.79   28.33
  -7   1  22   13.50   26.28
  -7  -1  22   17.68   23.28
  -7   1  21    0.00   11.62
  -7  -1  21    0.92    1.00
  -7   1  20   24.78   14.68
  -7  -1  20    5.39    8.46
  -7   1  19    7.61   12.16
  -7  -1  19   30.83   17.14
  -7   1  18   35.23   16.71
  -7  -1  18   16.06   13.54
  -7   1  17   18.30   15.80
  -7  -1  17   51.70   22.77
  -7   1  16   26.83   18.65
  -7  -1  16   22.37   12.26
  -7   1  15   48.53   24.99
  -7  -1  15   77.49   23.37
  -7   1  14   25.26   10.14
  -7   1  14   24.05   14.49
  -7  -1  14   27.27   12.66
  -7   1  13   89.08   17.93
  -7   1  13   86.09   26.72
  -7  -1  13   83.29   24.23
  -7   1  12   11.51    6.70
  -7   1  12    7.47    6.23
  -7   1  12   12.75   10.82
  -7  -1  12   17.29   10.83
  -7   1  11   11.59   11.39
  -7   1  11   -7.53    7.09
  -7   1  11    2.69    4.84
  -7  -1  11    1.99   11.25
  -7   1  10   48.96   15.04
  -7   1  10   43.96   18.14
  -7   1  10   56.70   13.69
  -7   1   9  105.40   27.10
  -7  -1   9  102.59   10.90
  -7   1   9  123.60   21.22
  -7   1   8   43.26   15.12
  -7   1   8   55.86   14.36
  -7  -1   8   42.76    9.56
  -7   1   7    1.74    2.71
  -7   1   7   16.72   18.33
   7  -1  -7   16.67   12.08
  -7   1   6   60.48   15.42
   7  -1  -6   51.14   22.62
  -7   1   6   57.52   19.65
  -7   1   5  112.02   23.65
   7   1  -5  165.03   43.21
   7  -1  -5  141.67   31.70
  -7   1   5  162.86   28.29
   7   1  -4  103.72   32.17
   7  -1  -4  102.97   26.07
   7   1  -3    6.00    1.79
   7  -1  -3    2.12    9.44
   7   1  -2   88.50   28.34
  -7  -1   2   95.36   19.81
   7  -1  -2   59.30   21.12
  -7  -1   1  122.78   22.90
   7   1  -1  133.03   34.98
   7  -1  -1  122.60   29.76
  -7  -1   0   12.58    8.80
   7   1   0   13.81   13.53
   7  -1   1   11.55   17.36
   7   1   1    9.84    4.94
  -7  -1  -1    6.66    5.74
  -7  -1  -2  105.31   18.96
   7  -1   2  129.51   33.37
   7   1   2  104.46   30.66
  -7  -1  -3   30.13   10.32
   7   1   3   34.05   20.30
  -7  -1  -4   11.81    6.94
   7   1   4   -9.01   10.52
  -7  -1  -5   12.87    7.32
   7   1   5   22.20   17.58
   7   1   6    6.00   14.59
  -7  -1  -6    1.72    4.23
   7  -1   6    3.15    8.86
   7   1   7   10.77   12.53
  -7  -1  -7   11.72    8.54
   7   1   7    5.06    4.10
   7  -1   7    8.63    8.43
   7   1   8   16.16   13.33
  -7  -1  -8    8.98    5.80
   7  -1   8   16.61   12.00
   7   1   8   18.60   11.77
   7   1   9    1.05   12.39
   7   1   9    7.87    7.22
   7  -1   9   10.46   17.47
   7   1  10   37.08   20.37
   7  -1  10   36.72   19.03
   7   1  11  155.42   46.53
   7  -1  11   87.29   30.27
   7   1  11  122.55   26.91
   7  -1  12   41.58   21.56
   7   1  12   81.18   21.13
   7  -1  13   10.97   16.86
   7   1  13   24.38   17.98
   7  -1  14   75.33   33.92
   7   1  14  150.90   30.91
   7   1  15   15.07   16.36
   7  -1  15  127.54   36.85
   7   1  16   30.62   18.81
   7  -1  16   17.78   18.65
   7   1  17   51.00   21.81
   7  -1  17   27.84   27.13
   7  -1  18   10.45   16.39
   7   1  18   44.82   22.35
   7  -1  19    8.48   21.26
   7   1  19    8.16    7.97
   7  -1  20   12.92   14.19
   7   1  20   24.81   21.49
   7  -1  21    7.59   16.58
   7   1  21  203.78   52.36
   7  -1  22   27.36   36.34
   7   1  22   18.44   12.64
   7  -1  23    1.97   15.94
   7   1  23    7.78   18.43
   7  -1  24   -8.75   21.79
   7  -1  25   26.09   27.70
  -7  -2  28    5.10   21.82
  -7  -2  27   22.39   24.55
  -7  -2  26   -1.39   11.08
  -7   2  25   31.10   25.20
  -7  -2  25   12.93   16.71
  -7   2  24   10.55   10.51
  -7  -2  24   34.05   28.59
  -7   2  23   16.75   19.16
  -7  -2  23   -2.48   11.72
  -7   2  22    0.05    6.35
  -7  -2  22    3.52   12.16
  -7   2  21   -0.13   11.13
  -7  -2  21   33.04   21.42
  -7   2  20   54.66   28.04
  -7  -2  20   40.62   26.93
  -7   2  19   -0.68    4.91
  -7  -2  19    3.79   10.36
  -7   2  18    9.25   13.08
  -7  -2  18   20.25   18.24
  -7   2  17   -0.62    5.20
  -7  -2  17    8.24    8.09
  -7   2  16   21.41   11.85
  -7  -2  16   12.74   12.52
  -7   2  16   13.90   11.45
  -7   2  15    3.78    5.12
  -7   2  15    0.05    5.89
  -7  -2  15   11.44   12.42
  -7   2  14   52.23   17.81
  -7   2  14   30.54   16.48
  -7  -2  14   31.53   12.92
  -7   2  13   79.62   19.76
  -7   2  13   60.97   23.68
  -7  -2  13   65.26   19.60
  -7   2  12    6.79   11.40
  -7   2  12   22.38   10.50
  -7   2  11   37.19   16.11
  -7   2  11   37.20   14.90
  -7   2  10    8.48    9.66
  -7   2  10    7.52    7.34
  -7   2   9    0.22    3.53
  -7   2   9   15.43   13.66
  -7   2   8   37.12   13.23
  -7   2   8   38.15   14.43
   7  -2  -8   27.90   12.26
  -7  -2   7    5.23    3.17
  -7   2   7    5.04    8.32
  -7   2   7    3.48    7.50
   7  -2  -7    1.67    5.91
  -7   2   6   63.28   19.59
  -7   2   6   82.48   21.00
   7  -2  -6   86.08   21.53
  -7   2   5   69.59   20.85
  -7   2   5   31.75   14.48
   7  -2  -5   25.39   12.46
  -7   2   4    0.07    3.09
  -7   2   4    4.29    6.79
   7  -2  -4    0.86    2.20
  -7   2   3   23.54   11.39
  -7   2   3   21.17   10.87
   7   2  -3   36.45   18.83
   7  -2  -3   18.01   10.98
   7  -2  -2   11.92   12.64
  -7   2   2   -0.04    2.56
  -7  -2   2    3.42    1.59
   7   2  -2   14.51   17.89
   7  -2  -1   19.18   19.61
  -7   2   1   -3.32    7.33
  -7  -2   1    7.58    5.41
   7   2  -1   15.44   16.56
  -7   2   0  140.17   24.12
   7   2   0  133.11   38.50
  -7  -2   0  151.63   19.10
  -7  -2  -1  187.34   20.55
   7   2   1  165.43   41.85
  -7  -2  -2   16.39    6.25
   7   2   2   17.27   15.48
  -7  -2  -3    4.73    3.68
   7   2   3   -3.24    7.51
  -7  -2  -4  167.77   17.39
   7   2   4  193.90   46.55
  -7  -2  -5   19.98    7.02
   7   2   5   40.89   24.24
  -7  -2  -6  102.39   13.97
   7  -2   6   93.33   30.52
   7   2   6   88.95   30.94
   7  -2   7   10.21   12.85
   7   2   7  -12.06   16.16
   7  -2   8    2.33    9.32
   7   2   8   -0.15    5.91
   7   2   9   78.49   18.75
   7  -2   9   37.30   24.96
   7   2   9   66.59   29.87
   7   2  10   49.63   16.39
   7  -2  10   17.42   15.95
   7   2  10   32.17   24.56
   7   2  11   54.00   28.96
   7  -2  11   22.71   20.59
   7   2  11   65.75   17.59
   7   2  12  143.20   47.42
   7  -2  12   78.70   37.16
   7   2  12  136.83   25.78
   7   2  13   -2.18   15.37
   7   2  13   10.73   12.28
   7  -2  13   -2.64    3.76
   7   2  14    7.28   14.60
   7  -2  14   47.27   33.43
   7   2  14   27.14   13.90
   7   2  15    8.31    4.00
   7   2  15   12.30    9.76
   7  -2  15    4.24    7.22
   7   2  16  117.22   27.62
   7   2  16  146.54   63.51
   7  -2  16   65.56   38.31
   7   2  17   22.37   24.99
   7   2  17   21.09   18.32
   7  -2  17    1.65   13.27
   7   2  18   54.69   36.47
   7   2  18   25.81   19.43
   7  -2  18    6.06   13.71
   7   2  19    9.88   15.63
   7  -2  19   -0.34   15.17
   7   2  20   15.04   25.73
   7  -2  20    3.24   13.68
   7   2  21   -0.92   10.16
   7  -2  21    6.94   17.12
   7  -2  22   -0.87    3.05
   7   2  22    8.19   12.67
   7  -2  23   20.70   20.76
   7   2  23   32.38   33.14
   7   2  24   -3.71    6.13
  -7  -3  26   19.14   22.26
  -7  -3  26    7.60   17.95
  -7  -3  25   82.41   37.42
  -7  -3  25   28.62   25.07
  -7   3  24   31.81   19.92
  -7  -3  24   46.10   45.24
  -7  -3  24    2.71    5.26
  -7   3  23   19.69   35.78
  -7  -3  23    6.90    9.91
  -7  -3  23   10.24   16.64
  -7   3  22    3.50   14.05
  -7  -3  22   -0.74    3.41
  -7  -3  22   15.55   24.24
  -7   3  21   17.49   24.33
  -7  -3  21   21.48   14.85
  -7  -3  21   48.03   30.40
  -7   3  20    4.97   15.14
  -7  -3  20    2.20   12.81
  -7   3  19    2.51    2.92
  -7  -3  19   -3.25    8.57
  -7   3  18   40.00   25.41
  -7  -3  18   73.97   27.39
  -7   3  17   22.66   19.57
  -7  -3  17   11.55   10.01
  -7   3  17    3.50    9.52
  -7   3  16    2.10    8.96
  -7   3  16   23.83   20.67
  -7  -3  16   -7.13   10.29
  -7   3  15    3.65    9.88
  -7   3  15    9.35   19.06
  -7  -3  15   -0.48    2.08
  -7   3  14   10.06   11.83
  -7   3  14   11.98   20.56
  -7  -3  14   13.90   11.25
  -7   3  13   38.55   20.69
  -7   3  13    7.82    7.96
  -7   3  12    8.27   10.43
  -7   3  12   12.74   10.62
  -7   3  11   65.97   22.63
  -7   3  11   63.73   21.64
  -7   3  10    5.63    7.63
  -7   3  10    0.60    2.20
  -7   3   9   37.26   15.06
  -7   3   9  116.31   35.29
  -7   3   8   72.71   21.76
  -7   3   8   84.74   23.95
   7  -3  -8  125.52   24.39
  -7   3   7   67.70   22.81
  -7   3   7   78.13   20.40
  -7  -3   7   65.34   10.12
   7  -3  -7   67.61   20.15
  -7   3   6   14.54   16.61
  -7  -3   6   13.80    5.55
  -7   3   6   15.45   12.74
   7  -3  -6    6.44    8.17
  -7  -3   5   44.53   10.41
  -7   3   5   37.48   15.58
   7  -3  -5   63.69   24.97
  -7   3   5   27.58   13.17
  -7  -3   4   38.85   11.27
  -7   3   4   37.12   20.15
  -7   3   4   30.66   13.83
   7  -3  -4   37.93   15.99
   7  -3  -3   46.83   19.73
  -7  -3   3   34.12    9.05
  -7   3   3   40.58   14.93
  -7   3   3   51.35   20.05
  -7   3   2    7.54    8.48
  -7   3   2    6.80    5.91
  -7  -3   2    8.93    6.32
  -7  -3   2   18.04    9.54
  -7   3   1  222.09   31.76
  -7   3   1  226.81   43.89
  -7   3   0   64.41   17.80
   7   3   0   55.64   24.95
  -7   3  -1   32.49   11.24
   7   3   1   43.64   23.16
  -7   3  -2  102.52   19.66
   7   3   2   96.43   33.92
  -7   3  -3    1.80    4.17
   7   3   3  -12.25   15.02
  -7   3  -4   74.67   16.68
   7   3   4   63.35   28.62
  -7   3  -5  158.51   22.98
   7   3   5  119.09   37.72
  -7   3  -6  170.65   23.45
   7   3   6  207.24   58.40
  -7   3  -7   56.09   14.55
   7  -3   7   42.03   21.32
   7   3   7   36.03   20.02
   7  -3   8   32.72   22.39
   7   3   8   68.47   30.33
   7  -3   9    6.66    9.39
   7   3   9   20.23   22.21
   7  -3  10   16.45   17.62
   7   3  10   27.69   24.31
   7  -3  11   88.64   33.99
   7   3  11  137.90   45.40
   7  -3  12    2.34   13.38
   7   3  12   12.52   13.69
   7  -3  13  181.64   50.00
   7   3  13   16.25   16.56
   7  -3  14   -2.61   13.18
   7   3  14    3.64   11.21
   7  -3  15   -6.20   12.95
   7   3  15   37.22   24.57
   7  -3  16   -0.40   12.01
   7   3  16    9.60   17.06
   7  -3  17    5.51   16.19
   7   3  17   42.52   35.96
   7  -3  18   27.34   31.41
   7   3  18   14.99   14.14
   7  -3  19   38.15   42.01
   7   3  19    9.62   16.99
   7  -3  20   10.37   22.70
   7   3  20   49.35   42.16
   7  -3  21   30.69   32.15
   7   3  21   15.97   36.40
   7   3  22   17.81   28.98
   7   3  23    2.95   15.69
  -7  -4  25    2.69   19.84
  -7  -4  24    9.37   25.25
  -7  -4  23   46.57   29.26
  -7  -4  23   28.76   22.49
  -7   4  22   20.23   25.50
  -7  -4  22    0.14    9.29
  -7  -4  22   17.60   14.30
  -7   4  21   -0.22    9.80
  -7  -4  21   14.35   22.44
  -7  -4  21    0.45    8.91
  -7   4  20   10.38   17.17
  -7  -4  20   15.19   18.22
  -7  -4  20   23.06   22.17
  -7   4  19   26.16   23.38
  -7  -4  19   10.41   13.49
  -7  -4  19   -1.61    6.07
  -7   4  18   17.29   19.18
  -7  -4  18   19.69   15.11
  -7  -4  18    5.05   10.00
  -7   4  18   12.31   17.34
  -7   4  17    3.77    8.99
  -7   4  17   26.17   18.76
  -7  -4  17   30.52   21.66
  -7  -4  17    9.57   17.29
  -7   4  16   -1.98    3.27
  -7   4  16   23.65   18.31
  -7  -4  16    7.89   10.52
  -7  -4  16   10.14    9.31
  -7   4  15   14.39   14.19
  -7   4  15    8.25   12.34
  -7  -4  15   13.91   12.67
  -7   4  14   22.20   15.42
  -7   4  14   28.22   19.59
  -7  -4  14   25.71   17.27
  -7   4  13   50.68   23.38
  -7   4  13   60.28   27.52
  -7  -4  13   37.16   21.44
  -7   4  12   93.20   27.36
  -7   4  12   95.03   31.05
  -7  -4  12   35.01   22.09
  -7   4  11   -5.53    7.38
  -7   4  11    1.58   10.51
  -7   4  10   36.52   16.67
  -7  -4  10   26.39   16.02
  -7   4  10   21.50   16.67
  -7   4   9   11.94   10.36
  -7   4   9   12.15    8.51
  -7  -4   9    7.48    7.89
  -7   4   8   20.92   19.29
  -7   4   8    8.98    8.13
  -7  -4   8   20.34    8.48
  -7   4   7   21.17   13.05
  -7   4   7   21.71   13.47
  -7  -4   7   18.41    6.99
   7  -4  -7   11.97    6.61
  -7   4   6  162.85   32.32
  -7   4   6  140.28   34.41
  -7  -4   6  160.49   18.13
   7  -4  -6  173.35   28.35
  -7   4   5  120.26   24.99
  -7   4   5  120.66   33.00
  -7  -4   5  139.77   15.73
   7  -4  -5  113.09   25.52
   7  -4  -4   36.26   15.15
  -7   4   4   75.65   24.86
  -7  -4   4   52.28    8.40
  -7   4   4   40.96   17.90
  -7   4   3  149.23   34.26
  -7   4   3  127.74   25.31
  -7   4   2   63.80   23.93
  -7   4   2   58.95   16.89
  -7   4   1    0.86    2.72
  -7   4   1    9.22   10.31
  -7   4   0   38.02   21.91
  -7   4   0   32.50   12.33
  -7   4  -1  128.09   22.20
  -7   4  -1  112.19   37.04
  -7   4  -2    0.60    4.80
  -7   4  -2    8.34    8.75
  -7   4  -3  132.01   22.50
  -7   4  -3  109.79   31.51
   7   4   3  129.73   39.63
  -7   4  -4    3.73    3.22
   7   4   4   13.88   16.80
  -7   4  -5   21.07   10.51
   7   4   5   29.24   28.11
  -7   4  -6   66.26   13.33
   7   4   6   84.88   38.23
   7   4   7   49.98   26.66
   7  -4   8   -5.74   11.57
   7   4   8   13.13   20.69
   7  -4   9    9.56   20.26
   7   4   9   48.60   33.17
   7  -4  10   29.74   27.49
   7   4  10   39.88   28.88
   7  -4  11    3.10   14.07
   7   4  11   32.67   27.51
   7  -4  12   15.36   23.77
   7   4  12   15.90   23.78
   7  -4  13    4.07   16.86
   7   4  13  -11.78   20.81
   7  -4  14    1.13    1.26
   7   4  14   35.15   31.51
   7  -4  15   66.81   45.97
   7   4  15    7.92    9.69
   7  -4  16    8.83   30.69
   7   4  16   -1.06   47.85
   7  -4  17    4.83   26.10
   7   4  17   32.99   34.32
   7  -4  18  176.25   50.35
   7   4  18   77.42   65.39
   7  -4  19   13.66   20.24
   7   4  19    3.88   23.16
   7   4  20   11.13   37.66
   7   4  21   67.21   54.92
   7   4  22   12.24   30.91
  -7  -5  22  239.00   67.90
  -7  -5  21   12.53   20.56
  -7   5  20   14.71   22.01
  -7  -5  20   33.60   23.64
  -7   5  19    4.08    4.89
  -7  -5  19    6.97   12.50
  -7  -5  19   60.07   29.94
  -7   5  19   29.44   30.37
  -7   5  18   24.92   22.05
  -7   5  18   33.20   31.50
  -7  -5  18   16.07   19.92
  -7  -5  18   74.16   30.35
  -7   5  17   23.45   16.44
  -7   5  17   11.35   25.02
  -7  -5  17   17.38   13.85
  -7   5  16   16.25   16.80
  -7   5  16   13.32    9.68
  -7  -5  16    7.93   12.28
  -7   5  15   21.97   25.52
  -7   5  15   16.74   19.24
  -7   5  14   30.39   22.78
  -7   5  14   61.53   37.41
  -7   5  13    0.64    9.75
  -7   5  13   11.77   13.67
  -7   5  12   17.08   16.95
  -7   5  12   21.32   17.62
  -7   5  11   29.57   20.12
  -7   5  11   42.85   26.74
  -7   5  10  140.02   38.18
  -7   5  10   87.11   33.22
  -7   5   9   -2.45    4.59
  -7   5   9    8.70   15.75
  -7   5   8   21.79   14.58
  -7   5   8    0.46    9.77
  -7   5   7   33.96   26.39
  -7   5   7   31.36   16.61
  -7   5   6    9.76   11.96
  -7   5   6    2.31    6.24
  -7   5   5   12.10   10.89
  -7   5   5    5.76    5.71
  -7   5   4   10.33   11.61
  -7   5   4   10.17   18.83
  -7   5   3   -3.04    2.71
  -7   5   3   11.64   16.11
  -7   5   2   39.10   14.74
  -7   5   2   44.65   19.46
  -7   5   1    4.11   10.74
  -7   5   1    5.78    4.03
  -7   5   0   -0.42    5.47
  -7   5   0    5.53    8.59
  -7   5  -1   13.86    7.42
  -7   5  -1   11.86    9.79
  -7   5  -2  123.84   22.47
  -7   5  -2   90.79   32.81
  -7   5  -3   47.49   26.95
  -7   5  -4    7.03   18.73
  -7   5  -5    9.37   13.30
  -7   5  -6   33.80   23.07
   7   5   6   33.06   21.39
  -7   5  -7    1.42    2.08
   7   5   7    0.09   14.67
   7   5   8   29.31   20.49
   7   5   9    2.95    6.96
   7  -5   9   23.58   23.74
   7  -5  10   45.57   32.16
   7   5  10   17.38   27.17
   7  -5  11   12.39   16.97
   7   5  11   -9.93   21.37
   7  -5  12   30.10   25.79
   7   5  12   33.25   30.81
   7  -5  13   41.19   29.88
   7   5  13  104.16   47.39
   7   5  14    9.06    6.20
   7  -5  14   18.88   24.52
   7  -5  15   45.09   32.30
   7   5  15   73.41   53.25
   7  -5  16   19.43   27.97
   7   5  16  -10.07   18.86
   7   5  17  -17.85   28.01
   7   5  18  139.28   58.19
   7   5  19   15.00   26.33
   7   5  20   43.50   26.96
  -7   6  19   40.88   34.38
  -7   6  18    0.18    6.29
  -7   6  18   60.35   46.75
  -7   6  17   68.38   37.39
  -7   6  17   13.96   21.06
  -7   6  16   13.75   18.07
  -7   6  16   12.71   11.07
  -7   6  15   -1.43    5.33
  -7   6  15   51.03   32.07
  -7   6  14  201.99   59.91
  -7   6  14    8.48   16.84
  -7   6  13   14.93   21.21
  -7   6  13    1.53   11.00
  -7   6  12   12.99   18.45
  -7   6  12   19.83   19.20
  -7   6  11   72.93   42.28
  -7   6  11   52.81   30.07
  -7   6  10   17.74   14.91
  -7   6  10    6.14   13.12
  -7   6   9   10.82   10.29
  -7   6   9   11.83   17.85
  -7   6   8   27.77   28.46
  -7   6   8   17.58   16.97
  -7   6   7   21.76   19.88
  -7   6   7   11.12   13.24
  -7   6   6    2.15    5.41
  -7   6   6    9.64   19.05
  -7   6   5   31.19   20.68
  -7   6   5   63.73   22.47
  -7   6   4   29.53   23.57
  -7   6   4   14.92   14.07
  -7   6   3   67.60   24.21
  -7   6   3  130.30   36.99
  -7   6   2   71.83   25.23
  -7   6   2   16.25   20.62
  -7   6   1   -6.10   10.62
  -7   6   0   15.54   20.42
  -7   6  -1   -1.58    7.35
  -7   6  -2   10.87   12.60
  -7   6  -3   30.09   30.98
  -7   6  -4   -4.51    5.67
  -7   6  -5    4.10   10.99
  -7   6  -6   30.79   25.15
  -7   6  -7    3.57   20.17
  -7   6  -8   12.55   18.56
  -7   6  -9    8.93   15.68
  -7   6 -10    1.00   13.02
  -7   6 -11    7.79   27.29
  -7   6 -12   -2.13   10.42
   7  -6  12   12.63   26.55
   7   6  12   -3.97   27.84
  -7   6 -13    4.07   33.81
   7  -6  13    6.94   22.02
   7   6  13   19.05    9.12
   7   6  14   -6.01   23.96
   7   6  15   92.48   59.30
   7   6  16    8.75   28.12
   7   6  17   63.68   42.31
  -7   7  15    8.54   12.27
  -7   7  14   17.48   26.81
  -7   7  13   -2.43   18.74
  -7   7  12    0.20   10.11
  -7   7  12    7.49   16.95
  -7   7  11   68.58   45.59
  -7   7  11   19.67   26.44
  -7   7  10    1.64   14.21
  -7   7  10   14.64   23.81
  -7   7   9   27.52   18.15
  -7   7   9   22.75   23.07
  -7   7   8   41.44   38.23
  -7   7   8   11.96   18.57
  -7   7   7   11.72   19.54
  -7   7   6   -2.73    6.14
  -7   7   5    9.63   14.33
  -7   7   4    0.17   12.61
  -7   7   3    6.98   12.42
  -7   7   2   26.69   24.05
  -7   7   1   47.76   34.06
  -7   7   0   13.18   14.13
  -7   7  -1   73.55   55.25
  -7   7  -2   14.17   24.17
  -7   7  -3    5.47    9.09
  -7   7  -4   50.83   30.62
  -7   7  -5   11.85   24.81
  -7   7  -6    7.50   22.03
  -7   7  -7    4.11   24.76
  -8   0  25   13.22   23.09
  -8   0  24    8.12   34.02
  -8   0  23  272.85   70.01
  -8   0  22    0.99   12.23
  -8   0  21   -3.94   10.74
  -8   0  20   -4.64    6.46
  -8   0  19   31.38   16.51
  -8   0  18   10.58   19.51
  -8   0  17   14.35   10.71
  -8   0  16    5.38    6.67
  -8   0  15    0.00    5.97
  -8   0  14   64.72   27.85
  -8   0  13    1.28    0.85
  -8   0  13    3.43   10.20
  -8   0  12  121.37   30.86
  -8   0  12  130.29   16.46
  -8   0  11    1.11    4.53
  -8   0  11   17.74   18.02
  -8   0  10   33.27   18.36
  -8   0  10   40.59    9.93
  -8   0   9   35.75   12.86
  -8   0   9    0.00    5.24
  -8   0   8  612.62   46.62
  -8   0   7    8.96    9.71
   8   0  -7   -0.29    4.58
   8   0  -6   55.09   22.65
   8   0  -5    1.78    3.50
   8   0  -4   72.51   29.48
   8   0  -3    3.84    7.46
   8   0  -2  133.53   35.15
   8   0  -1   12.75   17.65
   8   0   0   23.71   17.39
   8   0   1   -1.99    9.76
   8   0   2   90.06   29.84
   8   0   3    0.37    4.22
   8   0   4   64.94   25.44
   8   0   5    1.36    6.66
   8   0   6   -2.16    2.24
   8   0   7    3.10    4.49
   8   0   8   23.12   24.81
   8   0   8   18.46   12.77
   8   0   9   -4.49    5.41
   8   0  10   60.83   21.96
   8   0  11    1.03    8.28
   8   0  12    9.18   11.60
   8   0  13   -2.47   10.16
   8   0  14   11.56   13.21
   8   0  15    8.61    8.39
   8   0  16   17.82   13.86
   8   0  17   -0.24   11.15
   8   0  18   -0.25   12.33
   8   0  19   34.18   24.26
   8   0  20   63.49   37.26
   8   0  21    1.06    8.78
   8   0  22   16.34   23.69
   8   0  23   29.06   28.21
  -8  -1  26   36.55   25.11
  -8   1  25    2.85   10.78
  -8  -1  25   36.54   28.44
  -8   1  24   20.82   22.75
  -8  -1  24   18.52   28.09
  -8   1  23   10.99   19.27
  -8  -1  23   38.46   38.96
  -8   1  22   -0.39    8.34
  -8  -1  22   23.93   26.00
  -8   1  21   14.17   11.69
  -8  -1  21    5.71   15.38
  -8   1  20    2.39   17.19
  -8  -1  20    0.00    8.64
  -8   1  19   11.08   17.77
  -8  -1  19    8.01   14.42
  -8   1  18   18.02   18.82
  -8  -1  18   21.70   17.18
  -8   1  17    4.09    4.66
  -8  -1  17   14.65   22.80
  -8   1  16  104.50   34.06
  -8  -1  16   89.39   30.98
  -8   1  15   55.42   14.99
  -8   1  15   37.70   20.86
  -8  -1  15   38.58   29.02
  -8   1  14   65.44   15.99
  -8   1  14   56.51   23.19
  -8  -1  14   51.02   22.27
  -8   1  13   47.14   13.66
  -8   1  13   62.70   25.08
  -8  -1  13   26.33   14.25
  -8   1  12   97.77   30.57
  -8   1  12  106.81   19.90
  -8  -1  12  104.02   26.98
  -8  -1  11  125.67   33.89
  -8   1  11  111.66   29.72
  -8   1  11  105.79   21.21
  -8   1  10  132.29   24.66
  -8   1  10   86.38   22.85
  -8  -1  10   79.05    9.97
  -8   1   9   73.88   19.41
  -8  -1   9   65.33   10.54
  -8   1   9   68.59   23.70
  -8   1   8    0.65    3.02
  -8  -1   8   -3.56    4.29
  -8   1   7  153.35   27.48
  -8   1   7  149.76   30.09
   8  -1  -7  142.30   38.73
  -8   1   6   25.12   15.10
  -8   1   6   35.92   16.99
   8  -1  -6   22.72   12.64
  -8   1   5   41.07   15.14
  -8   1   5   38.74   14.71
   8   1  -5   54.49   27.31
   8  -1  -5   15.39   17.06
   8   1  -4   73.25   32.70
   8  -1  -4   53.24   26.01
   8   1  -3  510.79   72.54
   8  -1  -3  428.82   64.76
  -8  -1   2    6.69    5.12
   8   1  -2    9.66    6.39
   8  -1  -2   26.87   16.90
  -8  -1   1   37.13   13.64
   8   1  -1   30.25   15.59
   8  -1  -1   38.81   20.80
   8   1   0   -4.12    8.63
  -8  -1   0    4.99    7.35
   8  -1   0    2.62    6.59
   8  -1   1   20.05   15.15
   8   1   1   26.68   24.52
  -8  -1  -1   22.48   13.03
   8  -1   2   68.30   23.12
  -8  -1  -2   79.72   19.76
   8   1   2   71.48   28.27
   8  -1   3   66.22   27.47
  -8  -1  -3   57.89   14.31
   8   1   3   62.42   31.20
  -8  -1  -4   22.38   10.77
   8   1   4    2.45    9.07
  -8  -1  -5   28.47   14.37
   8   1   5   15.51   16.46
   8   1   6   13.68    9.86
   8   1   7   48.10   30.53
   8   1   8   29.21   27.76
   8  -1   8   17.84   19.70
   8   1   9   42.83   23.00
   8   1   9   31.85   16.29
   8  -1   9   23.95   17.88
   8   1  10   42.16   17.64
   8  -1  10   25.61   20.02
   8   1  11   34.82   22.92
   8   1  11   33.37   15.03
   8  -1  11   20.24   22.55
   8   1  12   25.09   25.78
   8   1  12   14.75   12.59
   8  -1  12   19.54   19.36
   8   1  13   46.38   31.76
   8  -1  13   19.26   22.16
   8   1  13   20.69   15.78
   8   1  14   20.59   26.77
   8  -1  14    4.26   15.70
   8   1  14   -8.38    8.86
   8   1  15   71.63   44.93
   8  -1  15   34.95   26.57
   8   1  15   69.90   27.28
   8  -1  16    5.31   14.74
   8   1  16   12.25   11.62
   8  -1  17   37.40   30.45
   8   1  17   17.88   15.08
   8  -1  18   -6.13   12.21
   8   1  18    2.06    4.99
   8  -1  19    1.64   20.32
   8   1  19   39.65   27.93
   8  -1  20    6.76   14.93
   8  -1  21   34.76   40.53
   8  -1  22   37.13   43.58
   8  -1  23   19.26   33.12
   8  -1  24  -11.34   16.49
  -8  -2  26   11.05   29.85
  -8  -2  25   -8.34   10.30
  -8   2  24   10.80   11.37
  -8  -2  24   21.14   27.94
  -8   2  23   67.98   41.57
  -8  -2  23   22.24   23.18
  -8   2  22    3.25   24.85
  -8  -2  22   64.07   38.60
  -8   2  21   16.79   18.48
  -8  -2  21    7.82   27.89
  -8   2  20   55.31   33.97
  -8  -2  20   17.98   23.09
  -8   2  19   26.39   27.24
  -8  -2  19    2.27    5.34
  -8   2  18   26.66   15.44
  -8  -2  18   42.13   24.20
  -8   2  17   60.51   29.49
  -8  -2  17   66.17   25.95
  -8   2  17   81.19   21.07
  -8   2  16   37.39   16.28
  -8   2  16   25.17   18.66
  -8  -2  16   22.59   16.63
  -8   2  15   12.54   11.02
  -8   2  15    3.37    5.17
  -8  -2  15    4.56   11.40
  -8   2  14   33.99   16.83
  -8   2  14   17.34   15.01
  -8  -2  14   10.27   12.69
  -8   2  13    8.29   10.74
  -8   2  13   29.76   12.52
  -8  -2  13   25.42   14.51
  -8   2  12   18.58   11.43
  -8   2  12   28.92   13.29
  -8   2  11   47.02   20.99
  -8   2  11  190.08   54.14
  -8   2  10   19.48   12.39
  -8   2  10   17.36   15.61
  -8   2   9  134.48   27.47
  -8   2   9  124.85   29.20
  -8   2   8   45.72   18.06
  -8   2   8   31.16   16.10
  -8  -2   8   17.39    6.15
   8  -2  -8   34.36   12.15
  -8   2   7  110.76   26.62
   8  -2  -7  109.43   28.92
  -8   2   7   99.27   26.18
  -8   2   6   21.80   29.58
  -8   2   6   14.23   10.83
   8  -2  -6    9.75   11.66
  -8   2   5  147.51   29.25
  -8   2   5  151.29   32.56
   8  -2  -5  175.12   39.09
  -8   2   4    4.22    6.69
   8   2  -4  -10.15   15.08
  -8   2   4    8.68   11.05
   8  -2  -4   -2.70   10.19
  -8   2   3  102.33   27.00
  -8   2   3   80.35   20.76
  -8  -2   3  100.51   20.25
   8   2  -3   89.51   34.84
   8  -2  -3   86.42   30.74
  -8   2   2  218.65   34.39
  -8  -2   2  216.26   28.22
   8  -2  -2  192.37   44.66
   8   2  -2  183.81   47.47
  -8   2   1   10.37    7.28
   8   2  -1    3.25    3.46
  -8  -2   1   10.30    7.13
   8  -2   0    0.28    8.86
   8   2   0   11.71   17.99
  -8  -2   0    2.09    4.68
   8  -2   1   38.84   24.60
  -8  -2  -1   86.36   16.06
   8   2   1   63.49   28.03
  -8  -2  -2  392.28   31.36
   8   2   2  369.40   65.82
  -8  -2  -3    0.70    0.71
   8   2   3   10.84   19.02
   8   2   4   59.32   32.72
   8   2   5   94.45   40.19
   8   2   6  180.59   45.69
   8   2   7   11.47   16.61
   8  -2   8    8.36   16.83
   8   2   8   -0.64    3.33
   8  -2   9    6.40   10.52
   8   2   9   26.16   21.63
   8  -2  10   10.94   16.58
   8   2  10   32.44   27.22
   8  -2  11   14.58   22.20
   8   2  11   14.63   10.45
   8   2  11   24.47   25.46
   8   2  12   20.61   14.87
   8  -2  12   15.34   17.85
   8   2  12   12.60   20.29
   8  -2  13   33.67   22.38
   8   2  13   47.86   29.00
   8   2  14   19.69   26.23
   8  -2  14   16.89   19.37
   8   2  15    6.68   17.92
   8  -2  15    8.50   18.73
   8   2  16    6.13    6.77
   8  -2  16    4.84   14.62
   8   2  17   28.85   32.17
   8  -2  17    7.81   14.44
   8   2  18   29.33   39.14
   8  -2  18    8.78   27.13
   8   2  19  -10.08   12.64
   8  -2  19   11.84   15.02
   8   2  20  129.55   69.43
   8  -2  20  342.62  113.78
   8   2  21   66.37   55.34
   8  -2  21   -8.04   18.32
   8  -2  22    9.94   17.29
  -8  -3  26   61.95   30.03
  -8  -3  25   17.45   21.88
  -8  -3  25   58.48   40.60
  -8  -3  24    7.34   18.17
  -8  -3  24    8.05   22.56
  -8  -3  23   18.66   20.71
  -8  -3  23    4.02    1.67
  -8   3  22  118.83   41.57
  -8  -3  22   66.48   45.36
  -8   3  21   35.50   25.43
  -8  -3  21   25.00   18.67
  -8   3  20    9.09   21.27
  -8  -3  20    1.21   13.38
  -8   3  19    4.44   23.15
  -8  -3  19    4.73   16.48
  -8   3  18   46.29   21.21
  -8  -3  18    2.35   19.67
  -8   3  18   77.06   39.10
  -8   3  17    5.09    5.28
  -8   3  17   11.62   13.58
  -8  -3  17    1.88    6.25
  -8   3  16   27.34   17.52
  -8   3  16   24.31   23.03
  -8  -3  16   32.94   19.39
  -8   3  15   15.45   11.93
  -8   3  15   26.25   19.83
  -8  -3  15   24.16   20.37
  -8   3  14   49.19   19.90
  -8   3  14    4.58    8.03
  -8   3  13    7.43   14.33
  -8   3  13    4.70    8.36
  -8   3  12   16.43   10.77
  -8   3  12    8.02   11.79
  -8   3  11    3.87    7.79
  -8   3  11    7.39    4.19
  -8   3  10  137.27   30.68
  -8   3  10   17.59   12.94
  -8   3   9   24.21   15.16
  -8   3   9   17.62    8.91
  -8   3   8   18.68   12.05
  -8   3   8   12.80   10.77
   8  -3  -8    9.35   11.03
  -8   3   7    4.00    8.21
   8  -3  -7   10.22    8.19
  -8   3   6    8.73    9.25
  -8   3   6    2.10   10.91
   8  -3  -6   -0.48    6.45
  -8   3   5   10.06    7.60
  -8   3   5    8.56    2.76
   8  -3  -5   18.36   12.66
  -8   3   4  170.79   31.33
  -8   3   4  186.64   37.75
   8  -3  -4  194.35   37.41
   8  -3  -3   47.45   21.27
  -8   3   3   63.52   18.46
   8  -3  -2   31.12   20.99
  -8   3   2   52.29   21.30
  -8   3   2   32.86   15.93
   8  -3  -1    8.40   12.84
  -8   3   1    6.70    7.02
  -8   3   1   15.62    9.80
   8   3  -1   28.17   23.63
  -8   3   0  191.48   31.17
   8   3   0  186.36   51.97
  -8   3  -1   95.68   21.78
   8   3   1   92.94   36.57
  -8   3  -2    0.73    6.11
   8   3   2   47.14   42.29
  -8   3  -3    1.29    2.20
   8   3   3   14.15   27.40
  -8   3  -4   24.97   12.60
   8   3   4    5.13    3.56
  -8   3  -5    9.66    4.30
   8   3   5   50.41   38.60
  -8   3  -6    9.67   11.05
   8   3   6    1.54   18.03
  -8   3  -7   22.73   10.44
   8   3   7   28.49   21.72
   8   3   8   23.38   14.48
   8  -3   9    5.40    8.02
   8   3   9   34.70   40.96
   8  -3  10   23.18   18.58
   8   3  10   34.16   35.06
   8  -3  11    7.38   24.17
   8   3  11   43.79   41.54
   8  -3  12   15.77   36.09
   8   3  12    6.63   14.93
   8  -3  13    8.11   22.78
   8   3  13   26.03   30.31
   8  -3  14   -1.46   16.29
   8   3  14   23.51   34.39
   8  -3  15   -2.21   11.71
   8   3  15   -8.59   12.46
   8  -3  16   34.56   28.57
   8   3  16   65.01   36.02
   8  -3  17   20.33   36.45
   8   3  17   27.01   31.79
   8  -3  18   29.25   18.59
   8   3  18   75.11   47.00
   8  -3  19  107.24   46.53
   8   3  19   26.43   35.96
   8  -3  20   22.52   39.59
   8   3  20  -32.04   33.25
   8   3  21    3.58   15.60
  -8  -4  24   26.74   24.60
  -8  -4  23   37.99   19.40
  -8  -4  23   31.94   22.84
  -8  -4  22    9.52   23.70
  -8  -4  22   26.39   22.07
  -8   4  21   37.64   32.35
  -8  -4  21   35.24   23.28
  -8  -4  21   17.24   26.09
  -8   4  20   18.99   14.89
  -8  -4  20   45.20   45.49
  -8  -4  20   -7.37   14.50
  -8   4  19   36.25   30.80
  -8  -4  19   13.68   24.04
  -8  -4  19   13.01   27.86
  -8   4  19   15.41   17.12
  -8   4  18    3.56   10.88
  -8   4  18   12.49   21.63
  -8  -4  18   13.56   21.11
  -8  -4  18   23.30   19.78
  -8   4  17   35.20   26.58
  -8   4  17   66.13   37.70
  -8  -4  17   77.38   33.08
  -8  -4  17   22.51   22.38
  -8   4  16   -4.50    5.65
  -8   4  16   24.64   19.28
  -8  -4  16    3.78   15.22
  -8  -4  16    7.25   18.89
  -8   4  15    7.66    7.10
  -8   4  15   14.41   16.48
  -8  -4  15    5.04    7.74
  -8   4  14   20.32   14.55
  -8   4  14   -0.07    5.65
  -8  -4  14   21.20   11.17
  -8   4  13   -6.57   11.87
  -8   4  13    1.67   10.27
  -8  -4  13   -0.54    7.10
  -8   4  12    7.17    9.80
  -8   4  12    7.76   14.10
  -8  -4  12   13.95   12.00
  -8   4  11   39.00   24.56
  -8  -4  11    6.64    9.69
  -8   4  11    8.62   12.99
  -8   4  10    9.16   11.02
  -8  -4  10    5.81    8.88
  -8   4  10   18.60   20.46
  -8   4   9   42.69   18.86
  -8   4   9   23.36   15.79
  -8   4   8    8.06    9.05
  -8   4   8   30.93   23.17
  -8   4   7   16.12   12.83
  -8   4   7   21.32   14.74
  -8   4   6   32.36   13.89
  -8   4   6   21.69   19.69
  -8   4   5   35.80   16.99
  -8   4   5   30.28   16.69
   8  -4  -5   31.20   16.92
   8  -4  -4   36.01   16.32
  -8   4   4   49.77   16.87
  -8   4   4   39.26   19.72
   8  -4  -3   50.43   21.97
  -8   4   3   62.68   23.97
  -8   4   3   57.82   17.09
  -8   4   2  112.36   24.90
  -8   4   2  115.22   36.05
  -8   4   1    2.63    4.30
  -8   4   1   14.17   21.27
  -8   4   0   11.96   17.08
  -8   4   0    0.03    3.87
  -8   4  -1    6.18    5.80
   8   4   1   13.03   18.55
  -8   4  -1   13.33   15.97
  -8   4  -2   10.20    6.47
   8   4   2    2.79   13.95
  -8   4  -3   41.29   16.32
  -8   4  -3   14.92   11.17
   8   4   3   32.99   27.74
  -8   4  -4   21.47   10.90
   8   4   4   52.62   41.98
  -8   4  -5   10.23    8.77
   8   4   5   54.04   35.76
   8   4   6   54.93   37.75
   8   4   7   66.15   38.76
   8   4   8    0.18   15.38
   8   4   9    0.19    8.78
   8  -4  10   14.48   21.69
   8   4  10   -4.06   11.80
   8  -4  11    4.01    3.53
   8   4  11   -2.33   17.29
   8  -4  12    1.33    3.38
   8   4  12   52.31   43.58
   8  -4  13   37.24   35.14
   8   4  13   29.08   27.26
   8  -4  14    8.82    8.32
   8   4  14  -30.10   25.25
   8  -4  15    4.25   13.13
   8   4  15   28.77   35.49
   8  -4  16   -3.80    8.78
   8   4  16    4.08   20.29
   8   4  17  415.16  166.30
   8  -4  17    5.42   22.77
   8  -4  18   -9.10    8.37
   8   4  18    2.24    9.74
   8   4  19  -27.66   37.50
   8   4  20  -21.77   32.59
  -8  -5  20   53.10   58.24
  -8   5  19    0.00    0.84
  -8  -5  19   14.20   16.87
  -8   5  18   26.06   25.11
  -8  -5  18   14.66   15.69
  -8   5  17   23.42   23.98
  -8  -5  17   18.50   19.76
  -8   5  16    6.88   17.00
  -8   5  16   38.37   26.96
  -8  -5  16    0.17    5.59
  -8   5  15   15.09   18.75
  -8   5  15   11.38   17.29
  -8   5  14   27.68   25.86
  -8   5  14    7.93   18.06
  -8   5  13   -1.07    8.10
  -8   5  13   12.42   20.27
  -8   5  12   10.65   17.29
  -8   5  12   -6.79   13.12
  -8   5  11   22.45   14.17
  -8   5  11    1.30    5.87
  -8   5  10    9.57   13.61
  -8   5  10   10.50   11.94
  -8   5   9   -3.14   10.94
  -8   5   9   12.14   10.06
  -8   5   8   16.05   13.30
  -8   5   8   34.75   25.77
  -8   5   7   46.30   32.20
  -8   5   7   71.00   24.89
  -8   5   6   25.88   14.45
  -8   5   6   55.61   22.62
  -8   5   5   30.78   21.99
  -8   5   5    6.78   10.31
  -8   5   4    0.69    4.26
  -8   5   4   19.03   24.64
  -8   5   3   40.35   16.64
  -8   5   3   26.04   17.86
  -8   5   2   -5.22    7.28
  -8   5   2   -0.79    1.61
  -8   5   1   46.72   25.14
  -8   5   1   69.61   20.89
  -8   5   0    4.27   19.29
  -8   5   0   29.32   13.83
  -8   5  -1   46.36   15.29
  -8   5  -1   45.38   21.13
  -8   5  -2   25.86   19.87
  -8   5  -3   17.59   20.60
  -8   5  -4   38.10   33.30
  -8   5  -5    2.26    9.72
   8   5   5   26.02   27.93
   8   5   6   46.54   32.15
  -8   5  -6   35.88   27.86
  -8   5  -7   19.08   43.35
   8   5   7   -8.84   18.15
   8   5   8   47.44   32.61
   8   5   9   11.29   13.17
   8   5  10   -8.26   12.45
   8   5  11   59.37   44.76
   8  -5  12   24.65   26.87
   8   5  12   53.20   42.88
   8  -5  13   -4.40   15.61
   8   5  13  -20.27   31.42
   8  -5  14   30.48   28.84
   8   5  14  375.44  107.02
   8   5  15   98.16   79.73
   8   5  16  -30.28   16.20
   8   5  17   24.41   33.34
   8   5  18   74.95   59.28
  -8   6  18   25.90   24.53
  -8   6  17    9.74   22.60
  -8   6  16   -5.66    2.37
  -8   6  16   11.01   18.60
  -8   6  15   37.29   26.46
  -8   6  15   33.63   37.84
  -8   6  14   13.94   31.60
  -8   6  14   38.44   28.36
  -8   6  13   24.43   34.09
  -8   6  13    7.59   12.07
  -8   6  12   12.95    8.29
  -8   6  12    5.44   15.58
  -8   6  11   33.40   30.20
  -8   6  11   51.31   31.36
  -8   6  10   22.26   23.28
  -8   6  10   37.94   31.25
  -8   6   9   -4.25    1.61
  -8   6   9   33.42   28.39
  -8   6   8   22.23   18.50
  -8   6   8   44.30   26.16
  -8   6   7  285.45   59.76
  -8   6   7   45.14   27.05
  -8   6   6   34.60   29.00
  -8   6   6   11.93   13.71
  -8   6   5   16.04   25.23
  -8   6   5   -2.29    4.35
  -8   6   4   15.72   24.63
  -8   6   4   50.29   22.46
  -8   6   3   48.04   25.68
  -8   6   2   30.05   16.92
  -8   6   1   42.30   33.96
  -8   6   0    3.12    9.78
  -8   6  -1   12.28    9.81
  -8   6  -2   60.69   37.42
  -8   6  -3   -1.99    8.31
  -8   6  -4   30.74   24.10
  -8   6  -5    7.93   16.44
  -8   6  -6    1.24    6.47
  -8   6  -7   33.10   28.23
  -8   6  -8   31.97   35.45
  -8   6  -9   57.63   49.55
  -8   6 -10  180.92   81.27
   8   6  11   72.65   47.83
   8   6  12   29.71   31.45
   8   6  13   28.51   24.34
   8   6  14  161.27   70.84
   8   6  15   -1.61   13.22
  -8   7  14    0.31    4.41
  -8   7  13   85.46   46.54
  -8   7  12    5.60   17.04
  -8   7  11   16.53   24.03
  -8   7  10   15.76   19.11
  -8   7   7   -4.91   10.94
  -8   7   6    4.42   12.94
  -8   7   5   72.71   40.20
  -8   7   4   13.73   16.78
  -8   7   3   31.62   25.27
  -8   7   2   14.59   25.87
  -8   7   1   32.39   21.60
  -8   7   0   12.68   20.30
  -9   0  24   -2.95    0.76
  -9   0  23   21.63   26.72
  -9   0  22    7.26   12.01
  -9   0  21   19.38   21.51
  -9   0  20    0.34   11.63
  -9   0  19   41.26   19.69
  -9   0  18   -0.56    2.24
  -9   0  17    0.58    2.25
  -9   0  16   21.34   13.44
  -9   0  15    4.27   12.74
  -9   0  14    4.78    6.16
  -9   0  13  116.89   35.69
  -9   0  12   28.91   14.58
  -9   0  11  312.92   50.96
  -9   0  11  347.76   31.08
  -9   0  10    4.90    4.19
  -9   0  10    4.00    7.13
  -9   0   9   10.88   10.46
  -9   0   9   31.06   12.65
  -9   0   8    9.72    9.43
  -9   0   7  105.90   25.51
   9   0  -7   87.76   30.93
   9   0  -6    7.02   15.74
   9   0  -5  180.38   48.83
   9   0  -4   11.17   14.21
   9   0  -3    9.63   14.55
   9   0  -2    3.10   13.79
   9   0  -1  263.83   56.37
   9   0   0    6.81   18.25
   9   0   1   34.33   22.26
   9   0   2   -4.71    6.09
   9   0   3  167.69   45.77
   9   0   4   13.47   17.06
   9   0   5   17.47   18.07
   9   0   6  -12.91   14.12
   9   0   7   63.50   31.64
   9   0   8   24.52   21.88
   9   0   9   -3.42   10.89
   9   0  10   39.38   36.19
   9   0  11   42.07   34.74
   9   0  11   17.82   11.13
   9   0  12  160.36   44.16
   9   0  13   51.53   32.77
   9   0  14   -2.15    6.45
   9   0  15   26.35   16.24
   9   0  16   17.98   19.35
   9   0  17  -12.15   19.25
   9   0  18   22.10   24.23
   9   0  19   37.90   27.85
   9   0  20   24.48   27.43
  -9  -1  24   68.81   39.30
  -9   1  23   -8.72   13.23
  -9  -1  23   -2.99    7.20
  -9   1  22   30.80   26.96
  -9  -1  22    4.83   14.39
  -9   1  21    1.30   10.57
  -9  -1  21   35.03   30.64
  -9   1  20    2.27   15.52
  -9  -1  20   11.90   22.99
  -9   1  19   39.60   27.48
  -9  -1  19   21.61   20.94
  -9   1  18    8.09   13.29
  -9  -1  18   10.97    9.94
  -9  -1  17  188.71   48.99
  -9   1  17    8.36   17.58
  -9   1  16   21.42   20.84
  -9  -1  16   29.67   19.85
  -9   1  15    7.37    7.83
  -9  -1  15   20.65   16.49
  -9   1  14   31.59   18.49
  -9  -1  14   28.13   25.39
  -9   1  13   54.06   15.13
  -9   1  13   34.02   21.47
  -9  -1  13   18.62   18.10
  -9   1  12   21.43   12.01
  -9  -1  12   39.15   19.74
  -9   1  12   38.78   12.29
  -9   1  11   24.65   16.75
  -9  -1  11   11.84   13.23
  -9   1  11   39.65   15.14
  -9   1  10   27.58   13.72
  -9   1  10   11.30   13.56
  -9   1   9   20.86   10.90
  -9   1   9   10.40    6.51
  -9   1   8   69.15   22.14
  -9  -1   8   73.44   17.76
  -9   1   8   65.93   19.28
  -9   1   7   36.42   17.37
  -9   1   7   30.33   14.50
   9  -1  -7   18.20   18.08
  -9   1   6  315.02   45.24
   9  -1  -6  274.79   54.57
  -9   1   6  280.78   45.80
  -9   1   5    8.49    9.60
  -9   1   5   12.64   11.03
   9   1  -5    7.75    6.64
   9  -1  -5   15.41   24.49
   9   1  -4    4.67    7.79
   9  -1  -4   15.24   11.59
   9   1  -3  176.85   46.74
   9  -1  -3  112.94   41.94
   9   1  -2  132.80   39.17
   9  -1  -2   89.24   37.60
   9   1  -1   29.09   20.28
   9  -1  -1   27.54   24.73
   9   1   0   64.24   27.38
   9  -1   0   79.16   34.01
   9   1   1   87.79   35.04
   9  -1   1   50.21   31.95
   9  -1   2   14.13   18.46
   9   1   2   22.39   19.50
   9  -1   3    7.85   10.95
   9   1   3   39.99   27.54
   9  -1   4   38.04   25.20
   9   1   4   26.00   18.02
   9  -1   5  185.15   51.76
   9   1   5  204.83   53.66
   9  -1   6  103.68   39.66
   9   1   6   62.07   27.78
   9   1   7   -3.30   14.46
   9   1   8   16.90   22.00
   9   1   9   22.89   27.10
   9   1  10   22.15   23.43
   9  -1  10   11.91   16.26
   9   1  11    0.49    5.31
   9  -1  11    7.75   15.42
   9   1  12   21.26   25.17
   9   1  12   -2.75    4.95
   9  -1  12   14.06   18.93
   9   1  13   -0.70    5.84
   9   1  13   11.70   15.47
   9  -1  13   -3.21    8.00
   9   1  14   15.88   25.77
   9   1  14   27.38   18.67
   9  -1  14   14.36   13.78
   9   1  15   45.02   42.20
   9  -1  15   26.13   28.36
   9   1  16   15.90   19.57
   9  -1  16   17.50   25.83
   9   1  17   56.14   42.91
   9  -1  17   26.80   31.53
   9   1  18   23.74   31.96
   9  -1  18   10.10    3.85
   9   1  19    3.18   20.25
   9  -1  19   22.49   15.36
   9  -1  20    5.61   11.24
   9  -1  21   -3.37   26.21
   9  -1  22   38.19   50.62
  -9  -2  24    0.00    9.97
  -9  -2  23   21.86   27.35
  -9   2  22   21.32   14.31
  -9  -2  22   53.19   38.85
  -9   2  21   48.36   49.81
  -9  -2  21   13.90   22.62
  -9   2  20   20.84   14.75
  -9  -2  20   77.81   43.38
  -9   2  19   44.28   20.99
  -9  -2  19    5.21   21.75
  -9   2  18   56.70   23.25
  -9  -2  18   13.52   18.10
  -9   2  17    0.00   13.04
  -9  -2  17    9.28   14.25
  -9   2  16   17.50   19.21
  -9  -2  16   13.24   17.36
  -9   2  15   17.87   12.43
  -9  -2  15    4.35   12.05
  -9   2  14    9.42    9.55
  -9   2  14   13.51   19.39
  -9  -2  14    7.75    9.59
  -9   2  13    6.91    7.49
  -9   2  13    9.07    7.94
  -9  -2  13    4.31   10.06
  -9   2  12   12.24   15.71
  -9   2  12   10.89    9.97
  -9   2  11   -1.05    0.67
  -9   2  11   -6.07    9.08
  -9   2  10   15.75   10.26
  -9   2  10   68.78   30.01
  -9   2   9   97.08   29.01
  -9   2   9  102.95   28.02
  -9   2   8  237.88   42.73
   9  -2  -8  312.56   62.62
  -9   2   8  229.68   40.07
  -9   2   7   27.55   16.87
  -9   2   7   40.27   17.19
   9  -2  -7   39.77   21.41
  -9   2   6    6.80    8.61
  -9   2   6    7.44    9.36
   9  -2  -6   18.93   18.32
  -9   2   5   26.53   18.48
  -9   2   5   -5.86   10.39
  -9   2   4  132.94   31.33
   9   2  -4  129.71   44.09
  -9   2   4   99.50   30.33
   9  -2  -4  197.49   47.09
  -9   2   3   44.97   22.16
  -9   2   3   71.02   21.60
   9   2  -3   80.81   32.75
   9  -2  -3   50.04   31.27
  -9   2   2   25.10   14.18
   9  -2  -2   11.89    5.82
  -9   2   1   41.73   15.26
   9   2  -1   60.52   31.25
   9  -2  -1   60.52   28.82
   9  -2   0  197.97   51.20
  -9   2   0  293.04   42.47
   9   2   0  223.36   53.95
   9  -2   1  177.69   48.05
   9   2   1  133.76   40.78
   9  -2   2   57.80   39.91
   9   2   2  158.18   47.80
   9  -2   3   11.25   19.34
   9   2   3   19.68   20.59
   9   2   4    4.51    1.47
   9   2   5   23.73   20.14
   9   2   6   48.73   29.08
   9   2   7   12.06   20.87
   9   2   8   12.12    3.34
   9   2   9   13.70   26.31
   9  -2  10   18.18   20.37
   9   2  10   -5.69   10.46
   9  -2  11    0.96   10.00
   9   2  11    5.54   23.22
   9  -2  12    2.12    6.98
   9   2  12   37.95   34.59
   9  -2  13    6.85   12.30
   9   2  13  -14.77   22.60
   9  -2  14   24.16   24.43
   9   2  14   95.88   70.94
   9  -2  15    4.70   23.08
   9   2  15   -6.42   10.72
   9  -2  16    8.79   16.34
   9   2  16   12.45   11.24
   9  -2  17    2.27   19.09
   9   2  17   26.65   30.95
   9   2  18    1.90   16.76
   9  -2  18   11.46   32.28
   9   2  19  -17.33   20.51
   9  -2  19   56.64   50.99
   9  -2  20   32.46   35.80
   9  -2  21  -14.08   24.16
  -9  -3  24   58.18   26.62
  -9  -3  23    9.01   29.77
  -9  -3  22    0.78    6.16
  -9   3  21   17.73   18.59
  -9  -3  21   33.60   33.76
  -9   3  20    8.72   13.73
  -9  -3  20   -7.03   11.46
  -9   3  19   17.20   22.58
  -9  -3  19    4.57   20.81
  -9   3  18   -1.07    7.79
  -9  -3  18   27.66   27.42
  -9   3  17   42.93   25.86
  -9  -3  17   27.81   18.96
  -9   3  16    3.82    8.63
  -9  -3  16    2.59    4.66
  -9   3  15   30.82   17.11
  -9   3  15   35.83   28.51
  -9  -3  15   32.90   22.59
  -9   3  14    0.00    9.18
  -9   3  14   14.69   13.19
  -9   3  13    4.92    1.17
  -9   3  13   39.43   31.60
  -9   3  12    3.86   10.57
  -9   3  12   15.84   14.24
  -9   3  11   15.86   13.92
  -9   3  11   10.67    9.84
  -9   3  10   43.11   22.94
  -9   3  10   11.41   11.44
  -9   3   9    7.11    8.18
  -9   3   9   14.38   21.39
  -9   3   8   91.27   38.61
  -9   3   8   54.96   20.59
   9  -3  -8   67.67   25.74
  -9   3   7   17.02   12.47
  -9   3   7   14.89   13.44
   9  -3  -7   -0.57    8.48
  -9   3   6   38.36   19.52
   9  -3  -6   30.58   12.82
  -9   3   5   50.85   24.78
  -9   3   5   78.89   24.01
   9  -3  -5  105.52   32.47
  -9   3   4   13.79   13.78
  -9   3   4   12.78   15.37
   9  -3  -4   18.28   22.03
  -9   3   3  131.66   41.24
  -9   3   3  163.47   33.32
   9  -3  -3  151.64   36.13
  -9   3   2   43.45   15.34
   9   3  -2   57.30   32.76
  -9   3   2   40.92   26.18
   9  -3  -2   42.55   22.56
   9  -3  -1   -2.53    8.82
  -9   3   1   13.12   15.76
  -9   3   1    1.09    5.28
   9   3  -1    4.27   21.41
   9  -3   0    4.64   15.92
  -9   3   0   11.16    9.06
   9   3   0   10.41   14.91
  -9   3  -1   37.11   16.25
   9   3   1   10.88   19.96
  -9   3  -2   45.31   17.57
   9   3   2   43.18   29.94
  -9   3  -3   84.95   21.41
   9   3   3   60.31   30.34
  -9   3  -4   13.35   11.63
   9   3   4   14.55   21.67
  -9   3  -5   31.84   14.74
   9   3   5   51.14   45.98
  -9   3  -6   17.82    4.60
   9   3   6   32.11   23.71
  -9   3  -7   90.75   21.08
   9   3   7  104.16   45.12
   9   3   8   20.34   23.23
   9   3   9   44.31   32.56
   9   3  10   42.95   31.74
   9  -3  11    0.95    7.19
   9   3  11   12.38   17.76
   9  -3  12   -1.47    8.12
   9   3  12   40.57   39.56
   9  -3  13    2.26   19.76
   9   3  13   36.73   62.21
   9  -3  14   -2.49   11.01
   9   3  14   12.16   28.71
   9  -3  15    4.46   23.62
   9   3  15   25.36   39.79
   9  -3  16   11.00   27.95
   9   3  16   18.49    3.21
   9  -3  17    7.58   18.29
   9   3  17   91.20   65.84
   9  -3  18    6.93   16.77
   9   3  18   10.79   24.14
  -9  -4  22   37.89   21.28
  -9  -4  21   11.33   22.83
  -9  -4  20   11.32   16.77
  -9   4  19   21.69   24.08
  -9  -4  19    9.70   14.62
  -9   4  18   -9.38   12.97
  -9  -4  18   15.71   15.58
  -9   4  17    2.66   11.40
  -9   4  17   19.01   25.51
  -9  -4  17    2.66   11.46
  -9   4  16    2.79    4.98
  -9   4  16   37.39   28.00
  -9  -4  16   19.49   17.59
  -9   4  15    5.12   14.98
  -9   4  15    4.56   13.83
  -9   4  14   23.38   18.10
  -9   4  14   23.01   20.97
  -9   4  13   -5.93    7.35
  -9   4  13   41.03   25.08
  -9   4  12    3.27    5.29
  -9   4  12   32.49   19.23
  -9   4  11   13.61   17.66
  -9   4  11   28.42   20.38
  -9   4  10   28.32   20.41
  -9   4  10   55.55   23.55
  -9   4   9   18.96   19.57
  -9   4   9   22.18   22.60
  -9   4   8    8.84   24.79
  -9   4   8   31.81   21.19
  -9   4   7    0.36    8.50
  -9   4   7   -0.29    9.59
  -9   4   6    4.52   10.99
  -9   4   6    8.05   13.34
  -9   4   5    9.30   12.88
  -9   4   5   65.72   32.94
  -9   4   4   19.49   13.73
   9  -4  -4   21.93   13.00
  -9   4   4    8.57   10.59
   9  -4  -3   38.10   24.62
  -9   4   3   31.27   20.89
  -9   4   3   41.23   16.92
   9  -4  -2    4.82   15.71
  -9   4   2    9.12    9.91
  -9   4   2   14.56   19.22
   9  -4  -1   10.07   14.33
  -9   4   1   19.89   12.29
  -9   4   1   11.89   10.62
  -9   4   0   17.97   15.96
  -9   4   0    9.73   10.21
  -9   4  -1   42.45   32.06
  -9   4  -1   19.75   15.70
   9   4   1   10.99   18.97
  -9   4  -2   71.11   31.77
  -9   4  -2   84.19   22.00
   9   4   2   56.51   32.65
  -9   4  -3   99.51   23.16
   9   4   3   71.68   36.08
  -9   4  -3   94.43   34.56
   9   4   4   -1.05    7.93
   9   4   5   18.78   16.63
   9   4   6   11.25   23.21
   9   4   7    5.04   15.04
   9   4   8   47.28   28.53
   9   4   9   26.47   31.07
   9   4  10  -21.25   22.29
   9   4  11  117.04   54.47
   9  -4  12   35.66   32.96
   9   4  12  104.72   44.63
   9  -4  13   57.96   42.65
   9   4  13    1.53   10.96
   9  -4  14    8.59   22.35
   9   4  14  169.21   86.73
   9  -4  15   17.75   29.10
   9   4  15   -9.81    9.64
   9   4  16   95.51   51.06
  -9  -5  20   14.48   17.71
  -9  -5  19    7.01   17.83
  -9   5  18    7.32   16.24
  -9  -5  18    5.91   13.60
  -9   5  17   22.29   25.15
  -9   5  17   66.29   30.30
  -9  -5  17    5.28   10.51
  -9   5  16   -1.03   12.62
  -9   5  16  419.64   98.83
  -9   5  15    2.38    3.93
  -9   5  15   79.57   47.15
  -9   5  14    6.67   12.40
  -9   5  14   21.57   23.22
  -9   5  13   28.95   22.49
  -9   5  13    6.05    4.48
  -9   5  12    3.63    9.53
  -9   5  12   -4.83    3.91
  -9   5  11   14.01   17.22
  -9   5  11    0.99    3.83
  -9   5  10    0.33    4.45
  -9   5  10    2.41    9.14
  -9   5   9    7.32    8.22
  -9   5   9    9.03   15.81
  -9   5   8   26.83   24.46
  -9   5   8   20.05   26.99
  -9   5   7   21.96   21.96
  -9   5   7    7.25   12.98
  -9   5   6   40.78   28.03
  -9   5   6   17.01   13.88
  -9   5   5   22.75   16.57
  -9   5   5   26.63   21.60
  -9   5   4   16.49   14.53
  -9   5   4    7.50   16.68
  -9   5   3   30.43   19.55
  -9   5   3   21.31   20.36
  -9   5   2   55.15   22.99
  -9   5   2   31.32   20.10
  -9   5   1   19.32   24.73
  -9   5   1   30.44   15.88
  -9   5   0    1.00   12.34
  -9   5  -1   -1.46    0.92
  -9   5  -2    6.68   11.01
  -9   5  -3    1.18    2.34
  -9   5  -4   31.10   31.17
  -9   5  -5   19.65   25.31
   9   5   5  114.40   52.72
   9   5   6    4.91   18.78
  -9   5  -6   11.70   13.10
  -9   5  -7   23.93   30.60
   9   5   7  121.19   59.71
   9   5   8  109.59   59.12
   9   5   9   -3.87   12.94
   9   5  10   52.20   41.87
   9   5  11    5.33   12.61
   9   5  12   -8.86    9.51
   9   5  13    6.43   28.63
   9   5  14   73.35   50.94
  -9   6  16   -2.93   10.19
  -9   6  15   98.23   34.83
  -9   6  15  -14.38    7.69
  -9   6  14   17.79   15.96
  -9   6  14   46.80   36.17
  -9   6  13   28.45   28.75
  -9   6  13   15.04   18.12
  -9   6  12   -7.69   16.65
  -9   6  12   45.04   27.23
  -9   6  11   20.82   17.02
  -9   6  11    3.74    9.74
  -9   6  10   18.88   38.13
  -9   6  10   -0.73   16.37
  -9   6   9   10.01    9.75
  -9   6   9   56.30   38.07
  -9   6   8   10.65   14.60
  -9   6   8  -11.00   14.41
  -9   6   7   39.95   28.23
  -9   6   7   57.99   34.32
  -9   6   6   16.24   30.34
  -9   6   6   11.78   16.87
  -9   6   5   -9.72   15.48
  -9   6   4   16.00   22.52
  -9   6   3   27.24   21.22
  -9   6   2    9.41   13.31
  -9   6   1   14.48   18.46
  -9   6   0   13.78   22.86
  -9   6  -1   -3.76    5.23
  -9   6  -2    7.77   21.11
  -9   6  -3   48.90   37.81
  -9   6  -4    1.17   24.21
  -9   6  -5   45.08   38.22
 -10   0  21   -1.51    7.79
 -10   0  20   14.65   16.24
 -10   0  19    8.41   16.06
 -10   0  18   41.76   29.93
 -10   0  17    0.09    6.97
 -10   0  16   15.89   12.15
 -10   0  15   24.55   31.13
 -10   0  14   13.39   15.01
 -10   0  13   29.51   15.72
 -10   0  12   44.58   25.72
 -10   0  11   19.68   12.52
 -10   0  10   16.89   16.65
 -10   0   9   17.25   11.51
 -10   0   8   50.68   17.03
 -10   0   8   39.69   19.85
 -10   0   7   15.79   14.42
  10   0  -7   -0.48   14.19
  10   0  -6   16.02   12.83
  10   0  -5    2.86    7.74
  10   0  -4    9.40   22.04
  10   0  -3    2.07   11.36
  10   0  -2   55.32   37.05
  10   0  -1    1.73   17.03
  10   0   0   68.46   34.12
  10   0   1   -0.30   18.48
  10   0   2   20.61   26.96
  10   0   3    2.87   11.78
  10   0   4  126.93   45.13
  10   0   5   91.10   35.98
  10   0   6   23.55   21.47
  10   0   7   15.28   24.33
  10   0   8    4.90   17.63
  10   0   9    1.50   10.86
  10   0  10  108.06   44.70
  10   0  11    9.85   23.13
  10   0  12   29.03   37.92
  10   0  13   20.50   19.95
  10   0  14    0.45   14.34
  10   0  14    0.67    7.07
  10   0  15   23.60   67.69
  10   0  15   23.89   20.36
  10   0  16  767.00  129.46
 -10   1  21   10.93   21.57
 -10  -1  21   10.41   19.89
 -10   1  20    0.68   12.39
 -10  -1  20   -4.84   14.05
 -10   1  19   23.28   24.19
 -10  -1  19   13.64   14.69
 -10   1  18    3.21   15.12
 -10  -1  18   14.79   24.19
 -10   1  17   14.35   18.69
 -10  -1  17   46.00   20.90
 -10   1  16   32.71   23.91
 -10  -1  16   39.75   19.05
 -10   1  15   28.10   15.96
 -10  -1  15   21.85   23.37
 -10   1  14   11.24   15.20
 -10  -1  14    3.47   11.37
 -10   1  13   57.81   28.58
 -10  -1  13   41.32   22.77
 -10   1  12    8.25    8.92
 -10  -1  12   30.20   20.43
 -10   1  11   25.53   14.40
 -10  -1  11    0.00    7.85
 -10   1  10   -0.94    1.66
 -10   1  10  -14.37   10.63
 -10   1   9   29.32   17.05
 -10   1   9   13.31   10.31
 -10   1   8    2.02    1.90
 -10   1   8    0.00    9.58
  10  -1  -8   22.31   22.01
 -10   1   7  104.01   29.81
 -10   1   7  113.99   26.29
  10  -1  -7   85.08   33.97
 -10   1   6    9.59   11.14
 -10   1   6    2.96    7.18
  10  -1  -6    0.72   18.00
 -10   1   5   43.92   20.72
  10   1  -5   17.46   26.34
  10  -1  -5   33.79   22.25
 -10   1   5   21.45   16.48
  10   1  -4    3.93    1.31
  10  -1  -4    1.49    4.41
  10   1  -3    4.83   21.74
  10  -1  -3    3.41   10.02
  10   1  -2   15.83   29.53
  10  -1  -2    0.61   46.12
  10   1  -1   50.18   32.48
  10  -1  -1   36.21   31.58
  10   1   0   13.43   20.54
  10  -1   0    4.67   23.05
  10   1   1    8.54   17.01
  10  -1   1   -1.97   16.60
  10   1   2   34.27   26.03
  10  -1   2   15.85   26.76
  10   1   3    7.85   21.71
  10  -1   3    0.32    7.46
  10  -1   4   -1.90    7.06
  10   1   4   16.80   29.90
  10  -1   5   56.38   31.95
  10   1   5   73.37   34.90
  10  -1   6   14.71   35.72
  10   1   6   56.82   38.26
  10  -1   7   48.88   52.78
  10   1   7   26.20   31.70
  10  -1   8   23.43   35.54
  10   1   8   51.30   40.20
  10  -1   9    5.37    7.66
  10   1   9   -5.94    8.80
  10   1  10   15.40   20.67
  10   1  11   23.46   21.12
  10   1  12   35.57   27.85
  10   1  13  -17.58   20.24
  10  -1  13   -1.82    9.42
  10   1  14   11.61   21.97
  10  -1  14   -5.83   10.63
  10   1  15   67.64   60.17
  10  -1  15   29.87   25.17
  10   1  16   28.65   33.08
  10  -1  16   21.47   24.68
  10  -1  17    9.43   12.90
  10  -1  18    2.31   31.14
  10  -1  19   13.74   23.10
  10  -1  20   30.54   29.56
 -10  -2  21  108.44   48.37
 -10   2  20    0.79   10.12
 -10  -2  20   -2.62    4.94
 -10   2  19   34.16   23.68
 -10  -2  19   26.55   21.37
 -10  -2  18   82.31   67.88
 -10   2  18    6.94   10.13
 -10   2  17   -0.49    4.23
 -10  -2  17    4.60   17.45
 -10   2  16   27.89   16.42
 -10  -2  16    6.79   10.32
 -10   2  15   28.62   35.71
 -10  -2  15   20.10   21.19
 -10   2  14    0.33    8.29
 -10  -2  14   40.31   31.98
 -10   2  13   49.22   23.85
 -10  -2  13   20.38   20.26
 -10   2  12    8.86   14.12
 -10   2  12    7.79    8.39
 -10   2  11   11.26   12.64
 -10   2  11   16.14   13.50
 -10   2  10    5.96    6.54
 -10   2  10   20.40   18.65
 -10   2   9   28.55   21.25
 -10   2   9   77.71   31.52
 -10   2   8    9.04    8.24
 -10   2   8   21.99   15.91
  10  -2  -8   16.21   19.42
 -10   2   7   18.60   16.46
 -10   2   7   27.71   18.45
  10  -2  -7   19.55   15.88
 -10   2   6   44.96   24.36
 -10   2   6   41.90   18.83
  10  -2  -6   29.99   23.39
 -10   2   5   15.70   13.22
 -10   2   5    1.14    3.82
  10  -2  -5   24.72   26.84
 -10   2   4   11.01   12.15
  10   2  -4    8.13   21.33
 -10   2   4   10.26   10.20
  10  -2  -4   16.01   19.56
 -10   2   3   25.07   20.82
 -10   2   3   46.52   24.35
  10   2  -3   16.46   25.41
  10  -2  -3   12.19   22.82
 -10   2   2   24.99   11.90
  10   2  -2   36.41   38.77
  10  -2  -2   13.98   21.06
 -10   2   1   27.10   16.19
  10   2  -1   21.51   18.98
  10  -2  -1    9.76   16.56
 -10   2   0   56.41   26.64
  10   2   0   28.60   23.58
  10  -2   0   19.88   20.90
  10   2   1   32.29   25.40
  10  -2   1   21.95   23.81
  10  -2   2   26.35   28.90
  10   2   2   12.86   30.81
  10  -2   3    9.05   19.60
  10   2   3   20.54   23.82
  10  -2   4   27.38   30.13
  10   2   4   -3.31   11.84
  10  -2   5    0.46    3.40
  10   2   5   15.72   21.80
  10   2   6    6.62   18.10
  10   2   7   11.90    1.45
  10   2   8   42.05   36.63
  10   2   9   32.24   39.57
  10   2  10   10.27   32.76
  10   2  11   20.22   19.73
  10   2  12   21.90   45.78
  10  -2  13   41.81   24.06
  10   2  13    7.11   18.18
  10  -2  14   13.99   29.35
  10   2  14   -7.76    9.51
  10  -2  15    5.88   14.89
  10   2  15  -11.98   23.15
  10  -2  16   -9.63   18.16
  10   2  16  389.74  133.49
  10  -2  17   13.96   26.72
  10  -2  18   20.56   30.41
  10  -2  19   -9.54   12.14
 -10  -3  20    8.01   27.27
 -10  -3  19    1.88   17.49
 -10   3  18   16.54   12.26
 -10  -3  18   14.10   10.51
 -10   3  17   16.89   22.20
 -10  -3  17   19.41   24.33
 -10   3  16   53.34   34.54
 -10  -3  16   26.90   28.74
 -10   3  15   15.35   18.00
 -10  -3  15    2.56   15.58
 -10   3  14   31.59   22.95
 -10   3  13   48.82   32.83
 -10   3  13   17.81   19.65
 -10   3  12   10.52   12.49
 -10   3  12    5.01   10.43
 -10   3  11   -1.45    5.68
 -10   3  11    9.64   13.24
 -10   3  10    0.57    2.46
 -10   3  10    4.33   10.17
 -10   3   9   11.08   10.47
 -10   3   9   -0.25   11.46
 -10   3   8   36.78   23.25
 -10   3   8   64.94   38.79
 -10   3   7    1.84    1.86
 -10   3   7    9.95   16.07
 -10   3   6   27.99   16.14
  10  -3  -6   27.98   21.28
 -10   3   6   23.54   20.68
 -10   3   5   -1.77    8.45
 -10   3   5   23.62   19.94
 -10   3   4   98.94   28.38
 -10   3   4   70.20   31.20
  10  -3  -4   54.61   32.17
 -10   3   3    9.96   11.62
 -10   3   3    7.60    8.26
  10  -3  -3   15.36   18.03
 -10   3   2   43.23   20.32
 -10   3   2   18.52   20.70
  10  -3  -2   42.75   28.54
 -10   3   1   18.89   13.65
  10   3  -1   15.29   25.65
  10  -3  -1    7.48   11.86
  10  -3   0    2.62   10.15
 -10   3   0   11.10   12.49
  10   3   0   34.43   30.68
  10  -3   1   76.29   52.71
 -10   3  -1  103.15   45.16
  10   3   1   -3.78   15.95
  10  -3   2   10.13   18.15
 -10   3  -2   33.01   14.63
  10   3   2   15.41   27.21
  10  -3   3    8.11   16.56
 -10   3  -3   36.77   13.96
  10   3   3   58.63   31.50
 -10   3  -4   22.12   16.60
  10   3   4   -2.41   21.12
 -10   3  -5   41.41   20.53
  10   3   5   65.35   39.03
 -10   3  -6   23.83   17.77
  10   3   6   14.25   28.58
  10   3   7   21.83   27.15
  10   3   8   27.15   42.82
  10   3   9   41.21   49.24
  10   3  10   21.39   33.23
  10   3  11   40.56   34.73
  10   3  12  180.49   77.37
  10   3  13   30.85   31.62
  10  -3  14   27.21   29.60
  10   3  14   63.96   51.15
  10  -3  15    3.81   18.14
  10  -3  16   -1.13    7.14
 -10  -4  19   64.14   33.27
 -10  -4  18   -1.32   27.28
 -10   4  17   22.96   23.36
 -10  -4  17   -0.24   10.07
 -10   4  16   46.02   31.16
 -10  -4  16   15.24   17.43
 -10   4  15   28.62   31.94
 -10   4  15   10.39   12.66
 -10   4  14    7.98   14.63
 -10   4  14   73.10   37.28
 -10   4  13   30.67   22.66
 -10   4  13   36.38   30.49
 -10   4  12   24.14   18.57
 -10   4  12   21.74   23.80
 -10   4  11   56.05   25.73
 -10   4  11   19.04   15.30
 -10   4  10   10.61   15.50
 -10   4  10   11.70   12.47
 -10   4   9   18.00   17.81
 -10   4   9  -11.29   13.03
 -10   4   8   39.38   23.65
 -10   4   8  426.11   92.54
 -10   4   7    6.57   11.50
 -10   4   7   12.02   12.80
 -10   4   6   42.37   19.56
 -10   4   6    8.92   14.05
 -10   4   5   33.60   18.60
 -10   4   5   25.11   27.62
 -10   4   4    3.37   11.33
 -10   4   4   21.41   17.82
 -10   4   3    3.91    5.13
 -10   4   3   25.30   16.92
 -10   4   2    8.98    9.99
 -10   4   2   20.83   17.90
  10  -4  -2   25.36   29.99
  10  -4  -1   12.22    8.77
 -10   4   1   22.18   16.04
 -10   4   1   32.81   22.26
  10  -4   0   -0.86    3.31
 -10   4   0   13.34   19.16
 -10   4   0    7.48    9.20
  10  -4   1   10.35    4.19
 -10   4  -1   19.88   14.03
 -10   4  -1   21.77   17.80
 -10   4  -2   -2.25    6.84
  10   4   2   14.25   22.62
 -10   4  -3   42.77   27.29
  10   4   3  107.78   53.74
  10   4   4   29.23   45.49
  10   4   5  201.24   71.02
  10   4   6   10.31   21.76
  10   4   7   19.95   23.60
  10   4   8    1.77    1.17
  10   4   9   -0.25   13.26
  10   4  10   -0.53   35.94
  10   4  11   15.98   19.17
  10   4  12   40.33   35.25
 -10   5  16   46.94   40.69
 -10  -5  16   10.41   27.37
 -10   5  15   -1.92   16.36
 -10   5  15   41.21   28.56
 -10   5  14   16.66   25.67
 -10   5  14   33.75   26.13
 -10   5  13   37.71   29.70
 -10   5  13   22.48   23.07
 -10   5  12   20.84   23.81
 -10   5  12  147.93   60.97
 -10   5  11   92.00   36.30
 -10   5  11   31.25   26.27
 -10   5  10   19.17   21.80
 -10   5  10   44.33   30.62
 -10   5   9   -3.25   10.78
 -10   5   9   25.43   33.89
 -10   5   8   10.86   17.20
 -10   5   8   12.18   14.36
 -10   5   7   19.56   20.48
 -10   5   7   40.48   24.67
 -10   5   6  150.47   50.17
 -10   5   6   52.32   30.56
 -10   5   5  157.75   40.59
 -10   5   5   24.58   26.32
 -10   5   4    3.16    9.23
 -10   5   4    4.38    8.04
 -10   5   3   57.32   28.74
 -10   5   3   26.86   39.33
 -10   5   2   29.87   20.47
 -10   5   1   19.61   21.56
 -10   5   0    8.99   26.60
 -10   5  -1  202.13   68.89
 -10   5  -2   41.01   30.95
 -10   5  -3    1.32    8.59
 -10   5  -4   -3.08    5.03
 -10   5  -5   11.03   19.37
  10   5   5   18.30   28.12
 -10   5  -6   39.89    9.19
  10   5   6   17.08   23.18
 -10   5  -7   27.55   38.52
  10   5   7  -13.70   15.92
  10   5   8   24.59   41.83
  10   5   9  -31.91   39.92
 -10   6  13   19.60   16.55
 -10   6  12   31.58   28.16
 -10   6  11    7.98    7.72
 -10   6  11   -0.40   13.57
 -10   6  10    6.93    9.50
 -10   6  10    5.54   17.41
 -10   6   9  -19.99   12.53
 -10   6   9    1.78   13.29
 -10   6   8   23.03   24.96
 -10   6   7   16.57   21.07
 -10   6   6    4.75   13.29
 -10   6   5   -7.80   16.10
 -10   6   4   71.88   58.68
 -10   6   3   11.20   21.73
 -10   6   2   17.43   23.50
 -10   6   1    0.14   13.18
 -11   0  18    8.14   11.94
 -11   0  17   91.40   37.39
 -11   0  16   18.16   23.83
 -11   0  15   36.91   23.20
 -11   0  14   -7.20    8.28
 -11   0  13   32.21   17.22
 -11   0  12   32.92   17.19
 -11   0  11   32.02   22.11
 -11   0  10    0.00   16.05
 -11   0   9    0.00    3.07
 -11   0   8   15.78   11.14
 -11   0   6   -7.44    9.01
  11   0  -6   -1.00    6.41
  11   0  -5    9.10   29.87
  11   0  -4    5.16   20.87
  11   0  -3    4.83    8.64
  11   0  -2  142.41   52.27
  11   0  -1    3.21   21.68
  11   0   0    5.74   20.42
  11   0   1   39.98   31.16
  11   0   2  -26.34   20.16
  11   0   3   -0.81   13.93
  11   0   4   88.97   44.84
  11   0   5   15.74   37.09
  11   0   6    2.32   17.52
  11   0   7   12.81   28.54
  11   0   8   -0.93    5.44
  11   0   9   19.22   39.92
  11   0  10   -0.62   26.31
  11   0  11   -2.36   24.30
  11   0  12    8.31   37.96
  11   0  13   21.75   45.76
 -11   1  18   11.72   19.25
 -11  -1  18   -4.26   14.20
 -11   1  17    5.21   15.86
 -11  -1  17   11.91   19.57
 -11   1  16   20.70   22.31
 -11  -1  16   34.50   28.11
 -11   1  15   31.61   23.48
 -11  -1  15   13.21   18.90
 -11   1  14    5.91   12.38
 -11  -1  14   -7.51    8.43
 -11   1  13    0.00   16.71
 -11  -1  13    6.47   15.67
 -11   1  12  144.23   36.71
 -11  -1  12   84.10   27.65
 -11   1  11    1.52    3.88
 -11  -1  11   67.49   23.05
 -11   1  10   50.26   25.32
 -11   1   9   29.04   15.73
 -11   1   8   -6.01    5.32
 -11   1   8    2.58   13.61
 -11   1   7   21.92   17.88
 -11   1   7   90.15   29.27
  11  -1  -7   22.53   27.52
 -11   1   6   29.56   18.99
 -11   1   6   21.40   19.06
  11  -1  -6    6.67   14.97
 -11   1   5   36.30   27.18
 -11   1   5   13.52   14.68
  11   1  -5   30.79   28.37
  11  -1  -5   17.42   22.59
 -11   1   4   27.53   19.79
  11   1  -4   31.77   30.66
  11  -1  -4   24.44   24.70
  11   1  -3    5.65   13.52
  11  -1  -3   35.58   29.49
  11   1  -2   11.96   18.03
  11  -1  -2  -23.47   17.63
  11   1  -1    8.79   21.81
  11  -1  -1   16.41   14.82
  11   1   0    1.46   27.60
  11  -1   0    0.85   17.78
  11   1   1   -9.57   18.84
  11  -1   1   11.91   28.25
  11   1   2    7.59   17.14
  11  -1   2   31.09   33.14
  11   1   3   15.65   40.57
  11  -1   3   35.06   35.14
  11   1   4  341.68  102.40
  11  -1   4   30.96   31.08
  11   1   5   47.48   63.71
  11  -1   5   11.52   25.09
  11  -1   6    1.11    9.43
  11   1   6    5.35   46.34
  11  -1   7    0.07   16.36
  11   1   7   -1.59   23.85
  11  -1   8    0.05    9.27
  11   1   8    0.23   12.52
  11  -1   9   42.86   38.93
  11   1   9   46.90   49.68
  11  -1  10   27.59   40.01
  11   1  10    8.93   33.41
  11  -1  11    3.84   22.13
  11   1  11   -1.19   16.70
  11  -1  12   12.83   31.95
  11   1  12  160.00   97.95
  11  -1  13   18.78   40.31
  11   1  13    6.11   35.58
 -11  -2  18    9.04   17.10
 -11   2  17   25.22   22.47
 -11  -2  17   29.63   24.79
 -11   2  16   11.28   19.97
 -11  -2  16   12.77   19.94
 -11   2  15   40.66   35.34
 -11  -2  15   17.98   23.71
 -11   2  14   40.45   27.63
 -11  -2  14   61.96   31.60
 -11   2  13    1.75    5.92
 -11  -2  13   40.22   31.83
 -11   2  12   -5.67    7.33
 -11   2  11   20.69   21.75
 -11   2  10   27.77   25.81
 -11   2   9  106.17   37.97
 -11   2   9   40.04   23.82
 -11   2   8    7.64    9.82
 -11   2   8   -0.77    5.40
  11  -2  -8   29.64   31.76
 -11   2   7   13.27   14.76
 -11   2   7   -8.80   12.51
  11  -2  -7    6.07    7.33
 -11   2   6    7.96    8.35
 -11   2   6    3.88    6.96
  11  -2  -6    2.78    3.28
 -11   2   5    1.26    5.03
 -11   2   5   13.05   18.61
 -11   2   4    4.76   10.03
 -11   2   4    1.63   16.18
  11  -2  -4    5.05   14.94
 -11   2   3   -1.82    4.82
 -11   2   3   31.54   29.20
  11   2  -3   16.37   30.62
  11  -2  -3    1.58   19.77
 -11   2   2   30.74   22.73
  11   2  -2    5.27   15.81
  11  -2  -2   21.45   33.93
 -11   2   1    5.63    5.58
  11   2  -1    6.68   33.87
  11  -2  -1   57.34   35.19
 -11   2   0    0.82    8.01
  11  -2   0   22.80   23.13
 -11   2  -1    5.54    8.82
  11   2   1   25.69   26.17
  11  -2   1    4.09   17.21
  11   2   2   57.94   62.79
  11  -2   2   -0.85    6.36
  11   2   3   -7.34   11.05
  11  -2   3    4.44   11.81
  11  -2   4   50.87   38.80
  11   2   4   12.69   23.93
  11  -2   5   39.02   46.30
  11   2   5   43.11   27.74
  11  -2   6    4.52   12.26
  11   2   6   -4.31   14.44
  11  -2   7    6.01   30.68
  11   2   7   27.30   31.15
  11  -2   8    2.37   18.66
  11   2   8   25.11   25.52
  11  -2   9   18.10   53.72
  11   2   9   14.81   26.80
  11   2  10   70.01   46.62
  11   2  11   54.72   58.62
  11   2  12   37.90   25.09
  11  -2  17   66.75   48.85
 -11   3  16   14.31   15.91
 -11  -3  16   11.71   20.53
 -11   3  15   10.93   18.94
 -11  -3  15   35.97   35.27
 -11   3  14   -0.74    8.99
 -11  -3  14   14.32   21.21
 -11   3  13   17.46   13.28
 -11   3  12  -14.89   13.36
 -11   3  11    7.27   14.43
 -11   3  11    5.29    6.70
 -11   3  10   -2.51    6.24
 -11   3  10   21.10   25.92
 -11   3   9   60.00   28.26
 -11   3   9   47.90   24.79
 -11   3   8   17.65   18.58
 -11   3   8   22.26   25.16
 -11   3   7   25.15   24.83
 -11   3   7   16.72   15.50
 -11   3   6   12.06   14.61
 -11   3   6   21.98   15.05
 -11   3   5   22.16   22.15
 -11   3   5   16.48   15.33
 -11   3   4   23.86   18.14
 -11   3   4   28.76   21.62
  11  -3  -4   29.53   22.42
 -11   3   3   34.81   30.94
  11  -3  -3   19.84   24.09
 -11   3   2   -5.72   11.69
 -11   3   2   12.69   16.14
  11  -3  -2   12.46   17.75
 -11   3   1   15.28   17.31
 -11   3   1   26.33   16.26
  11   3  -1    7.37   17.79
  11  -3  -1   65.90   59.59
 -11   3   0    2.63   25.17
 -11   3   0    6.80   14.07
  11   3   0   -0.20   12.39
  11  -3   0   -1.20    2.20
 -11   3  -1   22.84   18.21
  11   3   1    7.66   12.20
  11  -3   1    8.51   14.47
  11  -3   2    8.61   28.82
 -11   3  -2    9.52   10.36
  11   3   2   10.75   24.63
 -11   3  -3   25.38   11.46
  11   3   3   51.71   35.68
  11  -3   4    8.03   29.03
 -11   3  -4   24.17   21.45
  11   3   4   17.75   27.17
  11  -3   5    0.74   14.94
  11   3   5   18.13   24.00
  11  -3   6    3.09   10.26
  11   3   6   29.04   34.29
  11   3   7   53.74   20.73
  11   3   8   57.02   44.98
  11   3   9   54.18   57.12
  11   3  10   47.94   44.09
 -11   4  14   37.85   26.03
 -11   4  13    6.61    3.91
 -11   4  12  299.61   94.01
 -11   4  12   -5.89    5.48
 -11   4  11  145.50   60.88
 -11   4  11   25.79   23.45
 -11   4  10  -11.26   14.18
 -11   4  10    4.28   24.30
 -11   4   9    9.70   17.11
 -11   4   9   13.83   20.50
 -11   4   8   12.75   15.09
 -11   4   8   18.16   18.83
 -11   4   7   53.47   31.63
 -11   4   7   30.01   23.27
 -11   4   6   15.23   17.00
 -11   4   6    5.66    6.06
 -11   4   5   62.38   28.84
 -11   4   5   22.17   19.11
 -11   4   4   32.21   28.59
 -11   4   4   48.91   25.71
 -11   4   3   -1.22    8.41
 -11   4   3   34.10   23.21
 -11   4   2  172.11   46.21
 -11   4   2   14.40   22.98
 -11   4   1   21.28   18.59
 -11   4   1   -1.84   11.61
 -11   4   0    6.30    6.64
  11  -4   1    7.81   28.23
 -11   4  -1    8.83   27.75
  11  -4   2  -18.09   18.57
 -11   4  -2   12.41   18.62
  11   4   2    0.69   22.57
  11  -4   3   11.63   23.43
 -11   4  -3   36.47   31.50
  11   4   3  -24.58   28.81
  11  -4   4   28.77   40.59
  11   4   4   95.86   57.33
  11   4   5   71.64   57.50
  11   4   6   35.74   39.46
  11   4   7   35.67   33.95
 -11   5  13    7.34   13.87
 -11   5  13   56.62   40.30
 -11   5  12   24.72   19.34
 -11   5  12   11.07   21.06
 -11   5  11   19.39   32.19
 -11   5  11   35.87   20.98
 -11   5  10   27.60   23.55
 -11   5  10    1.01   14.64
 -11   5   9   80.71   38.88
 -11   5   9   14.43   19.20
 -11   5   8   17.31   25.93
 -11   5   8   11.73   17.45
 -11   5   7   -9.61   12.26
 -11   5   7   17.57   21.89
 -11   5   6   48.47   39.41
 -11   5   6   30.05   22.66
 -11   5   5   52.69   32.79
 -11   5   4   -3.23   10.17
 -11   5   3   50.47   39.63
 -11   5   2   19.12   25.84
 -11   5   1    6.36   19.45
 -11   5   0   35.87   45.93
 -11   5  -1   11.23   13.51
 -11   5  -2   15.51   29.21
 -12   0  15   14.07   19.57
 -12   0  14   64.43   31.57
 -12   0  13   26.17   22.19
 -12   0  12   10.13   14.75
 -12   0  11   12.86   23.25
 -12   0  10    8.84   13.01
 -12   0   9   14.13   16.12
 -12   0   8    6.94   16.06
 -12   0   7   19.04   20.52
  12   0  -6   28.09   30.11
  12   0  -5   -1.35   17.32
  12   0  -4   26.48   33.70
  12   0  -3    7.00   24.16
  12   0  -2   20.74   37.81
  12   0  -1    8.24   36.45
  12   0   0   14.41   25.55
  12   0   1   -2.85   12.50
  12   0   2    8.47    3.68
  12   0   3   31.72   47.29
  12   0   4   19.46   37.89
  12   0   5    2.76   15.07
  12   0   6  186.79   84.02
  12   0   7   21.31   36.47
  12   0   8    5.50   11.64
  12   0   9    4.43   33.18
  12   0  10   28.51   51.07
 -12   1  15   13.09   15.51
 -12   1  14    3.62    8.48
 -12  -1  14   19.58   19.95
 -12   1  13    8.24   13.61
 -12  -1  13   61.83   33.80
 -12   1  12    9.14   16.84
 -12  -1  12   23.37   18.16
 -12   1  11   13.24   13.74
 -12  -1  11   27.86   13.81
 -12   1  10    5.16    8.90
 -12  -1  10   14.48   16.34
 -12   1   9   38.82   25.00
 -12   1   8   43.93   19.28
 -12   1   7    3.27    9.68
  12  -1  -7    7.76   14.68
 -12   1   6    3.80   16.85
  12  -1  -6   32.19   30.37
 -12   1   5   12.47   16.57
  12   1  -5   17.42   33.11
 -12   1   5    7.88   14.52
  12  -1  -5    2.45   20.73
 -12   1   4   17.07   14.99
  12   1  -4    5.56    7.36
 -12   1   4   -3.39    2.68
  12  -1  -4   16.21   32.60
  12  -1  -3  894.75  115.45
  12   1  -3  -13.51   23.37
  12  -1  -2  228.84  151.44
  12   1  -2   -1.26   17.28
  12   1  -1   21.06   27.84
  12  -1  -1   -3.57   18.71
  12   1   0   -7.69   10.90
  12  -1   0   17.09   44.79
  12   1   1   16.33   31.67
  12  -1   1   14.40   23.42
  12   1   2   10.94   37.79
  12  -1   2   17.23   28.46
  12   1   3   31.64   47.69
  12  -1   3   32.72   38.94
  12   1   4    5.92   34.32
  12  -1   4   25.48   55.36
  12   1   5    3.68   21.82
  12  -1   5    5.76   25.82
  12   1   6   26.00   41.27
  12  -1   6   61.89   64.05
  12   1   7    6.10   22.46
  12  -1   7    9.00   35.02
  12   1   8   11.92   33.54
  12  -1   8    4.95   29.83
  12  -1   9    0.79   43.21
  12   1   9   17.13   46.14
  12  -1  10    9.79   20.39
 -12   2  14   -3.80    9.13
 -12   2  13    8.53   19.94
 -12  -2  13    2.88    5.51
 -12   2  12   10.78   20.44
 -12  -2  12   18.95   20.50
 -12   2  11   22.21   18.84
 -12   2  10   17.43   21.71
 -12   2   9   16.12   16.76
 -12   2   8   38.06   27.83
 -12   2   7   19.28   22.39
 -12   2   6    1.03    6.00
 -12   2   6    6.48   10.15
 -12   2   5   41.49   30.48
 -12   2   5   10.87   22.81
  12  -2  -5   -4.43   21.76
 -12   2   4   18.36   22.07
 -12   2   4   22.10   21.94
  12  -2  -4   66.92   42.39
 -12   2   3   27.20   23.95
 -12   2   3   11.26   19.07
  12   2  -3   13.89   44.95
  12  -2  -3   29.59   33.15
 -12   2   2   15.65   18.81
 -12   2   2   26.55   22.14
  12   2  -2   22.48   39.23
  12  -2  -2   15.96   31.93
 -12   2   1   13.30   14.59
  12   2  -1    4.60   19.14
  12  -2  -1    0.61   16.20
 -12   2   0    3.47   14.69
  12   2   0   15.87   49.47
  12  -2   0   17.60   26.40
 -12   2  -1   25.55   20.00
  12   2   1   -0.11   14.99
  12  -2   1   -2.19   13.20
 -12   2  -2    1.94   12.63
  12   2   2   17.07   36.91
  12  -2   2   32.48   31.83
  12   2   3   21.29   35.28
  12  -2   3   11.44   27.42
  12   2   4    2.69   14.28
  12  -2   4    6.94   34.39
  12   2   5    8.13   46.17
  12  -2   5   18.42   45.83
  12  -2   6    4.79   18.94
  12   2   6    6.42   22.25
  12  -2   7    6.48   28.66
  12   2   7   12.73   38.52
  12  -2   8   30.95   60.72
  12  -2   9   -7.37   19.19
  12  -2  10  101.00   81.94
 -12   3  13   17.28   17.35
 -12   3  12    5.33   19.46
 -12   3  11    6.32   16.59
 -12   3  10   38.79   29.53
 -12   3   9  401.16   77.91
 -12   3   8   15.99   20.23
 -12   3   8   30.38   23.10
 -12   3   7   49.39   29.78
 -12   3   7   17.52   19.69
 -12   3   6   37.92   31.85
 -12   3   6   14.55   16.14
 -12   3   5   15.60   17.91
 -12   3   5   33.49   31.27
 -12   3   4   10.25   14.62
 -12   3   4   17.67   19.06
 -12   3   3   26.75   17.38
 -12   3   3   67.90   39.75
 -12   3   2   18.53   18.93
 -12   3   2   15.50   21.52
 -12   3   1   16.86   27.44
  12   3  -1    2.43   14.35
 -12   3   1   56.53   48.11
  12  -3  -1    5.17   23.96
 -12   3   0   26.08   16.83
  12   3   0    5.86   30.66
 -12   3   0   50.91   50.06
  12  -3   0   74.81   33.25
 -12   3  -1    8.04    8.92
 -12   3  -1   17.54   22.14
  12   3   1   13.55   36.47
  12  -3   1    9.97   16.39
  12   3   2    1.35   13.26
  12  -3   2   47.24   28.29
  12   3   3   18.00   49.48
  12  -3   3   31.78   33.31
  12  -3   4    1.59   16.48
  12   3   4    6.08   27.03
  12  -3   5   12.81   28.27
  12  -3   6   13.88   20.81
  12  -3   7   -4.54   29.26
  12  -3   8    0.14   18.34
  12  -3   9   -5.77   19.31
 -12   4  11   27.62   20.90
 -12   4  10    6.71   11.20
 -12   4   9   32.80   25.12
 -12   4   9    5.93   14.60
 -12   4   8   19.95   22.88
 -12   4   8  -10.90   15.87
 -12   4   7    3.42    8.18
 -12   4   7   15.66    4.00
 -12   4   6   33.79   31.72
 -12   4   6   22.44   24.05
 -12   4   5   38.68   28.76
 -12   4   5   12.77   17.26
 -12   4   4   44.25   35.69
 -12   4   4   28.00   22.30
 -12   4   3   17.57   25.75
 -12   4   3   28.50   24.21
 -12   4   2    2.98   12.86
 -12   4   1   77.77   47.03
 -12   4   0   11.30   12.94
 -12   4  -1   32.29   39.97
 -12   4  -2    2.27    6.73
 -12   4  -3    1.90   17.18
  12  -4   4   34.46   30.21
  12  -4   5   21.46   34.92
  12  -4   6   57.72   49.29
  12  -4   7   18.57   38.10
 -12   5   9   53.58   45.78
 -12   5   8   -4.11   11.43
 -12   5   7   35.86   26.50
 -13   0  10  198.56   44.59
 -13   0   9   -0.08    9.24
 -13   0   8    8.52   15.46
 -13   0   7   17.02   20.78
  13   0  -6   10.23   28.90
  13   0  -5   58.06   65.99
  13   0  -4  186.24   66.48
  13   0  -3   50.35   58.79
  13   0  -2    1.58    9.73
  13   0  -1   31.92   39.00
  13   0   0    8.92   19.91
  13   0   1   15.42   31.64
  13   0   2   31.06   53.85
  13   0   3   -6.04   13.97
  13   0   4    8.21   66.34
  13   0   5   37.70   69.55
 -13   1  10   20.87   14.88
 -13   1   9   13.90   18.49
 -13   1   8   50.84   30.87
 -13   1   7   34.49   41.20
  13  -1  -7   37.14   36.01
 -13   1   6    1.16    6.90
  13  -1  -6    7.82   21.11
 -13   1   5   19.45   18.28
  13  -1  -5   18.56   40.52
 -13   1   4   12.56   18.91
  13   1  -4    2.76   28.70
  13  -1  -4    8.41   25.35
 -13   1   3  160.36   82.12
  13   1  -3   10.10   27.48
  13  -1  -3   78.69   94.19
  13   1  -2   47.20   68.71
  13  -1  -2    8.50   29.48
  13   1  -1    1.37   17.76
  13  -1  -1   17.81   41.77
  13   1   0   -2.79    6.43
  13  -1   0    0.22   15.10
  13   1   1    1.94   15.86
  13  -1   1    4.31   23.04
  13   1   2    9.77   45.27
  13  -1   2   27.14   46.64
  13   1   3   46.09   53.44
  13  -1   3   17.07   47.05
  13   1   4   18.94   23.76
  13  -1   4   -2.81   18.02
  13  -1   5    2.76   17.52
  13  -1   6   14.68   38.52
 -13   2  10   19.72   29.51
 -13   2   9   26.45   22.99
 -13   2   8    1.80    9.76
 -13   2   7   14.65   18.46
 -13   2   6    3.38    8.27
 -13   2   5  103.34   42.13
 -13   2   4   17.79   20.55
 -13   2   3  -12.57   15.54
 -13   2   3   19.69   29.84
  13  -2  -3    8.43   30.32
 -13   2   2    5.72   19.15
 -13   2   2   -1.09   14.54
  13   2  -2    5.99   34.10
  13  -2  -2   -4.82    7.76
 -13   2   1   11.61   19.23
 -13   2   1    5.87   18.97
  13   2  -1   44.49   49.44
  13  -2  -1    3.92   20.02
 -13   2   0   21.46   26.36
  13   2   0   20.10   24.17
  13   2   1   -7.10   22.57
  13  -2   1    2.27   18.45
 -13   2  -2   23.57   21.62
  13  -2   2    6.98   24.41
 -13   2  -3   31.72   23.18
  13  -2   3    7.74   24.83
  13  -2   4    7.27   24.91
  13  -2   5   -7.45   20.90
  13  -2   6   18.61   40.53
 -13   3   9   68.81   37.10
 -13   3   8   31.65   29.54
 -13   3   7   -4.32   10.36
 -13   3   6   35.93   22.35
 -13   3   5  255.42   69.54
 -13   3   5    2.88   13.97
 -13   3   4    5.44   14.41
 -13   3   4   29.53   29.85
 -13   3   3    2.95   10.23
 -13   3   3    8.53   10.18
 -13   3   2   26.21   32.47
 -13   3   2   24.55   30.67
 -13   3   1    5.01   16.29
 -13   3   1  -10.99    4.17
 -13   3   0    5.30   10.18
 -13   3  -1   20.26   29.72
  13  -3   2   40.42   44.52
  13  -3   3   25.17   39.09
  13  -3   4    1.28    8.01
  13  -3   5   36.47   49.62
 -13   4   8   71.87   45.52
 -13   4   7   12.30   20.96
 -13   4   6   63.41   41.63
 -13   4   5   34.77   27.00
 -13   4   4   85.40   46.62
 -13   4   3   74.65   55.38
  14   0  -5   27.03   39.67
  14   0  -4   35.15   62.23
  14   0  -3    4.26   24.51
  14   0  -2   65.26   57.16
  14   0  -1   -3.65    8.90
  14  -1  -4    3.90   40.13
  14  -1  -3   14.35   23.21
 -14   1   2   39.72   49.35
  14  -1  -2    8.02   23.04
 -14   1   1   -3.11   10.56
  14  -1  -1   35.21   45.19
  14  -1   0   31.34   50.32
  14  -1   1   18.39   44.61
 -14   2   3    3.49    2.59
 -14   2   2   -1.84   10.37
 -14   2   1   -2.73   14.78
 -14   2   0   18.46   15.61
   0   0   0    0.00    0.00


TITL 436-4-1 in P2(1)/n
REM P2(1)/n (#14 in standard setting)
CELL 0.71073  10.646142   7.069556  23.380797  90.0000  95.8967  90.0000
ZERR   25.00   0.001086   0.000602   0.002505   0.0000   0.0094   0.0000
LATT  1
SYMM -x+1/2, y+1/2,-z+1/2
SFAC C H N O S
UNIT 25.00 25.00 25.00 25.00 25.00
TREF
HKLF 4
END
_computing_structure_solution     'SHELXT 2014/5 (Sheldrick, 2014)'
;
_shelx_hkl_checksum              78125
loop_
_space_group_symop_operation_xyz
'x, y, z'
'-x+1/2, y+1/2, -z+1/2'
'-x, -y, -z'
'x-1/2, -y-1/2, z-1/2'
loop_
_atom_site_label
_atom_site_type_symbol
_atom_site_fract_x
_atom_site_fract_y
_atom_site_fract_z
_atom_site_U_iso_or_equiv
_atom_site_adp_type
_atom_site_occupancy
_atom_site_site_symmetry_order
_atom_site_calc_flag
_atom_site_refinement_flags_posn
_atom_site_refinement_flags_adp
S8 S 0.90095(14) 0.91908(17) 0.58664(6) 0.0369(4) Uani 1 1 d . .
O19 O 0.7213(3) 0.3209(4) 0.66513(14) 0.0402(10) Uani 1 1 d . .
O20 O 0.8903(3) 1.0944(4) 0.55490(15) 0.0572(12) Uani 1 1 d . .
O21 O 1.0239(3) 0.8688(5) 0.61256(15) 0.0577(11) Uani 1 1 d . .
N9 N 0.7969(3) 0.9160(5) 0.63414(15) 0.0287(10) Uani 1 1 d . .
H9 H 0.8020 0.9910 0.6633 0.034 Uiso 1 1 calc R U
C7 C 0.8321(4) 0.7298(6) 0.5472(2) 0.0246(12) Uani 1 1 d . .
C2 C 0.7265(4) 0.6675(6) 0.57076(18) 0.0226(11) Uani 1 1 d . .
C22 C 0.9025(5) 0.5003(6) 0.6959(2) 0.0273(12) Uani 1 1 d . .
C1 C 0.6939(4) 0.7755(5) 0.6233(2) 0.0246(12) Uani 1 1 d . .
C13 C 0.3521(5) 0.8261(7) 0.6342(2) 0.0401(14) Uani 1 1 d . .
H13 H 0.2917 0.7612 0.6525 0.048 Uiso 1 1 calc R U
C17 C 0.5656(4) 0.8652(6) 0.6129(2) 0.0271(12) Uani 1 1 d . .
C6 C 0.8736(5) 0.6508(6) 0.4981(2) 0.0353(14) Uani 1 1 d . .
H6 H 0.9444 0.6965 0.4824 0.042 Uiso 1 1 calc R U
C10 C 0.6790(4) 0.6486(6) 0.67740(19) 0.0266(12) Uani 1 1 d . .
H10 H 0.7043 0.7249 0.7117 0.032 Uiso 1 1 calc R U
C18 C 0.7658(5) 0.4757(7) 0.67929(19) 0.0309(13) Uani 1 1 d . .
C12 C 0.4761(5) 0.7690(6) 0.6416(2) 0.0284(12) Uani 1 1 d . .
C4 C 0.6988(5) 0.4351(6) 0.4963(2) 0.0368(14) Uani 1 1 d . .
H4 H 0.6541 0.3339 0.4789 0.044 Uiso 1 1 calc R U
C16 C 0.5327(5) 1.0192(6) 0.5784(2) 0.0352(14) Uani 1 1 d . .
H16 H 0.5935 1.0834 0.5601 0.042 Uiso 1 1 calc R U
C15 C 0.4077(5) 1.0768(6) 0.5716(2) 0.0382(14) Uani 1 1 d . .
H15 H 0.3839 1.1803 0.5484 0.046 Uiso 1 1 calc R U
C5 C 0.8039(5) 0.5004(6) 0.4737(2) 0.0395(14) Uani 1 1 d . .
H5 H 0.8293 0.4424 0.4411 0.047 Uiso 1 1 calc R U
C23 C 0.9515(5) 0.6248(6) 0.7372(2) 0.0394(14) Uani 1 1 d . .
H23 H 0.8972 0.7054 0.7542 0.047 Uiso 1 1 calc R U
C3 C 0.6578(5) 0.5178(6) 0.5449(2) 0.0319(13) Uani 1 1 d . .
H3 H 0.5856 0.4738 0.5599 0.038 Uiso 1 1 calc R U
C11 C 0.5380(4) 0.6092(6) 0.6763(2) 0.0359(14) Uani 1 1 d . .
H11A H 0.5165 0.4883 0.6583 0.043 Uiso 1 1 calc R U
H11B H 0.5124 0.6086 0.7150 0.043 Uiso 1 1 calc R U
C27 C 0.9854(5) 0.3831(7) 0.6695(2) 0.0443(15) Uani 1 1 d . .
H27 H 0.9548 0.2977 0.6411 0.053 Uiso 1 1 calc R U
C14 C 0.3168(5) 0.9796(7) 0.5995(2) 0.0432(15) Uani 1 1 d . .
H14 H 0.2329 1.0182 0.5948 0.052 Uiso 1 1 calc R U
C24 C 1.0793(5) 0.6336(7) 0.7540(2) 0.0495(16) Uani 1 1 d . .
H24 H 1.1103 0.7176 0.7827 0.059 Uiso 1 1 calc R U
C25 C 1.1605(5) 0.5177(7) 0.7283(3) 0.0513(16) Uani 1 1 d . .
H25 H 1.2469 0.5220 0.7396 0.062 Uiso 1 1 calc R U
C26 C 1.1134(6) 0.3962(7) 0.6861(2) 0.0554(17) Uani 1 1 d . .
H26 H 1.1688 0.3203 0.6681 0.066 Uiso 1 1 calc R U
loop_
_atom_site_aniso_label
_atom_site_aniso_U_11
_atom_site_aniso_U_22
_atom_site_aniso_U_33
_atom_site_aniso_U_23
_atom_site_aniso_U_13
_atom_site_aniso_U_12
S8 0.0325(9) 0.0312(8) 0.0483(9) -0.0025(7) 0.0102(7) -0.0104(7)
O19 0.045(3) 0.024(2) 0.053(3) 0.0011(18) 0.0091(19) -0.0078(18)
O20 0.085(3) 0.0199(19) 0.071(3) 0.0050(19) 0.032(2) -0.0170(19)
O21 0.017(2) 0.086(3) 0.069(3) -0.013(2) -0.0015(19) -0.004(2)
N9 0.028(3) 0.031(2) 0.028(3) -0.0137(19) 0.006(2) -0.0094(19)
C7 0.022(3) 0.020(3) 0.032(3) 0.002(2) 0.003(2) 0.000(2)
C2 0.027(3) 0.018(3) 0.022(3) -0.004(2) 0.001(2) 0.001(2)
C22 0.029(3) 0.024(3) 0.029(3) 0.002(2) 0.000(3) 0.001(2)
C1 0.025(3) 0.014(3) 0.035(3) 0.003(2) 0.004(2) -0.002(2)
C13 0.037(4) 0.038(3) 0.047(4) -0.010(3) 0.011(3) -0.006(3)
C17 0.027(3) 0.024(3) 0.031(3) -0.004(2) 0.008(3) 0.001(2)
C6 0.031(3) 0.039(3) 0.038(4) 0.006(3) 0.015(3) 0.003(3)
C10 0.025(3) 0.023(3) 0.032(3) 0.000(2) 0.002(2) 0.005(2)
C18 0.043(4) 0.031(3) 0.020(3) 0.003(2) 0.008(3) 0.002(3)
C12 0.028(3) 0.025(3) 0.032(3) -0.001(2) 0.006(3) 0.003(2)
C4 0.037(4) 0.032(3) 0.041(4) -0.002(3) -0.001(3) -0.005(3)
C16 0.033(4) 0.027(3) 0.046(4) -0.007(3) 0.005(3) 0.001(2)
C15 0.037(4) 0.027(3) 0.051(4) 0.006(3) 0.003(3) 0.012(3)
C5 0.048(4) 0.033(3) 0.038(4) -0.008(3) 0.008(3) 0.009(3)
C23 0.044(4) 0.039(3) 0.037(3) -0.008(3) 0.007(3) 0.006(3)
C3 0.038(3) 0.025(3) 0.034(3) -0.001(2) 0.012(3) -0.005(3)
C11 0.035(4) 0.034(3) 0.041(3) 0.000(3) 0.014(3) -0.002(3)
C27 0.043(4) 0.033(3) 0.057(4) -0.006(3) 0.006(3) 0.004(3)
C14 0.035(4) 0.042(3) 0.052(4) -0.014(3) 0.004(3) 0.006(3)
C24 0.039(4) 0.050(4) 0.056(4) -0.008(3) -0.012(3) -0.004(3)
C25 0.034(4) 0.054(4) 0.063(5) 0.013(3) -0.006(3) 0.001(3)
C26 0.054(5) 0.051(4) 0.063(5) -0.006(3) 0.014(4) 0.007(3)
loop_
_atom_type_symbol
_atom_type_description
_atom_type_scat_dispersion_real
_atom_type_scat_dispersion_imag
_atom_type_scat_source
C C 0.0033 0.0016 'International Tables Vol C Tables 4.2.6.8 and 6.1.1.4'
H H 0.0000 0.0000 'International Tables Vol C Tables 4.2.6.8 and 6.1.1.4'
N N 0.0061 0.0033 'International Tables Vol C Tables 4.2.6.8 and 6.1.1.4'
O O 0.0106 0.0060 'International Tables Vol C Tables 4.2.6.8 and 6.1.1.4'
S S 0.1246 0.1234 'International Tables Vol C Tables 4.2.6.8 and 6.1.1.4'
loop_
_geom_angle_atom_site_label_1
_geom_angle_atom_site_label_2
_geom_angle_atom_site_label_3
_geom_angle
O21 S8 O20 116.8(2)
O21 S8 N9 111.1(2)
O20 S8 N9 109.6(2)
O21 S8 C7 110.5(2)
O20 S8 C7 112.4(2)
N9 S8 C7 94.1(2)
C1 N9 S8 115.5(3)
C1 N9 H9 122.2
S8 N9 H9 122.2
C2 C7 C6 123.0(4)
C2 C7 S8 110.6(3)
C6 C7 S8 126.4(4)
C7 C2 C3 119.1(4)
C7 C2 C1 115.3(4)
C3 C2 C1 125.6(4)
C23 C22 C27 118.7(5)
C23 C22 C18 123.6(5)
C27 C22 C18 117.6(5)
N9 C1 C17 112.9(3)
N9 C1 C2 104.4(3)
C17 C1 C2 111.1(4)
N9 C1 C10 112.3(4)
C17 C1 C10 101.9(3)
C2 C1 C10 114.5(3)
C12 C13 C14 120.3(5)
C12 C13 H13 119.8
C14 C13 H13 119.8
C16 C17 C12 121.4(5)
C16 C17 C1 126.9(4)
C12 C17 C1 111.7(4)
C5 C6 C7 116.6(4)
C5 C6 H6 121.7
C7 C6 H6 121.7
C11 C10 C18 116.4(4)
C11 C10 C1 105.8(4)
C18 C10 C1 111.7(3)
C11 C10 H10 107.5
C18 C10 H10 107.5
C1 C10 H10 107.5
O19 C18 C22 121.3(4)
O19 C18 C10 119.4(5)
C22 C18 C10 119.3(4)
C13 C12 C17 119.3(5)
C13 C12 C11 130.6(5)
C17 C12 C11 110.1(4)
C5 C4 C3 120.9(5)
C5 C4 H4 119.5
C3 C4 H4 119.5
C17 C16 C15 118.8(5)
C17 C16 H16 120.6
C15 C16 H16 120.6
C16 C15 C14 120.2(5)
C16 C15 H15 119.9
C14 C15 H15 119.9
C4 C5 C6 121.6(5)
C4 C5 H5 119.2
C6 C5 H5 119.2
C22 C23 C24 121.6(5)
C22 C23 H23 119.2
C24 C23 H23 119.2
C4 C3 C2 118.8(4)
C4 C3 H3 120.6
C2 C3 H3 120.6
C12 C11 C10 104.3(4)
C12 C11 H11A 110.9
C10 C11 H11A 110.9
C12 C11 H11B 110.9
C10 C11 H11B 110.9
H11A C11 H11B 108.9
C26 C27 C22 119.0(5)
C26 C27 H27 120.5
C22 C27 H27 120.5
C13 C14 C15 119.9(5)
C13 C14 H14 120.1
C15 C14 H14 120.1
C25 C24 C23 119.7(5)
C25 C24 H24 120.2
C23 C24 H24 120.2
C26 C25 C24 119.4(6)
C26 C25 H25 120.3
C24 C25 H25 120.3
C25 C26 C27 121.7(5)
C25 C26 H26 119.2
C27 C26 H26 119.2
loop_
_geom_bond_atom_site_label_1
_geom_bond_atom_site_label_2
_geom_bond_distance
S8 O21 1.430(4)
S8 O20 1.443(3)
S8 N9 1.647(3)
S8 C7 1.743(4)
O19 C18 1.224(5)
N9 C1 1.482(5)
N9 H9 0.8600
C7 C2 1.374(5)
C7 C6 1.389(6)
C2 C3 1.389(6)
C2 C1 1.518(5)
C22 C23 1.370(6)
C22 C27 1.400(6)
C22 C18 1.478(6)
C1 C17 1.503(6)
C1 C10 1.571(5)
C13 C12 1.374(6)
C13 C14 1.383(6)
C13 H13 0.9300
C17 C16 1.378(6)
C17 C12 1.397(6)
C6 C5 1.386(6)
C6 H6 0.9300
C10 C11 1.524(6)
C10 C18 1.530(6)
C10 H10 0.9800
C12 C11 1.503(6)
C4 C5 1.366(6)
C4 C3 1.387(6)
C4 H4 0.9300
C16 C15 1.386(6)
C16 H16 0.9300
C15 C14 1.402(6)
C15 H15 0.9300
C5 H5 0.9300
C23 C24 1.378(7)
C23 H23 0.9300
C3 H3 0.9300
C11 H11A 0.9700
C11 H11B 0.9700
C27 C26 1.380(7)
C27 H27 0.9300
C14 H14 0.9300
C24 C25 1.375(6)
C24 H24 0.9300
C25 C26 1.365(7)
C25 H25 0.9300
C26 H26 0.9300
loop_
_geom_torsion_atom_site_label_1
_geom_torsion_atom_site_label_2
_geom_torsion_atom_site_label_3
_geom_torsion_atom_site_label_4
_geom_torsion
O21 S8 N9 C1 -116.8(3)
O20 S8 N9 C1 112.6(3)
C7 S8 N9 C1 -3.0(3)
O21 S8 C7 C2 115.6(4)
O20 S8 C7 C2 -111.9(4)
N9 S8 C7 C2 1.2(4)
O21 S8 C7 C6 -65.5(5)
O20 S8 C7 C6 66.9(5)
N9 S8 C7 C6 -179.9(4)
C6 C7 C2 C3 0.5(7)
S8 C7 C2 C3 179.4(3)
C6 C7 C2 C1 -178.1(4)
S8 C7 C2 C1 0.8(5)
S8 N9 C1 C17 -117.2(4)
S8 N9 C1 C2 3.6(4)
S8 N9 C1 C10 128.2(3)
C7 C2 C1 N9 -2.7(5)
C3 C2 C1 N9 178.8(4)
C7 C2 C1 C17 119.4(4)
C3 C2 C1 C17 -59.2(6)
C7 C2 C1 C10 -125.9(4)
C3 C2 C1 C10 55.6(6)
N9 C1 C17 C16 44.6(6)
C2 C1 C17 C16 -72.3(6)
C10 C1 C17 C16 165.3(4)
N9 C1 C17 C12 -137.3(4)
C2 C1 C17 C12 105.8(4)
C10 C1 C17 C12 -16.6(5)
C2 C7 C6 C5 -1.2(7)
S8 C7 C6 C5 -179.9(3)
N9 C1 C10 C11 145.3(4)
C17 C1 C10 C11 24.2(4)
C2 C1 C10 C11 -95.8(4)
N9 C1 C10 C18 -87.1(5)
C17 C1 C10 C18 151.8(4)
C2 C1 C10 C18 31.7(5)
C23 C22 C18 O19 -145.5(5)
C27 C22 C18 O19 31.6(7)
C23 C22 C18 C10 37.1(7)
C27 C22 C18 C10 -145.9(4)
C11 C10 C18 O19 18.8(6)
C1 C10 C18 O19 -102.8(5)
C11 C10 C18 C22 -163.8(4)
C1 C10 C18 C22 74.6(5)
C14 C13 C12 C17 -1.3(7)
C14 C13 C12 C11 -179.9(5)
C16 C17 C12 C13 1.7(7)
C1 C17 C12 C13 -176.5(4)
C16 C17 C12 C11 -179.4(4)
C1 C17 C12 C11 2.4(5)
C12 C17 C16 C15 -1.2(7)
C1 C17 C16 C15 176.8(4)
C17 C16 C15 C14 0.2(7)
C3 C4 C5 C6 0.0(8)
C7 C6 C5 C4 0.9(7)
C27 C22 C23 C24 -1.6(8)
C18 C22 C23 C24 175.4(5)
C5 C4 C3 C2 -0.8(7)
C7 C2 C3 C4 0.5(7)
C1 C2 C3 C4 179.0(4)
C13 C12 C11 C10 -167.7(5)
C17 C12 C11 C10 13.5(5)
C18 C10 C11 C12 -148.0(4)
C1 C10 C11 C12 -23.3(4)
C23 C22 C27 C26 0.3(7)
C18 C22 C27 C26 -176.8(5)
C12 C13 C14 C15 0.3(7)
C16 C15 C14 C13 0.2(7)
C22 C23 C24 C25 1.2(8)
C23 C24 C25 C26 0.4(8)
C24 C25 C26 C27 -1.7(8)
C22 C27 C26 C25 1.3(8)
