#------------------------------------------------------------------------------
#$Date: 2017-11-07 03:23:43 +0200 (Tue, 07 Nov 2017) $
#$Revision: 202831 $
#$URL: file:///home/coder/svn-repositories/cod/cif/1/54/75/1547512.cif $
#------------------------------------------------------------------------------
#
# This file is available in the Crystallography Open Database (COD),
# http://www.crystallography.net/
#
# All data on this site have been placed in the public domain by the
# contributors.
#
data_1547512
loop_
_publ_author_name
'Mandal, Debdeep'
'Dolai, Ramapada'
'Chrysochos, Nicolas'
'Kalita, Pankaj'
'Kumar, Ravi'
'Dhara, Debabrata'
'Maiti, Avijit'
'Narayanan, Ramakirushnan Suriya'
'Rajaraman, Gopalan'
'Schulzke, Carola'
'Chandrasekhar, Vadapalli'
'Jana, Anukul'
_publ_section_title
;
 Stepwise Reversible Oxidation of N-Peralkyl-Substituted NHC-CAAC Derived
 Triazaalkenes: Isolation of Radical Cations and Dications.
;
_journal_issue                   20
_journal_name_full               'Organic letters'
_journal_page_first              5605
_journal_page_last               5608
_journal_paper_doi               10.1021/acs.orglett.7b02721
_journal_volume                  19
_journal_year                    2017
_chemical_formula_sum            'C20 H33 F6 N3 O6 S2'
_chemical_formula_weight         589.61
_space_group_crystal_system      monoclinic
_space_group_IT_number           14
_space_group_name_Hall           '-P 2ybc'
_space_group_name_H-M_alt        'P 1 21/c 1'
_symmetry_space_group_name_Hall  '-P 2ybc'
_symmetry_space_group_name_H-M   'P 1 21/c 1'
_atom_sites_solution_hydrogens   geom
_audit_creation_method           SHELXL-2016/4
_cell_angle_alpha                90
_cell_angle_beta                 110.805(6)
_cell_angle_gamma                90
_cell_formula_units_Z            4
_cell_length_a                   15.6706(9)
_cell_length_b                   12.5278(6)
_cell_length_c                   14.3707(8)
_cell_measurement_reflns_used    8116
_cell_measurement_temperature    100(2)
_cell_measurement_theta_max      29.1150
_cell_measurement_theta_min      3.5580
_cell_volume                     2637.3(3)
_computing_structure_refinement  'SHELXL-2016/4 (Sheldrick, 2016)'
_computing_structure_solution    'SHELXT 2014/5 (Sheldrick, 2014)'
_diffrn_ambient_temperature      100(2)
_diffrn_measured_fraction_theta_full 0.995
_diffrn_measured_fraction_theta_max 0.995
_diffrn_measurement_device_type  'SuperNova, Dual, Cu at zero, Eos'
_diffrn_measurement_method       '\w scans'
_diffrn_radiation_type           MoK\a
_diffrn_radiation_wavelength     0.71073
_diffrn_reflns_av_R_equivalents  0.0223
_diffrn_reflns_av_unetI/netI     0.0257
_diffrn_reflns_Laue_measured_fraction_full 0.995
_diffrn_reflns_Laue_measured_fraction_max 0.995
_diffrn_reflns_limit_h_max       17
_diffrn_reflns_limit_h_min       -18
_diffrn_reflns_limit_k_max       14
_diffrn_reflns_limit_k_min       -14
_diffrn_reflns_limit_l_max       17
_diffrn_reflns_limit_l_min       -17
_diffrn_reflns_number            12397
_diffrn_reflns_point_group_measured_fraction_full 0.995
_diffrn_reflns_point_group_measured_fraction_max 0.995
_diffrn_reflns_theta_full        25.026
_diffrn_reflns_theta_max         25.026
_diffrn_reflns_theta_min         4.097
_exptl_absorpt_coefficient_mu    0.285
_exptl_absorpt_correction_T_max  1.00
_exptl_absorpt_correction_T_min  0.75730
_exptl_absorpt_correction_type   multi-scan
_exptl_absorpt_process_details
;
CrysAlisPro 1.171.38.43d (Rigaku Oxford Diffraction, 2015)
Empirical absorption correction using spherical harmonics,
 implemented in SCALE3 ABSPACK scaling algorithm.
;
_exptl_crystal_colour            colorless
_exptl_crystal_density_diffrn    1.485
_exptl_crystal_description       block
_exptl_crystal_F_000             1232
_exptl_crystal_size_max          0.24
_exptl_crystal_size_mid          0.20
_exptl_crystal_size_min          0.11
_refine_diff_density_max         0.337
_refine_diff_density_min         -0.353
_refine_diff_density_rms         0.046
_refine_ls_extinction_method     none
_refine_ls_goodness_of_fit_ref   1.033
_refine_ls_hydrogen_treatment    constr
_refine_ls_matrix_type           full
_refine_ls_number_parameters     344
_refine_ls_number_reflns         4632
_refine_ls_number_restraints     0
_refine_ls_restrained_S_all      1.033
_refine_ls_R_factor_all          0.0365
_refine_ls_R_factor_gt           0.0334
_refine_ls_shift/su_max          0.001
_refine_ls_shift/su_mean         0.000
_refine_ls_structure_factor_coef Fsqd
_refine_ls_weighting_details
'w=1/[\s^2^(Fo^2^)+(0.0364P)^2^+1.6764P] where P=(Fo^2^+2Fc^2^)/3'
_refine_ls_weighting_scheme      calc
_refine_ls_wR_factor_gt          0.0816
_refine_ls_wR_factor_ref         0.0836
_reflns_Friedel_coverage         0.000
_reflns_number_gt                4237
_reflns_number_total             4632
_reflns_threshold_expression     'I > 2\s(I)'
_cod_data_source_file            ol7b02721_si_002.cif
_cod_data_source_block           dm463
_cod_depositor_comments
'Adding full bibliography for 1547507--1547513.cif.'
_cod_database_code               1547512
_shelx_shelxl_version_number     2016/4
_shelx_space_group_comment
;
The symmetry employed for this shelxl refinement is uniquely defined
by the following loop, which should always be used as a source of
symmetry information in preference to the above space-group names.
They are only intended as comments.
;
_shelx_res_file
;
TITL dm463_a.res in P2(1)/c
 shelx.res created by SHELXL-2016/4 at 11:25:41 on 11-Mar-2017
REM Old TITL DM463 in P21/c #14
REM SHELXT solution in P2(1)/c
REM R1 0.226, Rweak 0.108, Alpha 0.032, Orientation as input
REM Formula found by SHELXT: C32 N3 Si2
CELL 0.71073 15.670586 12.527802 14.370685 90 110.8049 90
ZERR 4 0.000881 0.000599 0.000807 0 0.0063 0
LATT 1
SYMM -X,0.5+Y,0.5-Z
SFAC C H F N O S
UNIT 80 132 24 12 24 8

L.S. 20
PLAN  2
TEMP -173(2)
BOND $H
LIST 6
MORE -1
CONF
fmap 2
acta 52
SHEL 5 0.84
REM <olex2.extras>
REM <HklSrc "%.\\DM463.hkl">
REM </olex2.extras>

WGHT    0.036400    1.676400
FVAR       0.45036
S1    6    0.945857    0.805825    0.566437    11.00000    0.02172    0.01778 =
         0.01675    0.00094    0.00529   -0.00052
S2    6    0.519296    0.154954    0.770049    11.00000    0.02540    0.01946 =
         0.02255    0.00437    0.00501   -0.00130
F1    3    0.889261    0.999024    0.507227    11.00000    0.05759    0.02089 =
         0.05160    0.01234    0.03249    0.00647
F2    3    0.816457    0.923985    0.589403    11.00000    0.06031    0.02987 =
         0.05168    0.00589    0.04208    0.01278
F4    3    0.528935    0.066480    0.610005    11.00000    0.05505    0.05193 =
         0.02834    0.00433    0.02215    0.00058
F3    3    0.791344    0.877954    0.438890    11.00000    0.03031    0.05466 =
         0.04189   -0.00624   -0.00272    0.01522
O3    5    0.984325    0.806976    0.490737    11.00000    0.03249    0.03942 =
         0.03354    0.01249    0.01981    0.01278
O6    5    0.496872    0.113286    0.851056    11.00000    0.05065    0.02818 =
         0.03057    0.00527    0.02145    0.00458
F6    3    0.563586   -0.037536    0.735815    11.00000    0.10257    0.03156 =
         0.04317    0.00787    0.03056    0.02581
F5    3    0.424517    0.002782    0.655417    11.00000    0.06157    0.06682 =
         0.05484   -0.02526    0.02326   -0.04225
N1    4    0.817784    0.607124    0.697750    11.00000    0.01888    0.01557 =
         0.01481   -0.00031    0.00511   -0.00123
O2    5    0.897216    0.711045    0.570207    11.00000    0.04158    0.01792 =
         0.05714    0.00300    0.02925   -0.00081
O5    5    0.456028    0.229519    0.707207    11.00000    0.04116    0.03053 =
         0.03912    0.01334    0.00964    0.00991
O4    5    0.613732    0.182620    0.796595    11.00000    0.02743    0.04585 =
         0.04032    0.00109    0.00112   -0.01295
N3    4    0.756516    0.355645    0.621884    11.00000    0.01332    0.01565 =
         0.01603   -0.00092    0.00386    0.00139
N2    4    0.695409    0.606790    0.566253    11.00000    0.01430    0.01579 =
         0.01921    0.00045    0.00472   -0.00030
O1    5    1.002552    0.846591    0.660916    11.00000    0.05263    0.04039 =
         0.02565   -0.00496   -0.01004    0.00235
C4    1    0.786573    0.439310    0.593158    11.00000    0.01079    0.01748 =
         0.01385   -0.00147   -0.00015   -0.00162
C1    1    0.767502    0.548623    0.620080    11.00000    0.01398    0.01504 =
         0.01559    0.00064    0.00523   -0.00079
C3    1    0.699253    0.704414    0.611486    11.00000    0.02222    0.01438 =
         0.02457    0.00200    0.01320    0.00062
C2    1    0.776140    0.704845    0.693961    11.00000    0.02606    0.01444 =
         0.02006   -0.00034    0.01314   -0.00029
C16   1    0.703236    0.346412    0.689568    11.00000    0.01905    0.01900 =
         0.01926    0.00177    0.01100    0.00016
AFIX  13
H16   2    0.700116    0.268587    0.703497    11.00000   -1.20000
AFIX   0
C12   1    0.907273    0.579208    0.770167    11.00000    0.02107    0.02408 =
         0.01821   -0.00189   -0.00024    0.00012
AFIX 137
H12A  2    0.915924    0.501749    0.769907    11.00000   -1.50000
H12B  2    0.910920    0.602106    0.836681    11.00000   -1.50000
H12C  2    0.954993    0.615047    0.752481    11.00000   -1.50000
AFIX   0
C10   1    0.942760    0.435489    0.588768    11.00000    0.01693    0.02545 =
         0.02642   -0.00233    0.01096   -0.00210
AFIX 137
H10A  2    0.953272    0.512157    0.601117    11.00000   -1.50000
H10B  2    0.980158    0.409218    0.551554    11.00000   -1.50000
H10C  2    0.959492    0.397623    0.652432    11.00000   -1.50000
AFIX   0
C7    1    0.781760    0.253533    0.581189    11.00000    0.01886    0.01429 =
         0.02457   -0.00468    0.00940    0.00090
C5    1    0.841312    0.415819    0.527875    11.00000    0.01804    0.01977 =
         0.02024   -0.00349    0.00883   -0.00237

C19   1    0.856232    0.906588    0.523697    11.00000    0.03294    0.02290 =
         0.02679   -0.00014    0.01705    0.00285
C9    1    0.697258    0.185466    0.532603    11.00000    0.02572    0.02044 =
         0.02439   -0.00405    0.00729   -0.00436
AFIX 137
H9A   2    0.672180    0.163108    0.583032    11.00000   -1.50000
H9B   2    0.713704    0.122255    0.502464    11.00000   -1.50000
H9C   2    0.651421    0.227160    0.480994    11.00000   -1.50000
AFIX   0
C6    1    0.817998    0.297992    0.503133    11.00000    0.02218    0.02312 =
         0.02569   -0.00646    0.01144   -0.00207
AFIX  23
H6A   2    0.771142    0.290976    0.435719    11.00000   -1.20000
H6B   2    0.873121    0.258183    0.504881    11.00000   -1.20000
AFIX   0
C11   1    0.812589    0.485128    0.434302    11.00000    0.02779    0.03105 =
         0.02014   -0.00081    0.01000   -0.00226
AFIX 137
H11A  2    0.748377    0.471332    0.394547    11.00000   -1.50000
H11B  2    0.850593    0.467903    0.394945    11.00000   -1.50000
H11C  2    0.820375    0.560601    0.453399    11.00000   -1.50000
AFIX   0
C14   1    0.628063    0.786836    0.569043    11.00000    0.02692    0.02044 =
         0.03850    0.00521    0.01403    0.00749
AFIX 137
H14A  2    0.622305    0.801650    0.500110    11.00000   -1.50000
H14B  2    0.645296    0.852416    0.608480    11.00000   -1.50000
H14C  2    0.569546    0.760905    0.570490    11.00000   -1.50000
AFIX   0
C15   1    0.621752    0.573852    0.475330    11.00000    0.01839    0.02366 =
         0.02432    0.00086   -0.00182    0.00073
AFIX 137
H15A  2    0.633745    0.501447    0.457240    11.00000   -1.50000
H15B  2    0.618506    0.623129    0.421212    11.00000   -1.50000
H15C  2    0.563644    0.574907    0.486604    11.00000   -1.50000
AFIX   0
C17   1    0.748725    0.400080    0.789227    11.00000    0.03315    0.02845 =
         0.02028   -0.00090    0.01309   -0.00480
AFIX 137
H17A  2    0.813329    0.379890    0.816218    11.00000   -1.50000
H17B  2    0.718761    0.377418    0.835303    11.00000   -1.50000
H17C  2    0.743570    0.477719    0.780754    11.00000   -1.50000
AFIX   0

C20   1    0.508464    0.040986    0.689036    11.00000    0.03853    0.02948 =
         0.02478    0.00254    0.01283   -0.00456
C13   1    0.816225    0.789561    0.768705    11.00000    0.04885    0.01887 =
         0.02147   -0.00478    0.01053   -0.00144
AFIX 137
H13A  2    0.825107    0.762083    0.835349    11.00000   -1.50000
H13B  2    0.774890    0.851033    0.754515    11.00000   -1.50000
H13C  2    0.875192    0.811598    0.765689    11.00000   -1.50000
AFIX   0
C18   1    0.606208    0.382760    0.636004    11.00000    0.01854    0.03121 =
         0.03050    0.00586    0.01327    0.00334
AFIX 137
H18A  2    0.604251    0.460918    0.633219    11.00000   -1.50000
H18B  2    0.567416    0.357070    0.671826    11.00000   -1.50000
H18C  2    0.583987    0.353882    0.568206    11.00000   -1.50000
AFIX   0
C8    1    0.852414    0.195528    0.666458    11.00000    0.02726    0.02071 =
         0.03091   -0.00094    0.00443    0.00665
AFIX 137
H8A   2    0.903889    0.243384    0.698918    11.00000   -1.50000
H8B   2    0.874136    0.132679    0.640837    11.00000   -1.50000
H8C   2    0.824957    0.172970    0.714818    11.00000   -1.50000
AFIX   0
HKLF 4




REM  dm463_a.res in P2(1)/c
REM R1 =  0.0334 for    4237 Fo > 4sig(Fo)  and  0.0365 for all    4632 data
REM    344 parameters refined using      0 restraints

END

WGHT      0.0366      1.7170

REM Highest difference peak  0.337,  deepest hole -0.353,  1-sigma level  0.046
Q1    1   0.8777  0.9324  0.6417  11.00000  0.05    0.34
Q2    1   0.8076  0.2226  0.6274  11.00000  0.05    0.31
;
_shelx_res_checksum              2495
_shelx_hkl_file
;
   3   0   0 7030.01  111.25
   4   0   0 1826.53   30.82
   5   0   0  736.61   14.33
   6   0   0  267.31    7.09
   7   0   0  732.98   15.43
   8   0   0   60.97    3.40
   9   0   0  290.97    8.82
  10   0   0  733.47   17.11
  11   0   0   86.09    4.91
  12   0   0  189.03    7.98
  13   0   0  192.05    8.33
 -13   0   0  182.72    6.21
 -14   0   0   10.58    1.47
 -14   0   0    9.81    1.90
  14   0   0   10.64    2.16
 -15   0   0   66.50    4.91
 -16   0   0  110.98    6.62
 -17   0   0  137.24    7.79
 -18   0   0   10.61    2.42
  -2   1   0 1397.38   23.11
   2  -1   0 1454.48   23.34
  -3   1   0 1282.23   20.14
  -3   1   0 1261.49   20.75
   3  -1   0 1274.58   21.20
   3   1   0 1293.40   20.14
   4   1   0  402.92    7.04
  -4   1   0  426.75    7.07
   4  -1   0  421.12    8.58
   4   1   0  406.09    8.81
  -4   1   0  416.86    7.92
   5  -1   0  112.95    3.80
   5   1   0  105.56    3.79
  -5   1   0  109.13    3.12
   6  -1   0  675.49   13.88
  -6   1   0  663.57   12.70
   6   1   0  707.89   14.25
   7   1   0  246.66    7.31
  -7   1   0  240.36    5.98
   8   1   0   24.01    2.32
   8  -1   0   23.31    2.05
  -8   1   0   23.18    1.59
   9  -1   0  285.56    8.71
   9   1   0  302.60    9.15
  -9   1   0  298.49    7.37
  10  -1   0   99.46    4.91
  10   1   0   99.31    5.03
 -10   1   0   95.15    3.76
  11  -1   0   24.32    2.50
 -11   1   0   21.68    1.81
  11   1   0   23.17    2.56
 -12   1   0  292.25    9.24
  12  -1   0  272.81    9.54
 -13   1   0  354.01    9.30
  13  -1   0  357.50   11.81
 -13   1   0  338.25   11.09
 -14   1   0   17.15    1.81
 -14   1   0   14.04    2.30
  14  -1   0   17.64    2.59
  15  -1   0  163.28    8.27
 -15   1   0  147.07    7.42
 -16   1   0   -1.14    1.11
  16  -1   0    1.52    1.41
 -16  -1   0    0.70    1.15
 -17   1   0   25.27    3.35
 -17  -1   0   20.07    2.98
 -18  -1   0    2.32    1.57
 -18   1   0    6.71    1.93
   0   2   0  389.77    7.76
   1   2   0  750.46   13.64
   2  -2   0   32.98    1.23
  -2   2   0   30.48    1.24
   2  -2   0   31.72    1.31
   3   2   0 2154.05   34.30
  -3   2   0 2051.13   34.74
   3  -2   0 2161.38   34.89
  -4   2   0  231.74    5.28
   4  -2   0  234.46    5.55
  -4   2   0  234.69    4.74
   4   2   0  230.21    4.72
  -4   2   0  229.65    5.46
   4  -2   0  233.46    5.22
   5  -2   0    3.05    0.57
   5   2   0    3.67    0.41
  -5   2   0    4.61    0.62
  -5   2   0    3.69    0.41
  -5   2   0    3.72    0.62
   6  -2   0  247.05    6.63
  -6   2   0  243.11    5.99
  -6   2   0  249.14    5.02
  -7   2   0   40.46    2.40
  -7   2   0   43.73    2.16
   7  -2   0   43.07    2.61
   8  -2   0    4.10    0.92
  -8   2   0    5.19    1.00
  -9   2   0   44.92    2.43
  -9   2   0   46.25    2.95
   9  -2   0   42.23    2.93
  10  -2   0    5.80    1.28
 -10   2   0    2.84    1.01
 -10   2   0    3.59    0.78
  11  -2   0    7.00    1.44
 -11   2   0    9.66    1.27
 -11   2   0   12.16    1.81
 -12   2   0  198.00    7.46
  12  -2   0  190.41    7.64
 -13   2   0  126.02    6.21
 -13   2   0  132.42    5.14
  13  -2   0  116.61    6.29
  14  -2   0   -0.16    0.89
 -14   2   0    0.36    0.86
 -15   2   0    1.74    1.27
  15  -2   0    2.77    1.15
 -16   2   0    5.95    1.84
  16  -2   0    1.91    1.33
  17  -2   0   35.77    4.20
 -17   2   0   32.88    3.83
 -17  -2   0   37.23    4.14
 -18   2   0    3.95    1.61
 -18  -2   0   10.93    2.60
   0  -3   0    0.01    0.19
   0   3   0   -0.01    0.20
  -1   3   0  158.12    3.69
   1   3   0  154.83    4.64
  -1   3   0  162.42    4.34
   1  -3   0  168.52    3.67
   2  -3   0  146.22    3.45
  -2   3   0  145.64    3.58
   2   3   0  148.48    4.63
   2  -3   0  147.24    3.81
   3   3   0  636.72   11.82
   3  -3   0  641.11   12.08
   3  -3   0  651.43   11.83
  -3   3   0  663.02   11.99
  -4   3   0  450.03    9.45
   4   3   0  456.52    8.79
   4  -3   0  453.00    9.26
  -4   3   0  454.05    8.79
  -4   3   0  447.91    9.18
   4  -3   0  451.21    9.29
  -5   3   0 2047.16   35.44
   5  -3   0 2148.19   35.63
  -5   3   0 2137.17   34.50
   5   3   0 2054.88   34.48
   5  -3   0 2082.28   35.14
   6  -3   0   85.98    3.42
  -6   3   0   81.82    2.60
  -6   3   0   80.58    3.30
   6   3   0   82.64    2.61
  -7   3   0   60.54    2.18
   7  -3   0   64.25    3.15
  -7   3   0   64.89    3.12
   8  -3   0    8.10    1.19
  -8   3   0    7.00    0.99
  -8   3   0    7.52    1.21
  -9   3   0  757.18   16.75
   9  -3   0  802.46   17.29
  -9   3   0  770.71   15.73
 -10   3   0   74.91    3.47
 -10   3   0   64.22    3.78
  10  -3   0   66.43    3.93
 -11   3   0    5.86    1.33
  11  -3   0    3.67    1.21
 -11   3   0    3.42    0.86
 -12   3   0   79.04    3.86
 -12   3   0   85.34    4.83
  12  -3   0   87.29    5.06
  13  -3   0    2.05    1.12
 -13   3   0    2.11    0.81
 -13   3   0    2.32    1.14
 -14   3   0   65.22    4.62
  14  -3   0   66.70    4.94
 -15   3   0    9.14    1.89
  15  -3   0    7.32    1.82
  16  -3   0   18.59    2.95
 -16   3   0   23.87    3.10
 -17   3   0   25.35    3.47
  17  -3   0   24.42    3.46
  18  -3   0    0.31    1.24
 -18   3   0   -0.87    1.20
   0  -4   0  380.09    7.72
  -1   4   0   85.50    3.26
  -1  -4   0   89.81    2.86
   1  -4   0   88.12    2.67
   1   4   0   94.28    3.77
  -1   4   0   89.69    2.68
   2   4   0  186.68    6.04
   2  -4   0  212.94    4.65
  -2   4   0  204.23    5.58
  -2   4   0  192.39    4.79
   2  -4   0  203.68    5.79
  -3   4   0   12.96    1.03
   3  -4   0   13.26    1.10
   3   4   0   16.03    1.17
   3  -4   0   14.66    1.00
  -4   4   0 1482.24   25.83
  -4   4   0 1456.83   25.97
   4  -4   0 1501.90   26.17
   4   4   0 1474.67   25.81
  -5   4   0   28.84    1.64
  -5   4   0   26.08    1.73
   5  -4   0   30.27    1.85
   5   4   0   31.49    1.67
   6  -4   0 1281.45   23.20
  -6   4   0 1279.52   23.18
  -6   4   0 1235.07   22.11
   6   4   0 1256.81   22.10
   7  -4   0   77.50    3.56
   7   4   0   83.07    2.90
  -7   4   0   76.55    2.85
  -7   4   0   81.10    3.60
   8  -4   0  264.53    7.83
  -8   4   0  277.96    7.90
  -8   4   0  278.52    6.44
  -9   4   0  538.13   12.81
   9  -4   0  511.00   12.74
  10  -4   0  154.25    6.29
 -10   4   0  143.67    5.92
  11  -4   0   18.59    2.17
 -11   4   0   16.73    2.07
 -12   4   0   47.41    3.65
  12  -4   0   48.99    3.75
 -13   4   0   73.12    4.76
  13  -4   0   72.14    4.80
  14  -4   0    1.18    1.09
 -14   4   0    2.92    1.25
 -15   4   0   10.95    2.22
  15  -4   0    8.30    2.10
 -16   4   0    3.34    1.53
  16  -4   0    4.43    1.77
  17  -4   0   -0.19    1.06
 -17   4   0    0.58    1.02
  18  -4   0   46.78    4.95
 -18   4   0   48.13    4.83
   0  -5   0    0.73    0.34
  -1   5   0  593.18   11.37
   1  -5   0  615.35   11.42
   1   5   0  570.41   13.41
  -1  -5   0  593.80   11.78
  -1   5   0  610.89   12.75
  -2   5   0 1015.57   18.31
  -2   5   0 1051.54   19.75
   2  -5   0 1024.71   17.93
   2   5   0 1013.81   20.61
   3  -5   0  431.34    9.40
   3   5   0  432.97    9.44
   3  -5   0  426.07    8.66
   3   5   0  417.32   10.88
  -3   5   0  440.14    9.14
   4   5   0  156.76    6.15
   4   5   0  159.48    4.81
   4  -5   0  163.74    4.89
  -4   5   0  162.88    4.78
   4  -5   0  170.57    4.52
  -4   5   0  166.49    4.85
  -5   5   0   31.46    1.10
   5   5   0   32.50    1.92
  -5   5   0   30.09    1.93
  -5   5   0   34.13    1.96
   5  -5   0   35.36    2.10
   6   5   0  558.01   11.58
   6  -5   0  572.31   12.19
  -6   5   0  561.70   11.62
  -6   5   0  538.55   12.06
   7   5   0   65.62    2.89
  -7   5   0   70.22    2.96
  -7   5   0   65.47    3.30
   7  -5   0   69.88    3.37
   8   5   0    3.32    0.72
   8  -5   0    3.64    0.85
  -8   5   0    4.09    0.73
  -8   5   0    4.35    1.04
  -9   5   0   91.11    4.39
   9  -5   0   98.31    4.53
 -10   5   0  141.44    5.87
  10  -5   0  136.36    5.84
  11  -5   0   55.21    3.82
 -11   5   0   46.10    3.43
 -12   5   0   18.35    2.32
  12  -5   0   19.54    2.43
 -13   5   0  249.17    9.41
  13  -5   0  270.33    9.84
  14  -5   0   45.57    4.05
 -14   5   0   46.58    3.98
 -15   5   0    4.89    1.67
  15  -5   0    0.68    1.08
  16  -5   0   67.46    5.40
 -16   5   0   66.74    5.22
 -17   5   0   76.96    6.03
  17  -5   0   76.18    6.00
 -18   5   0    1.90    1.14
  18  -5   0    2.05    1.48
   0  -6   0   40.21    2.09
   0   6   0   41.40    2.62
  -1   6   0    4.63    0.69
   1   6   0    5.65    1.14
  -1   6   0    5.31    0.97
   1  -6   0    5.67    0.72
  -1  -6   0    5.11    0.78
   2   6   0  849.28   18.89
  -2   6   0  870.53   17.89
   2  -6   0  884.99   15.94
  -2   6   0  868.23   16.27
  -2  -6   0  894.99   16.90
   3  -6   0  891.77   15.94
   3  -6   0  853.49   16.93
  -3   6   0  875.44   16.49
   3   6   0  831.49   18.96
   3   6   0  891.16   17.16
  -4   6   0   73.71    3.13
   4  -6   0   80.80    2.91
   4   6   0   78.70    3.37
   4   6   0   75.92    4.25
   4  -6   0   79.46    3.35
  -5   6   0   71.01    3.21
   5   6   0   69.57    4.28
   5  -6   0   77.63    3.35
   5   6   0   72.41    3.27
   6  -6   0   24.57    1.88
  -6   6   0   23.36    1.87
  -6   6   0   18.73    0.83
   6   6   0   26.03    1.88
  -7   6   0  119.41    4.71
  -7   6   0  116.78    3.06
   7  -6   0  130.75    4.90
   7   6   0  120.58    4.39
   8   6   0   90.35    3.74
   8  -6   0   87.18    4.16
  -8   6   0   94.60    4.37
  -9   6   0    2.12    0.97
   9  -6   0    0.82    0.74
  10  -6   0   46.70    3.31
 -10   6   0   42.96    3.22
 -11   6   0   56.32    3.88
  11  -6   0   62.92    4.06
 -12   6   0    8.70    1.69
  12  -6   0   10.45    1.89
  13  -6   0   27.91    3.01
 -13   6   0   29.61    3.12
  14  -6   0    3.00    1.25
 -14   6   0    1.44    0.97
 -15   6   0    0.97    1.17
  15  -6   0    2.01    1.34
 -16   6   0   29.37    3.53
  16  -6   0   28.77    3.52
  17  -6   0  114.99    7.62
 -17   6   0  114.35    7.45
  18  -6   0   11.66    2.59
 -18   6   0    3.08    1.45
   0   7   0    0.53    0.55
   0  -7   0    0.47    0.45
  -1   7   0  164.90    6.02
  -1  -7   0  171.76    5.30
   1  -7   0  168.84    4.90
   2  -7   0    6.10    0.78
  -2   7   0    7.39    0.91
   2   7   0    5.02    1.19
  -2   7   0    3.38    0.87
   2   7   0    5.38    0.93
   3   7   0   63.18    3.23
  -3   7   0   59.81    2.78
   3   7   0   54.09    3.78
   3  -7   0   64.08    2.57
   4   7   0  303.44    8.32
  -4   7   0  313.07    7.84
   4  -7   0  312.94    8.12
   4   7   0  298.15    9.91
   4  -7   0  309.61    7.19
   5  -7   0  473.42   11.13
  -5   7   0  489.21   11.12
   5   7   0  489.96   11.47
   5   7   0  483.63   13.63
   6   7   0  339.92   11.25
   6   7   0  355.99    9.22
  -6   7   0  343.15    9.10
   6  -7   0  364.70    9.24
  -7   7   0  360.89    9.63
   7  -7   0  351.06    9.40
   7   7   0  367.39    9.42
   8  -7   0   75.17    3.86
  -8   7   0   74.00    3.93
  -8   7   0   65.86    2.08
   8   7   0   76.83    3.65
  -9   7   0   37.65    1.72
  -9   7   0   39.79    2.98
   9  -7   0   39.25    2.90
  10  -7   0  290.98    9.30
 -10   7   0  288.94    9.33
  11  -7   0  325.07   10.26
 -11   7   0  310.23   10.28
 -12   7   0    2.91    1.16
  12  -7   0    1.09    0.86
  13  -7   0   32.30    3.24
 -13   7   0   39.15    3.62
 -14   7   0    2.81    1.33
  14  -7   0    2.44    1.22
 -15   7   0    5.20    1.57
  15  -7   0    8.67    1.98
 -16   7   0    2.52    1.58
  16  -7   0    0.60    1.18
  17  -7   0   96.63    6.85
 -17   7   0  103.35    7.09
 -18   7   0   12.12    2.83
   0   8   0  494.02   12.73
   0  -8   0  515.82   11.34
   1  -8   0  397.81    9.10
  -1   8   0  379.14   10.63
  -2   8   0  141.14    5.77
  -2   8   0  136.34    4.41
   2   8   0  127.06    6.26
   2   8   0  146.27    5.46
   2  -8   0  141.41    4.34
   3   8   0  149.34    6.92
  -3   8   0  159.92    5.79
   3   8   0  160.88    5.87
  -3   8   0  155.10    5.00
   4   8   0    0.79    0.61
   4   8   0    0.16    0.87
   4  -8   0    0.22    0.44
  -4   8   0    0.16    0.51
  -4   8   0    0.69    0.46
   5   8   0    8.85    1.32
   5  -8   0    8.61    1.22
   5   8   0    8.88    1.85
  -5   8   0   10.30    1.44
  -5   8   0   10.00    1.35
   6  -8   0   39.92    2.67
  -6   8   0   33.17    2.51
   6   8   0   35.61    2.65
   6   8   0   35.39    3.55
  -6   8   0   36.75    2.57
   7   8   0   66.24    3.63
  -7   8   0   60.47    3.46
  -7   8   0   64.18    3.56
   7  -8   0   68.62    3.59
   7   8   0   57.68    4.67
  -8   8   0   83.35    4.38
   8  -8   0   95.80    4.58
   8   8   0   94.23    4.38
  -8   8   0   85.90    4.22
   8   8   0   82.78    5.81
   9  -8   0  331.77    9.73
  -9   8   0  314.31    9.16
  -9   8   0  328.23    9.92
 -10   8   0  160.50    6.83
  10  -8   0  167.54    6.72
  11  -8   0   12.93    1.93
 -11   8   0   10.71    1.79
 -12   8   0   51.45    4.00
  12  -8   0   40.84    3.50
  13  -8   0   82.04    5.27
 -13   8   0   72.99    5.09
 -14   8   0    3.08    1.49
  14  -8   0    2.36    1.25
  15  -8   0    1.81    0.96
 -15   8   0    1.19    1.27
  16  -8   0   12.45    2.38
 -16   8   0   13.55    2.71
  17  -8   0   14.51    2.72
   0   9   0   -0.11    0.67
   0   9   0    1.03    0.67
  -1   9   0  354.97   10.48
  -1   9   0  352.94    9.93
   1   9   0  351.59    9.92
  -2   9   0  234.30    8.10
  -2   9   0  228.27    7.52
   2   9   0  222.10    7.47
   2  -9   0  214.06    5.92
  -3   9   0   22.05    2.15
   3   9   0   23.25    2.23
  -3   9   0   22.92    1.77
   3   9   0   25.48    2.91
   4   9   0  258.45    8.18
  -4   9   0  247.77    7.06
  -4   9   0  248.02    8.01
   4  -9   0  247.20    7.63
   4   9   0  238.48    9.59
   5   9   0  189.43    6.86
   5   9   0  177.75    8.34
   5  -9   0  180.43    6.28
  -5   9   0  179.85    6.01
  -5   9   0  180.51    6.64
   6   9   0  120.28    5.34
  -6   9   0  118.06    4.94
   6  -9   0  100.46    4.64
  -6   9   0  117.18    5.19
   6   9   0  111.28    6.58
  -7   9   0   67.55    3.84
   7   9   0   61.31    4.99
  -7   9   0   63.29    3.69
   7  -9   0   57.12    3.51
   7   9   0   68.11    3.96
  -8   9   0   36.45    2.88
   8  -9   0   44.05    3.08
  -8   9   0   38.59    2.93
   8   9   0   41.95    3.06
   8   9   0   43.68    4.33
   9  -9   0   12.37    1.73
  -9   9   0   10.53    1.75
  -9   9   0    8.53    1.44
   9   9   0    6.94    2.06
 -10   9   0   51.37    3.77
  10   9   0   39.52    4.33
  10  -9   0   40.67    3.21
 -11   9   0   80.39    4.98
  11   9   0   82.58    6.55
  11  -9   0   83.36    4.90
 -12   9   0   16.16    2.38
  12  -9   0   15.47    2.30
 -13   9   0    1.06    1.02
  13  -9   0   -0.32    1.02
  14  -9   0   15.44    2.37
  15  -9   0    8.60    1.89
   0  10   0  582.62   15.34
   0  10   0  600.56   14.78
  -1  10   0 1009.22   21.69
  -1  10   0 1017.39   22.45
   1  10   0  990.81   22.52
   1  10   0 1022.07   21.83
   2  10   0   97.87    4.99
  -2  10   0  103.62    5.41
  -2  10   0  101.39    5.00
   3  10   0   79.16    5.43
   3  10   0   78.25    4.46
  -3  10   0   89.28    4.63
  -3  10   0   78.05    3.45
  -4  10   0  789.65   16.73
   4  10   0  852.51   19.06
   4 -10   0  848.62   18.15
  -4  10   0  844.30   18.82
   4  10   0  826.69   21.63
   5  10   0   13.61    2.44
  -5  10   0   19.49    2.22
   5 -10   0   18.02    1.89
  -5  10   0   15.03    1.62
   5  10   0   18.11    2.17
   6 -10   0    7.55    1.33
  -6  10   0    5.80    1.35
   6  10   0    6.07    1.29
   6  10   0    6.37    1.79
  -6  10   0    5.27    1.09
  -7  10   0   65.80    4.07
   7  10   0   61.76    5.26
  -7  10   0   67.96    3.88
   7 -10   0   72.26    3.96
   8 -10   0  291.46    8.79
  -8  10   0  279.12    9.06
  -8  10   0  275.84    8.78
   8  10   0  272.90   11.61
   9  10   0  161.56    8.95
  -9  10   0  177.00    7.04
  -9  10   0  177.84    7.02
  10  10   0    0.26    1.10
  10 -10   0    2.19    0.89
  11 -10   0   -0.30    0.77
  11  10   0    1.96    1.77
  12  10   0    6.84    2.27
  12 -10   0    9.83    1.91
  13  10   0   37.37    4.81
  13 -10   0   42.32    3.85
  14  10   0   29.33    4.53
   0  11   0    0.47    0.99
   0  11   0    0.41    0.82
  -1  11   0  387.64   11.97
   1  11   0  387.03   12.12
  -1  11   0  374.74   11.38
   1  11   0  383.43   11.49
   2  11   0   11.33    1.95
  -2  11   0   12.40    1.89
   2  11   0   12.25    1.90
  -2  11   0   15.03    2.02
   3  11   0   32.38    2.96
  -3  11   0   32.38    2.94
   4  11   0   49.30    3.72
   4  11   0   49.22    4.56
   4 -11   0   44.75    3.20
  -4  11   0   48.43    3.62
   5  11   0  440.51   15.43
   5  11   0  484.15   13.45
  -5  11   0  458.88   13.11
   5 -11   0  488.60   12.38
  -6  11   0    5.83    1.48
   6  11   0    1.50    0.75
   6  11   0    0.27    1.22
   6 -11   0    4.10    1.05
  -7  11   0  269.03    9.22
   7 -11   0  267.14    8.42
   8  11   0   69.23    4.49
  -8  11   0   66.99    4.38
   8  11   0   56.85    5.42
   8 -11   0   64.09    3.95
   9  11   0    1.56    1.32
   9 -11   0    3.99    1.21
  10  11   0    0.15    1.08
  11  11   0  107.47    7.96
  12  11   0  182.92   10.72
  13  11   0   40.72    5.23
   0  12   0   24.80    2.91
   0  12   0   22.94    2.66
  -1  12   0    3.40    1.32
  -1  12   0    2.43    1.11
   1  12   0    4.72    1.28
   1  12   0    2.20    1.01
  -2  12   0   14.34    2.27
  -2  12   0   18.28    2.32
   2  12   0   16.06    2.47
   2  12   0   17.33    2.28
   3 -12   0   31.58    2.80
   3  12   0   29.89    3.00
  -3  12   0   28.73    2.95
   4  12   0   15.47    2.26
  -4  12   0   17.82    2.31
   4 -12   0   18.18    2.11
   5 -12   0   39.67    3.05
   5  12   0   38.23    3.50
  -5  12   0   34.59    3.30
   5  12   0   37.75    4.28
  -6  12   0   25.12    2.80
   6  12   0   29.36    3.94
   6  12   0   21.83    2.63
   7  12   0   19.92    2.50
  -7  12   0   24.02    2.72
   8  12   0   37.72    4.57
  -8  12   0   35.98    3.39
   9  12   0    2.40    1.74
  10  12   0    2.14    1.37
  11  12   0   30.13    4.43
   0  13   0   -0.12    0.82
   0  13   0    0.55    0.88
   1  13   0   66.94    5.00
   1  13   0   60.45    4.56
  -1  13   0   66.20    4.91
  -1  13   0   60.23    4.51
   2  13   0   -1.63    1.17
  -2  13   0    0.45    0.98
   2  13   0    0.04    0.86
  -2  13   0    2.07    1.15
   3  13   0    4.99    1.62
  -3  13   0    3.00    1.17
   3  13   0    4.99    1.43
  -4  13   0    0.63    0.99
   4  13   0    1.56    1.20
   5  13   0    2.77    1.28
  -5  13   0    2.84    1.06
   6  13   0   17.38    3.23
   6  13   0   17.08    2.37
  -6  13   0   19.20    2.61
  -7  13   0   13.93    2.31
   7  13   0   12.59    2.69
   8  13   0   18.65    3.64
   9  13   0    2.09    1.84
  10  13   0    0.83    1.75
   0  14   0  125.45    7.10
   0  14   0  121.88    6.87
  -1  14   0   24.18    3.04
   1  14   0   20.86    3.01
  -1  14   0   18.89    2.68
   1  14   0   18.69    2.71
   2  14   0    0.59    1.06
   2  14   0    2.25    1.23
  -2  14   0    0.58    0.96
   3  14   0   28.85    3.30
   3  14   0   27.14    3.43
  -3  14   0   32.79    3.47
   4  14   0   17.16    2.61
   4  14   0   23.92    3.25
  -4  14   0   24.10    2.97
  -5  14   0    2.96    1.02
   5  14   0    3.36    1.37
  -6  14   0    3.70    1.27
   7  14   0   11.80    2.75
   8  14   0   13.14    2.93
   0  15   0    0.49    1.05
   0  15   0    0.54    1.18
  -1  15   0   -0.66    1.41
  -1  15   0    4.93    1.60
   1  15   0    1.90    1.22
   1  15   0    3.62    1.38
  -2  15   0    1.91    1.26
   2  15   0   -0.09    1.27
   2  15   0    3.31    1.43
   3  15   0   12.33    2.45
  -3  15   0    8.84    1.93
   3  15   0    6.45    1.83
  -4  15   0   -0.23    1.42
   4  15   0   -0.42    1.06
   5  15   0  119.81    7.64
 -18   0   1   -1.14    1.47
 -17   0   1    1.83    1.45
 -16   0   1    2.72    1.43
 -15   0   1    1.39    1.18
 -14   0   1    1.02    1.00
 -13   0   1    0.37    0.48
 -13   0   1    1.02    0.74
 -12   0   1    0.62    0.86
 -12   0   1    0.48    0.48
  12   0  -1   -0.61    1.04
  11   0  -1    0.12    0.72
 -11   0   1    0.78    0.73
  10   0  -1   -0.19    0.72
   9   0  -1    0.97    0.66
   8   0  -1   -0.24    0.57
   7   0  -1    0.21    0.43
   6   0  -1    0.24    0.35
   5   0  -1    1.11    0.61
   4   0  -1    0.86    0.36
  -3   0   1    0.00    0.18
   3   0   1    2.73    0.47
   4   0   1    0.05    0.19
   5   0   1    3.87    0.73
   6   0   1    0.02    0.42
   7   0   1   -0.10    0.40
   8   0   1    0.52    0.46
   9   0   1    0.55    0.60
  10   0   1    0.18    0.63
  11   0   1   -0.78    1.06
  12   0   1    0.92    0.87
  13   0   1    0.46    0.92
 -14   0  -1   -0.16    0.73
  14   0   1    0.58    1.11
  15   0   1    3.75    1.89
 -16   0  -1   -0.33    0.94
 -17   0  -1    0.12    1.10
 -18   0  -1    0.75    1.35
 -18  -1   1    8.15    2.16
 -18   1   1   10.68    2.49
 -17  -1   1   27.81    3.43
 -17   1   1   28.27    3.49
 -16   1   1    1.37    1.32
 -16  -1   1   -0.41    0.96
 -15  -1   1   21.29    2.78
 -15   1   1   21.63    2.76
  14  -1  -1  196.41    8.76
 -14  -1   1  197.51    8.35
 -14   1   1  202.88    8.32
  13  -1  -1  149.46    7.19
 -13   1   1  154.91    6.90
 -13   1   1  170.93    5.42
 -12   1   1    5.18    1.18
 -12   1   1    7.03    1.03
  12  -1  -1    5.38    1.22
 -11   1   1   12.77    1.76
 -11   1   1   14.76    1.33
  11  -1  -1   10.18    1.73
 -10   1   1  284.76    6.92
  10  -1  -1  293.59    9.01
 -10   1   1  270.44    8.50
   9  -1  -1   13.11    1.69
  -9   1   1   10.05    1.02
  -9   1   1   11.09    1.49
  -8   1   1   39.44    1.89
   8  -1  -1   40.05    2.63
  -8   1   1   42.95    2.65
   7  -1  -1  133.51    4.71
  -7   1   1  135.95    4.70
  -7   1   1  131.65    3.58
   6  -1  -1  384.53    8.54
  -6   1   1  367.08    7.04
  -6   1   1  361.41    8.40
   5  -1  -1    9.32    0.95
   5  -1  -1   10.90    0.56
  -5   1   1   12.95    0.78
  -5   1   1   12.55    1.09
   4  -1  -1  427.22    7.47
  -4   1   1  416.58    8.65
   4  -1  -1  405.61    8.44
   3  -1  -1 1663.88   27.71
  -3   1   1 1727.62   28.16
   2  -1  -1 2432.37   38.68
   2  -1   1  478.34    8.98
  -2   1  -1  480.00    8.84
   2   1   1  480.16    8.96
   3  -1   1  177.38    4.43
   3   1   1  177.94    4.48
   4   1   1  642.49   12.60
  -4  -1  -1  648.37   10.83
   4  -1   1  630.08   12.41
   5  -1   1  754.16   14.51
  -5  -1  -1  722.30   12.25
  -6  -1  -1  191.46    3.67
   6   1   1  202.57    6.09
   7   1   1 1127.76   22.67
   7  -1   1 1210.93   22.71
   8  -1   1   35.81    2.58
   8   1   1   32.81    2.58
   9  -1   1  994.92   21.03
   9   1   1 1007.57   21.38
  10  -1   1  271.20    8.97
  10   1   1  282.91    9.28
 -10   1  -1  273.20    7.62
  11   1   1  132.49    6.32
  11  -1   1  134.83    6.20
 -11   1  -1  130.79    5.07
  12   1   1   38.55    3.51
 -12   1  -1   40.23    2.78
  12  -1   1   47.23    3.80
 -13   1  -1   37.34    2.75
  13  -1   1   31.01    3.25
  13   1   1   30.29    3.43
 -14   1  -1   41.80    3.00
 -14   1  -1   41.47    3.73
  14  -1   1   45.03    4.10
 -15   1  -1   97.13    6.07
  15  -1   1   94.34    6.36
  16  -1   1    6.44    1.91
 -16   1  -1   11.13    2.27
 -17   1  -1   10.20    2.22
  17  -1   1    8.74    2.31
 -17  -1  -1   13.54    2.65
 -18   1  -1   43.14    4.68
 -18  -2   1    9.80    2.39
 -18   2   1   14.07    2.62
 -17   2   1    5.30    1.87
 -17  -2   1    5.07    1.77
 -16   2   1  110.83    6.65
 -16  -2   1  105.35    6.48
  16  -2  -1  103.53    6.73
  15  -2  -1   10.62    2.27
 -15   2   1   12.74    2.31
 -15  -2   1    7.63    1.78
  14  -2  -1  111.86    6.36
 -14   2   1  101.39    5.75
 -13   2   1   46.04    3.64
 -13   2   1   47.05    2.72
  13  -2  -1   39.25    3.53
 -12   2   1   14.01    1.41
 -12   2   1   11.10    1.75
  12  -2  -1   13.30    2.10
  11  -2  -1   14.20    1.90
 -11   2   1   12.68    1.75
 -11   2   1   13.56    1.31
 -10   2   1  324.86    9.54
 -10   2   1  353.16    8.12
  10  -2  -1  338.90    9.85
  -9   2   1   96.13    4.37
  -9   2   1   99.75    3.50
   9  -2  -1  101.50    4.51
   8  -2  -1    0.51    0.48
  -8   2   1    0.13    0.56
  -8   2   1    0.60    0.36
   8   2  -1    0.59    0.20
  -7   2   1 1403.68   23.91
   7  -2  -1 1335.91   25.27
  -7   2   1 1340.95   25.35
   7   2  -1 1405.59   22.78
   6  -2  -1  466.33   10.14
  -6   2   1  466.06   10.28
  -5   2   1 2620.30   45.15
  -5   2   1 2728.44   44.73
   5  -2  -1 2748.87   43.94
   5  -2  -1 2775.62   44.94
   5  -2  -1 2728.93   43.55
   4  -2  -1 1131.69   18.91
  -4   2   1 1095.18   19.73
   4  -2  -1 1114.79   18.71
   4  -2  -1 1114.54   19.29
   3  -2  -1 5529.92   85.55
   3  -2  -1 5249.29   85.47
  -3   2   1 5463.00   86.23
   2  -2  -1  148.32    3.52
  -2   2   1  148.35    3.76
   2  -2  -1  154.16    3.12
  -1   2   1 5457.74   87.36
   1  -2  -1 5660.62   87.15
   1   2  -1 5356.16   87.64
   0   2   1  605.40   11.13
   0   2   1  576.88   10.71
   1  -2   1  239.48    4.50
   1   2   1  250.90    5.69
  -1   2  -1  247.56    5.59
  -1  -2  -1  242.83    5.02
   2  -2   1 5368.70   86.52
  -2  -2  -1 5448.49   85.92
  -2   2  -1 5447.86   85.55
  -2   2  -1 5430.11   86.46
  -3  -2  -1 1801.46   28.97
   3   2   1 1733.46   29.98
  -3   2  -1 1797.55   29.79
   3  -2   1 1781.47   29.99
  -4  -2  -1  356.96    6.78
  -4   2  -1  356.19    7.68
   4  -2   1  361.25    7.94
   4   2   1  347.38    8.09
   5   2   1  834.59   16.64
   5  -2   1  836.12   16.26
  -5   2  -1  838.91   15.78
  -5  -2  -1  864.33   14.50
   6   2   1 4796.25   79.06
   6  -2   1 4818.34   78.51
  -6   2  -1 4717.87   77.71
  -7   2  -1  346.18    6.50
  -7   2  -1  345.73    8.22
   7   2   1  344.28    9.32
   7  -2   1  341.85    8.93
  -8   2  -1  281.03    5.46
  -8   2  -1  285.52    7.43
   8  -2   1  299.40    8.43
   8   2   1  290.21    8.72
   9   2   1    7.03    1.32
  -9   2  -1    9.31    1.23
   9  -2   1    8.53    1.44
 -10   2  -1  306.87    8.29
  10   2   1  300.50    9.88
  10  -2   1  296.12    9.42
  11  -2   1   86.99    4.96
 -11   2  -1  102.70    4.37
  12  -2   1    4.58    1.42
 -12   2  -1    7.82    1.62
 -12   2  -1    6.28    1.15
  13  -2   1   19.31    2.66
 -13   2  -1   20.94    2.64
 -14   2  -1  130.79    6.67
  14  -2   1  122.52    6.88
 -14   2  -1  133.60    5.69
  15  -2   1    9.60    2.03
 -15   2  -1   11.90    2.24
 -16   2  -1   13.87    2.50
  16  -2   1   16.38    2.80
  17  -2   1   49.61    4.99
 -17   2  -1   47.23    4.61
 -18   2  -1   25.76    3.63
  18  -2   1   31.48    4.17
 -18   3   1  198.75    9.93
 -18  -3   1  193.66    9.83
  17  -3  -1    4.75    1.56
 -17  -3   1    3.55    1.45
 -17   3   1    3.14    1.33
 -16  -3   1   44.66    4.15
  16  -3  -1   49.22    4.57
 -16   3   1   39.82    3.99
  15  -3  -1    6.33    1.93
 -15   3   1    9.85    2.01
  14  -3  -1  547.80   15.63
 -14   3   1  502.81   14.92
  13  -3  -1    1.02    0.89
 -13   3   1   -0.22    0.98
  12  -3  -1   17.54    2.21
 -12   3   1   20.99    2.48
 -11   3   1   48.33    3.45
  11  -3  -1   45.80    3.39
  10  -3  -1   14.58    1.81
 -10   3   1   14.34    1.80
   9  -3  -1  469.27   11.64
  -9   3   1  472.71   11.71
   9   3  -1  464.76    8.88
  -8   3   1  134.72    5.08
   8  -3  -1  127.83    4.89
   8   3  -1  129.98    3.43
   7  -3  -1  201.84    6.00
   7  -3  -1  192.62    5.12
  -7   3   1  206.97    6.23
   7   3  -1  204.04    4.67
   6  -3  -1   32.31    1.69
   6   3  -1   32.83    1.50
   6  -3  -1   32.38    1.96
  -6   3   1   33.35    2.09
   5  -3  -1 1707.20   29.57
  -5   3   1 1753.10   29.90
   5  -3  -1 1755.50   29.92
   4  -3  -1  655.56   12.04
  -4   3   1  644.62   12.05
   4  -3  -1  670.38   11.97
  -4   3   1  656.49   12.70
   4  -3  -1  639.61   12.37
  -4   3   1  632.79   12.08
   3  -3  -1   21.33    1.27
   3  -3  -1   22.88    1.24
  -3   3   1   18.87    1.28
  -3   3   1   18.10    1.08
   3  -3  -1   21.34    1.09
   2  -3  -1   30.47    1.25
   2  -3  -1   35.46    1.59
   2   3  -1   34.04    1.95
   2  -3  -1   32.54    1.65
   2  -3  -1   30.74    1.53
  -2   3   1   31.77    1.62
   1  -3  -1 2677.37   42.69
   1  -3  -1 2742.08   43.74
   1   3  -1 2614.66   44.55
  -1   3   1 2712.10   43.60
   1  -3  -1 2693.20   43.90
  -1   3   1 2718.91   43.92
   0   3   1   71.71    2.44
   0  -3  -1   67.40    2.34
   0   3   1   66.21    2.75
   0  -3  -1   69.14    2.49
   1   3   1 1077.30   20.32
  -1  -3  -1 1142.10   19.32
   1  -3   1 1163.59   18.06
  -1   3  -1 1113.30   18.17
  -1   3  -1 1110.68   20.04
   2   3   1   51.73    2.57
   2   3   1   52.28    2.03
  -2   3  -1   54.67    1.66
  -2  -3  -1   49.89    1.95
   2  -3   1   50.01    2.18
  -3   3  -1 5009.71   75.67
  -3   3  -1 4572.62   75.03
   3  -3   1 4600.93   76.48
  -3  -3  -1 4839.40   75.84
  -3  -3  -1 4770.83   76.75
  -4  -3  -1  291.86    6.14
  -4   3  -1  286.10    6.44
   4  -3   1  286.42    6.96
  -5   3  -1  646.80   13.27
   5  -3   1  686.41   13.59
  -5   3  -1  672.11   13.09
  -6   3  -1  546.03   10.32
   6  -3   1  551.53   12.06
  -6   3  -1  581.53   11.83
  -6   3  -1  539.15   11.69
  -7   3  -1   61.30    2.98
  -7   3  -1   62.30    3.08
   7  -3   1   63.64    3.24
  -7   3  -1   66.53    2.23
   8  -3   1  133.94    5.30
  -8   3  -1  144.51    5.22
  -8   3  -1  139.12    3.61
  -8   3  -1  138.24    4.88
  -9   3  -1   56.74    3.36
  -9   3  -1   53.51    2.99
   9  -3   1   57.92    3.53
  -9   3  -1   52.21    1.93
 -10   3  -1  731.19   15.76
  10  -3   1  748.42   17.30
 -10   3  -1  705.82   16.44
  11  -3   1    4.65    1.26
 -11   3  -1    6.06    1.40
 -11   3  -1    3.76    0.91
  12  -3   1  521.68   14.62
 -12   3  -1  530.95   13.03
 -12   3  -1  532.74   14.16
 -13   3  -1   36.75    3.34
  13  -3   1   34.81    3.39
 -13   3  -1   41.22    3.03
 -14   3  -1    5.01    1.52
  14  -3   1    3.32    1.29
 -14   3  -1    5.08    1.26
  15  -3   1  154.42    8.16
 -15   3  -1  159.76    7.83
 -16   3  -1    0.78    1.17
  16  -3   1    0.50    1.00
  17  -3   1    4.97    1.61
 -17   3  -1    9.06    2.16
  18  -3   1   12.02    2.79
 -18   3  -1   10.69    2.52
  18  -4  -1    7.26    2.07
 -18   4   1    9.35    2.52
 -18  -4   1    8.25    2.17
  17  -4  -1   92.17    6.57
 -17  -4   1   95.40    6.53
 -17   4   1   91.44    6.40
  16  -4  -1    0.24    1.07
 -16   4   1   -0.28    1.14
  15  -4  -1  174.43    8.33
 -15   4   1  153.40    7.73
 -14   4   1   12.18    2.05
  14  -4  -1   14.56    2.25
  13  -4  -1   42.72    3.67
 -13   4   1   45.44    3.77
  12  -4  -1    2.87    1.11
 -12   4   1    0.36    0.70
 -11   4   1   13.20    1.89
  11  -4  -1   13.34    1.80
  10   4  -1   33.89    1.72
 -10   4   1   30.57    2.61
  10  -4  -1   37.06    2.81
   9  -4  -1  400.01   10.40
   9   4  -1  375.23    8.13
  -9   4   1  396.83   10.51
  -8   4   1   31.25    2.38
   8   4  -1   29.63    1.65
   8  -4  -1   31.28    2.24
   7  -4  -1    5.25    0.87
   7   4  -1    4.06    0.63
  -7   4   1    4.90    0.88
   6  -4  -1  807.30   15.59
   6   4  -1  801.64   14.83
  -6   4   1  805.14   16.20
   5  -4  -1  698.85   13.17
  -5   4   1  673.79   13.75
  -5   4   1  681.77   13.12
  -5   4   1  657.06   13.22
  -4   4   1  411.64    8.97
   4  -4  -1  442.57    9.05
  -4   4   1  421.95    9.32
   4  -4  -1  420.64    8.63
   3  -4  -1 1050.84   19.92
  -3   4   1 1084.91   19.55
   3  -4  -1 1071.86   19.15
   3   4  -1 1108.84   20.96
   3  -4  -1 1081.61   18.69
  -2   4   1  942.13   17.34
   2  -4  -1  943.64   17.20
   2  -4  -1  954.40   17.74
  -2   4   1  965.65   17.38
   2   4  -1  957.82   18.56
  -1   4   1  295.56    6.73
  -1   4   1  294.32    6.74
   1  -4  -1  288.20    5.56
   1  -4  -1  302.26    6.82
   1   4  -1  291.49    7.53
   0  -4  -1  334.80    7.42
   0   4   1  326.22    7.25
   0  -4   1  321.22    6.09
   1   4   1 1368.59   25.69
  -1   4  -1 1343.17   25.17
  -1  -4  -1 1398.03   24.60
  -1   4  -1 1337.15   22.94
   2   4   1 1166.78   20.95
  -2   4  -1 1183.02   21.91
   2   4   1 1189.05   22.50
  -2   4  -1 1188.15   19.89
   3  -4   1   11.67    1.16
   3   4   1   12.72    1.10
  -3   4  -1   13.04    0.93
   4   4   1    0.94    0.33
  -4   4  -1    1.68    0.41
  -4   4  -1    0.86    0.29
   4  -4   1    1.38    0.45
  -5   4  -1 1411.97   24.96
   5  -4   1 1425.60   25.68
  -6   4  -1  310.84    6.88
   6  -4   1  312.68    8.11
  -6   4  -1  292.44    7.49
  -7   4  -1  110.51    4.23
  -7   4  -1  111.51    3.47
   7  -4   1  104.41    4.37
  -8   4  -1    2.42    0.53
   8  -4   1    4.11    0.98
  -8   4  -1    2.99    0.84
  -9   4  -1  441.03    9.02
  -9   4  -1  432.21   11.04
   9  -4   1  418.19   11.34
 -10   4  -1   99.85    4.77
  10  -4   1   99.75    5.04
 -11   4  -1    3.32    1.04
  11  -4   1    5.64    1.47
 -12   4  -1  100.39    5.36
  12  -4   1  106.89    5.73
 -13   4  -1   43.37    3.71
  13  -4   1   24.50    2.90
 -14   4  -1   13.54    2.39
  14  -4   1   11.46    2.16
 -15   4  -1   43.16    4.00
  15  -4   1   38.41    4.00
 -16   4  -1   91.04    6.04
  16  -4   1   75.70    5.86
 -17   4  -1    5.33    1.67
  17  -4   1    1.18    1.12
 -18   4  -1    4.60    1.86
 -18   5   1   95.93    6.94
  18  -5  -1   93.80    6.89
  17  -5  -1    2.46    1.60
 -17   5   1    2.44    1.56
 -16   5   1   41.09    4.23
  16  -5  -1   51.40    4.62
  15  -5  -1   11.45    2.25
 -15   5   1    7.58    1.94
 -14   5   1   85.60    5.65
  14  -5  -1   81.48    5.35
 -13   5   1   -0.64    1.08
  13  -5  -1    0.59    0.92
 -12   5   1    1.84    1.00
  12  -5  -1    0.87    0.87
 -11   5   1  198.01    7.77
  11  -5  -1  230.49    7.94
  10   5  -1    8.61    1.00
  10  -5  -1    8.97    1.44
 -10   5   1   11.15    1.65
   9   5  -1  190.49    5.35
   9  -5  -1  191.02    6.55
  -9   5   1  196.31    7.01
   8  -5  -1   65.49    3.33
   8   5  -1   67.30    2.86
  -8   5   1   68.23    3.67
   7  -5  -1   21.31    1.75
   7   5  -1   19.87    1.48
  -7   5   1   20.42    1.89
   6   5  -1  638.86   12.84
  -6   5   1  637.97   13.07
   6  -5  -1  657.84   13.14
  -6   5   1  628.63   13.73
  -5   5   1    0.52    0.33
   5   5  -1    1.32    0.43
   5  -5  -1    1.18    0.43
   4   5  -1   19.22    1.40
  -4   5   1   17.71    1.50
   4  -5  -1   17.56    1.36
   4   5  -1   19.10    1.99
  -4   5   1   16.44    1.40
   4  -5  -1   22.29    1.44
   3   5  -1 1186.59   23.40
   3  -5  -1 1213.19   21.35
  -3   5   1 1152.42   21.64
   3  -5  -1 1213.05   21.00
  -2   5   1  787.98   15.03
   2   5  -1  772.23   16.28
   2  -5  -1  757.13   14.56
  -1  -5   1  696.50   12.85
   1   5  -1  714.16   15.27
  -1   5   1  715.22   13.77
   1  -5  -1  742.34   14.04
  -1   5   1  704.90   14.09
   0  -5   1 1208.16   20.48
   0  -5  -1 1256.36   22.20
   0   5  -1 1186.24   22.94
  -1   5  -1  883.78   17.68
   1   5   1  863.97   18.24
   1  -5   1  895.42   14.97
  -1  -5  -1  884.42   16.97
  -1   5  -1  872.26   15.15
  -2   5  -1 3129.61   50.74
  -2   5  -1 3213.85   53.47
   2   5   1 3130.17   52.21
   2   5   1 3051.14   53.96
   3   5   1 2011.55   36.65
   3  -5   1 2015.50   35.04
  -3   5  -1 2015.96   33.53
   3   5   1 2009.40   34.69
   4  -5   1    9.35    1.12
  -4   5  -1    8.62    0.92
  -4   5  -1   10.49    1.06
   4   5   1    7.97    1.01
   4   5   1    7.00    1.34
  -5   5  -1  245.82    5.23
  -5   5  -1  242.32    6.27
   5  -5   1  254.63    7.00
  -5   5  -1  256.66    6.44
   5   5   1  254.64    6.57
   6  -5   1  243.29    6.94
  -6   5  -1  235.49    6.43
  -6   5  -1  239.16    6.17
  -6   5  -1  221.87    5.20
  -7   5  -1   45.18    2.29
  -7   5  -1   39.48    2.45
   7  -5   1   49.56    2.97
  -8   5  -1  113.59    4.67
   8  -5   1  115.05    4.92
  -8   5  -1  119.43    4.03
  -9   5  -1  170.48    4.96
   9  -5   1  157.94    6.22
  -9   5  -1  161.27    6.03
 -10   5  -1  566.62   11.72
 -10   5  -1  561.37   14.00
  10  -5   1  563.45   14.30
 -11   5  -1  166.20    6.77
  11  -5   1  155.05    6.83
  12  -5   1   77.16    4.91
 -12   5  -1   79.85    4.73
 -13   5  -1   69.40    4.73
  13  -5   1   75.44    5.04
  14  -5   1   10.50    2.09
 -14   5  -1    6.72    1.71
 -15   5  -1  104.93    6.39
  15  -5   1  111.42    6.78
  16  -5   1   40.27    4.21
 -16   5  -1   48.89    4.54
  17  -5   1   29.18    3.86
 -17   5  -1   35.59    4.01
 -18   5  -1   20.78    3.37
 -18   6   1    7.31    2.26
  18  -6  -1    7.10    2.05
 -17   6   1   10.54    2.52
  17  -6  -1    5.39    1.84
 -16   6   1    5.02    1.49
  16  -6  -1    6.37    1.88
 -15   6   1   35.97    3.81
  15  -6  -1   32.46    3.54
  14  -6  -1   44.09    3.87
 -14   6   1   32.91    3.46
 -13   6   1  362.07   12.04
  13  -6  -1  367.38   11.74
 -12   6   1   -1.11    0.92
  12  -6  -1    0.54    1.02
  11  -6  -1    9.27    1.61
 -11   6   1    9.08    1.63
  10  -6  -1   97.37    4.70
 -10   6   1   93.64    4.91
  10   6  -1   89.64    3.73
  -9   6   1  119.18    5.35
   9  -6  -1  126.67    5.12
   9   6  -1  117.43    4.33
   8  -6  -1    9.99    1.30
   8   6  -1    9.51    1.16
  -8   6   1   11.39    1.55
   7  -6  -1   81.61    3.53
   7   6  -1   75.31    3.35
  -7   6   1   79.36    3.91
   6   6  -1 1380.16   25.34
  -6   6   1 1376.80   26.11
   6  -6  -1 1409.62   25.27
   5   6  -1   46.19    2.52
  -5   6   1   40.47    2.52
   5  -6  -1   48.20    2.43
   5   6  -1   42.55    3.29
   4   6  -1  113.66    4.13
   4   6  -1  110.56    5.19
  -4   6   1  115.72    4.30
   4  -6  -1  116.28    3.83
  -3   6   1    2.88    0.70
   3   6  -1    2.51    0.90
   3   6  -1    2.44    0.66
   3  -6  -1    2.49    0.59
   3  -6  -1    2.37    0.57
   2   6  -1  367.08   10.29
  -2   6   1  377.68    9.25
   2  -6  -1  385.65    8.72
  -2  -6   1  371.05    8.19
  -2   6   1  374.75    8.75
  -1   6   1   17.01    1.57
  -1  -6   1   17.71    1.21
  -1   6   1   14.70    1.33
   1  -6  -1   17.50    1.48
   0  -6  -1   19.45    1.63
   0  -6   1   23.29    1.29
   0   6  -1   23.75    2.07
  -1   6  -1   11.75    1.48
   1  -6   1    9.19    0.73
  -1   6  -1    9.67    0.77
   1   6   1    7.92    1.30
   2   6   1  103.96    4.98
   2   6   1  104.85    4.05
  -2   6  -1   99.97    3.08
  -2   6  -1  100.84    4.51
   2  -6   1  107.13    2.85
   3   6   1  777.42   18.11
  -3   6  -1  810.26   15.10
   3  -6   1  812.80   16.57
   3   6   1  843.53   16.46
   4   6   1  103.98    5.15
   4  -6   1  102.34    4.17
  -4   6  -1  112.86    3.69
   4   6   1  105.37    4.10
   5  -6   1   21.70    1.85
  -5   6  -1   20.77    1.57
   5   6   1   20.15    1.72
   5   6   1   17.77    2.26
  -6   6  -1   56.51    2.86
   6  -6   1   57.79    3.15
   7  -6   1  936.59   18.86
  -7   6  -1  946.10   18.40
   8  -6   1 1176.16   22.98
  -8   6  -1 1131.85   20.04
  -9   6  -1   64.09    3.71
  -9   6  -1   66.02    2.84
   9  -6   1   67.79    3.92
  10  -6   1   26.36    2.59
 -10   6  -1   29.32    2.66
 -11   6  -1   82.51    4.67
  11  -6   1   86.06    4.95
  12  -6   1   37.33    3.46
 -12   6  -1   34.99    3.14
 -13   6  -1   32.27    3.20
  13  -6   1   35.68    3.47
 -14   6  -1  112.70    6.41
  14  -6   1  114.27    6.56
  15  -6   1  126.28    7.31
 -15   6  -1  127.49    7.14
  16  -6   1   48.77    4.74
 -16   6  -1   46.29    4.47
 -17   6  -1   -0.68    1.30
  17  -6   1    0.43    1.18
 -18   6  -1    0.43    1.35
  18  -7  -1  111.43    7.53
 -18   7   1  109.48    7.65
  17  -7  -1    1.85    1.63
 -17   7   1    3.08    1.79
 -16   7   1    4.25    1.67
  16  -7  -1    4.64    1.58
  15  -7  -1  196.56    8.96
 -15   7   1  196.99    9.29
 -14   7   1   16.38    2.62
  14  -7  -1   24.07    2.92
  13  -7  -1   22.33    2.66
 -13   7   1   33.46    3.42
 -12   7   1   28.96    3.05
  12  -7  -1   26.32    2.77
 -11   7   1   65.21    4.36
  11  -7  -1   61.17    3.97
 -10   7   1  300.94    9.72
  10   7  -1  286.66    8.06
  10  -7  -1  295.24    9.05
  -9   7   1  120.25    5.54
   9   7  -1  121.23    4.74
   9  -7  -1  120.42    5.13
  -8   7   1  591.02   14.01
   8  -7  -1  627.18   13.31
   8   7  -1  619.82   13.09
   7  -7  -1   12.38    1.40
   7   7  -1   14.45    1.54
  -7   7   1   13.38    1.59
  -6   7   1    2.34    0.65
   6  -7  -1    3.07    0.79
   6   7  -1    2.64    0.74
   5   7  -1   86.74    3.85
  -5   7   1   87.64    3.98
   5   7  -1   82.16    4.85
   5  -7  -1   94.05    3.64
   4  -7  -1  390.12    9.07
   4   7  -1  392.37    9.67
  -4   7   1  386.81    9.59
   4   7  -1  379.00   11.42
   3  -7  -1   19.21    1.53
  -3   7   1   18.11    1.63
   3   7  -1   17.94    2.19
   3   7  -1   20.09    1.75
   2   7  -1  294.39    9.46
  -2   7   1  298.58    7.64
  -2   7   1  307.12    8.40
  -2  -7   1  300.85    7.32
  -1   7   1  362.62    8.77
  -1  -7   1  377.15    8.28
  -1   7   1  364.03    9.49
   0   7   1   16.30    1.69
   0  -7   1   19.88    1.29
   0   7  -1   17.16    1.89
   1  -7   1   69.80    2.36
  -1   7  -1   69.11    3.80
  -2   7  -1   97.58    4.58
   2  -7   1   91.99    2.74
  -2   7  -1   95.15    3.05
   2   7   1   87.23    4.87
   2   7   1   96.68    4.14
  -3   7  -1   21.59    1.45
   3  -7   1   20.29    1.85
   3   7   1   19.54    1.79
   3   7   1   20.84    2.37
   3  -7   1   20.89    1.23
   4  -7   1   88.91    4.05
   4   7   1   79.40    4.81
   4   7   1   91.66    4.03
  -4   7  -1   86.44    3.32
   5   7   1   69.20    4.49
   5  -7   1   65.30    3.45
  -5   7  -1   62.62    2.96
   5   7   1   67.13    3.46
  -6   7  -1  398.98    9.74
   6   7   1  406.54   12.53
   6   7   1  396.91   10.12
   6  -7   1  411.05   10.50
  -7   7  -1    7.72    1.20
   7  -7   1    7.45    1.26
  -8   7  -1  272.29    6.14
  -8   7  -1  289.35    8.40
  -9   7  -1  457.22    9.73
   9  -7   1  487.90   12.68
  -9   7  -1  494.09   12.38
  10  -7   1  100.55    5.21
 -10   7  -1  102.53    5.10
  11  -7   1  121.50    5.94
 -11   7  -1  118.12    5.79
 -12   7  -1   27.80    2.92
  12  -7   1   32.86    3.23
  13  -7   1   57.53    4.50
 -13   7  -1   59.34    4.42
  14  -7   1    3.78    1.35
 -14   7  -1    2.64    1.05
  15  -7   1   12.37    2.26
 -15   7  -1   13.81    2.45
  16  -7   1   59.50    5.16
 -16   7  -1   60.12    5.21
 -17   7  -1    7.57    2.19
  17  -7   1    6.88    2.02
  17  -8  -1   12.88    2.45
 -17   8   1    9.86    2.55
 -16   8   1    7.89    2.20
  16  -8  -1   12.16    2.38
 -15   8   1   36.13    3.98
  15  -8  -1   34.80    3.65
 -14   8   1   24.46    3.19
  14  -8  -1   17.28    2.52
  13  -8  -1   95.22    5.55
 -13   8   1   91.76    5.81
  12  -8  -1    3.73    1.13
 -12   8   1    1.63    1.09
  11   8  -1  153.47    5.76
 -11   8   1  143.95    6.81
  11  -8  -1  154.73    6.56
  10  -8  -1   11.12    1.60
  10   8  -1    9.86    1.42
 -10   8   1   10.48    1.74
  -9   8   1  149.66    6.42
   9   8  -1  145.56    5.68
   9  -8  -1  148.95    5.80
   8   8  -1  355.17    9.71
   8  -8  -1  363.05    9.55
  -8   8   1  343.12   10.21
   8   8  -1  335.56   12.31
  -7   8   1   86.19    4.42
  -7   8   1   85.38    4.18
   7   8  -1   85.89    4.16
   7  -8  -1   91.80    4.06
   7   8  -1   79.42    5.30
   6   8  -1  616.80   14.07
  -6   8   1  607.82   14.20
   6  -8  -1  635.90   13.43
  -6   8   1  578.36   14.07
   6   8  -1  606.01   16.64
   5   8  -1   15.60    2.22
  -5   8   1   15.22    1.69
   5  -8  -1   19.00    1.67
  -5   8   1   15.44    1.77
   5   8  -1   16.44    1.81
   4  -8  -1   17.74    1.59
  -4   8   1   14.68    1.56
   4   8  -1   20.91    2.55
   4   8  -1   17.10    1.76
  -4   8   1   16.77    1.74
  -3   8   1   29.39    2.12
  -3   8   1   24.94    2.22
   3   8  -1   25.16    2.73
   3   8  -1   22.86    2.13
  -2   8   1  210.79    6.30
  -2  -8   1  222.10    6.24
  -2   8   1  216.04    7.18
   2   8  -1  222.10    8.35
   2   8  -1  215.58    6.89
   1  -8  -1  136.42    3.66
  -1   8   1  129.90    5.34
  -1  -8   1  139.50    4.42
   0  -8   1   35.42    1.89
   0   8   1   31.86    2.59
   0   8  -1   34.70    2.84
  -1   8  -1   39.78    3.07
   1  -8   1   38.16    1.76
   2  -8   1   39.26    1.72
  -2   8  -1   40.91    3.06
   2   8   1   39.75    3.40
  -2   8  -1   42.11    2.73
  -2   8  -1   37.96    1.86
   2   8   1   38.91    2.73
   3   8   1  330.63    9.27
  -3   8  -1  315.64    7.47
   3   8   1  309.34   10.65
   3  -8   1  337.79    7.03
  -3   8  -1  321.23    8.92
   4   8   1  100.96    4.58
  -4   8  -1   95.22    4.26
   4  -8   1   92.97    4.32
   4   8   1   90.95    5.44
  -4   8  -1  100.67    3.69
   5  -8   1    1.80    0.76
   5   8   1    1.24    1.11
  -5   8  -1    0.90    0.55
  -5   8  -1    1.25    0.54
   5   8   1    1.60    0.71
   6   8   1    2.12    0.84
  -6   8  -1    2.57    0.79
  -6   8  -1    1.43    0.57
   6  -8   1    3.62    1.03
  -7   8  -1  685.50   15.28
   7   8   1  683.55   18.77
  -7   8  -1  693.42   15.44
   7  -8   1  717.99   15.96
   8   8   1   20.55    2.92
  -8   8  -1   24.38    2.19
   8  -8   1   21.13    2.20
  -8   8  -1   22.39    2.13
  -9   8  -1  511.25   13.09
   9   8   1  529.09   16.53
  -9   8  -1  508.29   12.49
   9  -8   1  512.62   13.42
 -10   8  -1    1.16    0.78
  10  -8   1    0.94    0.78
 -10   8  -1   -0.04    0.71
 -11   8  -1    1.69    0.91
  11  -8   1    0.35    0.71
 -12   8  -1    3.41    1.11
  12  -8   1    3.62    1.36
 -13   8  -1    0.23    0.82
  13  -8   1    0.51    0.79
 -14   8  -1    6.32    1.75
  14  -8   1    4.07    1.66
  15  -8   1   20.83    2.96
  16  -8   1   12.69    2.43
 -14   9   1    0.22    1.13
  14  -9  -1    1.10    1.05
 -13   9   1   65.25    5.02
  13  -9  -1   63.52    4.53
 -12   9   1   99.19    5.95
  12  -9  -1  107.86    5.70
 -11   9   1   18.38    2.41
  11  -9  -1   14.41    2.00
  11   9  -1   21.73    3.40
  10   9  -1  344.42   13.46
 -10   9   1  327.97   10.92
  10   9  -1  353.95   10.17
  10  -9  -1  355.51   10.31
   9   9  -1  133.48    7.72
   9  -9  -1  144.18    5.79
   9   9  -1  145.20    5.94
  -9   9   1  137.51    6.27
   8   9  -1    1.78    1.25
   8   9  -1    0.86    0.58
   8  -9  -1    0.26    0.60
  -8   9   1    0.20    0.82
  -7   9   1   29.96    2.63
  -7   9   1   29.54    2.55
   7   9  -1   26.55    2.45
   7  -9  -1   28.31    2.24
   7   9  -1   21.57    2.98
  -6   9   1  762.41   17.28
  -6   9   1  768.43   16.95
   6   9  -1  711.42   19.71
   6   9  -1  764.68   17.15
   6  -9  -1  770.85   16.20
  -5   9   1  358.98   10.23
  -5   9   1  344.10    9.61
   5  -9  -1  368.84    9.25
   5   9  -1  356.94   12.24
   5   9  -1  361.27   10.16
   4   9  -1  501.85   15.04
   4   9  -1  545.02   13.20
  -4   9   1  542.33   13.30
  -4   9   1  514.16   12.33
   4  -9  -1  537.90   12.17
   3   9  -1  137.34    6.89
   3   9  -1  142.83    5.71
  -3   9   1  136.56    5.13
  -3   9   1  146.30    5.85
  -2   9   1  207.76    7.38
  -2   9   1  204.56    6.36
  -2   9   1  196.70    7.07
   2   9  -1  211.18    7.14
  -1   9   1  223.77    7.70
   1   9  -1  221.18    8.33
  -1  -9   1  243.45    6.51
  -1   9   1  237.83    7.75
   1  -9  -1  221.55    5.38
   1   9  -1  227.36    7.46
   0   9  -1    2.18    0.94
   0   9   1    0.88    0.60
   0  -9   1    0.86    0.37
   0   9   1    1.47    0.92
   0   9  -1    2.49    0.90
   1  -9   1   77.09    2.75
  -1   9  -1   73.72    4.42
  -1   9  -1   77.48    4.01
   1   9   1   76.49    4.16
  -2   9  -1   71.40    4.41
   2  -9   1   67.48    2.46
  -2   9  -1   73.44    3.91
   2   9   1   73.16    4.03
   3   9   1  209.91    8.84
  -3   9  -1  231.66    8.20
   3   9   1  212.82    7.52
  -3   9  -1  210.92    7.17
  -3   9  -1  207.16    5.59
  -4   9  -1   79.10    3.32
  -4   9  -1   83.95    4.23
   4   9   1   78.61    5.28
   4   9   1   88.78    4.51
   4  -9   1   80.58    4.25
  -5   9  -1   14.05    1.44
   5  -9   1   15.08    1.79
   5   9   1   14.04    2.31
   5   9   1   14.62    1.80
  -5   9  -1   15.89    1.85
   6  -9   1    5.13    1.11
   6   9   1    4.06    1.38
  -6   9  -1    5.56    1.07
  -6   9  -1    6.04    1.25
  -7   9  -1  250.27    7.89
   7   9   1  269.59   11.00
  -7   9  -1  272.64    8.53
   7  -9   1  282.67    8.72
   8   9   1  161.16    8.53
  -8   9  -1  154.66    6.17
   8  -9   1  157.53    6.50
  -8   9  -1  166.58    6.31
   9  -9   1   -0.97    0.90
  -9   9  -1    1.21    0.75
   9   9   1   -0.08    1.11
  -9   9  -1    1.43    0.85
 -10   9  -1   -0.21    0.71
 -10   9  -1    0.07    0.80
  10  -9   1    1.19    0.69
  10   9   1   -0.90    1.33
  11   9   1  124.52    8.11
  11  -9   1  107.96    5.79
 -11   9  -1  124.53    6.15
  12  -9   1    2.78    1.26
  12   9   1    1.88    1.31
  13  -9   1   74.25    5.17
  14  -9   1   60.99    4.99
  15  -9   1    0.24    1.19
  16  -9   1    2.10    1.45
  14  10  -1    2.11    1.45
  13  10  -1   14.57    3.11
  12  10  -1   12.09    2.90
  11  10  -1   63.73    5.86
 -11  10   1   68.78    4.75
  11 -10  -1   72.14    4.46
 -10  10   1    0.52    0.75
  10 -10  -1    0.91    0.60
  10  10  -1   -1.45    1.02
  10  10  -1    0.23    0.97
  -9  10   1    1.25    0.97
   9  10  -1    2.33    1.60
   9  10  -1    0.57    0.80
   9 -10  -1    0.47    0.65
   8  10  -1    7.08    2.01
   8 -10  -1   11.20    1.56
  -8  10   1   10.16    1.74
   8  10  -1    8.07    1.49
   7 -10  -1   20.76    2.03
   7  10  -1   15.62    1.96
  -7  10   1   20.95    2.26
  -7  10   1   18.00    2.10
   7  10  -1   16.82    2.76
   6  10  -1   14.11    2.54
  -6  10   1   12.23    1.77
   6 -10  -1   16.51    1.74
   6  10  -1   13.32    1.85
  -6  10   1   11.98    1.65
  -5  10   1    1.59    0.71
  -5  10   1    1.70    0.80
   5  10  -1    1.77    0.91
   5 -10  -1    0.95    0.67
   5  10  -1   -1.07    1.22
   4  10  -1  208.70    7.55
  -4  10   1  204.71    6.77
   4 -10  -1  205.80    6.67
   4  10  -1  204.68    9.14
  -4  10   1  216.37    7.78
  -3  10   1   -1.24    1.04
  -3  10   1    1.03    0.67
   3  10  -1   -0.13    0.70
  -2  10   1  161.06    6.60
  -2  10   1  168.64    6.86
   2  10  -1  176.13    6.74
  -1  10   1  112.15    5.38
   1  10  -1  100.06    5.63
   1  10  -1  103.00    5.06
  -1  10   1  108.82    5.33
   1 -10  -1  108.68    3.40
   0  10   1    3.13    1.04
   0  10   1    2.39    0.97
   0  10  -1    3.77    1.20
   0  10  -1    3.22    0.95
   1  10   1   66.04    4.19
  -1  10  -1   69.18    4.51
   1  10   1   64.55    4.04
  -1  10  -1   64.11    3.92
  -2  10  -1  360.46   11.32
   2  10   1  335.59   10.35
  -2  10  -1  340.03   10.12
   3  10   1   34.88    3.02
   3  10   1   33.51    3.62
  -3  10  -1   36.49    2.95
  -4  10  -1    2.49    0.66
  -4  10  -1    3.53    1.00
   4  10   1    6.06    1.68
   4 -10   1    3.27    1.01
   4  10   1    2.61    1.06
   5  10   1    1.84    1.13
  -5  10  -1    2.97    0.75
  -5  10  -1    2.00    0.90
   5 -10   1    2.01    0.79
   5  10   1    2.88    0.99
   6  10   1   24.22    3.36
  -6  10  -1   25.47    2.09
  -6  10  -1   30.40    2.72
   6 -10   1   33.03    2.77
  -7  10  -1   76.41    4.39
   7  10   1   71.85    5.75
   7 -10   1   81.54    4.47
  -8  10  -1   90.15    4.84
   8 -10   1   87.74    4.77
   8  10   1   87.06    6.39
   9  10   1    4.59    1.87
  -9  10  -1    4.27    1.27
   9 -10   1    2.36    1.16
  10 -10   1    2.71    1.19
  10  10   1    4.05    1.51
 -10  10  -1    1.48    0.92
  11 -10   1   11.93    1.97
  11  10   1   11.72    2.68
  12 -10   1    3.35    1.25
  12  10   1    5.13    2.13
  13 -10   1    5.43    1.50
  13  10   1    5.22    2.45
  14 -10   1   28.21    3.50
  13  11  -1   31.74    4.59
  12  11  -1   24.52    4.00
  11  11  -1   62.53    6.03
  10  11  -1   40.48    3.52
  10  11  -1   36.65    4.48
   9  11  -1    1.90    0.85
   9  11  -1    2.23    1.27
   8  11  -1   10.16    2.41
   8  11  -1    7.99    1.55
   7 -11  -1    6.26    1.14
   7  11  -1    8.10    2.22
   7  11  -1    4.20    1.20
  -6  11   1  299.62    9.95
   6  11  -1  277.34   11.77
   6  11  -1  296.47    9.88
  -6  11   1  274.03    8.78
   6 -11  -1  297.04    8.72
  -5  11   1   25.97    2.31
   5 -11  -1   34.24    2.55
   5  11  -1   30.97    2.93
   5  11  -1   30.51    3.73
  -5  11   1   31.33    2.93
  -4  11   1    6.63    1.41
  -4  11   1    5.35    1.06
   4 -11  -1    8.16    1.31
   4  11  -1    4.09    1.53
   4  11  -1    4.40    1.30
   3 -11  -1   13.67    1.66
   3  11  -1   14.54    2.05
  -3  11   1   17.12    2.16
  -2  11   1    1.34    0.89
   2  11  -1    0.98    0.97
   2  11  -1    1.39    0.80
  -2  11   1    0.57    0.71
   1  11  -1  113.58    5.62
   1  11  -1  112.84    6.18
  -1  11   1  112.45    5.70
  -1  11   1  114.27    5.73
   0  11  -1  288.57   10.44
   0  11   1  302.39    9.95
   0  11   1  296.12   10.05
   0  11  -1  287.03    9.57
  -1  11  -1  421.79   12.05
   1  11   1  400.64   12.24
   1  11   1  420.97   12.28
  -1  11  -1  413.39   12.84
  -2  11  -1   13.63    2.07
  -2  11  -1   12.80    1.86
   2  11   1   14.88    2.07
  -3  11  -1    9.05    1.66
   3 -11   1    7.56    1.43
   3  11   1    3.95    1.25
   4  11   1   28.75    3.01
   4 -11   1   32.17    2.88
   4  11   1   31.36    3.69
  -4  11  -1   35.44    3.08
  -5  11  -1   19.09    2.28
   5  11   1   24.65    2.66
   5 -11   1   24.95    2.50
   5  11   1   18.26    2.98
  -6  11  -1    0.97    0.93
   6 -11   1    1.37    0.79
   6  11   1    1.01    1.16
   7 -11   1    9.66    1.65
   7  11   1   13.34    2.78
  -7  11  -1   12.24    1.90
   8  11   1    0.89    1.20
  -8  11  -1    0.04    0.86
   8 -11   1    0.41    0.83
   9  11   1   13.18    2.79
   9 -11   1   13.41    2.00
  -9  11  -1   16.81    2.21
 -10  11  -1   -0.01    1.00
  10  11   1    1.97    1.75
  10 -11   1    0.13    0.75
  11 -11   1   67.38    4.65
  11  11   1   57.27    5.97
  12  11   1   40.35    5.06
  12  12  -1    4.74    2.27
  11  12  -1   11.90    2.91
  10  12  -1   97.16    7.64
   9  12  -1   40.26    3.64
   9  12  -1   34.55    4.52
   8  12  -1   47.77    5.05
   8  12  -1   34.44    3.29
   7  12  -1   17.35    3.11
   7  12  -1   11.06    1.86
   6  12  -1   36.29    3.37
   6  12  -1   34.09    4.16
  -5  12   1   49.51    3.89
   5  12  -1   54.52    4.07
   5  12  -1   52.20    5.12
   4  12  -1   62.17    4.32
  -4  12   1   54.37    4.14
   3  12  -1   70.59    4.64
  -3  12   1   72.65    4.75
   2  12  -1  540.06   16.08
  -2  12   1  559.34   15.16
  -2  12   1  541.95   15.13
   2  12  -1  536.50   14.91
   1  12  -1  168.40    8.07
  -1  12   1  179.53    7.73
   1  12  -1  185.82    7.78
  -1  12   1  188.36    7.88
   0  12  -1    2.13    0.91
   0  12   1    3.36    1.18
   0  12   1    3.85    1.14
   0  12  -1    3.82    1.39
  -1  12  -1   21.65    2.82
   1  12   1   23.40    2.67
  -1  12  -1   21.66    2.59
   1  12   1   19.69    2.51
   2  12   1  114.69    6.24
  -2  12  -1  119.62    6.09
  -2  12  -1  117.95    6.50
   2  12   1  114.71    6.11
   3  12   1  328.09   11.16
  -3  12  -1  333.66   10.98
   3 -12   1  336.32   10.68
  -4  12  -1   20.44    2.49
   4 -12   1   16.43    2.16
   4  12   1   24.72    2.75
  -5  12  -1  151.65    6.85
   5  12   1  145.51    8.49
   6 -12   1  217.68    8.09
   6  12   1  203.66   10.57
  -6  12  -1  215.36    8.58
   7  12   1   34.76    4.36
  -7  12  -1   42.62    3.61
   7 -12   1   46.06    3.61
   8  12   1    3.69    1.87
  -8  12  -1    0.88    1.03
   8 -12   1    2.61    1.01
  -9  12  -1   10.90    1.90
   9  12   1    8.76    2.62
  10  12   1   25.91    4.03
  11  12   1    3.59    1.71
  10  13  -1  245.69   12.79
   9  13  -1   19.88    3.47
   9  13  -1   19.30    2.67
   8  13  -1  112.46    6.46
   8  13  -1  136.15    9.01
   7  13  -1    1.52    0.87
   7  13  -1    3.61    1.87
   6  13  -1    0.34    1.12
   6  13  -1    1.58    1.36
   5  13  -1    2.63    1.25
   4  13  -1    5.11    1.37
  -4  13   1    7.06    1.61
  -3  13   1    0.20    1.04
   3  13  -1   -0.51    0.90
   3  13  -1    1.66    1.07
   2  13  -1   10.97    2.10
   2  13  -1   13.00    2.48
  -2  13   1   11.70    2.11
  -2  13   1   12.63    2.14
  -1  13   1   54.03    4.30
  -1  13   1   54.87    4.39
   1  13  -1   48.40    4.06
   1  13  -1   56.62    4.70
   0  13   1   34.61    3.44
   0  13   1   31.32    3.22
   0  13  -1   36.07    3.71
   0  13  -1   31.59    3.29
  -1  13  -1   68.56    4.79
   1  13   1   66.75    4.89
  -1  13  -1   69.41    5.20
   1  13   1   68.25    4.85
   2  13   1   42.00    3.84
  -2  13  -1   35.51    3.68
   2  13   1   36.33    3.57
  -2  13  -1   37.80    3.58
  -3  13  -1  237.74    9.40
   3 -13   1  239.83    8.96
   3  13   1  216.39    9.54
  -4  13  -1  174.74    7.92
  -5  13  -1   26.34    2.98
   6  13   1    3.21    1.84
  -6  13  -1    1.62    1.14
  -7  13  -1   79.89    5.29
   7  13   1   72.40    6.49
  -8  13  -1   12.15    2.10
   8  13   1   11.04    2.92
  -9  13  -1  147.11    7.39
   9  13   1  137.40    9.37
   8  14  -1    4.45    1.70
   8  14  -1    2.43    1.62
   7  14  -1   14.74    3.11
   7  14  -1   16.92    2.69
   6  14  -1  221.34    9.61
   5  14  -1   25.25    3.13
   4  14  -1   84.77    5.65
   4  14  -1   67.94    5.62
   3  14  -1    4.21    1.55
   3  14  -1    4.37    1.48
   2  14  -1  253.43   10.22
   2  14  -1  241.94   10.70
   1  14  -1   73.92    5.24
  -1  14   1   68.23    4.98
   1  14  -1   71.77    5.48
   0  14  -1   10.74    2.09
   0  14   1   10.70    2.09
   0  14  -1   10.29    2.16
  -1  14  -1    0.88    1.18
   1  14   1   -0.48    1.26
  -1  14  -1    1.35    1.17
  -2  14  -1  168.53    8.12
   2  14   1  159.25    8.06
  -3  14  -1  151.87    7.64
   3  14   1  128.96    7.33
   4  14   1   42.20    4.20
  -4  14  -1   52.72    4.41
  -5  14  -1  174.30    8.35
  -6  14  -1  159.99    8.04
  -7  14  -1  122.98    6.97
   7  14   1  101.55    7.99
  -8  14  -1   16.37    2.46
   7  15  -1   11.89    2.37
   6  15  -1    0.92    1.19
   5  15  -1    0.28    1.48
   5  15  -1   -1.45    1.77
   4  15  -1   -2.74    1.94
   4  15  -1   -0.36    1.12
   3  15  -1   13.09    2.39
   3  15  -1    9.49    2.28
   2  15  -1    5.27    1.65
   2  15  -1    3.45    1.65
   1  15  -1    5.58    1.93
  -1  15   1    9.45    1.95
   1  15  -1    8.57    2.03
   0  15  -1   27.88    3.59
   0  15  -1   20.98    2.89
   0  15   1   21.31    2.98
  -1  15  -1   41.57    4.12
  -1  15  -1   35.84    4.04
   1  15   1   39.31    4.10
  -2  15  -1  103.69    6.59
  -3  15  -1    7.45    2.01
  -4  15  -1    0.50    1.35
  -5  15  -1   56.87    4.89
  -6  15  -1    5.04    1.75
  -7  15  -1   10.76    2.33
   6  16  -1   77.32    6.55
   5  16  -1   16.30    3.03
   4  16  -1   11.02    2.52
   3  16  -1    8.02    2.17
   2  16  -1   26.31    3.71
   1  16  -1   37.58    4.33
   0  16  -1   11.93    2.61
 -19   0   2   96.67    6.94
 -18   0   2    6.04    2.10
 -17   0   2   46.30    4.44
 -16   0   2  488.94   15.17
 -15   0   2   28.78    3.17
 -14   0   2    0.60    0.71
 -13   0   2   69.32    4.48
 -13   0   2   85.06    3.27
 -12   0   2   53.43    2.41
 -12   0   2   55.94    3.75
 -11   0   2   98.17    4.86
 -11   0   2  105.51    3.43
 -10   0   2    0.04    0.62
  -9   0   2    4.28    0.93
  -8   0   2  140.38    5.09
  -7   0   2  429.98   10.00
  -6   0   2   20.51    1.56
  -5   0   2    1.05    0.36
  -4   0   2 6110.34   97.55
  -3   0   2 2383.27   39.08
  -2   0   2 6014.21   95.21
   0   0  -2  228.76    4.48
   2   0   2  147.57    3.76
   3   0   2 1276.68   22.18
   4   0   2  181.73    5.07
   5   0   2 1042.05   19.62
   6   0   2  116.26    4.51
   7   0   2  158.52    5.66
   8   0   2  199.58    6.89
   9   0   2    5.25    1.23
  10   0   2   10.74    1.74
  11   0   2   30.45    2.97
  12   0   2 1536.94   32.18
  13   0   2  109.70    6.33
 -14   0  -2   45.51    3.38
  14   0   2   48.88    4.43
  15   0   2   58.49    5.03
  16   0   2   42.22    4.52
 -17   0  -2    9.27    2.26
 -19   1   2   50.80    5.02
 -18   1   2   29.67    3.73
 -18  -1   2   30.97    3.75
 -17  -1   2  194.62    9.26
 -17   1   2  215.00    9.69
 -16   1   2   39.86    3.84
 -16  -1   2   41.82    3.99
 -15   1   2    0.64    1.11
 -15  -1   2    0.06    0.98
 -14   1   2   97.14    5.58
 -14  -1   2   86.34    5.27
 -13   1   2   28.16    2.84
 -13   1   2   26.08    1.75
 -13  -1   2   27.49    2.82
 -12  -1   2  206.39    7.78
 -12   1   2  214.73    5.66
 -12   1   2  212.43    7.89
  12  -1  -2  203.70    8.03
 -11   1   2  331.15    9.93
 -11   1   2  349.44    7.64
  11  -1  -2  330.85   10.24
 -11  -1   2  328.75    9.91
 -10  -1   2    4.92    1.24
 -10   1   2    3.64    0.56
  10  -1  -2    2.90    0.99
 -10   1   2    4.43    0.99
  -9   1   2   34.04    2.52
  -9  -1   2   36.77    2.59
   9  -1  -2   31.20    1.05
   9  -1  -2   36.13    2.64
  -9   1   2   34.74    1.61
   8  -1  -2  114.21    2.56
   8  -1  -2  115.49    4.52
  -8  -1   2  106.02    4.28
  -8   1   2  112.19    4.45
  -7  -1   2  359.58    8.33
  -7   1   2  363.89    8.48
   7  -1  -2  356.23    8.33
   6  -1  -2  358.01    8.28
  -6   1   2  363.34    8.56
  -6  -1   2  353.19    8.36
  -5   1   2   16.44    1.31
   5  -1  -2   13.91    1.12
  -5  -1   2   14.41    1.18
   4  -1  -2 1602.48   25.54
  -4  -1   2 1661.65   27.19
  -3  -1   2 4257.92   67.16
  -3   1   2 4131.00   67.58
  -2   1   2   55.76    2.07
  -2  -1   2   52.75    1.72
  -1  -1   2  541.41    9.45
   0   1  -2  480.02    9.10
   0   1   2  478.26    9.22
   1  -1   2   77.56    2.50
   1   1   2   78.75    2.13
   1  -1   2   75.69    2.31
   2  -1   2 1650.76   28.47
   2   1   2 1738.21   28.26
   3  -1   2   66.91    2.55
   3   1   2   60.78    2.46
   4   1   2  975.95   18.10
   4  -1   2  967.09   17.95
   5   1   2  343.26    8.30
   5  -1   2  337.41    8.26
   6  -1   2    0.12    0.41
   6   1   2    0.43    0.52
   7   1   2    3.79    0.92
  -7  -1  -2    4.14    0.41
   7  -1   2    4.04    0.87
  -8  -1  -2   52.45    1.48
   8   1   2   60.08    3.49
   8  -1   2   55.19    3.36
   9   1   2  967.30   20.64
   9  -1   2  922.20   20.31
  10   1   2  114.97    5.67
  10  -1   2  122.98    5.71
  11   1   2  168.93    7.34
 -11   1  -2  165.69    6.13
  11  -1   2  172.33    7.31
  12  -1   2  221.68    8.90
  12   1   2  220.28    9.08
 -12   1  -2  229.20    7.67
  13   1   2   16.08    2.50
  13  -1   2   14.66    2.35
 -13   1  -2   16.59    1.92
  14  -1   2   37.74    3.83
 -14   1  -2   36.61    3.03
  15   1   2   31.64    3.89
  15  -1   2   30.95    3.58
 -16   1  -2  158.80    8.23
  16  -1   2  166.86    9.03
  17  -1   2   -1.91    1.32
 -17   1  -2   -0.11    1.38
 -19   2   2   25.04    3.62
 -18  -2   2   13.33    2.57
 -18   2   2   12.73    2.63
 -17  -2   2    1.37    1.36
 -17   2   2    0.89    1.09
 -16   2   2   83.31    5.76
 -16  -2   2   79.26    5.51
 -15  -2   2    2.47    1.19
 -15   2   2    1.74    1.09
  14  -2  -2   13.64    2.21
 -14  -2   2   13.56    2.16
 -14   2   2    8.21    1.71
 -13  -2   2   11.25    1.80
  13  -2  -2    9.05    1.77
 -13   2   2   10.84    1.88
 -12   2   2   24.15    2.59
  12  -2  -2   26.67    2.74
 -11   2   2    7.10    1.39
  11  -2  -2    5.34    1.23
 -10   2   2  184.68    6.47
  10  -2  -2  167.48    6.17
  -9   2   2  236.36    7.54
   9  -2  -2  245.47    7.48
   8  -2  -2  543.99    9.81
  -8   2   2  518.81   12.39
   8  -2  -2  536.64   12.15
   7  -2  -2  298.55    6.06
  -7   2   2  288.37    7.82
   7  -2  -2  284.99    7.48
   6  -2  -2  436.96    8.27
  -6   2   2  413.12    8.91
  -6   2   2  412.31    9.77
   6  -2  -2  435.70    8.08
   6  -2  -2  423.55    9.26
  -5   2   2   12.07    0.92
   5  -2  -2   13.61    0.79
   5  -2  -2   13.09    1.04
  -5   2   2   12.30    1.19
  -4   2   2  114.45    3.77
  -4   2   2  119.13    3.02
   4  -2  -2  117.84    3.14
  -3  -2   2 1121.90   19.20
   3  -2  -2 1138.76   18.65
  -3   2   2 1119.82   20.08
  -3   2   2 1144.51   18.55
  -2  -2   2  321.08    6.02
  -2   2   2  317.81    7.10
   1   2  -2  420.53    8.24
  -1   2   2  420.07    8.75
  -1   2   2  433.37    8.07
   0   2   2   42.42    1.93
   0   2  -2   42.07    1.98
   0   2   2   42.89    1.24
   0  -2  -2   44.34    1.22
   0   2   2   44.19    1.91
  -1   2  -2  992.57   17.47
  -1   2  -2 1001.87   18.07
  -1  -2  -2 1003.90   16.79
   1   2   2 1037.19   17.88
   1   2   2  978.77   16.80
   1  -2   2  971.18   17.02
  -2   2  -2  534.41   10.03
   2  -2   2  526.67   10.64
  -2  -2  -2  535.10   10.05
   2   2   2  540.51   10.14
  -2   2  -2  526.44   10.41
  -3   2  -2 1611.55   28.60
  -3  -2  -2 1699.20   28.52
  -3   2  -2 1694.64   28.13
   3   2   2 1698.37   28.67
   3  -2   2 1662.46   28.88
   4   2   2 1129.42   20.64
  -4   2  -2 1109.20   20.32
   4  -2   2 1129.73   20.52
   5  -2   2    1.94    0.60
  -5  -2  -2    2.10    0.39
   5   2   2    2.61    0.72
  -5   2  -2    2.41    0.60
   6   2   2  146.80    5.33
  -6  -2  -2  152.84    3.68
  -6   2  -2  161.99    5.05
   6  -2   2  152.44    5.20
  -7   2  -2   99.43    4.00
  -7  -2  -2  105.61    2.76
   7  -2   2   94.30    4.21
   7   2   2  100.24    4.52
   8   2   2    0.21    0.61
   8  -2   2    0.76    0.67
  -8   2  -2   -0.14    0.49
  -9   2  -2  118.02    2.84
   9  -2   2  115.96    5.33
  -9   2  -2  120.17    4.78
   9   2   2  121.94    5.65
 -10   2  -2   11.21    1.50
  10  -2   2   12.91    1.89
  10   2   2   10.46    1.84
  11  -2   2   94.16    5.22
 -11   2  -2  102.41    4.71
  11   2   2  100.61    5.63
  12  -2   2   41.64    3.66
  12   2   2   47.46    3.99
 -12   2  -2   44.80    3.10
 -13   2  -2  212.89    7.57
  13   2   2  209.45    9.17
  13  -2   2  205.06    8.83
  14  -2   2   11.32    2.25
 -14   2  -2   12.99    1.86
 -14   2  -2   15.55    2.45
  15  -2   2   32.63    3.79
 -15   2  -2   34.38    3.61
 -16   2  -2    1.32    0.96
  16  -2   2   -0.96    1.61
  17  -2   2    4.74    1.71
 -17   2  -2    6.51    1.93
 -19   3   2   59.91    5.57
 -18   3   2   15.78    2.82
 -18  -3   2   19.00    3.09
 -17   3   2   34.67    3.90
 -17  -3   2   30.02    3.58
 -16  -3   2   31.61    3.46
  16  -3  -2   31.21    3.59
 -16   3   2   29.93    3.37
 -15  -3   2   20.53    2.76
 -15   3   2   21.62    2.87
  15  -3  -2   19.21    2.73
 -14   3   2   -0.79    0.96
  14  -3  -2    1.08    0.87
 -14  -3   2    2.26    1.20
  13  -3  -2   34.02    3.22
 -13   3   2   29.81    2.94
 -12   3   2   24.94    2.62
  12  -3  -2   25.05    2.60
 -11   3   2  293.36    9.24
  11  -3  -2  283.30    9.01
  11   3  -2  273.41    5.78
  10   3  -2    1.37    0.34
  10  -3  -2    1.91    0.78
 -10   3   2    1.05    0.69
   9  -3  -2   83.70    3.96
  -9   3   2   82.97    4.17
  -8   3   2  197.17    6.63
   8  -3  -2  202.09    6.25
   8  -3  -2  214.62    4.93
   7  -3  -2  524.01   11.40
   7  -3  -2  542.63   10.23
   7  -3  -2  524.63   10.24
  -7   3   2  515.73   12.10
   6  -3  -2  627.15   11.46
   6  -3  -2  611.18   12.15
   6  -3  -2  600.85   11.48
  -6   3   2  617.46   13.03
   5  -3  -2    4.37    0.66
  -5   3   2    4.14    0.80
  -5   3   2    2.75    0.53
   4  -3  -2  124.10    3.16
   4  -3  -2  122.40    3.88
  -4   3   2  117.36    3.10
  -4   3   2  113.18    3.93
   4  -3  -2  119.65    3.49
  -3   3   2 4483.85   72.89
   3  -3  -2 4574.51   74.52
   3  -3  -2 4720.72   74.06
   3  -3  -2 4814.12   72.81
  -3   3   2 4794.18   74.92
   2   3  -2 2000.59   33.86
  -2   3   2 2036.23   33.92
   2  -3  -2 2073.84   31.65
   2  -3  -2 1949.58   33.23
   2  -3  -2 2048.38   33.87
   2  -3  -2 1957.82   32.79
  -2   3   2 1976.04   32.46
   1  -3  -2  582.47   10.79
  -1   3   2  582.76   11.69
  -1   3   2  600.50   10.41
   1  -3  -2  583.56   11.25
   1   3  -2  574.57   11.56
   0  -3  -2  231.06    5.27
   0   3  -2  219.93    6.07
   0   3   2  228.69    6.07
   0   3   2  243.19    5.93
   0  -3  -2  244.17    5.58
   1   3   2  432.09    9.60
  -1  -3  -2  432.92    8.75
  -1  -3  -2  434.95    8.25
  -1   3  -2  423.38    9.53
   2  -3   2   71.77    2.94
   2   3   2   76.47    3.24
   2  -3   2   69.51    2.13
  -2  -3  -2   70.81    2.51
  -2  -3  -2   70.52    2.48
  -3   3  -2  186.28    4.53
  -3  -3  -2  188.69    4.99
   3  -3   2  191.58    5.37
  -3   3  -2  184.71    5.24
  -3  -3  -2  185.86    4.67
   4  -3   2 1488.92   25.61
  -4   3  -2 1396.04   24.29
  -4  -3  -2 1394.55   24.18
  -4   3  -2 1410.02   25.35
   4   3   2 1421.05   25.45
  -5  -3  -2   32.80    1.70
   5  -3   2   37.41    2.28
   5   3   2   33.71    2.28
  -5   3  -2   36.57    2.20
  -6   3  -2  851.35   16.75
   6  -3   2  823.17   16.92
  -6  -3  -2  824.63   14.95
   6   3   2  830.61   17.32
   7   3   2  121.32    5.23
   7  -3   2  127.90    5.01
  -7  -3  -2  129.24    3.51
  -7   3  -2  127.71    4.73
  -8   3  -2   48.29    2.90
   8   3   2   49.31    3.37
   8  -3   2   46.81    3.11
   9   3   2    2.19    0.80
  -9   3  -2    4.34    0.57
  -9   3  -2    4.69    0.97
 -10   3  -2    0.75    0.29
  10  -3   2    0.59    0.79
 -10   3  -2    0.29    0.63
 -11   3  -2    6.01    1.24
  11  -3   2    9.13    1.73
  12  -3   2  204.11    8.36
 -12   3  -2  197.17    7.27
 -12   3  -2  201.40    7.94
 -13   3  -2    1.72    1.19
 -13   3  -2    1.23    0.93
  13  -3   2   -0.68    0.77
 -14   3  -2   -0.31    1.14
  14  -3   2    1.60    1.12
 -14   3  -2    1.29    0.92
 -15   3  -2   11.85    2.14
  15  -3   2    9.67    2.24
  16  -3   2    0.23    0.98
 -16   3  -2    0.55    0.94
  17  -3   2   30.22    3.91
 -17   3  -2   31.97    3.85
 -19   4   2   23.26    3.67
 -18  -4   2   45.65    4.56
 -18   4   2   48.50    4.84
 -17  -4   2  116.55    7.05
 -17   4   2  112.68    7.23
  17  -4  -2  117.33    7.35
 -16   4   2    3.05    1.18
 -16  -4   2    5.50    1.71
  16  -4  -2    3.16    1.31
 -15   4   2   88.54    5.80
  15  -4  -2   89.77    5.80
 -15  -4   2   75.84    5.23
 -14   4   2   64.27    4.71
  14  -4  -2   60.29    4.51
 -13   4   2    1.17    1.08
  13  -4  -2    0.95    0.90
  12  -4  -2   42.19    3.33
 -12   4   2   39.94    3.43
  11   4  -2    8.68    0.91
  11  -4  -2    9.30    1.56
 -11   4   2    7.45    1.50
 -10   4   2   63.68    3.89
  10  -4  -2   59.74    3.55
  10   4  -2   62.24    2.47
   9   4  -2  172.12    4.75
   9  -4  -2  181.40    6.14
   8  -4  -2 1693.29   30.28
  -8   4   2 1656.09   31.22
   7  -4  -2   61.80    2.93
  -7   4   2   57.93    3.22
   6  -4  -2   37.98    1.98
  -6   4   2   36.51    2.39
  -6   4   2   34.55    1.87
  -5   4   2  530.36   11.89
  -5   4   2  527.40   10.67
  -4   4   2  172.39    5.32
   4  -4  -2  179.86    4.21
  -3   4   2    8.81    1.08
  -3   4   2   10.72    0.72
   3  -4  -2   11.33    0.73
   3   4  -2    8.82    1.23
   3  -4  -2   10.31    1.07
   3  -4  -2    9.48    0.99
  -2   4   2   45.86    2.35
   2  -4  -2   48.10    2.39
   2  -4  -2   46.55    2.12
   2   4  -2   41.71    2.44
   1  -4  -2  944.90   17.70
   1  -4  -2  942.17   16.29
  -1   4   2  927.76   17.49
   1   4  -2  911.49   17.81
  -1   4   2  906.25   16.44
   0   4  -2  435.31   10.37
   0  -4  -2  449.03   10.05
   0   4   2  450.82   10.45
   0   4   2  469.16    9.94
   1   4   2   68.93    3.30
  -1   4  -2   68.26    3.24
  -1  -4  -2   67.43    3.04
  -2   4  -2  780.47   13.09
  -2   4  -2  783.72   15.75
   2   4   2  738.59   15.87
   2  -4   2  750.00   13.28
  -2  -4  -2  778.14   14.48
  -3   4  -2  104.04    2.87
   3  -4   2   99.37    3.86
  -4   4  -2  283.90    6.42
   4  -4   2  291.01    7.66
  -5   4  -2  185.42    5.14
  -5   4  -2  190.53    4.95
   5  -4   2  193.06    5.96
  -6   4  -2  288.18    6.99
   6  -4   2  299.48    8.18
  -6   4  -2  314.27    7.60
  -6   4  -2  274.21    7.84
   7  -4   2  530.33   12.89
  -7   4  -2  548.10   12.75
  -8   4  -2    1.17    0.43
  -8   4  -2    0.74    0.66
  -8   4  -2    0.88    0.69
   9  -4   2    0.95    0.74
  -9   4  -2    1.18    0.50
  -9   4  -2    0.07    0.64
  -9   4  -2    1.33    0.87
  10  -4   2  133.17    5.99
 -10   4  -2  132.33    3.86
 -10   4  -2  125.43    5.44
 -10   4  -2  134.73    5.67
 -11   4  -2  120.59    5.63
 -11   4  -2  116.29    5.32
  11  -4   2  116.61    6.02
 -12   4  -2    0.87    1.03
 -12   4  -2    1.87    0.97
 -13   4  -2  154.47    6.97
  13  -4   2  161.14    7.59
 -14   4  -2   57.63    4.45
  14  -4   2   68.61    5.12
 -15   4  -2   41.03    3.96
  15  -4   2   42.93    4.30
  16  -4   2    8.03    2.04
 -16   4  -2    5.67    1.84
  17  -4   2    3.06    1.41
 -17   4  -2    5.59    1.81
 -18  -5   2    0.85    1.43
 -18   5   2    2.97    1.75
  18  -5  -2    2.57    1.63
 -17  -5   2    3.97    1.60
 -17   5   2    3.46    1.24
  17  -5  -2    4.05    1.63
 -16   5   2   51.15    4.70
 -16  -5   2   48.57    4.40
  16  -5  -2   52.53    4.65
  15  -5  -2  314.29   11.50
 -15   5   2  315.73   11.88
 -14   5   2    1.97    1.15
  14  -5  -2    2.15    1.22
  13  -5  -2    6.64    1.60
 -13   5   2    9.76    1.92
  12  -5  -2  239.96    8.51
 -12   5   2  225.48    8.74
  11  -5  -2   88.79    4.59
 -11   5   2   89.27    4.99
  11   5  -2   85.75    3.28
  10  -5  -2    1.80    0.84
  10   5  -2    1.77    0.52
 -10   5   2    2.43    1.07
   9  -5  -2    0.45    0.47
  -9   5   2   -0.58    0.67
   9   5  -2    0.30    0.43
   8   5  -2  146.48    4.53
   8  -5  -2  160.15    5.30
  -8   5   2  148.44    5.82
  -7   5   2   76.26    3.82
   7  -5  -2   80.60    3.28
  -6   5   2   77.73    3.75
   6  -5  -2   80.45    3.04
  -5   5   2  305.35    8.30
   5  -5  -2  323.85    7.07
   4  -5  -2   34.12    1.60
   4   5  -2   34.76    2.62
  -4   5   2   31.38    1.22
  -4   5   2   35.81    2.30
   3  -5  -2   97.15    3.83
   3  -5  -2   97.68    2.81
  -3   5   2   96.93    3.87
   3   5  -2   91.72    4.23
   2   5  -2 2036.36   36.65
  -2   5   2 2035.08   35.63
   2  -5  -2 2060.29   35.72
  -2   5   2 2072.75   34.76
  -1   5   2  148.14    4.32
  -1   5   2  157.70    4.86
   1  -5  -2  155.75    3.93
   1  -5  -2  144.57    4.92
   0   5  -2  205.84    6.49
   1   5   2  842.41   17.53
  -1   5  -2  810.96   17.21
   2   5   2 2313.51   40.20
  -2   5  -2 2315.01   39.66
   2  -5   2 2230.05   36.06
  -2   5  -2 2186.74   36.02
   3  -5   2  267.54    7.43
   3   5   2  265.44    8.21
  -3   5  -2  269.59    5.80
  -4   5  -2 1097.26   19.50
   4   5   2 1124.30   22.96
   4  -5   2 1101.35   21.32
  -5   5  -2  856.62   15.59
  -5   5  -2  873.85   16.24
   5  -5   2  854.27   17.60
   6  -5   2  535.84   12.62
  -6   5  -2  555.42   11.72
  -6   5  -2  541.59   10.95
  -7   5  -2  707.82   14.12
  -7   5  -2  719.06   14.99
  -7   5  -2  730.82   14.18
   7  -5   2  743.16   16.07
  -8   5  -2  264.51    6.91
  -8   5  -2  275.82    7.77
   8  -5   2  278.08    8.38
  -9   5  -2   87.13    3.81
  -9   5  -2   93.29    4.42
  -9   5  -2   94.80    3.52
   9  -5   2   98.37    4.86
  10  -5   2  135.28    6.11
 -10   5  -2  131.39    4.30
 -10   5  -2  130.58    5.65
 -11   5  -2   99.69    5.04
  11  -5   2   91.29    5.19
  12  -5   2   47.32    3.90
 -12   5  -2   51.05    3.83
  13  -5   2   19.21    2.79
 -13   5  -2   17.14    2.33
  14  -5   2  102.84    6.38
 -14   5  -2  105.61    6.11
  15  -5   2    5.07    1.61
 -15   5  -2    4.31    1.57
 -16   5  -2    5.16    1.71
  16  -5   2    8.70    2.30
  17  -5   2    1.62    1.29
 -17   5  -2    2.49    1.60
 -18   6   2    3.51    1.92
  18  -6  -2    0.39    1.23
 -17  -6   2   19.01    3.02
 -17   6   2   16.37    3.00
  17  -6  -2   17.48    2.89
  16  -6  -2   35.86    3.81
 -16   6   2   35.58    3.97
 -15   6   2   30.03    3.50
  15  -6  -2   30.69    3.40
 -14   6   2  129.04    6.96
  14  -6  -2   95.50    5.76
  13  -6  -2   28.24    2.89
 -13   6   2   32.45    3.37
  12  -6  -2    1.97    0.95
 -12   6   2    4.08    1.39
 -11   6   2  356.93   11.20
  11  -6  -2  352.71   10.36
  11   6  -2  365.27    8.80
  10   6  -2   26.85    1.94
  10  -6  -2   28.16    2.45
 -10   6   2   29.37    2.79
   9  -6  -2   58.63    3.29
   9   6  -2   58.74    2.90
  -9   6   2   56.68    3.71
  -8   6   2  178.05    6.68
   8  -6  -2  193.12    5.94
   8   6  -2  177.83    5.62
   7   6  -2  113.61    4.20
  -7   6   2  118.19    5.10
   7  -6  -2  125.14    4.28
  -6   6   2  106.08    4.64
   6  -6  -2  120.86    3.95
   5  -6  -2  146.67    4.11
   5   6  -2  140.57    6.00
  -5   6   2  142.75    5.19
   4   6  -2 1039.32   22.68
  -4   6   2 1079.47   21.41
   3   6  -2  313.91    9.28
  -3   6   2  289.91    8.00
   3  -6  -2  313.60    6.81
  -2   6   2    1.01    0.46
   2   6  -2    1.75    0.86
  -2   6   2    0.72    0.47
  -1   6   2 2235.70   37.40
   1  -6  -2 2145.85   35.59
  -1  -6   2 2093.50   34.72
  -1   6   2 2155.60   36.86
   0   6  -2  275.33    8.27
   1   6   2  186.01    6.81
  -1   6  -2  182.80    6.47
  -2   6  -2    3.56    0.43
  -2   6  -2    1.88    0.83
   2   6   2    2.77    1.00
   2  -6   2    1.44    0.28
  -3   6  -2   32.87    1.58
   3  -6   2   34.66    2.46
   3   6   2   29.43    2.67
  -4   6  -2  693.57   13.24
   4  -6   2  692.91   15.14
   4   6   2  716.24   16.82
   5   6   2   58.28    4.04
   5  -6   2   61.06    3.34
  -5   6  -2   61.02    2.69
  -6   6  -2  454.83   10.11
   6  -6   2  416.09   11.07
  -7   6  -2   91.98    3.87
   7  -6   2   84.88    4.25
  -7   6  -2   84.34    3.11
   8  -6   2   20.43    2.19
  -8   6  -2   17.53    1.45
  -8   6  -2   18.19    1.78
  -9   6  -2  215.74    6.35
   9  -6   2  227.47    7.98
  10  -6   2   -0.81    0.97
 -10   6  -2    0.93    0.87
  11  -6   2    0.44    0.97
 -11   6  -2    0.05    0.74
 -12   6  -2    5.84    1.48
  12  -6   2    5.67    1.50
 -13   6  -2  132.76    6.59
  13  -6   2  134.51    7.19
  14  -6   2   21.21    2.96
 -14   6  -2   16.59    2.54
  15  -6   2   20.85    3.01
 -15   6  -2   17.63    2.66
 -16   6  -2   10.82    2.31
  16  -6   2   11.30    2.39
 -17   6  -2    3.92    1.59
  18  -7  -2   34.27    4.12
 -18   7   2   38.40    4.63
  17  -7  -2    0.46    1.01
 -17  -7   2    0.14    1.29
 -17   7   2   -0.49    1.38
 -16   7   2   40.75    4.29
  16  -7  -2   35.11    3.79
 -15   7   2   37.24    3.98
  15  -7  -2   25.76    3.14
  14  -7  -2   37.92    3.50
 -14   7   2   39.34    4.01
 -13   7   2   76.26    5.23
  13  -7  -2   70.51    4.57
  12  -7  -2  245.77    8.66
 -12   7   2  234.89    9.33
 -11   7   2    7.31    1.60
  11   7  -2    8.15    1.20
  11  -7  -2    7.71    1.46
  10   7  -2  375.64    9.63
  10  -7  -2  394.00   10.59
 -10   7   2  380.22   11.58
  -9   7   2  371.71   11.12
   9  -7  -2  384.83    9.98
   9   7  -2  382.48    9.67
   8   7  -2   16.49    1.67
   8  -7  -2   12.56    1.42
  -8   7   2   12.37    1.72
   7  -7  -2    1.91    0.68
   7   7  -2    2.71    1.08
   7   7  -2    3.00    0.78
  -7   7   2    3.87    0.96
   6  -7  -2  102.12    3.75
   6   7  -2   98.81    5.42
  -6   7   2  103.02    4.72
   6   7  -2   98.96    4.10
   5   7  -2  555.84   14.99
  -5   7   2  562.29   13.57
   4   7  -2   28.08    2.67
  -4   7   2   23.23    2.06
   4  -7  -2   26.68    1.63
   3   7  -2  798.07   18.64
   3  -7  -2  832.92   15.48
  -3   7   2  811.26   16.99
  -2   7   2  139.49    5.04
  -2   7   2  142.13    4.96
   2   7  -2  124.75    5.74
  -2  -7   2  138.82    3.94
  -1   7   2   50.42    2.82
   1  -7  -2   48.39    2.14
  -1  -7   2   50.50    1.91
  -1   7   2   50.15    2.82
   0  -7   2   99.26    2.41
   0   7   2  108.76    4.29
   0   7  -2  106.90    5.05
   1  -7   2  352.78    6.28
  -1   7  -2  346.53   10.12
   1   7   2  360.26   10.72
   2   7   2   14.75    1.98
  -2   7  -2   12.38    0.82
  -2   7  -2   14.84    1.86
   2  -7   2   12.62    0.73
   3   7   2   75.84    4.62
  -3   7  -2   78.88    2.66
   3  -7   2   74.69    3.88
  -4   7  -2   29.32    1.71
   4   7   2   32.32    3.07
   4  -7   2   29.56    2.40
   5   7   2  125.32    6.28
  -5   7  -2  125.47    4.68
  -5   7  -2  127.97    4.24
   5  -7   2  132.20    5.29
  -6   7  -2  434.59   10.28
   6   7   2  419.79   12.92
   6  -7   2  420.50   11.04
  -6   7  -2  401.44    9.68
  -7   7  -2  301.19    8.11
   7  -7   2  285.35    8.88
  -7   7  -2  295.06    8.10
   7   7   2  297.18   10.90
  -8   7  -2    1.35    0.69
  -8   7  -2    1.37    0.69
   8  -7   2    1.78    0.81
  -9   7  -2   91.94    3.53
   9  -7   2   99.14    5.08
  -9   7  -2   93.16    4.08
  -9   7  -2   92.38    4.53
 -10   7  -2   15.50    1.95
  10  -7   2   18.49    2.28
 -10   7  -2   20.47    1.84
 -11   7  -2   26.85    2.69
  11  -7   2   26.66    2.87
  12  -7   2    4.63    1.42
 -12   7  -2    4.37    1.20
  13  -7   2    0.49    1.03
 -13   7  -2   -1.46    1.39
 -14   7  -2    9.09    2.02
  14  -7   2    7.59    1.79
  15  -7   2    1.68    1.23
 -15   7  -2    3.30    1.50
  16  -7   2    3.25    1.57
 -18   8   2   12.94    2.77
 -17   8   2   79.91    6.42
 -17  -8   2   72.54    5.84
 -16   8   2  178.73    9.36
  15  -8  -2    0.30    1.09
 -15   8   2    3.11    1.47
  14  -8  -2   31.35    3.21
 -14   8   2   23.88    3.17
  13  -8  -2  135.37    6.51
 -13   8   2  131.49    7.11
  12  -8  -2   32.48    2.94
 -12   8   2   42.53    3.84
  11   8  -2   34.43    2.61
  11  -8  -2   27.13    2.60
 -11   8   2   35.06    3.36
 -10   8   2   78.24    4.81
  10   8  -2   70.99    3.81
  10  -8  -2   72.74    4.01
  -9   8   2  185.62    7.47
   9  -8  -2  184.77    6.36
   9   8  -2  192.64    6.60
   8   8  -2   71.14    5.13
   8  -8  -2   70.97    3.47
   8   8  -2   70.45    3.72
  -8   8   2   70.15    4.22
   7   8  -2  364.20   12.17
   7   8  -2  374.75    9.96
  -7   8   2  363.48   10.63
   7  -8  -2  378.08    9.20
   6   8  -2   11.59    2.11
   6   8  -2   13.17    1.62
   6  -8  -2   11.19    1.24
  -6   8   2    8.91    1.42
  -5   8   2  149.37    5.77
   5   8  -2  141.01    5.40
   5  -8  -2  149.95    4.67
   5   8  -2  136.11    6.76
   4   8  -2  220.88    8.79
  -4   8   2  239.72    7.56
   4  -8  -2  246.64    6.38
   4   8  -2  243.94    7.35
  -3   8   2   15.22    1.77
  -3   8   2   16.78    1.75
   3  -8  -2   13.65    1.29
  -3  -8   2   16.46    1.43
   3   8  -2   17.25    2.31
   3   8  -2   18.50    1.80
  -2   8   2    2.61    0.81
  -2  -8   2    2.44    0.58
  -2   8   2    2.22    0.74
  -1   8   2  173.25    5.95
  -1  -8   2  179.62    4.38
   0   8   2  177.00    6.12
   0   8  -2  183.49    7.13
   0  -8   2  171.13    3.78
  -1   8  -2  507.26   13.32
   1   8   2  525.93   12.54
   1  -8   2  492.37    8.70
  -2   8  -2  781.79   14.89
  -2   8  -2  816.36   17.03
   2   8   2  771.22   17.64
  -3   8  -2  326.38    8.79
  -3   8  -2  306.83    6.80
   3   8   2  319.90   10.79
   3  -8   2  335.01    9.55
  -4   8  -2   58.79    3.29
  -4   8  -2   56.21    2.49
   4  -8   2   61.06    3.60
   4   8   2   59.23    4.35
   5  -8   2  394.52   10.73
   5   8   2  388.55   12.60
  -5   8  -2  407.04   10.26
  -5   8  -2  375.09    8.97
  -6   8  -2  117.27    4.84
   6   8   2  112.14    6.44
  -6   8  -2  114.83    4.40
   6  -8   2  119.06    5.31
   7  -8   2  334.93    9.77
  -7   8  -2  302.90    8.47
   7   8   2  306.08   11.47
  -7   8  -2  318.79    8.93
   8  -8   2  158.88    6.52
  -8   8  -2  155.48    5.81
  -8   8  -2  152.15    5.75
   8   8   2  151.02    7.97
   9  -8   2  202.40    7.67
  -9   8  -2  187.58    6.88
   9   8   2  193.28    9.45
  -9   8  -2  197.10    6.69
 -10   8  -2   72.31    3.85
 -10   8  -2   79.04    4.42
  10  -8   2   76.33    4.69
  11  -8   2   28.12    2.99
 -11   8  -2   22.72    2.54
  12  -8   2   41.28    3.74
 -12   8  -2   47.25    3.80
  13  -8   2  115.95    6.69
 -13   8  -2  114.30    6.36
  14  -8   2   60.72    5.10
  15  -8   2    2.94    1.57
  16  -8   2   -1.28    1.32
 -16   9   2   81.61    6.44
 -15   9   2   97.08    6.69
 -14   9   2    8.44    2.16
 -13   9   2  126.41    7.13
  12  -9  -2   17.41    2.23
 -12   9   2   17.04    2.54
  11   9  -2  224.41   11.09
  11   9  -2  236.29    7.91
 -11   9   2  234.93    9.33
  11  -9  -2  242.95    8.32
  10   9  -2   44.02    4.48
  10   9  -2   50.83    3.37
  10  -9  -2   44.75    3.12
 -10   9   2   43.82    3.70
   9   9  -2    3.05    1.42
   9  -9  -2    4.49    1.11
  -9   9   2    5.85    1.43
   9   9  -2    2.30    0.86
   8   9  -2   29.40    2.57
   8   9  -2   35.30    3.72
  -8   9   2   38.47    3.21
   8  -9  -2   37.86    2.53
  -7   9   2  251.68    8.66
   7   9  -2  261.50    8.27
   7  -9  -2  266.27    7.48
   7   9  -2  236.73   10.05
   6   9  -2    1.82    1.14
   6   9  -2    0.71    0.72
   6  -9  -2    0.82    0.52
  -6   9   2   -0.38    0.60
  -5   9   2   50.89    3.39
   5   9  -2   50.71    4.31
   5   9  -2   54.84    3.37
   5  -9  -2   57.71    2.83
   4   9  -2   63.83    3.67
   4  -9  -2   66.00    3.04
  -4   9   2   54.57    3.42
   4   9  -2   63.33    4.60
   3   9  -2  461.96   13.61
  -3  -9   2  417.29    9.91
  -3   9   2  430.84   11.63
   3   9  -2  441.12   11.35
  -3   9   2  440.67   11.16
  -2   9   2  186.84    6.42
  -2   9   2  198.88    7.13
  -2  -9   2  195.75    5.43
  -2   9   2  198.28    6.87
   2   9  -2  185.51    6.66
  -1   9   2   57.75    3.59
   1  -9  -2   56.38    2.51
  -1   9   2   55.55    3.36
   1   9  -2   52.23    3.28
  -1  -9   2   56.71    2.31
   1   9  -2   57.23    4.08
   0   9  -2  406.15   11.78
   0   9   2  381.82   10.24
   0   9  -2  385.81   10.15
   0  -9  -2  350.42    8.40
   0   9   2  386.85   10.63
   0  -9   2  336.32    6.87
  -1   9  -2    7.26    1.54
   1  -9   2    7.29    0.54
   1   9   2    8.79    1.40
  -1   9  -2    9.54    1.41
  -2   9  -2   57.56    4.08
   2   9   2   55.70    4.36
  -2   9  -2   60.60    3.48
  -3   9  -2   93.96    4.45
   3   9   2   96.68    5.88
  -3   9  -2   80.24    2.66
  -4   9  -2   21.93    1.49
   4  -9   2   24.55    2.41
   4   9   2   21.52    2.85
  -4   9  -2   23.67    2.23
  -5   9  -2    4.13    1.08
   5   9   2    3.29    1.35
   5  -9   2    3.51    1.05
  -5   9  -2    2.98    0.68
   6  -9   2  642.46   15.50
  -6   9  -2  611.73   13.57
  -6   9  -2  664.95   15.13
   6   9   2  638.42   18.28
  -7   9  -2   21.03    2.15
   7  -9   2   22.84    2.44
  -7   9  -2   18.48    1.83
   7   9   2   15.88    2.68
   8  -9   2  313.64    9.92
  -8   9  -2  308.90    9.26
   8   9   2  296.52   12.06
  -8   9  -2  302.31    8.93
  -9   9  -2   98.20    4.78
   9   9   2   84.59    6.33
  -9   9  -2   92.54    4.65
   9  -9   2   88.56    5.09
 -10   9  -2   32.00    2.68
  10  -9   2   38.67    3.39
  10   9   2   38.57    4.39
  11  -9   2    5.73    1.47
  11   9   2    5.39    1.87
  12   9   2   43.10    4.98
  12  -9   2   39.02    3.66
  13  -9   2   80.18    5.54
  14  -9   2    0.58    0.96
  15  -9   2   41.86    4.37
  14  10  -2    3.09    2.01
  13  10  -2   10.76    2.56
 -13  10   2    8.05    1.79
  12  10  -2    0.48    1.29
 -12  10   2    2.82    1.42
  11  10  -2   21.85    3.43
  11  10  -2   24.30    2.49
 -11  10   2   22.14    2.83
  10  10  -2  136.28    8.23
  10  10  -2  138.18    6.16
 -10  10   2  136.40    6.80
   9 -10  -2   39.84    2.82
  -9  10   2   39.34    3.44
   9  10  -2   36.17    4.18
   9  10  -2   30.92    2.78
  -8  10   2   77.43    4.65
   8  10  -2   68.32    5.54
   8 -10  -2   79.85    3.83
  -7  10   2   96.69    5.04
   7 -10  -2  103.42    4.22
   6  10  -2  243.42    8.40
   6  10  -2  239.01   10.37
   6 -10  -2  261.94    7.29
  -6  10   2  253.93    8.62
  -5  10   2  150.00    6.16
   5  10  -2  160.51    6.45
   5 -10  -2  165.45    5.38
   5  10  -2  148.34    7.72
  -4  10   2  105.23    4.87
   4  10  -2  101.91    6.30
   4  10  -2   99.22    4.98
   4 -10  -2  104.87    4.16
  -3  10   2  205.81    7.09
   3 -10  -2  222.50    6.62
   3  10  -2  209.35    7.56
  -2  10   2  269.72    8.65
   2  10  -2  250.93    8.42
   1  10  -2   -0.05    0.77
  -1  10   2    1.16    0.74
   1  10  -2   -0.20    1.00
  -1  10   2    0.17    0.96
   1 -10  -2    0.74    0.47
   0  10   2  952.94   20.76
   0  10  -2  962.28   22.34
   0  10  -2  963.56   20.60
   0 -10  -2  938.44   18.23
   1  10   2   -0.63    1.04
  -1  10  -2    0.41    0.95
  -2  10  -2  850.01   19.15
  -2  10  -2  893.28   21.15
   3 -10   2  151.98    6.52
  -3  10  -2  150.60    6.25
   3  10   2  155.72    7.92
   4  10   2  414.73   14.23
   4 -10   2  438.99   12.29
  -4  10  -2  441.73   11.95
   5  10   2  646.23   18.83
  -5  10  -2  650.88   15.69
   5 -10   2  646.20   15.94
  -6  10  -2   84.12    4.54
   6 -10   2   86.64    4.77
   6  10   2   84.85    6.15
   7  10   2  109.43    7.15
   7 -10   2  123.14    5.87
  -7  10  -2  128.01    5.74
  -8  10  -2   39.33    3.19
   8  10   2   40.80    4.48
   8 -10   2   38.90    3.32
   9 -10   2   35.76    3.25
   9  10   2   36.48    4.38
  -9  10  -2   36.73    3.04
  10 -10   2   21.62    2.69
  10  10   2   21.48    3.46
 -10  10  -2   22.22    2.37
  11 -10   2    4.90    1.52
  11  10   2    5.59    1.92
  12  10   2   85.61    7.15
  12 -10   2   83.11    5.51
  13  10   2    6.39    2.34
  13 -10   2    9.64    2.10
  14 -10   2   10.42    2.24
  15 -10   2   12.61    2.50
  13  11  -2   69.41    6.64
  12  11  -2   99.22    7.68
  11  11  -2  142.92    9.08
  11  11  -2  154.06    6.87
  10  11  -2   79.89    4.79
  10  11  -2   73.35    6.25
  -9  11   2    0.48    0.86
   9  11  -2    0.77    0.73
   8  11  -2   16.99    3.01
   8  11  -2   17.29    2.22
  -8  11   2   24.97    2.73
  -7  11   2  355.82   10.65
   7  11  -2  342.70   13.11
   6  11  -2    7.45    1.95
  -6  11   2    4.78    1.29
   6  11  -2    5.75    1.39
   5  11  -2   39.43    4.14
  -5  11   2   39.45    3.02
   5  11  -2   37.52    3.19
  -4  11   2  699.59   16.28
   4 -11  -2  720.87   15.29
   4  11  -2  703.78   17.24
   3 -11  -2   67.95    3.54
   3  11  -2   75.90    4.51
  -2  11   2   19.97    2.25
   2  11  -2   17.56    2.58
   2  11  -2   16.96    2.16
  -1  11   2   -0.04    0.80
   1  11  -2    1.45    1.00
   1  11  -2    0.83    0.86
   0  11  -2  446.36   12.54
   0  11   2  447.09   12.61
   0  11  -2  453.89   14.03
  -1  11  -2    9.69    1.92
  -1 -11  -2   12.39    1.48
   1  11   2   10.76    1.79
  -1  11  -2   11.74    1.79
  -2  11  -2  137.61    7.04
  -2  11  -2  146.75    6.40
   3 -11   2    7.99    1.53
  -3  11  -2   11.88    1.87
   4  11   2   96.95    6.59
   4 -11   2  101.96    5.47
  -4  11  -2  101.11    5.29
  -5  11  -2  182.93    7.36
   5  11   2  180.60    9.33
   5 -11   2  184.97    7.49
   6  11   2  108.01    7.25
   6 -11   2   93.80    5.21
   7  11   2    7.43    2.44
  -7  11  -2    8.13    1.58
   7 -11   2    6.30    1.43
   8 -11   2  159.23    6.97
   8  11   2  144.02    8.86
  -8  11  -2  155.95    6.86
   9  11   2    9.00    2.46
  -9  11  -2    8.84    1.69
   9 -11   2    6.73    1.56
  10  11   2  146.99    9.31
 -10  11  -2  141.02    6.68
  10 -11   2  149.16    7.11
  11 -11   2    1.92    0.95
  11  11   2    6.18    2.28
  12  11   2   38.55    5.09
  12 -11   2   36.05    3.66
  13 -11   2  128.63    7.32
  12  12  -2   20.07    3.73
  11  12  -2    1.73    1.48
  11  12  -2   -0.24    1.11
  10  12  -2   11.13    2.67
  10  12  -2   10.76    1.97
   9  12  -2   39.79    4.69
   9  12  -2   38.98    3.57
   8  12  -2    0.27    1.33
   8  12  -2    0.65    0.68
   7  12  -2    6.81    1.97
   7  12  -2    4.66    1.29
   6  12  -2    0.48    0.99
   6  12  -2    0.10    0.91
   5  12  -2  161.36    7.20
   5  12  -2  148.96    8.59
   4  12  -2    2.69    1.22
   3  12  -2    0.86    0.90
   3  12  -2   -0.46    1.10
   2  12  -2  167.37    7.29
  -2  12   2  172.36    7.20
   2  12  -2  154.63    7.93
  -1  12   2   51.65    3.86
   1  12  -2   50.47    4.47
   1  12  -2   50.10    3.90
   0  12  -2    1.76    1.18
   0  12   2    0.11    0.98
   0  12  -2    0.98    0.96
   1  12   2   25.14    2.77
  -1  12  -2   28.96    3.23
  -1  12  -2   23.82    2.64
  -2  12  -2   19.56    2.73
  -2  12  -2   23.83    2.60
   2  12   2   15.17    2.22
  -3  12  -2  266.93    9.24
   3 -12   2  181.75    7.98
  -4  12  -2  144.08    6.71
   4 -12   2  132.41    6.45
   5  12   2    3.25    1.77
  -5  12  -2    2.70    1.05
   5 -12   2    4.27    1.32
   6  12   2    0.22    1.37
  -6  12  -2    2.75    1.11
   6 -12   2    0.13    0.94
   7  12   2  111.58    7.84
   7 -12   2  117.10    5.99
  -7  12  -2   99.91    5.71
  -8  12  -2    1.38    0.87
   8 -12   2    0.14    0.67
   8  12   2    1.45    1.54
  -9  12  -2   -1.04    1.20
   9  12   2   -0.06    1.27
   9 -12   2    0.60    0.78
 -10  12  -2    2.66    1.16
  10  12   2    0.43    1.34
  11  12   2    7.16    2.39
  11  13  -2    3.59    2.19
  11  13  -2    1.21    1.06
  10  13  -2    8.44    2.67
  10  13  -2    1.44    1.06
   9  13  -2    0.05    0.90
   9  13  -2    0.07    1.50
   8  13  -2    5.75    1.99
   8  13  -2    4.47    1.47
   7  13  -2    1.60    1.13
   7  13  -2    3.01    1.23
   6  13  -2    3.77    1.98
   6  13  -2    7.50    1.72
   5  13  -2   17.54    2.48
   4  13  -2   -0.30    1.03
   3  13  -2   82.74    5.35
   3  13  -2   84.58    6.06
   2  13  -2    2.26    1.34
   2  13  -2    1.24    1.30
   1  13  -2   -0.26    1.03
   1  13  -2   -1.28    1.17
  -1  13   2    0.11    0.70
   0  13   2    3.45    1.32
   0  13  -2    3.34    1.29
   0  13  -2    2.18    1.07
  -1  13  -2   11.56    2.07
  -1  13  -2   14.53    2.51
   1  13   2   14.90    2.19
  -2  13  -2    1.91    1.40
  -2  13  -2    2.52    1.18
   2  13   2    0.60    0.92
   3  13   2    0.76    0.97
   3 -13   2    0.13    0.86
  -3  13  -2    0.75    0.88
   4 -13   2   47.17    3.91
  -4  13  -2   41.86    3.80
  -5  13  -2    1.54    1.01
   5 -13   2   -0.55    0.84
   6 -13   2   16.19    2.35
   6  13   2   12.68    3.06
  -6  13  -2   13.88    2.27
   7  13   2    5.35    2.30
  -7  13  -2    1.12    0.89
   8  13   2    3.16    1.86
  -8  13  -2    4.82    1.56
  -9  13  -2   16.48    2.63
   9  13   2   18.99    3.67
 -10  13  -2    3.56    1.56
  10  14  -2    1.22    1.26
   9  14  -2   21.76    3.00
   9  14  -2   23.60    3.95
   8  14  -2   40.19    5.03
   8  14  -2   43.24    4.12
   7  14  -2   10.15    2.11
   6  14  -2   14.65    2.44
   5  14  -2   26.58    3.14
   4  14  -2  142.87    7.39
   4  14  -2  126.39    7.90
   3  14  -2    0.49    1.14
   3  14  -2    1.37    1.30
   2  14  -2    3.88    1.37
   2  14  -2    4.28    1.63
  -1  14   2    8.85    1.88
   1  14  -2    7.70    2.04
   1  14  -2   10.12    1.95
   0  14  -2   12.32    2.46
   0  14  -2   11.92    2.23
   0  14   2    9.98    1.89
  -1  14  -2   12.59    2.23
   1  14   2   18.52    2.57
  -1  14  -2   12.02    2.27
  -2  14  -2    6.13    1.76
   2  14   2    5.64    1.63
  -3  14  -2   21.75    2.89
  -4  14  -2   62.34    4.84
  -5  14  -2   27.30    3.29
  -6  14  -2    2.80    1.24
  -7  14  -2   29.35    3.41
   7  14   2   34.49    4.75
  -8  14  -2    7.05    1.85
  -9  14  -2   -0.23    1.29
   9  15  -2   71.07    5.60
   8  15  -2   21.43    3.08
   7  15  -2    1.89    1.18
   6  15  -2   16.14    2.58
   5  15  -2   27.26    3.31
   5  15  -2   29.39    3.98
   4  15  -2   19.94    3.30
   4  15  -2   17.84    2.64
   3  15  -2    7.60    1.94
   3  15  -2   11.57    2.29
   2  15  -2   47.10    4.82
   2  15  -2   47.20    4.40
   1  15  -2   -0.61    1.15
   1  15  -2   -0.59    1.07
   0  15  -2    5.19    1.68
   0  15  -2    5.01    1.94
  -1  15  -2    1.96    1.52
  -1  15  -2    3.44    1.63
  -2  15  -2   38.11    4.02
  -3  15  -2   12.86    2.38
  -4  15  -2   -1.31    1.48
  -5  15  -2    3.77    1.52
  -6  15  -2  140.62    7.86
  -7  15  -2    6.11    1.73
   6  16  -2   11.85    2.68
   5  16  -2  121.99    8.28
   4  16  -2  108.60    7.70
   3  16  -2   28.80    3.95
   2  16  -2    0.76    1.43
   1  16  -2   15.14    2.86
   0  16  -2  305.53   13.07
   2  17  -2   38.40    4.59
   1  17  -2   -2.39    1.99
   0  17  -2   21.99    3.62
 -19   0   3   -0.03    1.23
 -18   0   3   -0.33    1.04
 -17   0   3    0.13    1.20
 -16   0   3   -0.02    0.98
 -15   0   3   -0.93    0.93
 -14   0   3    2.30    1.26
 -13   0   3   -0.67    0.80
 -12   0   3    1.59    0.82
 -12   0   3    0.42    0.23
 -11   0   3   -0.17    0.69
 -11   0   3    0.38    0.25
 -10   0   3    0.85    0.63
 -10   0   3    0.87    0.20
  -9   0   3    0.47    0.53
  -9   0   3    2.37    0.31
  -8   0   3    0.68    0.55
  -8   0   3    0.18    0.11
  -7   0   3    0.13    0.43
  -6   0   3    0.80    0.46
  -5   0   3    0.31    0.29
  -4   0   3    0.05    0.28
  -3   0   3    0.09    0.29
  -2   0   3    0.27    0.30
  -1   0   3    0.52    0.32
   0   0   3    0.58    0.29
   0   0   3    0.18    0.32
   0   0   3    0.42    0.38
   1   0   3    0.28    0.19
   1   0   3    0.81    0.31
   2   0   3    1.82    0.39
   3   0   3    0.54    0.32
   4   0   3    0.60    0.41
   5   0   3    0.00    0.33
   6   0   3   -0.17    0.63
   7   0   3    0.71    0.62
   8   0   3    1.28    0.86
   9   0   3   -0.44    0.77
  10   0   3    0.89    1.08
  11   0   3   -1.49    1.14
  12   0   3   -0.13    0.79
  13   0   3    1.93    1.06
 -14   0  -3   -0.24    0.75
  14   0   3    0.70    0.91
  15   0   3    1.15    0.88
  16   0   3    1.50    1.29
 -19  -1   3   -0.73    1.00
 -19   1   3    1.44    1.58
 -18  -1   3    5.36    1.80
 -18   1   3    1.80    1.26
 -17   1   3   10.94    2.31
 -17  -1   3   11.66    2.32
 -16  -1   3   14.15    2.34
 -16   1   3   10.31    2.09
 -15  -1   3  124.68    6.64
 -15   1   3  130.71    6.88
 -14   1   3    0.41    1.01
 -14  -1   3    1.87    1.04
 -13   1   3    4.11    1.14
 -13  -1   3    5.10    1.40
 -12  -1   3  672.06   16.31
 -12   1   3  665.99   16.51
 -11   1   3   32.74    2.74
 -11  -1   3   30.95    2.66
  11  -1  -3   26.32    1.05
 -10   1   3  960.26   20.05
  10  -1  -3  944.36   15.97
  -9   1   3    0.25    0.62
  -9  -1   3    0.03    0.43
  -8   1   3   68.59    3.52
  -8  -1   3   72.55    3.49
  -7   1   3  579.28   12.87
  -7  -1   3  589.26   12.66
  -6   1   3    6.37    0.77
  -6   1   3    5.98    0.92
  -6  -1   3    7.35    0.99
  -5  -1   3  148.91    4.45
  -5   1   3  141.17    3.94
  -5   1   3  149.43    4.69
  -4  -1   3   24.62    0.89
  -4  -1   3   23.77    1.54
  -4   1   3   24.88    1.65
  -3  -1   3    6.07    0.78
  -3   1   3    5.87    0.79
  -3  -1   3    5.89    0.45
  -2  -1   3 2300.96   37.62
   2   1  -3 2351.76   37.05
  -2   1   3 2282.27   38.44
   1   1  -3  570.17   10.46
  -1   1   3  568.44   11.38
  -1  -1   3  589.69   10.68
   0   1   3   64.30    2.44
   0   1   3   67.19    2.01
   0   1  -3   64.62    2.42
   0   1   3   64.54    2.57
   0   1   3   67.05    1.70
   0   1   3   64.08    1.89
   0  -1  -3   65.32    2.03
   1   1   3  201.06    4.44
   1  -1   3  191.34    4.85
  -1  -1  -3  185.83    4.51
   1  -1   3  188.67    4.91
   2  -1   3   14.30    1.16
   2   1   3   14.57    1.05
  -2  -1  -3   14.85    1.08
   3  -1   3    2.91    0.60
   3   1   3    2.54    0.53
   4  -1   3  182.36    5.38
   4   1   3  181.35    5.30
   5  -1   3  965.61   18.92
   5   1   3  997.89   19.17
   6  -1   3    2.16    0.68
   6   1   3    2.95    0.80
   7  -1   3  107.52    4.63
   7   1   3  115.14    4.85
   8  -1   3  181.81    6.64
   8   1   3  183.31    6.73
   9  -1   3    0.33    0.63
  -9  -1  -3    0.75    0.22
  10  -1   3   38.88    3.26
  10   1   3   40.35    3.38
  11   1   3  256.84    9.52
  11  -1   3  250.09    9.26
 -11   1  -3  259.69    8.41
  12   1   3   41.42    3.73
  12  -1   3   37.33    3.56
 -12   1  -3   36.78    2.99
  13   1   3    0.54    1.10
 -13   1  -3    0.05    0.77
  13  -1   3    1.52    1.43
  14  -1   3    2.40    1.31
  14   1   3    5.05    1.65
 -14   1  -3    2.46    0.95
  15   1   3   62.49    5.31
  15  -1   3   56.07    5.04
  16  -1   3    3.49    1.58
  16   1   3   10.31    2.54
 -17   1  -3   17.77    3.01
 -19   2   3   50.38    5.14
 -19  -2   3   47.91    4.86
 -18   2   3   55.76    5.12
 -18  -2   3   58.81    5.10
 -17  -2   3    6.25    1.69
 -17   2   3    6.20    2.00
 -16   2   3   18.35    2.75
 -16  -2   3   13.54    2.38
 -15   2   3  114.22    6.42
 -15  -2   3   95.28    5.77
 -14   2   3   50.92    4.05
 -14  -2   3   49.66    3.90
 -13  -2   3    9.54    1.68
 -13   2   3   11.05    1.87
 -12   2   3  113.00    5.64
 -12  -2   3   99.11    5.18
 -11   2   3  183.98    7.09
  11  -2  -3  174.45    3.98
 -11  -2   3  166.06    6.59
  10  -2  -3   74.89    3.94
 -10   2   3   73.04    4.07
 -10  -2   3   70.31    3.85
  10  -2  -3   70.87    2.31
  -9   2   3  444.73   11.47
   9  -2  -3  455.65   11.14
   9  -2  -3  467.55    8.91
   8  -2  -3  123.09    4.57
  -8  -2   3  109.48    4.43
  -8   2   3  116.77    4.85
   7  -2  -3   18.63    1.52
  -7  -2   3   14.02    1.39
   7  -2  -3   17.97    0.90
  -7   2   3   14.82    1.57
  -6   2   3  162.92    5.42
  -6  -2   3  165.18    5.03
   6  -2  -3  176.92    3.75
  -6   2   3  172.65    4.55
  -5  -2   3  291.19    6.97
  -5   2   3  306.32    6.36
  -5   2   3  294.13    7.63
  -4   2   3 1875.68   30.03
  -4  -2   3 1790.57   30.99
  -4   2   3 1834.69   32.12
  -3   2   3 1001.20   18.19
  -3   2   3  961.06   15.79
   3   2  -3  951.26   16.56
  -3  -2   3  969.11   16.88
   2   2  -3 9890.61  153.49
  -2   2   3 9505.07  155.33
  -2  -2   3 9999.00  154.09
  -2  -2   3 9607.62  153.70
   1  -2  -3  717.77   13.52
  -1  -2   3  725.77   12.64
  -1  -2   3  758.56   13.01
   1   2  -3  731.09   13.30
  -1   2   3  731.38   14.24
   1   2  -3  715.36   12.89
   1   2  -3  731.92   12.56
  -1   2   3  748.17   13.60
   0   2   3 1221.03   22.09
   0   2  -3 1223.14   21.35
   0   2  -3 1219.55   20.49
   0   2   3 1195.19   21.34
   0   2   3 1262.08   21.47
   0  -2  -3 1219.42   21.44
   0  -2  -3 1251.86   20.26
   0   2   3 1234.28   20.16
   0   2  -3 1210.40   21.97
   1   2   3    8.04    0.70
   1   2   3    7.70    0.84
  -1  -2  -3    9.83    0.73
  -1   2  -3    8.62    0.88
   1  -2   3    9.44    0.87
  -1   2  -3    9.49    1.01
   2   2   3  356.89    7.52
   2  -2   3  350.16    8.18
   2  -2   3  355.51    7.57
  -2  -2  -3  370.78    7.51
  -2   2  -3  352.76    7.81
  -2   2  -3  347.86    7.92
  -3  -2  -3   13.74    1.17
   3   2   3   14.87    1.22
   3  -2   3   16.76    1.40
  -3   2  -3   15.09    1.31
  -3   2  -3   13.41    1.18
  -4   2  -3   84.16    3.26
  -4   2  -3   85.74    3.42
   4   2   3   89.02    3.45
   4  -2   3   85.20    3.47
   5  -2   3  465.42   10.76
  -5   2  -3  453.25   10.50
   5   2   3  447.25   10.62
  -5   2  -3  482.03   10.46
   6  -2   3   47.74    2.86
  -6   2  -3   51.37    2.82
   6   2   3   48.50    2.87
   7  -2   3 1744.57   32.44
   7   2   3 1780.61   32.82
  -7  -2  -3 1747.47   29.36
  -7   2  -3 1805.00   32.10
  -8  -2  -3   14.29    0.98
  -8   2  -3   17.13    1.73
   8  -2   3   14.50    1.83
   8   2   3   15.44    1.91
   9   2   3  835.44   19.07
   9  -2   3  869.80   18.93
  -9  -2  -3  809.21   14.46
  -9   2  -3  859.10   18.03
  10  -2   3  264.30    9.17
 -10   2  -3  254.62    8.18
 -10   2  -3  255.64    5.19
  10   2   3  255.25    9.16
  11   2   3   54.83    4.24
  11  -2   3   67.96    4.52
 -11   2  -3   64.13    3.85
 -12   2  -3   13.17    1.85
  12  -2   3   13.83    2.28
  12   2   3   13.50    2.26
 -13   2  -3    1.48    0.93
  13   2   3    1.08    1.19
  13  -2   3   -0.20    0.83
  14  -2   3    0.17    1.07
  14   2   3    1.76    1.50
 -14   2  -3    1.44    0.78
  15  -2   3    6.96    1.91
 -15   2  -3    6.28    1.73
  16  -2   3    1.84    1.20
 -16   2  -3    3.72    1.72
 -17   2  -3   10.86    2.50
 -19   3   3    0.27    1.31
 -18  -3   3   19.51    3.14
 -18   3   3   17.70    3.03
 -17   3   3  140.98    8.01
 -17  -3   3  106.62    6.75
 -16  -3   3   16.70    2.62
 -16   3   3   17.92    2.77
 -15   3   3   20.29    2.78
 -15  -3   3   17.47    2.47
 -14  -3   3   14.72    2.19
 -14   3   3   11.09    2.04
 -13   3   3  780.82   19.39
 -13  -3   3  766.73   18.73
  13  -3  -3  817.22   19.33
 -12   3   3    4.69    1.29
 -12  -3   3    6.96    1.43
  12  -3  -3    3.84    1.14
  12   3  -3    3.82    0.55
 -11   3   3  173.85    7.11
 -11  -3   3  171.71    6.70
 -10   3   3   26.21    2.57
  10  -3  -3   24.59    1.41
  10  -3  -3   23.50    2.13
 -10  -3   3   22.52    2.18
   9  -3  -3  261.74    7.56
   9  -3  -3  258.88    5.98
  -9   3   3  256.64    8.22
   8  -3  -3  659.14   12.87
  -8  -3   3  646.17   14.35
   8  -3  -3  686.08   14.21
   8  -3  -3  699.10   12.49
  -8   3   3  682.44   15.29
   7  -3  -3  217.25    4.94
   7  -3  -3  209.61    5.44
  -7  -3   3  205.64    6.10
   7  -3  -3  212.67    5.84
  -7   3   3  214.42    6.78
  -6  -3   3  332.89    7.98
  -6   3   3  332.61    8.74
   6  -3  -3  335.71    7.53
  -6   3   3  334.92    7.19
  -5  -3   3   99.28    3.36
  -5   3   3  100.39    2.83
   5  -3  -3   91.33    2.89
  -5   3   3   96.13    3.95
  -4   3   3    0.56    0.19
   4  -3  -3    1.49    0.29
  -4  -3   3    0.60    0.28
  -3   3   3   40.47    2.36
  -3  -3   3   37.70    1.57
   2  -3  -3  292.98    5.69
  -2   3   3  287.86    6.39
  -2   3   3  296.77    7.40
   2   3  -3  285.08    6.77
  -2  -3   3  281.72    5.59
   1  -3  -3 1314.80   24.34
   1  -3  -3 1355.39   23.70
   1   3  -3 1336.18   23.65
  -1   3   3 1365.90   24.63
  -1   3   3 1352.72   23.37
   0  -3  -3 2777.97   46.53
   0  -3  -3 2840.26   44.88
   0  -3  -3 2837.73   47.17
   0   3   3 2751.14   47.02
   0   3  -3 2719.92   47.38
   0  -3   3 2893.50   46.40
   0   3   3 2883.82   47.39
  -1   3  -3 4235.42   68.90
   1  -3   3 4148.91   67.36
   1   3   3 4183.56   68.58
  -1  -3  -3 4190.31   66.72
  -1   3  -3 4145.44   68.06
   1   3   3 4132.13   66.81
  -1  -3  -3 4160.24   68.07
   2   3   3    0.63    0.40
   2  -3   3    0.57    0.40
   2   3   3    0.54    0.44
   2  -3   3    1.48    0.42
  -2  -3  -3    1.04    0.42
  -3   3  -3  373.72    8.21
  -3   3  -3  374.27    8.77
   3  -3   3  358.94    8.89
   3   3   3  374.63    8.40
   4   3   3 1765.27   31.57
  -4   3  -3 1817.50   31.16
  -4   3  -3 1742.31   31.67
   5   3   3  402.50    9.61
   5  -3   3  386.50    9.53
  -5   3  -3  396.88    9.48
  -5   3  -3  396.42    8.99
   6  -3   3  145.82    5.37
  -6  -3  -3  129.71    3.97
  -6   3  -3  147.49    4.88
  -6   3  -3  142.66    5.09
   6   3   3  147.43    5.43
   7   3   3   59.27    3.56
   7  -3   3   59.49    3.44
  -7   3  -3   63.11    3.37
  -7  -3  -3   62.22    2.42
   8   3   3   78.36    4.36
  -8  -3  -3   80.74    2.78
   8  -3   3   76.80    4.18
  -8   3  -3   88.95    4.20
  -9  -3  -3  382.44    7.85
   9   3   3  390.33   11.45
  -9   3  -3  376.98   10.37
   9  -3   3  382.56   10.97
  10   3   3  341.77   11.09
  10  -3   3  328.32   10.61
 -10   3  -3  354.52   10.17
 -10   3  -3  356.08    7.22
  11  -3   3  885.58   21.05
  11   3   3  877.10   21.41
 -11   3  -3  893.20   19.79
  12  -3   3   17.92    2.54
 -12   3  -3   16.45    2.18
 -13   3  -3  356.77   10.99
  13  -3   3  342.58   12.13
 -14   3  -3    4.28    1.60
  14  -3   3    2.27    1.29
 -14   3  -3    3.27    1.24
 -15   3  -3  114.44    6.69
  15  -3   3  115.87    7.19
 -16   3  -3    2.16    1.37
  16  -3   3    3.30    1.59
 -17   3  -3   32.59    3.92
 -19   4   3   47.56    5.11
 -18   4   3    4.08    1.78
 -18  -4   3    5.73    1.98
 -17  -4   3   31.73    3.68
 -17   4   3   39.84    4.32
 -16  -4   3   71.97    5.25
 -16   4   3   71.20    5.47
 -15   4   3   22.51    3.04
  15  -4  -3   22.14    2.83
 -15  -4   3   22.42    2.96
 -14   4   3    0.96    0.92
  14  -4  -3    2.51    1.11
 -14  -4   3    4.14    1.30
 -13   4   3   12.15    2.06
  13  -4  -3   11.16    1.86
 -13  -4   3   10.76    1.94
  12   4  -3    5.79    0.76
  12  -4  -3    7.03    1.40
 -12   4   3    7.39    1.55
 -12  -4   3    8.17    1.58
  11  -4  -3  244.79    8.07
 -11   4   3  247.44    8.74
  10  -4  -3  300.16    8.71
 -10   4   3  291.06    9.41
   9  -4  -3  226.73    6.87
  -9   4   3  219.31    7.67
   8  -4  -3  444.86   10.32
   8  -4  -3  451.26    9.41
  -8   4   3  452.31   11.66
   7  -4  -3  153.12    4.69
  -7   4   3  155.91    5.77
  -6   4   3  258.13    7.65
  -6   4   3  253.27    5.95
   6  -4  -3  261.38    6.18
   5  -4  -3   20.77    1.17
  -5   4   3   20.08    1.16
  -5   4   3   20.35    1.81
  -4  -4   3 1467.04   22.01
  -4   4   3 1462.64   24.24
  -3   4   3  152.24    4.09
   3   4  -3  162.93    5.20
  -3  -4   3  159.72    3.79
  -3   4   3  159.64    5.25
   3  -4  -3  157.03    3.11
   3  -4  -3  166.76    4.38
  -2   4   3 3209.19   52.62
  -2   4   3 3164.64   54.54
  -2  -4   3 3368.94   51.68
   2   4  -3 3304.38   54.36
   1  -4  -3 1930.48   31.65
  -1   4   3 2010.07   32.31
  -1  -4   3 1921.84   34.35
  -1   4   3 1996.81   34.68
   1  -4  -3 2016.60   33.56
   0   4   3  322.21    8.21
   0  -4  -3  333.95    6.29
   0   4   3  306.97    8.24
   0  -4   3  316.06    7.87
   0   4  -3  302.90    8.34
   0  -4  -3  325.49    7.49
  -1   4  -3 1813.85   33.06
   1   4   3 1741.18   32.92
   2  -4   3  550.50   10.62
  -2  -4  -3  551.25   10.91
   2   4   3  566.35   12.65
  -2   4  -3  541.04   12.55
   3  -4   3   34.41    2.31
   3   4   3   39.88    2.68
  -4   4  -3  320.93    8.36
  -4   4  -3  309.36    7.34
   4  -4   3  315.15    8.40
   5  -4   3    5.90    1.06
  -5   4  -3    5.30    0.84
  -5   4  -3    5.68    1.01
   6  -4   3 1049.78   21.22
  -6   4  -3 1060.78   20.06
  -6   4  -3 1065.96   21.17
   7  -4   3  145.98    5.79
  -7   4  -3  146.59    5.04
  -7   4  -3  148.79    5.65
   8  -4   3    1.56    0.76
  -8   4  -3    2.12    0.77
   9  -4   3    4.24    1.09
  -9   4  -3    2.81    0.92
 -10   4  -3  647.53   12.42
  10  -4   3  634.09   16.07
 -10   4  -3  618.20   15.37
 -11   4  -3   77.19    4.54
  11  -4   3   69.91    4.65
 -11   4  -3   76.93    4.44
 -12   4  -3   88.95    5.11
  12  -4   3   96.49    5.82
 -12   4  -3   96.40    5.19
  13  -4   3   39.15    3.86
 -13   4  -3   36.94    3.51
 -13   4  -3   43.39    3.53
 -14   4  -3    9.95    1.94
 -14   4  -3    9.96    1.91
  14  -4   3    6.88    1.85
 -15   4  -3   35.56    3.73
  15  -4   3   31.98    3.76
 -16   4  -3    0.60    1.02
  16  -4   3    1.34    1.45
 -17   4  -3   66.24    5.59
 -19   5   3   35.02    4.52
 -18  -5   3   12.94    2.62
 -18   5   3    9.39    2.44
 -17  -5   3   65.00    5.27
 -17   5   3   63.54    5.45
 -16  -5   3    6.40    1.67
 -16   5   3    7.03    1.87
  16  -5  -3    5.60    1.50
  15  -5  -3   -0.02    0.82
 -15   5   3    0.43    0.97
 -15  -5   3    1.89    1.38
 -14   5   3    2.47    1.23
  14  -5  -3    0.68    0.84
 -13   5   3 1010.85   23.56
  13  -5  -3 1030.90   22.63
  12  -5  -3   40.98    3.31
  12   5  -3   38.27    2.14
 -12   5   3   45.54    3.74
  11   5  -3   23.42    1.65
 -11   5   3   25.48    2.68
 -10   5   3    5.16    1.33
  10  -5  -3    5.04    1.13
  -9   5   3    9.40    1.48
   9  -5  -3   10.90    1.34
   8  -5  -3   47.54    2.58
  -8   5   3   43.93    3.11
   7  -5  -3  239.49    6.29
  -7   5   3  242.89    7.79
  -6   5   3  929.79   17.38
   6  -5  -3  983.31   17.37
  -6   5   3  932.50   19.58
   5  -5  -3  820.13   14.53
  -5   5   3  801.18   17.17
  -4   5   3  498.99    9.10
   4   5  -3  511.75   11.70
  -4   5   3  516.04   11.45
   4  -5  -3  529.46   10.57
   3   5  -3 2005.11   32.65
  -3   5   3 2059.60   32.33
   3  -5  -3 2167.89   31.09
  -3   5   3 2020.75   29.37
   2   5  -3    8.13    1.21
  -2  -5   3    5.65    0.45
  -2   5   3    7.54    1.11
  -1   5   3  427.79   10.33
  -1   5   3  423.39    8.65
   1  -5  -3  430.74    9.22
   0  -5  -3  112.21    3.82
   0   5  -3  102.40    4.61
   1   5   3  401.88   10.62
  -1   5  -3  391.61   10.47
   2   5   3   62.04    3.52
  -2  -5  -3   60.59    2.55
   2  -5   3   57.58    2.19
  -2   5  -3   58.30    3.37
  -2   5  -3   52.63    1.65
   3   5   3  943.11   20.00
  -3   5  -3  961.91   16.45
   3  -5   3  908.49   19.08
  -4   5  -3  471.33    9.45
   4   5   3  453.31   12.38
   4  -5   3  482.59   11.56
  -5   5  -3    9.21    1.02
   5  -5   3    8.52    1.33
  -6   5  -3   97.58    3.77
   6  -5   3  103.39    4.63
  -6   5  -3  100.98    3.80
   7  -5   3   70.61    3.91
  -7   5  -3   76.39    3.48
  -7   5  -3   71.83    3.31
  -8   5  -3  120.50    4.62
   8  -5   3  126.43    5.54
  -9   5  -3    5.90    1.25
   9  -5   3    4.47    1.13
  -9   5  -3    5.01    0.83
 -10   5  -3   26.89    1.81
  10  -5   3   28.09    2.87
 -10   5  -3   28.42    2.59
 -11   5  -3   26.46    2.36
  11  -5   3   28.22    3.01
 -11   5  -3   30.96    2.86
 -12   5  -3  388.73   11.82
 -12   5  -3  368.96   10.70
  12  -5   3  395.06   12.66
 -13   5  -3   83.15    5.19
  13  -5   3   81.94    5.54
 -13   5  -3   67.40    4.21
 -14   5  -3   53.33    4.36
  14  -5   3   53.63    4.65
 -15   5  -3  103.07    6.31
  15  -5   3  109.34    6.94
  16  -5   3    6.75    1.96
 -16   5  -3    8.37    2.15
 -17   5  -3    1.32    1.52
 -18  -6   3  153.58    8.67
 -18   6   3  172.78    9.61
  17  -6  -3    2.05    1.30
 -17  -6   3    2.42    1.37
 -17   6   3    0.30    1.24
 -16   6   3    1.27    1.05
  16  -6  -3    0.78    1.14
 -16  -6   3   -0.34    1.07
  15  -6  -3   39.63    3.71
 -15  -6   3   34.07    3.58
 -15   6   3   35.16    3.84
 -14  -6   3  150.79    7.25
  14  -6  -3  159.42    7.27
 -14   6   3  158.56    7.98
  13  -6  -3    2.08    1.11
 -13   6   3    0.84    0.87
  12   6  -3  492.58   11.13
  12  -6  -3  511.68   13.40
 -12   6   3  502.69   14.61
  11  -6  -3   91.78    4.55
 -11   6   3   85.62    5.14
  11   6  -3   88.62    3.71
  10  -6  -3   61.44    3.44
  10   6  -3   58.68    2.95
 -10   6   3   65.23    4.26
  -9   6   3   19.53    2.31
   9  -6  -3   20.72    1.85
   8  -6  -3   59.51    2.95
  -8   6   3   58.12    3.75
   7  -6  -3  219.39    5.95
  -7   6   3  219.38    7.49
   6  -6  -3    9.52    0.94
  -6   6   3    9.02    1.46
  -5   6   3  292.47    6.26
   5   6  -3  302.90    9.37
  -5   6   3  309.16    8.86
   5  -6  -3  321.41    6.64
  -4   6   3   66.26    3.48
   4   6  -3   68.32    3.85
   3   6  -3  146.05    5.68
  -3   6   3  141.78    5.20
   2   6  -3   26.18    2.30
  -2   6   3   27.08    2.14
  -2   6   3   23.00    1.55
  -1   6   3  671.58   14.62
   1  -6  -3  680.08   13.35
  -1   6   3  664.30   13.20
   0  -6  -3    5.66    0.84
   0   6  -3    6.18    1.21
  -1   6  -3   11.02    1.60
  -1  -6  -3   11.53    1.06
   1   6   3   11.46    1.54
   2   6   3   74.52    4.25
   2  -6   3   79.23    2.56
  -2   6  -3   68.72    1.92
  -2   6  -3   78.78    4.19
   3   6   3  455.85   12.27
  -3   6  -3  437.22    8.49
   3  -6   3  443.00   11.31
   4   6   3   16.42    2.09
   4  -6   3   18.95    1.92
  -4   6  -3   19.00    1.27
  -5   6  -3    0.58    0.39
   5  -6   3   -0.04    0.49
   5   6   3    1.23    0.87
  -6   6  -3   71.29    3.11
   6  -6   3   67.95    3.91
   7  -6   3  525.64   13.27
  -7   6  -3  525.10   12.06
   8  -6   3  140.07    6.06
  -8   6  -3  129.09    4.77
  -8   6  -3  146.90    5.34
  -9   6  -3  236.58    7.16
  -9   6  -3  246.38    7.79
   9  -6   3  232.89    8.41
 -10   6  -3   68.94    4.02
  10  -6   3   63.28    4.23
 -11   6  -3  104.06    4.77
  11  -6   3  102.40    5.80
 -11   6  -3  107.70    5.35
 -12   6  -3   22.20    2.56
  12  -6   3   29.81    3.25
 -13   6  -3   -0.05    0.93
  13  -6   3    0.72    0.92
  14  -6   3   62.97    5.08
 -14   6  -3   53.54    4.38
  15  -6   3    3.04    1.27
 -15   6  -3    2.43    1.24
 -16   6  -3   66.23    5.34
  16  -6   3   62.99    5.59
 -18   7   3   39.55    4.73
 -18  -7   3   44.62    4.63
 -17   7   3   21.03    3.39
 -17  -7   3   24.63    3.30
  16  -7  -3   33.09    3.60
 -16  -7   3   28.43    3.42
 -16   7   3   33.79    3.96
 -15  -7   3    5.94    1.69
 -15   7   3    3.28    1.34
  15  -7  -3    4.87    1.42
  14  -7  -3  280.19   10.19
 -14   7   3  291.28   11.33
 -13   7   3   31.63    3.43
  13  -7  -3   25.14    2.61
  12  -7  -3  169.20    6.76
  12   7  -3  163.70    5.68
 -12   7   3  168.28    7.80
  11   7  -3   77.51    3.72
  11  -7  -3   83.97    4.31
 -11   7   3   78.43    5.04
  10  -7  -3  140.90    5.48
 -10   7   3  144.32    6.76
  10   7  -3  139.89    5.11
   9   7  -3  195.39    6.22
   9  -7  -3  204.92    6.42
  -9   7   3  183.12    7.51
  -8   7   3    0.66    0.73
   8  -7  -3    0.38    0.49
  -7   7   3   14.42    0.92
  -7   7   3   19.05    2.17
   7   7  -3   15.22    2.20
   7  -7  -3   19.18    1.47
   6   7  -3   29.03    2.83
  -6   7   3   25.98    1.13
  -6   7   3   28.84    2.54
   6  -7  -3   26.70    1.65
   5  -7  -3   17.11    1.18
  -5   7   3   14.24    1.75
   5   7  -3   12.03    1.84
  -4   7   3  539.47   13.25
   4  -7  -3  567.93   10.62
   4   7  -3  526.27   14.12
   3   7  -3  252.15    8.25
  -3   7   3  252.99    7.47
  -2   7   3  156.17    4.77
  -2   7   3  149.73    5.47
   1  -7  -3   20.22    1.56
  -1   7   3   19.37    1.89
  -1   7   3   21.75    1.71
   0  -7  -3  226.07    6.22
   0   7  -3  224.83    7.89
  -1   7  -3  272.21    8.92
   1   7   3  276.73    9.20
  -2   7  -3   83.98    4.59
   2  -7   3   83.65    2.65
   2   7   3   79.81    4.70
   3   7   3 1331.76   27.04
   3  -7   3 1306.56   25.36
   4  -7   3   13.91    1.74
   4   7   3   12.03    1.97
  -4   7  -3   15.00    1.15
   5   7   3 1248.90   27.53
  -5   7  -3 1277.83   22.83
   5  -7   3 1297.19   25.68
  -6   7  -3   -0.18    0.42
   6  -7   3    1.14    0.78
   6   7   3    0.45    0.93
  -7   7  -3  154.67    5.33
   7   7   3  170.11    7.98
   7  -7   3  159.91    6.46
  -7   7  -3  155.22    5.44
  -8   7  -3  248.32    7.47
   8  -7   3  239.40    8.44
  -8   7  -3  251.56    7.32
  -9   7  -3  444.76   11.38
  -9   7  -3  427.23   10.64
   9  -7   3  428.02   12.50
 -10   7  -3  152.38    6.20
 -10   7  -3  153.93    5.49
  10  -7   3  149.47    6.85
 -11   7  -3    9.45    1.63
  11  -7   3    8.04    1.57
 -12   7  -3   89.75    5.16
  12  -7   3   89.50    5.65
  13  -7   3   10.19    2.18
 -13   7  -3   10.22    1.93
 -14   7  -3   -0.39    1.14
  14  -7   3    2.75    1.66
  15  -7   3    5.36    1.75
 -18   8   3   56.36    5.71
 -17   8   3    3.76    1.65
 -17  -8   3   10.23    2.40
 -16  -8   3   21.51    3.03
 -16   8   3   28.15    3.76
 -15  -8   3    9.96    2.09
 -15   8   3    9.39    2.20
  14  -8  -3    8.24    1.78
 -14   8   3    5.75    1.70
  13  -8  -3   14.06    2.06
 -13   8   3   14.89    2.52
  12   8  -3  131.10    5.27
  12  -8  -3  129.78    5.85
 -12   8   3  128.06    6.91
  11   8  -3    5.53    1.12
  11  -8  -3    5.90    1.25
 -11   8   3    5.14    1.49
  10   8  -3  245.42    7.75
  10  -8  -3  265.29    7.96
 -10   8   3  242.97    9.23
   9   8  -3   19.69    2.77
  -9   8   3   18.97    2.39
   9  -8  -3   19.29    1.82
   9   8  -3   18.79    1.95
   8   8  -3   46.84    4.15
   8  -8  -3   48.83    2.68
   8   8  -3   48.22    3.05
  -8   8   3   46.69    3.59
   7  -8  -3  160.40    4.94
  -7   8   3  156.27    6.57
   7   8  -3  140.95    7.11
  -6   8   3   90.95    4.74
   6  -8  -3   98.09    3.44
  -5   8   3  600.96   14.40
   5  -8  -3  580.45   11.52
   5   8  -3  558.28   15.51
   4   8  -3  633.23   16.71
  -4   8   3  631.91   15.36
  -3  -8   3    8.37    0.91
   3   8  -3   10.70    1.89
  -3   8   3   10.63    1.52
   3  -8  -3   10.94    0.99
  -2  -8   3    7.42    0.70
  -2   8   3   10.44    1.44
  -1   8   3  899.04   18.31
   1  -8  -3  938.97   17.67
   1   8  -3  897.35   20.88
   0  -8  -3    5.80    0.90
   0   8  -3    4.65    1.24
   0   8   3    2.90    0.85
  -1   8  -3   54.78    3.84
   2   8   3  131.50    6.49
  -2   8  -3  139.31    6.32
   2  -8   3  132.04    3.48
   3  -8   3  101.80    4.94
   3   8   3  100.64    5.64
   4   8   3   83.66    5.33
   4  -8   3   88.08    4.62
  -4   8  -3   85.17    2.92
   5   8   3  484.61   14.99
   5  -8   3  518.02   13.33
  -5   8  -3  518.88   10.81
  -6   8  -3   89.20    3.65
   6   8   3   90.34    5.78
  -6   8  -3   85.96    4.10
   6  -8   3   90.51    4.78
  -7   8  -3    6.61    1.09
   7  -8   3    6.26    1.43
   7   8   3    5.30    1.70
  -7   8  -3    9.62    1.43
   8  -8   3  360.53   10.97
   8   8   3  355.27   12.98
  -8   8  -3  355.12    9.73
  -8   8  -3  348.09    9.48
   9  -8   3    3.57    1.15
  -9   8  -3    3.30    0.84
  -9   8  -3    4.75    1.08
   9   8   3    3.01    1.56
 -10   8  -3   18.82    2.18
  10   8   3   26.19    3.48
 -10   8  -3   21.80    2.10
  10  -8   3   22.65    2.65
  11  -8   3    6.61    1.57
 -11   8  -3    7.29    1.49
  12  -8   3    2.10    1.14
  13  -8   3    2.59    1.24
  14  -8   3   28.50    3.59
  15  -8   3   14.23    2.70
 -17  -9   3   44.20    4.60
 -17   9   3   35.02    4.31
 -16   9   3    5.68    1.90
 -16  -9   3    2.15    1.48
 -15  -9   3    1.96    1.56
 -15   9   3    1.64    1.46
 -14   9   3   19.75    2.96
 -13   9   3   27.75    3.39
  12   9  -3   48.76    3.31
 -12   9   3   38.16    3.83
  11   9  -3   17.12    2.98
  11   9  -3   18.15    2.05
 -11   9   3   18.98    2.72
  10   9  -3  134.49    5.70
  10   9  -3  127.46    7.63
  10  -9  -3  146.27    5.68
 -10   9   3  140.48    6.94
   9   9  -3  376.76   13.31
  -9   9   3  405.29   12.22
   9  -9  -3  413.85    9.91
  -8   9   3  273.04    9.47
   8  -9  -3  289.73    7.48
   8   9  -3  278.32   10.94
   7   9  -3   27.56    3.25
   7   9  -3   31.84    2.63
  -7   9   3   31.08    2.88
   7  -9  -3   31.45    2.04
   6  -9  -3   15.48    1.40
   6   9  -3   14.30    2.29
  -6   9   3   15.88    2.02
   6   9  -3   14.12    1.79
   5   9  -3  137.41    7.06
   5  -9  -3  152.52    4.52
  -5   9   3  146.57    6.20
   4   9  -3   36.53    3.51
  -4   9   3   40.26    3.08
   4  -9  -3   42.49    2.14
   3  -9  -3  110.19    3.77
  -3   9   3  108.08    5.04
  -2   9   3   79.07    3.86
  -2   9   3   83.54    4.29
  -1   9   3   53.36    3.16
   1   9  -3   63.00    4.38
   1  -9  -3   57.95    2.85
   0  -9  -3   40.56    2.48
   0   9   3   40.95    2.80
   0   9  -3   37.36    3.38
  -1   9  -3   99.15    5.50
  -1  -9  -3  101.96    4.27
  -2   9  -3   10.14    1.90
   2   9   3   10.17    1.94
   3  -9   3    7.60    1.40
   3   9   3    9.34    1.88
  -4   9  -3  275.71    8.19
   4   9   3  260.01   10.24
   4  -9   3  277.34    9.05
  -5   9  -3  186.10    6.60
   5  -9   3  178.54    7.07
   5   9   3  167.22    8.27
  -5   9  -3  161.72    4.80
   6   9   3  162.61    8.26
  -6   9  -3  146.83    4.96
   6  -9   3  160.17    6.74
  -6   9  -3  165.61    6.25
  -7   9  -3   15.46    1.89
   7  -9   3   17.18    2.21
   7   9   3   15.11    2.65
   8  -9   3   10.22    1.81
   8   9   3   10.90    2.24
  -8   9  -3    6.93    1.34
   9   9   3  125.23    7.73
   9  -9   3  129.24    6.46
  -9   9  -3  131.93    5.63
 -10   9  -3    0.95    0.88
  10  -9   3   -1.06    1.07
  10   9   3    0.30    1.06
  11  -9   3    0.14    0.90
  11   9   3   -0.68    1.59
  12  -9   3   14.55    2.31
  12   9   3   14.96    3.18
  13  -9   3    2.24    1.24
  13   9   3    1.89    1.37
  14  -9   3   25.33    3.39
 -16 -10   3   18.24    2.96
  15  10  -3    2.01    1.79
 -15 -10   3    4.40    1.74
  14  10  -3    0.95    1.49
 -14  10   3   -1.86    1.44
  13  10  -3    6.33    2.32
 -13  10   3    8.05    1.96
  12  10  -3    2.31    1.67
 -12  10   3    2.97    1.49
  12  10  -3    1.92    0.96
  11  10  -3   80.48    4.60
  11  10  -3   78.98    6.47
 -11  10   3   82.67    5.51
  10  10  -3   84.10    6.30
 -10  10   3   79.27    5.20
  10  10  -3   84.81    4.66
   9  10  -3    3.98    1.74
   9  10  -3    1.63    0.65
  -9  10   3    2.14    1.11
   8  10  -3   19.84    2.22
   8  10  -3   23.38    3.27
   7  10  -3   58.47    4.89
  -7  10   3   61.17    4.16
   6  10  -3   23.18    2.39
  -6  10   3   27.46    2.72
   6  10  -3   23.80    3.12
   5  10  -3   40.67    4.02
   5 -10  -3   45.34    2.36
   5  10  -3   43.04    3.22
  -5  10   3   39.17    3.20
   4 -10  -3   10.91    1.18
  -4  10   3   10.41    1.61
   4  10  -3   12.14    2.27
   4  10  -3    8.97    1.49
   3 -10  -3   16.31    1.46
   3  10  -3   17.49    2.06
  -3  10   3   16.20    1.96
  -2  10   3   -0.43    0.66
   2  10  -3   -1.03    1.34
   2  10  -3   -1.07    0.93
  -1  10   3   55.54    3.39
   1  10  -3   56.46    3.57
   1 -10  -3   53.68    2.80
   1  10  -3   55.38    4.33
   0  10  -3  617.68   16.83
   0 -10  -3  615.12   13.49
   0  10   3  607.79   14.58
   0  10  -3  603.13   14.78
  -1 -10  -3  268.88    7.94
   1  10   3  283.60    8.84
  -1  10  -3  289.85    9.02
  -1  10  -3  285.92   10.33
  -2  10  -3    6.62    1.43
  -2  10  -3    3.73    1.26
  -3  10  -3  167.74    6.58
   3 -10   3  166.18    7.12
   3  10   3  157.33    8.10
   4  10   3    2.88    1.24
   4 -10   3    3.09    1.14
  -4  10  -3    5.58    1.33
   5 -10   3    0.75    0.78
   5  10   3   -0.03    1.13
  -5  10  -3    1.04    0.96
   6 -10   3   18.36    2.32
  -6  10  -3   20.05    2.29
   6  10   3   24.78    3.39
  -7  10  -3   67.31    4.11
   7  10   3   61.97    5.46
   7 -10   3   68.47    4.48
   8 -10   3  167.37    7.26
   8  10   3  141.91    8.54
  -8  10  -3  152.00    6.46
   9 -10   3   75.65    4.91
   9  10   3   60.53    5.73
  -9  10  -3   68.53    4.21
  10  10   3    0.50    1.14
 -10  10  -3    0.50    0.76
  10 -10   3    0.76    0.98
  11 -10   3   24.46    2.96
  11  10   3   21.63    3.80
  12 -10   3    0.10    0.93
  12  10   3    3.54    1.94
  13 -10   3   28.89    3.51
  13  10   3   25.46    4.11
  14 -10   3    7.28    2.03
  14  11  -3   38.98    5.09
  13  11  -3    0.91    1.65
  12  11  -3    4.43    1.96
  11  11  -3    8.98    2.38
 -11  11   3   12.37    2.17
  11  11  -3   11.63    1.88
  10  11  -3   20.03    3.35
  10  11  -3   23.36    2.60
 -10  11   3   17.04    2.58
   9  11  -3    4.59    1.64
  -9  11   3    4.30    1.37
   9  11  -3    5.96    1.31
  -8  11   3   60.05    4.32
   8  11  -3   50.40    4.86
   7  11  -3    1.91    1.30
   7  11  -3    0.59    0.63
  -7  11   3    1.46    0.80
   6  11  -3    3.30    1.14
   6  11  -3    4.79    1.62
  -6  11   3    5.18    1.26
  -5  11   3  394.74   11.57
   5  11  -3  384.91   13.80
   5  11  -3  402.76   11.84
  -4  11   3    0.84    0.74
   4  11  -3    1.92    0.99
   3  11  -3   -1.25    1.13
   2  11  -3   -1.54    1.45
  -2  11   3   -0.82    0.94
   1  11  -3  101.24    5.26
   1  11  -3  103.76    6.24
  -1  11   3  102.18    5.04
   0  11  -3   20.85    2.80
   0  11   3   17.42    2.11
   0  11  -3   18.05    2.24
  -1  11  -3  371.56   11.09
  -1  11  -3  369.75   12.57
  -1 -11  -3  361.00    9.79
   1  11   3  345.01   10.67
  -2  11  -3  652.33   17.62
  -2 -11  -3  644.53   14.72
  -3  11  -3    9.62    1.74
   3 -11   3    6.73    1.53
  -4  11  -3    2.94    1.00
   4  11   3    2.62    1.43
   4 -11   3    3.42    1.22
   5 -11   3   52.44    3.99
   5  11   3   49.31    4.83
  -5  11  -3   52.41    3.83
  -6  11  -3  143.30    6.45
   6  11   3  133.51    8.21
   6 -11   3  131.46    6.47
   7 -11   3   16.52    2.29
   7  11   3   13.99    2.87
  -7  11  -3   15.41    2.17
   8 -11   3   35.07    3.36
  -8  11  -3   36.04    3.26
   8  11   3   34.48    4.34
  -9  11  -3    0.00    0.88
   9 -11   3    1.95    1.17
 -10  11  -3   21.39    2.57
  10 -11   3   19.04    2.64
  10  11   3   20.21    3.45
  11 -11   3   -1.54    1.15
  11  11   3   -1.30    1.47
  12 -11   3   76.95    5.56
  13 -11   3    4.94    1.65
  12  12  -3    4.65    2.36
  11  12  -3   17.36    3.39
  11  12  -3   19.73    2.54
  10  12  -3  180.83    7.84
  10  12  -3  172.17   10.02
   9  12  -3    2.99    1.47
   9  12  -3    2.86    1.04
   8  12  -3   15.36    2.89
   8  12  -3   10.40    1.79
   7  12  -3   70.51    4.68
   7  12  -3   64.09    5.64
   6  12  -3   41.19    4.48
  -6  12   3   40.47    3.38
   6  12  -3   43.03    3.61
   5  12  -3   48.42    3.85
  -5  12   3   43.59    3.41
  -4  12   3  155.98    6.68
   4  12  -3  167.67    7.31
   3  12  -3   80.02    4.94
   3  12  -3   81.06    5.89
   2  12  -3  192.37    9.22
   2  12  -3  209.81    8.30
   1  12  -3  498.78   15.74
   1  12  -3  496.39   14.02
  -1  12   3  496.45   13.58
   0  12  -3  151.94    7.95
   0  12   3  150.22    6.57
   0  12  -3  151.45    6.95
  -1  12  -3   13.98    2.10
  -1  12  -3   15.64    2.61
   1  12   3   11.87    1.80
   2  12   3    8.41    1.63
  -2  12  -3   11.71    2.25
  -2  12  -3   12.47    2.01
  -3 -12  -3   64.64    4.04
   3 -12   3   57.86    4.38
  -3  12  -3   62.27    4.33
  -4  12  -3   19.98    2.53
   4 -12   3   10.36    1.90
  -5  12  -3    1.57    1.02
   5  12   3    2.81    1.65
   5 -12   3    1.67    1.23
   6 -12   3   11.86    2.05
  -6  12  -3   15.00    2.27
   7 -12   3   42.91    3.79
   7  12   3   51.54    5.35
  -7  12  -3   54.55    4.18
  -8  12  -3   10.62    1.98
   8 -12   3   13.68    2.19
   8  12   3   12.20    2.85
   9 -12   3  125.09    6.72
   9  12   3  114.94    8.47
  -9  12  -3  129.48    6.54
  10 -12   3   23.28    2.95
  10  12   3   23.46    3.90
 -10  12  -3   22.13    2.67
  11 -12   3   -0.27    1.14
  11  13  -3   39.66    3.76
  11  13  -3   38.74    5.01
  10  13  -3   19.00    3.48
  10  13  -3   25.17    2.95
   9  13  -3  165.88    7.82
   9  13  -3  159.59    9.76
   8  13  -3    4.61    2.05
   8  13  -3    3.81    1.26
   7  13  -3   75.16    6.40
   7  13  -3   79.54    5.24
   6  13  -3   36.64    3.57
   5  13  -3    0.23    0.90
   4  13  -3   37.79    3.54
   4  13  -3   31.30    3.87
   3  13  -3   17.85    2.87
   3  13  -3   15.76    2.34
   2  13  -3    7.52    1.91
   2  13  -3    9.80    1.94
   1  13  -3   22.53    2.80
  -1  13   3   24.97    2.60
   1  13  -3   26.21    3.42
   0  13  -3   48.79    4.57
   0  13   3   52.19    3.90
   0  13  -3   54.11    4.26
  -1  13  -3    2.60    1.29
   1  13   3    1.49    0.93
  -1  13  -3    2.53    1.10
  -2  13  -3  128.64    6.64
  -2  13  -3  135.42    7.56
   2  13   3  120.38    6.29
   3 -13   3  112.02    6.40
  -3  13  -3  106.52    6.09
   4 -13   3   57.01    4.54
  -4  13  -3   61.69    4.57
  -5  13  -3  500.18   14.77
   5 -13   3  489.53   14.70
   6  13   3   24.43    3.87
   6 -13   3   27.48    3.07
  -6  13  -3   27.23    3.11
  -7  13  -3   46.88    4.05
   7 -13   3   44.65    3.96
   7  13   3   47.07    5.40
   8 -13   3   12.65    2.40
   8  13   3   14.69    3.07
  -8  13  -3   14.94    2.20
  -9  13  -3   77.62    5.28
  11  14  -3    1.13    1.29
  10  14  -3   53.52    4.57
   9  14  -3   32.63    3.59
   9  14  -3   29.40    4.53
   8  14  -3  131.06    9.07
   8  14  -3  146.16    7.66
   7  14  -3    3.49    1.23
   6  14  -3   51.65    4.39
   5  14  -3  206.18    9.12
   4  14  -3   14.42    2.87
   4  14  -3   18.80    2.74
   3  14  -3  169.60    8.16
   3  14  -3  157.12    8.95
   2  14  -3    1.12    1.41
   2  14  -3   -0.01    1.29
   1  14  -3  314.48   12.76
   1  14  -3  299.41   11.25
   0  14  -3   13.95    2.48
   0  14  -3   10.15    2.26
  -1  14  -3   66.51    4.96
  -1  14  -3   60.50    5.35
  -2  14  -3    1.73    1.23
  -3  14  -3  151.87    7.72
   3 -14   3  150.58    7.70
  -4  14  -3   28.05    3.34
  -5  14  -3   -0.87    1.26
  -6  14  -3   90.77    5.93
  -7  14  -3   51.29    4.46
  -8  14  -3   17.67    2.65
  -9  14  -3   51.40    4.53
   8  15  -3    1.07    1.22
   7  15  -3   58.46    4.98
   6  15  -3   86.69    6.09
   5  15  -3   56.43    4.83
   5  15  -3   45.99    5.06
   4  15  -3    6.93    1.93
   4  15  -3    4.24    1.84
   3  15  -3   -0.53    1.18
   3  15  -3    1.89    1.23
   2  15  -3    3.52    1.59
   2  15  -3    5.79    1.88
   1  15  -3    6.75    1.89
   1  15  -3    8.21    2.17
   0  15  -3    6.85    2.10
   0  15  -3    7.45    1.93
  -1  15  -3    5.86    1.73
  -1  15  -3    6.23    1.71
  -2  15  -3    0.72    1.36
  -3  15  -3  186.37    9.03
  -4  15  -3   78.08    5.76
  -5  15  -3    2.19    1.24
  -6  15  -3   14.05    2.60
   6  16  -3   26.39    4.03
   5  16  -3    2.45    1.66
   4  16  -3   11.74    2.61
   3  16  -3   19.91    3.37
   2  16  -3    5.01    1.71
   1  16  -3   22.06    3.57
   0  16  -3   45.95    4.99
 -19   0   4   15.63    2.94
 -18   0   4    6.85    1.89
 -17   0   4    2.69    1.41
 -16   0   4  102.89    6.27
 -15   0   4  111.46    6.29
 -14   0   4    1.28    1.15
 -13   0   4    2.10    1.06
 -12   0   4  224.49    8.22
 -11   0   4  548.10   14.00
 -10   0   4  251.20    8.17
  -9   0   4   12.46    1.57
  -8   0   4   49.41    2.99
  -7   0   4   92.61    4.03
  -6   0   4  840.49   16.81
  -5   0   4 2571.58   43.67
  -4   0   4 4151.20   68.01
  -3   0   4 5344.37   86.37
  -2   0   4  303.22    7.20
   1   0  -4 1027.05   17.61
  -1   0   4  994.72   18.57
   0   0   4  303.05    6.88
   0   0  -4  332.00    6.75
   0   0   4  317.02    7.51
   0   0   4  310.70    6.75
   0   0   4  316.49    7.35
   1   0   4 2093.25   35.75
   1   0   4 2133.86   36.39
   1   0   4 2194.82   35.84
   2   0   4  298.82    6.98
   3   0   4 1084.38   19.95
   4   0   4   12.56    1.27
   5   0   4  292.72    7.87
   6   0   4   64.66    3.41
   7   0   4  194.76    6.76
   8   0   4    5.54    1.32
   9   0   4    2.77    1.09
  10   0   4   12.15    2.01
  11   0   4  184.22    7.90
  12   0   4  226.30    9.30
  13   0   4   52.34    4.48
  14   0   4   87.12    6.14
 -14   0  -4   95.55    5.44
 -15   0  -4   64.95    4.65
  15   0   4   62.45    5.50
  16   0   4  102.23    7.38
 -19   1   4   -0.59    1.39
 -19  -1   4    0.06    1.19
 -18   1   4    9.50    2.29
 -18  -1   4   10.49    2.47
 -17   1   4   -0.79    1.17
 -17  -1   4    1.75    1.28
 -16   1   4  440.73   14.31
 -16  -1   4  416.20   13.82
 -15  -1   4   20.47    2.72
 -15   1   4   21.84    2.85
 -14  -1   4    8.25    1.82
 -14   1   4   15.35    2.26
 -13  -1   4   57.68    4.10
 -13   1   4   67.63    4.46
 -12  -1   4    1.68    0.31
 -12   1   4    2.03    0.91
 -12  -1   4    1.59    0.73
 -11  -1   4   15.11    0.78
 -11   1   4   13.61    1.86
 -11  -1   4   18.93    2.09
 -10   1   4    0.96    0.72
 -10  -1   4    1.07    0.90
  -9   1   4   15.75    1.82
  -9  -1   4   11.58    1.49
  -8  -1   4  638.78   14.11
  -8   1   4  630.12   14.46
  -7   1   4   11.28    1.46
  -7  -1   4    8.87    1.19
  -6  -1   4   27.11    1.98
  -6   1   4   31.34    1.81
  -6  -1   4   27.15    0.89
  -6   1   4   29.78    2.16
  -5   1   4  843.18   16.97
  -5  -1   4  866.35   16.54
  -4   1   4 3071.68   51.55
  -4  -1   4 3076.10   50.89
  -3   1   4  649.28   13.37
   3   1  -4  655.56   11.64
  -3  -1   4  664.55   12.79
  -2   1   4  810.60   15.85
  -2  -1   4  826.70   15.21
   2   1  -4  819.89   14.49
  -1  -1   4  588.45   11.71
   1   1  -4  588.67   11.73
   1  -1  -4  607.39   10.86
  -1   1   4  593.32   12.21
  -1   1   4  574.44   12.38
   0   1   4   36.71    2.10
   0   1  -4   37.02    1.89
   0  -1   4   34.45    1.95
   0   1   4   39.72    2.08
   0   1   4   39.12    1.51
   0   1  -4   39.77    1.97
   0   1   4   36.22    1.41
   0   1   4   36.11    1.54
  -1   1  -4  319.46    7.30
   1   1   4  319.30    6.76
  -1  -1  -4  301.91    6.95
   1  -1   4  309.09    7.42
   1  -1   4  319.90    7.46
  -2  -1  -4   19.62    1.40
   2  -1   4   19.69    1.51
   2   1   4   20.37    1.34
   3   1   4   20.51    1.51
   3  -1   4   19.85    1.61
   4   1   4  349.66    8.48
  -4   1  -4  345.19    8.84
   4  -1   4  362.03    8.72
   5   1   4 1689.71   30.51
   5  -1   4 1689.06   30.56
   6  -1   4  545.86   12.89
   6   1   4  577.91   13.22
   7  -1   4  311.45    9.06
   7   1   4  318.51    9.18
   8   1   4  473.05   12.39
   8  -1   4  458.17   12.20
   9  -1   4  247.72    8.63
   9   1   4  255.97    8.75
  10   1   4  796.49   19.26
  10  -1   4  818.40   19.39
  11  -1   4   27.22    2.96
  11   1   4   29.45    3.15
  12   1   4  172.76    7.99
  12  -1   4  159.72    7.63
 -12   1  -4  157.35    6.81
 -13   1  -4   -0.39    0.82
  13   1   4    0.86    1.12
  13  -1   4    1.65    1.13
  14   1   4   61.35    5.18
  14  -1   4   66.76    5.32
 -14   1  -4   57.06    4.23
  15   1   4    0.09    1.19
  15  -1   4    0.76    0.99
  16  -1   4   20.35    3.13
  16   1   4   18.80    3.21
 -19  -2   4   29.26    3.86
 -19   2   4   34.44    4.28
 -18  -2   4    1.95    1.27
 -18   2   4   -0.40    1.14
 -17  -2   4   31.90    3.63
 -17   2   4   29.18    3.65
 -16   2   4   34.12    3.82
 -16  -2   4   26.20    3.13
 -15   2   4  339.46   11.97
 -15  -2   4  300.10   11.01
 -14  -2   4   11.04    1.96
 -14   2   4   13.05    2.11
 -13   2   4   16.62    2.25
 -13  -2   4   17.59    2.24
 -12  -2   4    9.48    1.63
 -12   2   4   10.82    1.89
 -11  -2   4  105.04    5.05
  11  -2  -4  102.19    3.26
 -10  -2   4  407.05   10.97
 -10   2   4  412.66   11.58
  -9  -2   4  115.10    4.87
  -9   2   4  130.66    5.52
  -8   2   4    2.91    0.82
  -8  -2   4    1.97    0.65
  -7  -2   4  439.54   10.19
   7  -2  -4  424.76    7.69
  -7   2   4  422.87   10.75
  -6  -2   4   64.26    2.95
  -6   2   4   64.71    3.34
  -6   2   4   61.39    2.37
  -5  -2   4  445.92    9.60
  -5   2   4  433.76    8.45
   5   2  -4  442.50    9.15
  -5  -2   4  418.30    8.18
  -5   2   4  439.48   10.43
  -4   2   4 1126.20   18.61
  -4  -2   4 1091.92   18.94
  -4   2   4 1066.54   20.99
   4   2  -4 1104.43   19.40
  -4  -2   4 1112.16   19.86
   3   2  -4 1901.11   31.82
  -3   2   4 1867.19   33.63
  -3  -2   4 1948.11   31.82
  -3  -2   4 1929.03   32.26
  -2   2   4  392.67    9.49
   2   2  -4  419.10    7.92
  -2  -2   4  409.44    8.27
   2   2  -4  394.08    8.26
  -2  -2   4  407.60    8.30
   2   2  -4  410.90    8.07
  -1   2   4 1053.55   17.04
   1  -2  -4 1014.56   18.37
  -1   2   4 1007.64   19.52
  -1  -2   4 1041.02   18.00
   1   2  -4 1014.73   17.93
   1   2  -4 1019.27   18.38
  -1   2   4 1007.40   18.93
   0   2  -4  449.24    9.96
   0   2   4  441.36    9.22
   0   2   4  431.96    9.56
   0   2   4  448.41    8.38
   0  -2  -4  475.66    8.68
   0   2   4  450.11   10.28
   0   2  -4  450.18    8.98
   0   2  -4  452.32    9.45
   1   2   4   39.82    1.99
   1  -2   4   37.72    2.06
  -1   2  -4   36.75    1.81
  -1   2  -4   40.18    2.29
  -1  -2  -4   40.76    1.79
   1   2   4   41.86    1.73
  -1   2  -4   38.33    2.05
   1  -2   4   35.74    2.14
  -2   2  -4    2.95    0.63
  -2  -2  -4    3.49    0.59
   2  -2   4    2.84    0.69
   2  -2   4    3.51    0.64
   2   2   4    2.51    0.51
  -3   2  -4  135.67    4.63
   3   2   4  134.75    4.29
   3  -2   4  137.00    4.69
  -3   2  -4  130.45    4.54
   4   2   4  861.24   16.94
   4  -2   4  881.92   17.37
  -4   2  -4  870.77   17.20
  -4   2  -4  825.99   17.11
   5   2   4  510.12   11.78
  -5   2  -4  513.06   11.82
   5  -2   4  516.83   11.91
  -5   2  -4  517.57   11.90
  -6   2  -4  576.32   13.36
   6   2   4  588.28   13.47
   6  -2   4  591.95   13.51
  -7   2  -4    0.04    0.55
   7  -2   4    1.16    0.71
   7   2   4    0.71    0.71
   8   2   4   99.72    4.96
   8  -2   4  102.31    4.88
  -8   2  -4  104.42    4.81
  -9   2  -4    3.00    1.04
   9   2   4    1.96    0.97
   9  -2   4    2.99    1.03
  10  -2   4  127.37    6.15
  10   2   4  119.29    6.09
 -10   2  -4  124.62    5.69
  11   2   4   32.22    3.31
  11  -2   4   40.66    3.61
 -11   2  -4   43.02    3.33
 -12   2  -4    4.56    1.24
  12  -2   4    5.91    1.56
  12   2   4    4.01    1.47
  13  -2   4   17.80    2.75
  13   2   4   19.02    2.85
 -13   2  -4   12.53    1.95
  14  -2   4   60.76    5.05
  14   2   4   67.14    5.38
 -14   2  -4   57.70    4.29
  15   2   4   57.73    5.41
  15  -2   4   56.53    5.04
  16  -2   4   15.03    2.86
 -16   2  -4   12.60    2.41
 -17   2  -4   26.10    3.53
 -19  -3   4  132.70    8.15
 -19   3   4  134.21    8.50
 -18  -3   4   41.39    4.34
 -18   3   4   39.63    4.49
 -17   3   4    6.59    1.97
 -17  -3   4    3.02    1.35
 -16   3   4    4.34    1.64
 -16  -3   4    6.87    1.69
 -15  -3   4   87.14    5.52
 -15   3   4   98.83    6.14
 -14   3   4    8.64    1.86
 -14  -3   4    5.64    1.41
 -13   3   4   10.71    1.96
 -13  -3   4    3.95    1.14
 -12   3   4    3.61    1.02
 -12  -3   4    4.10    1.15
 -11  -3   4    7.60    1.40
 -11   3   4    5.95    1.28
 -10  -3   4  159.28    6.10
 -10   3   4  173.19    6.86
   9  -3  -4    2.05    0.39
  -9   3   4    1.17    0.74
  -9  -3   4    1.53    0.77
  -8   3   4    0.06    0.54
  -8  -3   4    1.24    0.66
   8  -3  -4    0.50    0.27
  -7   3   4   28.18    1.63
  -7   3   4   24.11    2.22
  -6  -3   4    3.21    0.81
  -6   3   4    3.72    0.54
  -5  -3   4    1.15    0.55
  -5   3   4    0.68    0.25
  -5   3   4    0.58    0.47
  -4   3   4   29.92    1.02
  -4  -3   4   30.37    1.68
  -4   3   4   30.03    2.21
  -3   3   4 2198.95   38.52
   3   3  -4 2213.01   35.89
  -3  -3   4 2198.21   36.86
  -3  -3   4 2184.36   36.34
   2   3  -4 1419.87   23.36
   2   3  -4 1448.89   24.63
  -2  -3   4 1396.46   23.77
  -2  -3   4 1423.65   24.74
  -2   3   4 1408.81   24.93
  -2   3   4 1376.24   26.07
  -1   3   4  106.29    2.33
  -1  -3   4  108.36    3.33
  -1  -3   4  107.09    2.83
  -1   3   4  103.20    4.13
   1   3  -4  112.08    2.78
  -1   3   4  111.45    3.70
   1  -3  -4  106.13    2.44
   1  -3  -4  108.00    3.86
   0   3   4 2167.94   35.75
   0   3   4 2179.01   38.48
   0  -3  -4 2300.32   35.82
   0   3  -4 2121.74   38.38
   0   3  -4 2229.75   35.98
   0   3   4 2202.95   37.75
   0   3  -4 2212.50   37.55
   0  -3   4 2221.08   36.78
   0  -3  -4 2296.64   37.95
   0  -3  -4 2133.76   37.93
  -1  -3  -4  208.45    4.84
   1  -3   4  205.97    5.56
  -1   3  -4  216.10    6.37
   1   3   4  216.24    6.01
   1   3   4  197.19    4.83
  -1   3  -4  199.70    4.80
  -1   3  -4  204.46    5.75
   2  -3   4   99.42    3.47
   2   3   4   93.33    3.26
  -2  -3  -4  108.70    3.40
   2   3   4  100.07    4.00
  -2   3  -4   95.83    3.79
   2  -3   4  101.08    4.05
   3  -3   4   98.42    4.13
   3   3   4   97.31    3.59
  -3   3  -4  104.33    4.06
   4   3   4  107.53    4.07
   4  -3   4  105.98    4.34
  -4   3  -4  104.90    4.09
  -4   3  -4  108.51    4.30
  -5   3  -4   45.04    2.68
   5   3   4   48.69    2.84
  -5   3  -4   47.45    2.82
   5  -3   4   43.94    2.78
   6  -3   4   18.94    1.94
   6   3   4   17.21    1.85
  -6   3  -4   20.59    1.97
  -7   3  -4  255.49    7.96
   7   3   4  270.06    8.35
   7  -3   4  243.46    7.97
   8   3   4   29.30    2.71
  -8   3  -4   21.27    2.12
   8  -3   4   24.15    2.36
   9   3   4  114.95    5.75
  -9   3  -4  117.30    5.23
   9  -3   4  114.09    5.54
  -9   3  -4  121.93    5.47
  10   3   4  258.28    9.50
 -10   3  -4  255.77    8.59
  10  -3   4  248.29    9.10
 -10   3  -4  270.67    8.86
  11   3   4   78.44    5.21
  11  -3   4   86.62    5.25
 -11   3  -4   80.71    4.71
 -11   3  -4   76.89    4.56
  12   3   4   42.55    4.00
  12  -3   4   46.18    4.12
 -12   3  -4   45.74    3.61
 -12   3  -4   47.53    3.72
  13   3   4   54.93    4.76
 -13   3  -4   53.51    4.11
  13  -3   4   47.79    4.31
 -13   3  -4   47.94    3.84
  14  -3   4    1.76    1.26
 -14   3  -4    1.06    0.90
 -14   3  -4    0.35    0.84
 -15   3  -4    1.09    1.18
 -15   3  -4    1.60    1.20
  15  -3   4   -1.06    1.22
 -16   3  -4   47.95    4.59
  16  -3   4   48.21    5.05
 -16   3  -4   50.36    4.56
 -17   3  -4    0.41    1.12
 -19  -4   4   69.77    5.97
 -19   4   4   76.84    6.47
 -18   4   4    7.80    2.36
 -18  -4   4    8.08    2.18
 -17  -4   4   74.74    5.55
 -17   4   4   78.79    6.05
 -16  -4   4   21.56    2.95
 -16   4   4   31.55    3.64
 -15  -4   4   22.16    2.97
 -15   4   4   12.18    2.33
 -14  -4   4   75.42    4.91
 -14   4   4   89.49    5.72
 -13   4   4   42.57    3.76
 -13  -4   4   35.16    3.27
  12  -4  -4   36.54    3.01
 -12  -4   4   33.64    2.96
 -12   4   4   37.67    3.42
 -11   4   4    3.15    1.20
  11  -4  -4    2.13    0.84
 -11  -4   4    2.72    1.08
 -10   4   4    1.03    0.65
  10  -4  -4    0.01    0.34
  10  -4  -4    0.48    0.58
 -10  -4   4   -0.39    0.57
   9  -4  -4  364.87    9.17
   9  -4  -4  361.82    7.74
  -9  -4   4  337.99    9.37
  -9   4   4  357.32   10.61
   8  -4  -4  189.95    5.59
  -8  -4   4  179.15    5.90
  -8   4   4  184.85    6.89
   7  -4  -4   35.85    1.94
  -7  -4   4   31.14    2.10
  -7   4   4   32.66    1.71
  -7   4   4   35.56    2.73
  -6  -4   4  250.64    6.65
  -6   4   4  258.39    5.65
   6  -4  -4  262.15    5.96
  -6   4   4  256.04    7.91
  -5  -4   4   42.28    2.11
  -5   4   4   40.66    1.48
  -5   4   4   43.86    2.87
  -4  -4   4  102.64    3.25
  -4   4   4  101.78    4.43
   3  -4  -4  107.60    3.09
  -3   4   4  103.43    4.39
  -3   4   4  102.05    3.55
  -3  -4   4  106.27    3.06
  -2   4   4   60.31    2.54
  -2   4   4   63.76    3.26
   2   4  -4   63.24    2.86
  -1   4   4   19.37    0.81
  -1  -4   4   19.57    1.53
  -1   4   4   20.61    1.82
   1  -4  -4   19.37    0.74
   1  -4  -4   19.22    1.57
   0  -4  -4  149.06    3.31
   0   4  -4  125.89    2.88
   0  -4  -4  139.70    4.70
   0   4   4  140.95    5.18
   0  -4   4  147.88    4.59
   0   4   4  136.38    4.93
   0   4  -4  136.91    5.16
  -1  -4  -4  257.53    7.00
  -1   4  -4  267.02    7.75
  -1   4  -4  242.82    5.24
   1   4   4  258.67    7.40
  -1  -4  -4  256.50    5.71
   1  -4   4  255.85    6.44
   2  -4   4   59.64    3.27
  -2   4  -4   67.66    3.57
   2   4   4   65.62    3.42
  -2   4  -4   67.02    3.24
  -2  -4  -4   59.65    2.59
  -2  -4  -4   65.49    3.23
   2   4   4   66.85    2.72
   2  -4   4   65.70    2.72
   3   4   4  215.20    7.01
   3   4   4  208.87    5.91
   3  -4   4  211.22    6.66
  -3   4  -4  209.27    6.54
   4   4   4  257.83    7.15
  -4   4  -4  260.25    7.59
   4  -4   4  245.46    7.56
   5  -4   4   98.61    4.46
  -5   4  -4   96.40    3.97
   5   4   4   99.37    4.30
  -5   4  -4  100.37    4.45
   6   4   4   68.45    3.78
  -6   4  -4   63.85    3.32
  -6   4  -4   65.69    3.66
   6  -4   4   69.96    3.81
   7   4   4    0.88    0.78
   7  -4   4    1.78    0.80
  -7   4  -4    1.08    0.63
   8  -4   4    2.00    0.91
   8   4   4    0.99    0.84
  -8   4  -4    0.29    0.60
  -9   4  -4   18.72    2.15
   9   4   4   18.63    2.29
   9  -4   4   16.08    2.02
  -9   4  -4   17.18    1.92
 -10   4  -4   41.99    3.13
 -10   4  -4   40.46    3.24
  10  -4   4   38.42    3.41
 -11   4  -4   29.93    2.79
  11  -4   4   33.50    3.27
 -11   4  -4   35.89    3.14
  12  -4   4   42.95    3.94
 -12   4  -4   42.70    3.40
 -13   4  -4  121.07    6.11
  13  -4   4  141.95    7.53
 -13   4  -4  123.54    6.41
 -13   4  -4  134.57    6.70
 -14   4  -4   26.51    3.19
 -14   4  -4   20.43    2.66
  14  -4   4   23.72    3.29
 -14   4  -4   19.39    2.62
  15  -4   4    1.53    0.97
 -15   4  -4   -0.52    0.95
 -16   4  -4   39.81    4.08
 -17   4  -4   24.41    3.45
 -19   5   4    1.60    1.62
 -18  -5   4  202.21    9.89
 -18   5   4  223.04   10.99
 -17  -5   4    2.73    1.39
 -17   5   4    3.79    1.75
 -16   5   4    0.08    1.06
 -16  -5   4    2.01    1.41
 -15  -5   4   71.82    4.96
 -15   5   4   80.77    5.80
 -14  -5   4  228.52    9.02
 -14   5   4  230.17    9.79
  14  -5  -4  243.42    9.15
 -13  -5   4   51.73    3.85
  13  -5  -4   48.91    3.65
 -13   5   4   53.05    4.29
 -12   5   4    0.30    0.89
 -12  -5   4    0.89    0.91
  12  -5  -4    1.85    0.68
  11  -5  -4  672.60   15.41
 -11   5   4  687.16   17.22
 -10   5   4    4.15    1.33
  10  -5  -4    5.92    1.10
 -10  -5   4    6.99    1.36
  -9  -5   4   28.81    2.33
   9  -5  -4   31.61    2.17
  -9   5   4   24.12    2.52
  -8  -5   4   26.66    2.05
   8  -5  -4   26.39    1.84
  -8   5   4   26.27    2.52
  -7   5   4  266.13    6.39
  -7  -5   4  274.69    7.35
   7  -5  -4  279.44    6.60
  -7   5   4  261.21    8.53
  -6  -5   4    1.19    0.49
   6  -5  -4    0.86    0.33
  -6   5   4    1.73    0.42
  -6   5   4    1.53    0.69
  -5  -5   4  342.81    7.26
   5  -5  -4  338.16    7.58
  -5   5   4  342.31    9.19
  -4  -5   4   39.46    1.79
   4   5  -4   39.56    2.64
  -4   5   4   39.49    2.73
  -4   5   4   38.97    1.96
   4  -5  -4   42.60    2.15
  -3   5   4  136.51    5.26
  -3   5   4  133.51    3.90
   3   5  -4  141.40    5.08
   2   5  -4    1.51    0.70
  -2   5   4    1.31    0.69
  -2  -5   4    0.98    0.21
   1  -5  -4  118.05    4.25
  -1   5   4  121.92    3.14
   1  -5  -4  116.64    2.70
  -1   5   4  123.99    4.92
   0  -5  -4  456.03   10.54
   0  -5  -4  466.98    8.66
   1   5   4   80.07    3.99
  -1  -5  -4   81.13    2.73
  -1   5  -4   78.25    4.03
  -1  -5  -4   78.64    3.53
  -2   5  -4  757.71   16.75
  -2  -5  -4  718.58   14.38
   2   5   4  768.88   16.84
   2  -5   4  774.18   14.48
   3   5   4 1498.03   28.66
   3  -5   4 1433.93   27.90
   4  -5   4  271.92    8.26
   4   5   4  270.29    8.76
   5  -5   4  128.86    5.36
   6  -5   4  797.15   17.66
  -6   5  -4  770.01   17.46
  -6   5  -4  796.63   16.26
  -7   5  -4  435.06   10.78
  -7   5  -4  444.70   11.90
   7  -5   4  435.65   11.84
   8  -5   4  701.83   16.71
  -8   5  -4  659.56   16.21
   9  -5   4   20.49    2.39
  -9   5  -4   18.72    2.19
 -10   5  -4  507.19   13.92
  10  -5   4  486.29   13.98
 -10   5  -4  505.52   12.93
 -10   5  -4  491.12   13.02
 -11   5  -4   41.08    3.34
 -11   5  -4   37.97    3.37
  11  -5   4   39.62    3.60
 -11   5  -4   35.75    2.97
 -12   5  -4  173.40    7.36
 -12   5  -4  161.08    6.85
 -12   5  -4  156.67    7.28
  12  -5   4  164.02    7.85
 -13   5  -4    2.47    1.32
 -13   5  -4    1.89    1.08
  13  -5   4    5.87    1.80
  14  -5   4    8.37    2.20
 -14   5  -4   10.23    2.22
 -15   5  -4   21.01    2.88
  15  -5   4   21.77    3.21
 -16   5  -4    9.01    2.21
 -17   5  -4    9.80    2.12
 -18   6   4   17.38    3.15
 -18  -6   4   16.65    2.88
 -17   6   4   12.33    2.61
 -17  -6   4    9.96    2.29
 -16   6   4   12.21    2.49
 -16  -6   4   12.44    2.30
 -15  -6   4   65.07    4.85
  15  -6  -4   69.01    4.78
 -15   6   4   71.85    5.56
 -14  -6   4   57.94    4.33
 -14   6   4   58.87    4.80
  13  -6  -4   48.69    3.67
 -13  -6   4   37.62    3.40
 -13   6   4   42.64    3.99
 -12   6   4   15.57    2.45
 -12  -6   4   14.05    2.00
  12   6  -4   13.13    1.44
  12  -6  -4   16.13    1.99
  11  -6  -4   16.94    1.87
 -11  -6   4   18.25    2.10
 -11   6   4   20.24    2.53
 -10  -6   4  503.74   12.94
 -10   6   4  510.02   14.39
   9  -6  -4   35.03    2.25
  -9  -6   4   29.17    2.36
  -9   6   4   32.39    3.00
   8  -6  -4    1.09    0.46
  -8  -6   4    2.78    0.84
  -8   6   4    2.10    0.85
  -7  -6   4  167.74    5.42
   7  -6  -4  174.45    4.76
  -7   6   4  168.82    6.70
  -6  -6   4   36.71    2.13
   6  -6  -4   36.19    1.67
  -6   6   4   34.57    2.81
   6   6  -4   32.99    2.93
  -5  -6   4  399.36    7.98
  -5   6   4  384.03    7.82
  -5   6   4  381.85   10.23
   5   6  -4  396.24   10.51
   4  -6  -4   11.25    0.63
  -4  -6   4   13.09    1.01
   4   6  -4   11.43    1.58
  -4   6   4   13.81    1.70
  -4   6   4   13.35    1.08
   4  -6  -4   13.80    1.39
  -3   6   4 1503.64   25.46
   3   6  -4 1472.66   25.39
   2  -6  -4  513.38    9.49
  -2   6   4  894.71   15.35
  -1   6   4   37.56    1.82
  -1   6   4   35.96    2.64
   1   6  -4   31.97    2.70
   1  -6  -4   39.18    2.35
   1  -6  -4   38.68    1.44
   0  -6  -4  270.51    7.43
   0   6  -4  265.74    8.69
   0  -6  -4  273.11    5.88
  -1   6  -4  671.00   16.08
   1   6   4  706.50   16.38
  -1  -6  -4  708.10   13.23
  -1  -6  -4  674.30   14.58
   2  -6   4    7.29    0.87
  -2   6  -4    9.83    1.57
   2   6   4    9.33    1.51
  -2   6  -4    6.89    0.48
  -3   6  -4   24.15    1.22
   3   6   4   25.53    2.58
   3  -6   4   25.19    2.34
  -4   6  -4  474.94    9.42
   4   6   4  462.74   12.95
   4  -6   4  451.45   12.02
  -5   6  -4   39.28    2.03
   5   6   4   32.20    3.01
   5  -6   4   30.31    2.61
  -6   6  -4  284.34    7.28
   6  -6   4  276.88    8.92
   6   6   4  272.94    9.96
   7  -6   4  265.44    8.75
  -7   6  -4  265.37    7.39
  -8   6  -4   22.37    2.00
   8  -6   4   23.08    2.46
   9  -6   4    7.47    1.66
  -9   6  -4   10.08    1.51
 -10   6  -4   43.25    3.13
 -10   6  -4   47.99    3.21
  10  -6   4   47.62    3.82
  11  -6   4    5.40    1.59
 -11   6  -4    8.36    1.62
 -12   6  -4   74.79    4.74
  12  -6   4   74.70    5.20
 -13   6  -4    2.13    1.31
  13  -6   4    2.41    1.29
 -14   6  -4   70.69    5.05
  14  -6   4   65.31    5.38
 -15   6  -4   -0.01    0.99
  15  -6   4    4.64    1.96
 -18   7   4   19.63    3.55
 -18  -7   4   15.54    2.90
 -17   7   4   18.77    3.21
 -17  -7   4   17.75    2.84
 -16  -7   4   55.83    4.72
 -16   7   4   65.58    5.65
 -15   7   4    1.25    1.42
 -15  -7   4    2.27    1.15
  15  -7  -4    1.66    0.91
 -14  -7   4   17.52    2.39
  14  -7  -4   16.31    2.16
 -14   7   4   18.44    2.85
  13  -7  -4  212.02    7.91
 -13  -7   4  199.06    8.20
 -13   7   4  213.02    9.42
  12   7  -4  196.43    6.50
 -12  -7   4  194.93    7.74
  12  -7  -4  207.92    7.38
 -12   7   4  215.58    9.08
  11  -7  -4  231.79    7.47
 -11  -7   4  210.32    7.70
 -11   7   4  221.92    9.02
 -10   7   4    0.94    1.00
  10  -7  -4    3.05    1.18
 -10  -7   4    1.35    0.81
  -9   7   4  130.78    6.34
   9  -7  -4  138.90    4.86
  -9  -7   4  137.17    5.41
  -8  -7   4   11.66    1.38
   8  -7  -4   12.70    1.25
  -8   7   4   12.52    1.97
  -7   7   4  253.95    6.17
   7   7  -4  258.38    9.44
  -7   7   4  255.15    8.87
   7  -7  -4  267.35    6.49
  -6   7   4    3.46    0.54
  -6  -7   4    2.79    0.69
   6   7  -4    4.15    1.22
  -6   7   4    1.99    0.87
   6  -7  -4    2.81    0.51
  -5  -7   4   84.01    3.07
   5   7  -4   85.65    4.81
  -5   7   4   87.76    4.55
   5  -7  -4   83.84    2.51
  -4  -7   4   41.18    1.82
   4   7  -4   37.72    3.11
  -4   7   4   39.31    3.02
   4  -7  -4   44.85    1.53
   3   7  -4  186.37    7.03
  -3   7   4  186.51    6.75
   3  -7  -4  190.58    3.85
  -2   7   4   12.35    1.64
   1  -7  -4  186.29    5.86
  -1   7   4  184.47    5.23
   1  -7  -4  193.10    4.58
  -1   7   4  186.78    6.74
   1   7  -4  181.84    7.37
   0  -7  -4   86.89    3.83
   0   7   4   79.51    3.25
   0   7  -4   75.37    4.59
   0  -7  -4   91.09    2.98
  -1   7  -4  688.95   16.74
  -1  -7  -4  691.57   13.44
   1   7   4  685.48   16.81
  -1  -7  -4  681.73   14.77
   2  -7   4   82.44    3.01
  -2   7  -4   87.19    4.79
   2   7   4   82.36    4.82
   3   7   4  174.09    7.35
   3  -7   4  165.19    6.54
  -3   7  -4  157.68    3.75
   4  -7   4   43.99    3.19
  -4   7  -4   42.51    1.90
   5   7   4   20.49    2.65
   5  -7   4   23.24    2.39
  -5   7  -4   21.60    1.56
  -6   7  -4    6.04    0.93
   6   7   4    7.11    1.80
   6  -7   4    9.07    1.60
  -7   7  -4  194.95    6.11
   7   7   4  199.52    8.83
   7  -7   4  203.14    7.70
  -8   7  -4   94.36    4.26
   8  -7   4   95.29    5.19
   8   7   4  103.51    6.43
   9  -7   4  154.51    7.05
  -9   7  -4  154.38    5.99
  -9   7  -4  152.52    5.49
 -10   7  -4  171.46    6.74
  10  -7   4  174.24    7.71
 -10   7  -4  173.48    6.00
  11  -7   4    6.89    1.72
 -11   7  -4    7.62    1.63
 -12   7  -4   50.58    3.88
  12  -7   4   43.40    4.02
  13  -7   4   53.76    4.65
  14  -7   4    2.27    1.39
  15  -7   4    0.34    1.34
 -18   8   4   -1.40    1.28
 -17  -8   4    6.75    1.87
 -17   8   4    3.01    1.59
 -16   8   4   68.34    5.88
 -16  -8   4   70.96    5.36
 -15  -8   4   70.61    5.13
 -15   8   4   85.68    6.34
 -14  -8   4  127.74    6.71
 -14   8   4  144.00    8.00
 -13   8   4   57.51    4.82
 -13  -8   4   47.30    3.85
  12   8  -4  123.61    5.11
 -12   8   4  120.03    6.80
 -12  -8   4  111.86    5.74
  11   8  -4    0.13    0.59
 -11   8   4   -0.15    1.11
 -11  -8   4    0.47    0.81
  11  -8  -4    0.39    0.61
  10  -8  -4  402.96   10.22
 -10   8   4  408.30   12.90
 -10  -8   4  404.91   11.09
  -9   8   4   16.88    2.28
   9  -8  -4   20.73    1.77
   9   8  -4   16.56    2.62
   8   8  -4    1.17    1.05
  -8   8   4    0.37    0.78
   8  -8  -4    1.20    0.55
   7  -8  -4   61.22    2.59
  -7   8   4   53.92    3.86
   7   8  -4   52.16    4.14
   6   8  -4  353.64   11.72
  -6  -8   4  382.48    8.87
   6  -8  -4  380.14    7.90
  -6   8   4  365.41   11.05
  -5  -8   4  123.90    3.84
  -5   8   4  115.90    5.56
   5   8  -4  108.81    5.83
   5  -8  -4  116.43    3.25
   4  -8  -4   70.32    2.35
   4   8  -4   77.69    4.72
  -4   8   4   78.42    4.36
  -4  -8   4   75.18    2.56
   3  -8  -4    1.06    0.26
  -3  -8   4    1.10    0.27
  -3  -8   4    0.45    0.22
   3   8  -4    0.54    0.80
  -3   8   4    1.00    0.75
  -2   8   4  117.27    5.28
   1  -8  -4  496.16   11.58
  -1   8   4  508.15   11.18
   1   8  -4  510.20   14.15
   0   8   4    7.29    1.06
   0  -8  -4    9.32    1.28
   0  -8  -4    8.67    0.98
   0   8  -4    7.33    1.61
  -1  -8  -4   35.85    2.55
  -1   8  -4   40.73    3.42
   2   8   4  294.60   10.50
  -2   8  -4  326.29   10.53
  -2  -8  -4  316.21    9.00
   3   8   4  301.47   10.62
   3  -8   4  293.72    9.68
   4  -8   4   68.01    4.17
  -4   8  -4   63.73    2.32
   4   8   4   60.98    4.61
   5   8   4  302.71   11.09
   5  -8   4  310.18    9.87
  -5   8  -4  290.30    6.99
   6   8   4  451.82   14.44
   6  -8   4  449.04   12.68
  -6   8  -4  439.82    9.99
   7   8   4  204.81    9.39
  -7   8  -4  211.55    6.45
   8   8   4   35.29    3.93
   8  -8   4   40.55    3.44
  -8   8  -4   40.54    2.84
  -8   8  -4   38.86    2.68
   9  -8   4  118.93    6.15
  -9   8  -4  102.07    4.72
   9   8   4  113.62    7.18
 -10   8  -4   12.42    1.60
  10   8   4   10.05    2.33
  10  -8   4   11.38    1.98
  11  -8   4   15.21    2.45
  12  -8   4    7.43    1.81
  13  -8   4   23.53    3.17
  14  -8   4  114.39    7.29
 -18   9   4    1.24    1.55
 -17  -9   4   13.52    2.54
 -17   9   4    9.42    2.61
 -16  -9   4   15.08    2.66
 -16   9   4   13.03    2.68
 -15  -9   4  169.73    8.22
 -15   9   4  166.66    9.23
 -14  -9   4    0.70    1.09
 -14   9   4   -0.92    1.37
 -13  -9   4    1.86    1.06
 -13   9   4   -1.00    1.20
  12   9  -4   71.19    4.06
 -12  -9   4   67.37    4.42
 -12   9   4   74.35    5.40
  11   9  -4    7.78    1.49
  11   9  -4    7.07    2.16
 -11  -9   4    5.54    1.37
 -11   9   4   10.05    2.09
  10   9  -4  113.06    7.05
 -10   9   4  123.07    6.55
   9   9  -4   99.49    6.33
  -9   9   4  104.15    5.80
   8   9  -4  230.06    9.82
  -8   9   4  238.63    9.04
   7   9  -4   53.54    4.42
  -7   9   4   53.31    3.94
   6   9  -4   19.02    2.72
  -6   9   4   19.37    2.36
   6  -9  -4   23.34    1.43
  -6  -9   4   24.97    1.81
   5  -9  -4    7.95    0.81
  -5   9   4    6.75    1.44
  -5  -9   4   10.82    1.08
   5   9  -4    8.42    1.83
  -4  -9   4    7.73    0.77
   4  -9  -4    8.37    0.78
   4   9  -4    6.54    1.70
  -4   9   4    8.29    1.49
   3  -9  -4   66.78    2.37
  -3   9   4   67.62    4.05
   2   9  -4  166.44    7.70
  -2   9   4  163.30    6.61
   1   9  -4   72.08    4.83
  -1   9   4   74.41    3.50
   0   9  -4  245.32    9.43
   0   9   4  230.85    7.17
   0  -9  -4  245.21    7.44
  -1   9  -4  719.95   18.19
  -1  -9  -4  680.52   15.42
  -2   9  -4   65.57    4.63
   2   9   4   61.59    4.70
  -2  -9  -4   71.86    3.91
   3   9   4  112.09    6.46
   3  -9   4  109.32    5.66
   4   9   4    0.35    1.06
   4  -9   4   -0.03    0.98
   5   9   4    8.48    2.00
   5  -9   4    7.18    1.74
   6  -9   4    2.01    1.06
   6   9   4   -1.15    1.44
  -7   9  -4   72.01    4.05
   7   9   4   64.16    5.35
   7  -9   4   71.36    4.62
   8   9   4    0.60    1.37
   8  -9   4   -0.30    0.81
  -8   9  -4    1.26    0.87
  -9   9  -4   84.74    4.48
   9   9   4   78.70    6.19
   9  -9   4   87.50    5.37
  10   9   4   13.19    2.68
 -10   9  -4   16.44    1.98
  10  -9   4   15.19    2.34
  11   9   4  128.20    8.45
  11  -9   4  126.91    6.96
  12  -9   4    0.17    0.93
  12   9   4    1.03    1.57
  13  -9   4   26.48    3.45
  13   9   4   25.41    4.18
  14  -9   4   48.83    4.79
 -16  10   4   69.28    6.17
 -15  10   4   75.94    6.21
  15  10  -4   69.22    6.61
 -15 -10   4   71.36    5.29
 -14 -10   4   36.53    3.61
  14  10  -4   38.01    4.89
 -14  10   4   37.68    4.21
 -13 -10   4   92.14    5.51
  13  10  -4   86.95    7.04
 -13  10   4  100.20    6.65
 -12 -10   4   23.82    2.67
  12  10  -4   20.08    3.36
 -12  10   4   22.23    3.04
  12  10  -4   25.35    2.59
  11  10  -4   64.01    4.06
 -11 -10   4   64.93    4.11
  11  10  -4   55.41    5.22
 -11  10   4   59.05    4.78
  10  10  -4    6.09    1.37
 -10  10   4    4.77    1.41
  10  10  -4    2.92    1.58
 -10 -10   4    4.88    1.18
   9  10  -4  255.62   10.95
  -9  10   4  257.66    9.77
   8  10  -4   72.57    5.51
  -8  10   4   74.80    4.90
   7  10  -4    9.66    1.55
   7  10  -4   11.52    2.23
  -7  10   4    9.94    1.73
   6  10  -4    0.71    0.98
  -6  10   4   -0.52    0.70
   5  10  -4  103.01    6.32
  -5  10   4  109.65    5.62
  -4  10   4  777.50   18.48
  -3  10   4  133.59    6.09
   2  10  -4  276.30   10.69
   1 -10  -4  380.60    9.88
  -1  10   4  398.29   10.28
   1  10  -4  381.49   12.87
   0  10  -4   74.41    5.19
   0  10   4   71.91    3.85
   0 -10  -4   75.34    3.88
   1  10   4  985.51   20.75
  -1  10  -4 1020.36   23.99
  -1 -10  -4 1013.44   20.96
  -2  10  -4  455.20   14.15
  -2 -10  -4  449.27   11.87
  -3 -10  -4  228.16    8.01
   3 -10   4  234.12    8.94
   3  10   4  210.86    9.65
   4  10   4  416.19   14.42
   4 -10   4  431.49   12.91
  -5  10  -4  329.06   10.02
   5 -10   4  329.03   10.92
   5  10   4  327.70   12.62
   6  10   4   69.50    5.67
  -6  10  -4   69.38    4.19
   6 -10   4   63.04    4.43
  -7  10  -4   -0.04    0.74
   7  10   4   -1.74    1.39
   7 -10   4    0.46    0.93
   8 -10   4  214.42    8.82
  -8  10  -4  211.36    7.86
   8  10   4  207.51   10.51
  -9  10  -4    8.48    1.58
   9  10   4    5.23    1.95
   9 -10   4    9.52    1.93
  10  10   4    4.71    2.15
  10 -10   4   10.44    1.94
  11 -10   4   13.03    2.30
  11  10   4   10.94    2.70
  12 -10   4    6.07    1.91
  12  10   4    5.56    2.14
  13 -10   4   15.60    2.63
  14  11  -4    9.34    2.88
  13  11  -4  103.29    7.83
 -13  11   4   89.77    6.38
  12  11  -4   61.36    4.22
  12  11  -4   56.63    5.65
 -12  11   4   64.56    5.24
  11  11  -4   21.07    2.51
  11  11  -4   22.12    3.48
 -11  11   4   25.06    3.18
  10  11  -4   62.31    4.21
  10  11  -4   59.93    5.53
 -10  11   4   58.34    4.71
   9  11  -4    2.03    0.96
   9  11  -4    2.60    1.44
  -9  11   4    1.66    0.91
   8  11  -4    5.88    1.33
   8  11  -4    6.15    1.99
  -8  11   4    5.11    1.40
  -7  11   4    1.12    0.82
   7  11  -4    1.73    0.92
   7  11  -4    1.20    1.10
   6  11  -4    9.31    2.12
  -6  11   4    9.40    1.78
   6  11  -4   12.13    1.81
   5  11  -4   88.98    4.92
  -5  11   4   88.74    5.13
   5  11  -4   88.26    6.10
  -4  11   4  141.39    6.46
   4  11  -4  140.26    6.29
   3  11  -4   94.85    6.22
   3  11  -4   96.51    5.14
   2  11  -4  252.62   10.45
  -1  11   4    6.31    1.25
   1  11  -4    5.26    1.62
   0 -11  -4  334.02    9.58
   0  11  -4  334.34   12.19
   0  11   4  345.76    9.85
  -1 -11  -4   70.23    4.02
   1  11   4   64.89    3.94
  -1  11  -4   64.13    4.95
  -2  11  -4  148.70    6.54
  -2 -11  -4  155.31    6.34
  -2  11  -4  147.39    7.66
   3 -11   4   -0.43    0.88
  -3  11  -4   -0.03    0.76
  -3 -11  -4    1.15    0.84
  -4  11  -4   80.33    4.71
   4  11   4   77.43    5.97
   4 -11   4   68.39    4.77
  -5  11  -4    4.40    1.29
   5  11   4    1.68    1.37
   5 -11   4    1.91    1.04
  -6  11  -4   24.49    2.64
   6  11   4   20.58    3.28
   6 -11   4   24.76    2.91
  -7  11  -4  171.69    7.23
   7  11   4  156.35    9.27
   7 -11   4  168.81    7.73
   8 -11   4    4.30    1.36
  -8  11  -4    4.01    1.22
   8  11   4    3.78    2.01
   9 -11   4  192.20    8.56
  -9  11  -4  186.82    7.74
   9  11   4  175.76   10.32
  10  11   4   -0.06    1.37
  10 -11   4    1.09    1.01
  11  11   4   63.41    6.38
  11 -11   4   63.10    5.05
  12 -11   4   18.18    2.85
  13  12  -4   17.30    3.44
  12  12  -4    9.69    2.69
  11  12  -4   52.16    4.04
  11  12  -4   51.66    5.50
  10  12  -4    0.99    0.97
  10  12  -4    1.59    1.45
   9  12  -4   34.35    3.29
   9  12  -4   48.99    5.10
  -8  12   4  377.86   12.34
   8  12  -4  377.18   14.50
   7  12  -4   28.31    3.77
  -7  12   4   27.68    3.03
   7  12  -4   27.99    2.96
   6  12  -4    2.20    1.16
   6  12  -4    2.26    1.47
  -6  12   4    1.10    0.89
  -5  12   4  288.01   10.14
   5  12  -4  308.93   10.39
   4  12  -4  148.93    6.98
  -4  12   4  156.36    7.01
   3  12  -4    8.89    2.25
   3  12  -4    8.60    1.72
   2  12  -4    2.80    1.18
   2  12  -4    2.60    1.52
   1  12  -4   52.94    4.01
   1  12  -4   55.26    4.89
  -1  12   4   58.17    3.75
   0  12   4  142.36    6.12
   0  12  -4  148.05    6.83
   0  12  -4  130.00    7.54
  -1  12  -4    3.62    1.39
   1  12   4    1.90    0.84
  -1  12  -4    3.86    1.32
  -2  12  -4   27.71    3.35
  -2  12  -4   27.61    2.94
  -3  12  -4   45.23    3.72
  -3 -12  -4   51.39    3.71
   3 -12   4   47.32    4.16
  -4 -12  -4  289.29   10.08
  -4  12  -4  294.43   10.34
   4 -12   4  303.92   11.05
   5 -12   4  145.33    7.25
  -5  12  -4  143.12    6.85
   5  12   4  141.93    8.73
   6  12   4   10.07    2.65
   6 -12   4    9.25    1.93
  -6  12  -4   11.73    2.09
  -7  12  -4    4.75    1.34
   7  12   4    3.36    1.78
   7 -12   4    5.79    1.46
   8  12   4   33.04    4.50
  -8  12  -4   37.06    3.44
   8 -12   4   43.50    3.91
  -9  12  -4   -0.22    1.05
   9  12   4   -0.70    1.37
   9 -12   4    0.43    1.03
  10 -12   4   29.90    3.46
  10  12   4   26.16    4.20
  11 -12   4    8.58    2.02
  11  13  -4   16.32    2.46
  11  13  -4   14.89    3.38
  10  13  -4    2.87    1.88
  10  13  -4    4.64    1.48
   9  13  -4    1.83    1.35
   9  13  -4    1.49    1.59
   8  13  -4   12.37    2.17
   8  13  -4   13.40    3.04
   7  13  -4   -0.07    1.19
   7  13  -4    1.00    1.11
   6  13  -4    6.04    1.64
   5  13  -4    4.74    1.60
   4  13  -4   30.49    3.24
   4  13  -4   25.30    3.55
   3  13  -4    1.75    1.10
   3  13  -4    2.40    1.56
   2  13  -4    0.97    1.02
   2  13  -4    0.13    1.06
   1  13  -4   -1.08    1.19
   1  13  -4    0.43    0.91
   0  13  -4   31.02    3.25
   0  13  -4   35.39    4.03
  -1  13  -4    2.09    1.26
  -1  13  -4   -0.80    1.10
  -2  13  -4   11.26    2.46
  -2  13  -4    9.68    1.88
  -3  13  -4   -0.86    0.98
   3 -13   4    0.64    0.86
  -4  13  -4    6.94    1.79
   4 -13   4    7.15    1.82
  -5  13  -4   32.78    3.41
   5 -13   4   38.28    3.76
  -6  13  -4    7.87    1.77
   6 -13   4    6.15    1.74
   6  13   4    5.78    2.24
  -6 -13  -4    8.93    1.94
  -7  13  -4    0.68    0.98
   7  13   4    1.19    1.73
   7 -13   4    0.70    0.92
  -8  13  -4   16.41    2.49
   8  13   4   12.13    3.00
   8 -13   4    9.67    2.01
  -9  13  -4   19.99    2.72
   9 -13   4   19.99    2.86
  11  14  -4   -0.06    1.11
  10  14  -4  120.48    6.95
   9  14  -4    7.12    1.79
   9  14  -4   10.30    2.73
   8  14  -4   57.16    4.72
   8  14  -4   44.37    5.10
   7  14  -4  109.91    6.53
   6  14  -4   20.49    2.92
   5  14  -4    1.77    1.25
   5  14  -4    2.86    1.54
   4  14  -4   21.99    2.94
   4  14  -4   20.97    3.36
   3  14  -4  233.54    9.69
   3  14  -4  221.42   11.00
   2  14  -4    8.78    2.12
   2  14  -4    2.64    1.34
   1  14  -4    1.15    1.39
   1  14  -4    1.26    1.24
   0  14  -4    0.79    1.20
   0  14  -4   -0.92    1.41
  -1  14  -4    1.28    1.19
  -1  14  -4    0.91    1.25
  -2  14  -4   87.18    5.79
   2 -14   4   95.46    6.26
   3 -14   4    2.61    1.33
  -3  14  -4    6.21    1.85
  -4  14  -4  124.38    7.05
   4 -14   4  138.20    7.53
   5 -14   4   31.24    3.47
  -5  14  -4   31.25    3.50
  -6  14  -4    8.07    1.97
  -7  14  -4   11.34    2.22
  -8  14  -4   -1.41    1.33
  -9  14  -4    6.41    1.87
   7  15  -4   65.21    5.23
   6  15  -4    7.83    2.52
   6  15  -4    5.59    1.72
   5  15  -4   14.13    2.62
   5  15  -4   15.57    3.05
   4  15  -4    0.00    1.16
   4  15  -4   -0.14    1.41
   3  15  -4   54.75    4.75
   3  15  -4   52.15    5.42
   2  15  -4   71.05    5.45
   2  15  -4   69.78    6.10
   1  15  -4    2.78    1.38
   1  15  -4    2.34    1.43
   0  15  -4   15.69    2.64
   0  15  -4   17.98    3.08
  -1  15  -4    4.97    1.81
  -1  15  -4    4.33    1.96
  -2  15  -4  153.38    8.14
  -3  15  -4    1.94    1.50
  -4  15  -4   80.17    5.84
   4  16  -4  132.15    8.92
   3  16  -4  121.74    8.46
   2  16  -4   27.37    3.94
   1  16  -4   18.15    3.35
   0  16  -4   88.00    6.92
 -19   0   5    2.10    1.67
 -18   0   5   -1.21    1.23
 -17   0   5    2.84    1.45
 -16   0   5   -0.59    1.36
 -15   0   5    1.26    1.06
 -14   0   5    0.22    0.97
 -13   0   5    0.58    0.78
 -12   0   5   -0.51    0.91
 -11   0   5    0.17    0.66
 -10   0   5    3.68    1.00
  -9   0   5   -0.24    0.69
  -8   0   5   -0.06    0.63
  -7   0   5    0.50    0.61
  -6   0   5   -0.39    0.58
   6   0  -5    0.65    0.17
   5   0  -5    2.48    0.38
  -5   0   5    4.38    0.99
  -4   0   5    1.00    0.51
  -3   0   5    0.18    0.29
  -2   0   5    0.12    0.29
   1   0  -5    0.88    0.31
  -1   0   5    1.15    0.52
   0   0   5    0.10    0.26
   0   0   5    0.34    0.32
   1   0   5    0.24    0.31
   1   0   5    0.18    0.33
   2   0   5    0.57    0.35
   2   0   5    0.13    0.37
   3   0   5   -0.17    0.45
   4   0   5    0.63    0.49
   5   0   5    1.09    0.63
  -6   0  -5    0.95    0.91
   6   0   5   -0.39    0.58
   7   0   5   -0.90    0.76
  -7   0  -5    1.08    0.81
   8   0   5    0.89    0.92
   9   0   5    3.74    1.49
  10   0   5    0.38    1.00
  11   0   5    0.85    0.97
  12   0   5   -0.03    0.85
  13   0   5   -0.55    0.94
 -14   0  -5   -1.32    1.12
  14   0   5   -0.57    1.07
 -15   0  -5    0.49    0.94
  15   0   5   -0.59    1.28
 -19  -1   5   23.06    3.49
 -19   1   5   23.06    3.63
 -18   1   5   -0.19    1.33
 -18  -1   5    2.14    1.27
 -17   1   5   69.29    5.58
 -17  -1   5   71.82    5.43
 -16   1   5   77.15    5.58
 -16  -1   5   69.37    5.14
 -15   1   5    2.08    1.42
 -15  -1   5    2.89    1.44
 -14   1   5  159.73    7.60
 -14  -1   5  152.96    7.23
 -13   1   5    4.46    1.35
 -13  -1   5    1.76    0.98
 -12  -1   5   54.76    3.87
 -12   1   5   85.82    4.96
 -11  -1   5  174.85    6.96
 -11   1   5  195.58    7.52
 -10   1   5   11.02    1.76
 -10  -1   5    9.13    1.46
  -9  -1   5  568.57   13.53
  -9   1   5  527.25   13.52
  -8   1   5  116.79    5.04
  -8  -1   5  106.47    4.67
  -7   1   5   81.36    4.03
  -7  -1   5   85.38    3.91
  -6   1   5 1627.23   30.24
  -6  -1   5 1640.87   29.68
  -5   1   5 1113.27   21.57
  -5  -1   5 1101.39   20.95
  -4   1   5 1282.32   24.35
   4   1  -5 1288.37   21.84
  -4  -1   5 1313.02   23.69
   4   1  -5 1311.67   23.24
  -3   1   5  157.29    5.24
  -3  -1   5  159.10    4.87
   3   1  -5  157.13    4.02
   3   1  -5  153.54    4.64
   2   1  -5  571.42   11.58
  -2   1   5  540.75   12.21
  -2  -1   5  556.92   11.62
   1   1  -5   14.43    1.23
  -1   1   5   14.52    1.04
   1  -1  -5   14.08    0.89
   1   1  -5   14.05    1.25
  -1   1   5   16.07    1.48
  -1  -1   5   13.38    1.20
   1  -1  -5   15.09    0.90
   0   1   5  515.09    9.67
   0   1  -5  515.90   11.03
   0   1   5  530.47    9.88
   0   1   5  528.65   11.65
   0   1  -5  509.35   11.05
   0   1   5  508.88   10.12
   1   1   5 1728.84   28.95
   1  -1   5 1696.84   30.30
   1   1   5 1748.57   29.32
   1  -1   5 1721.41   30.29
  -1  -1  -5 1695.20   29.88
  -1   1  -5 1693.96   30.30
   2   1   5  715.15   13.78
   2  -1   5  683.95   14.32
  -3   1  -5 1018.43   20.55
   3  -1   5 1046.68   20.00
   3   1   5 1028.70   19.36
   4   1   5  181.02    5.70
   4  -1   5  188.45    5.95
   5   1   5    0.66    0.55
   5  -1   5    1.44    0.64
   6   1   5  336.68    9.32
   6  -1   5  331.32    9.31
  -7   1  -5   48.04    3.30
   7   1   5   48.32    3.30
   7  -1   5   50.70    3.33
  -8   1  -5  184.90    7.12
   8  -1   5  185.96    7.08
   8   1   5  173.51    6.90
   9   1   5  346.29   10.84
  -9   1  -5  354.68   10.94
   9  -1   5  357.00   10.97
 -10   1  -5   15.44    2.20
  10   1   5   12.81    2.05
  10  -1   5   18.36    2.49
  11   1   5   53.42    4.26
  11  -1   5   50.93    4.09
 -12   1  -5    2.21    0.97
  12   1   5   -0.02    1.00
  12  -1   5    0.33    1.02
 -13   1  -5   10.37    1.97
  13   1   5   11.05    2.21
  13  -1   5   10.37    2.17
 -14   1  -5    1.34    0.87
 -14   1  -5    2.91    1.44
  14   1   5    3.96    1.65
  14  -1   5    4.76    1.82
  15   1   5   41.91    4.50
 -15   1  -5   35.56    3.56
 -15   1  -5   40.72    4.23
 -16   1  -5   23.21    3.48
 -17   1  -5   11.97    2.78
 -19   2   5    2.85    1.88
 -19  -2   5    2.59    1.41
 -18  -2   5   47.33    4.62
 -18   2   5   46.59    4.80
 -17   2   5    1.12    1.00
 -17  -2   5    0.13    1.06
 -16   2   5   16.55    2.75
 -16  -2   5   20.39    2.81
 -15  -2   5  187.33    8.43
 -15   2   5  205.81    9.13
 -14  -2   5  230.76    9.10
 -14   2   5  257.98    9.96
 -13   2   5    3.53    1.45
 -13  -2   5    2.37    1.13
 -12  -2   5   38.81    3.23
 -12   2   5   36.67    3.28
 -11  -2   5  132.66    5.89
 -11   2   5  151.74    6.63
 -10  -2   5  933.60   19.96
 -10   2   5  921.51   20.67
  -9  -2   5  105.61    4.61
  -9   2   5  105.15    5.00
  -8  -2   5   73.45    3.71
  -8  -2   5   76.20    2.16
   8  -2  -5   78.13    1.87
  -8   2   5   76.96    4.16
  -7   2   5   10.81    1.04
  -7  -2   5   15.53    0.90
  -7   2   5   12.19    1.60
  -7  -2   5   12.74    1.47
  -6   2   5 2197.33   36.29
  -6  -2   5 2157.41   35.47
  -6   2   5 2096.37   38.86
  -6  -2   5 2236.53   38.02
  -5  -2   5    2.02    0.38
  -5  -2   5    2.72    0.67
  -5   2   5    1.35    0.49
   4   2  -5   46.25    2.14
  -4   2   5   46.52    2.85
  -4  -2   5   46.78    2.36
  -4  -2   5   44.01    1.91
  -3   2   5   33.40    2.37
   3   2  -5   41.85    1.91
  -3  -2   5   38.87    2.08
   3   2  -5   37.26    1.86
  -2   2   5  259.91    5.34
   2   2  -5  276.03    5.46
  -2   2   5  254.09    7.45
  -2  -2   5  259.36    6.37
   2   2  -5  257.52    6.24
   2   2  -5  261.05    6.25
   1   2  -5  225.56    6.42
   1  -2  -5  233.23    5.71
  -1  -2   5  227.63    5.77
  -1   2   5  239.21    6.93
  -1   2   5  234.42    4.95
   1   2  -5  229.40    5.81
   1   2  -5  231.85    5.94
   0   2   5   35.31    1.31
   0   2   5   35.40    1.57
   0   2   5   34.43    1.81
   0   2  -5   34.12    2.21
   0   2   5   34.96    2.38
   0   2  -5   32.57    1.90
   0   2  -5   33.33    1.96
   1  -2   5  413.64    9.96
  -1   2  -5  428.24   10.10
  -1  -2  -5  416.70    8.99
   1   2   5  419.31    9.12
  -1   2  -5  416.23    9.58
  -1   2  -5  409.74    9.35
   1   2   5  427.97    8.66
   2  -2   5  751.65   15.37
   2   2   5  729.26   14.13
  -2   2  -5  737.54   15.12
   3   2   5 1369.13   24.77
  -3   2  -5 1373.22   25.83
   3  -2   5 1409.38   25.76
  -3   2  -5 1343.33   25.44
  -4   2  -5  696.23   15.26
   4   2   5  686.60   14.47
  -4   2  -5  683.04   14.98
   4  -2   5  705.64   15.09
   5   2   5   37.90    2.59
   5  -2   5   43.08    2.80
   6  -2   5  887.37   18.73
   6   2   5  871.92   18.48
  -6   2  -5  870.54   18.65
  -7   2  -5   81.20    4.31
   7   2   5   78.41    4.19
   7  -2   5   80.40    4.28
  -7   2  -5   74.56    4.08
  -8   2  -5   14.24    1.89
  -8   2  -5   11.13    1.79
   8   2   5   13.73    1.89
   8  -2   5   11.15    1.82
   9  -2   5  380.09   11.61
  -9   2  -5  399.82   11.57
   9   2   5  389.28   11.84
 -10   2  -5  312.20   10.33
  10   2   5  330.65   10.95
  10  -2   5  308.47   10.62
 -10   2  -5  327.32   10.36
  11   2   5  280.36   10.54
 -11   2  -5  296.82   10.25
  11  -2   5  292.47   10.74
 -11   2  -5  297.78   10.04
 -12   2  -5    9.57    1.76
  12   2   5    7.58    1.92
 -12   2  -5   10.76    1.96
  12  -2   5    9.55    2.04
  13   2   5  141.84    7.80
 -13   2  -5  145.20    7.27
  13  -2   5  136.68    7.51
 -13   2  -5  139.41    6.87
  14   2   5    2.91    1.52
  14  -2   5    4.40    1.60
 -14   2  -5    6.26    1.84
 -14   2  -5    8.12    1.80
  15  -2   5  103.76    7.08
  15   2   5  101.66    7.11
 -15   2  -5   97.18    6.35
 -15   2  -5  101.29    6.07
 -16   2  -5   30.39    3.72
 -17   2  -5    6.08    2.09
 -19  -3   5   35.07    4.26
 -19   3   5   36.83    4.56
 -18  -3   5   30.10    3.78
 -18   3   5   32.24    4.03
 -17  -3   5   78.22    5.73
 -17   3   5   74.74    5.92
 -16  -3   5   61.21    4.82
 -16   3   5   73.46    5.60
 -15   3   5   11.64    2.25
 -15  -3   5   10.57    2.01
 -14  -3   5  111.39    6.10
 -14   3   5  118.47    6.60
 -13  -3   5   77.32    4.76
 -13   3   5   81.90    5.25
 -12  -3   5 1088.30   23.58
 -12   3   5 1103.29   24.64
 -11   3   5   -0.03    0.85
 -11  -3   5    0.84    1.05
 -10  -3   5  317.49    9.42
 -10   3   5  327.10   10.33
  -9  -3   5   32.04    2.48
   9  -3  -5   30.77    1.31
  -9   3   5   28.33    2.65
  -8  -3   5   93.51    4.17
  -8   3   5   99.30    4.91
  -7  -3   5  223.05    6.61
  -7   3   5  214.39    5.37
  -7   3   5  216.39    7.39
  -6  -3   5    0.54    0.40
  -6   3   5    0.84    0.31
  -6  -3   5    0.67    0.33
   5   3  -5  224.38    5.70
  -5   3   5  229.39    4.73
  -5   3   5  221.87    7.28
  -5  -3   5  223.86    5.58
  -5  -3   5  236.25    6.23
   4   3  -5  408.87    8.37
  -4   3   5  399.81    7.14
  -4   3   5  388.26   10.34
  -4  -3   5  418.43    9.01
  -4  -3   5  415.99    8.73
   3   3  -5 1003.61   17.72
   3   3  -5 1062.40   18.47
  -3  -3   5 1008.65   18.26
   2   3  -5    1.44    0.44
   2   3  -5    2.07    0.45
   2  -3  -5    2.51    0.70
  -2   3   5    1.74    0.22
  -2   3   5    1.06    0.67
  -2  -3   5    1.61    0.42
   1   3  -5   56.43    3.13
   1  -3  -5   55.60    2.71
  -1  -3   5   59.44    2.25
  -1   3   5   54.94    3.16
  -1   3   5   56.00    1.70
   1   3  -5   56.45    2.67
   1   3  -5   59.39    2.23
  -1  -3   5   56.38    2.20
   0  -3  -5 1318.68   24.88
   0   3  -5 1318.34   24.89
   0   3   5 1240.67   23.84
   0  -3   5 1326.79   22.84
   0   3   5 1327.80   22.25
   0   3  -5 1322.60   22.94
   0   3  -5 1289.88   23.96
   0  -3  -5 1353.77   22.53
  -1   3  -5   34.18    2.39
   1   3   5   28.72    2.02
   1   3   5   33.63    1.71
  -1   3  -5   31.49    1.79
  -1  -3  -5   32.50    1.72
  -1   3  -5   33.86    2.17
   2   3   5   18.35    1.40
   2   3   5   18.69    1.69
   2  -3   5   18.27    1.76
  -2   3  -5   18.06    1.63
   3  -3   5  497.99   11.84
   3   3   5  505.39   10.87
  -3   3  -5  482.74   11.56
  -4   3  -5  837.69   17.31
   4   3   5  831.21   16.74
   4  -3   5  819.38   17.42
  -4   3  -5  812.00   17.29
   5   3   5  181.76    6.09
   5  -3   5  179.59    6.35
  -5   3  -5  173.03    6.22
   6  -3   5   36.52    2.77
   6   3   5   37.88    2.76
  -6   3  -5   37.81    2.76
  -7   3  -5 1183.37   23.95
   7   3   5 1164.27   24.03
  -7   3  -5 1163.83   23.94
   7  -3   5 1166.97   24.11
  -8   3  -5   12.64    1.76
   8  -3   5    7.67    1.53
   8   3   5   10.38    1.65
  -8   3  -5    9.04    1.52
   9   3   5  551.35   14.94
  -9   3  -5  554.49   14.35
   9  -3   5  570.50   14.88
  -9   3  -5  560.03   14.51
 -10   3  -5  372.67   11.29
  10  -3   5  368.88   11.78
  10   3   5  369.05   12.08
 -10   3  -5  379.71   11.43
  11   3   5   91.37    5.71
 -11   3  -5   87.72    5.13
 -11   3  -5   94.73    5.29
  11  -3   5   81.88    5.29
  12   3   5   68.10    5.18
 -12   3  -5   74.19    4.87
  12  -3   5   79.23    5.50
 -12   3  -5   77.71    4.95
  13   3   5   67.59    5.36
  13  -3   5   64.40    5.12
 -13   3  -5   61.05    4.56
 -13   3  -5   63.57    4.62
 -14   3  -5   69.14    4.99
 -14   3  -5   74.68    5.15
  14  -3   5   68.83    5.49
 -15   3  -5   14.25    2.51
  15  -3   5   14.48    2.75
 -16   3  -5   74.06    5.84
 -19  -4   5   47.67    4.90
 -19   4   5   50.97    5.35
 -18  -4   5   30.09    3.85
 -18   4   5   34.84    4.32
 -17   4   5   78.07    6.07
 -17  -4   5   77.42    5.72
 -16  -4   5   53.96    4.57
 -16   4   5   55.10    4.91
 -15   4   5    3.23    1.45
 -15  -4   5    0.30    0.96
 -14   4   5    4.60    1.59
 -14  -4   5    2.18    0.92
 -13   4   5   25.11    2.98
 -13  -4   5   20.80    2.48
 -12   4   5    7.34    1.75
 -12  -4   5   10.35    1.72
 -11  -4   5  260.52    8.59
 -11   4   5  265.21    9.63
 -10  -4   5  595.94   14.34
  10  -4  -5  590.90   11.39
  -9  -4   5  557.96   13.32
  -9   4   5  585.56   14.92
  -8  -4   5  189.23    6.22
  -8   4   5  192.66    7.27
  -7  -4   5    0.45    0.52
  -7   4   5    2.19    0.44
  -7   4   5    2.32    0.83
  -6   4   5    0.85    0.60
  -6   4   5    0.49    0.18
  -5   4   5   17.04    0.80
  -5   4   5   19.07    1.95
  -5  -4   5   18.85    1.44
  -4   4   5  791.03   17.70
  -4  -4   5  818.79   15.50
   3   4  -5  370.31    7.06
   3  -4  -5  347.46    6.68
   3   4  -5  368.35    8.66
  -3   4   5  356.72    9.78
  -3  -4   5  335.58    7.43
  -2   4   5  353.65    9.54
   2   4  -5  370.08    8.10
   2   4  -5  351.88    6.40
   1   4  -5 1556.29   30.52
  -1  -4   5 1619.84   28.47
  -1   4   5 1639.47   30.51
   1   4  -5 1645.66   26.83
   1  -4  -5 1639.21   26.63
   0   4   5  565.07   10.45
   0   4   5  555.03   12.60
   0   4  -5  551.53   13.30
   0  -4  -5  576.32   10.45
   0   4  -5  555.05   10.42
   0  -4   5  563.43   11.68
   0  -4  -5  560.99   12.78
   1   4   5  184.43    6.15
  -1   4  -5  185.48    4.77
  -1  -4  -5  197.38    6.42
  -1  -4  -5  200.08    4.90
  -1   4  -5  194.02    6.13
   1   4   5  185.34    4.90
  -1   4  -5  195.08    6.69
   2  -4   5   -0.38    0.46
   2   4   5    0.61    0.46
   2   4   5    0.58    0.54
  -2   4  -5    0.42    0.57
  -2  -4  -5    0.95    0.62
   3  -4   5  159.12    5.97
   3   4   5  166.47    5.99
  -3   4  -5  156.40    5.74
   3   4   5  164.97    5.15
  -3  -4  -5  154.64    5.89
   4   4   5   82.16    3.70
  -4   4  -5   81.01    4.02
   4  -4   5   80.86    4.12
   5   4   5   35.33    2.52
  -5   4  -5   36.30    2.75
  -5   4  -5   33.90    2.48
   5  -4   5   40.25    2.90
   6   4   5  226.88    7.51
   6  -4   5  233.04    7.72
  -6   4  -5  221.92    7.61
   7  -4   5  140.18    6.02
   7   4   5  142.73    6.02
  -7   4  -5  139.76    5.98
   8   4   5  412.14   11.92
  -8   4  -5  396.27   11.20
  -8   4  -5  409.80   11.70
   8  -4   5  407.67   11.76
   9  -4   5   11.74    1.87
   9   4   5    8.84    1.68
  -9   4  -5   10.35    1.64
  -9   4  -5   11.36    1.77
  10  -4   5    0.21    0.87
  10   4   5    0.35    0.93
 -10   4  -5   -0.66    0.99
 -10   4  -5   -0.43    1.01
  11  -4   5  301.20   10.88
 -11   4  -5  312.55   10.33
 -11   4  -5  307.16   10.60
  11   4   5  299.49   11.17
 -12   4  -5  148.82    7.02
 -12   4  -5  154.48    7.36
  12  -4   5  146.46    7.59
 -13   4  -5   94.08    5.67
  13  -4   5  103.81    6.61
 -13   4  -5   93.11    5.78
 -14   4  -5    7.27    1.91
  14  -4   5    8.02    2.11
 -14   4  -5    7.43    1.74
 -14   4  -5    5.97    1.66
 -15   4  -5   16.55    2.72
  15  -4   5   19.02    3.06
 -16   4  -5    0.95    1.27
 -19   5   5    2.39    1.74
 -19  -5   5    2.58    1.77
 -18   5   5    3.29    1.72
 -18  -5   5    3.16    1.50
 -17   5   5   11.82    2.58
 -17  -5   5   11.20    2.28
 -16  -5   5   87.45    5.85
 -16   5   5  105.57    6.98
 -15   5   5    6.70    1.82
 -15  -5   5    5.59    1.56
 -14   5   5    3.61    1.50
 -14  -5   5    4.16    1.31
 -13  -5   5   49.13    3.73
 -13   5   5   55.09    4.48
 -12  -5   5   48.14    3.54
 -12   5   5   51.34    4.20
 -11  -5   5  370.11   10.72
 -11   5   5  391.12   12.34
 -10  -5   5  186.16    6.74
 -10   5   5  189.58    7.83
  -9  -5   5 1036.22   21.11
  -9   5   5 1059.74   23.16
  -8  -5   5   39.73    2.59
  -8   5   5   40.07    2.01
  -8   5   5   38.77    3.18
  -7  -5   5    2.17    0.69
  -7   5   5    0.92    0.35
  -7   5   5    2.42    0.97
  -6  -5   5   82.97    3.38
  -6   5   5   82.79    2.40
  -6   5   5   80.89    4.41
   5  -5  -5  770.95   15.14
   5   5  -5  828.98   17.33
  -5   5   5  788.78   17.87
  -5  -5   5  819.27   15.37
   4   5  -5   92.35    4.22
  -4   5   5  107.18    4.89
   4  -5  -5  100.66    3.35
  -4  -5   5   97.11    3.20
  -3   5   5  456.47   11.14
   3   5  -5  481.21   10.30
  -2  -5   5  100.68    2.74
  -2   5   5  171.28    5.97
   1   5  -5  454.91   11.19
   1  -5  -5  469.65   10.13
  -1   5   5  461.26   10.90
   0  -5  -5  166.56    3.97
   0  -5  -5  170.98    5.89
   0   5  -5  169.03    6.43
  -1   5  -5  760.42   16.97
  -1  -5  -5  758.82   16.20
   1   5   5  758.16   16.66
  -2  -5  -5   30.79    2.40
   2   5   5   28.47    2.44
  -2   5  -5   30.19    2.58
   2  -5   5   28.64    2.41
  -2   5  -5   26.52    1.47
  -3  -5  -5   71.32    3.86
   3   5   5   76.04    4.21
   3  -5   5   70.70    3.97
   4  -5   5   22.03    2.19
  -4   5  -5   22.40    2.18
   4   5   5   21.59    2.30
   5   5   5  212.87    7.97
  -5   5  -5  193.33    7.13
   5  -5   5  204.99    7.30
   6  -5   5  474.74   12.70
  -6   5  -5  473.18   12.66
  -7   5  -5  833.80   19.05
   7  -5   5  816.84   18.82
   8  -5   5    0.85    0.89
  -8   5  -5    0.14    0.91
   9  -5   5    0.24    0.94
  -9   5  -5    0.21    0.88
  -9   5  -5   -1.08    1.23
 -10   5  -5   34.07    3.00
 -10   5  -5   35.62    3.28
  10  -5   5   32.07    3.25
 -11   5  -5   57.30    4.05
  11  -5   5   60.99    4.59
 -11   5  -5   64.91    4.62
  12  -5   5    7.63    1.96
 -12   5  -5    8.84    1.68
 -12   5  -5   10.98    2.02
 -12   5  -5    8.48    1.85
 -13   5  -5   78.04    5.12
  13  -5   5   75.04    5.63
 -13   5  -5   70.09    5.09
  14  -5   5   16.05    2.72
 -14   5  -5   14.64    2.44
 -15   5  -5   47.62    4.47
 -16   5  -5   97.36    6.53
 -18  -6   5  130.94    7.88
 -18   6   5  142.34    8.96
 -17  -6   5   74.79    5.65
 -17   6   5   77.01    6.33
 -16  -6   5   54.00    4.58
 -16   6   5   63.85    5.49
 -15   6   5    2.29    1.44
 -15  -6   5    3.30    1.37
 -14  -6   5  107.73    6.02
 -14   6   5  119.54    7.09
 -13  -6   5  425.90   12.62
 -13   6   5  435.84   14.27
 -12  -6   5   12.18    1.88
 -12   6   5   10.35    2.11
 -11  -6   5   65.08    3.95
 -11   6   5   62.11    4.62
  10  -6  -5   37.60    2.46
 -10  -6   5   31.75    2.61
 -10   6   5   34.47    3.34
   9  -6  -5  103.02    3.91
  -9  -6   5   95.11    4.38
  -9   6   5   96.19    5.43
   8  -6  -5  211.31    5.57
  -8  -6   5  204.41    6.46
  -8   6   5  199.34    7.91
  -8   6   5  194.78    5.35
  -7  -6   5  216.10    6.38
  -7   6   5  212.14    8.02
  -6  -6   5  183.20    5.37
   6   6  -5  182.34    6.92
  -6   6   5  171.11    6.96
   5   6  -5  603.34   14.77
  -5   6   5  610.95   15.21
   5  -6  -5  614.03   13.15
  -5  -6   5  654.94   12.55
  -4  -6   5    6.00    0.70
   4   6  -5    6.98    1.22
  -4   6   5    7.37    1.33
   3   6  -5   22.65    2.12
  -3   6   5   21.61    2.20
  -3  -6   5   16.07    0.99
  -2   6   5   52.34    3.42
  -1   6   5    7.45    0.66
   1  -6  -5    6.55    1.10
   1   6  -5    5.93    1.23
  -1   6   5    8.16    1.38
   1  -6  -5    6.51    0.51
   0   6  -5 1708.23   33.82
   0  -6  -5 1764.22   29.06
   0  -6  -5 1757.09   32.33
  -1  -6  -5   33.08    2.54
  -1   6  -5   39.74    3.15
   1   6   5   31.03    2.76
  -1  -6  -5   33.48    1.77
  -2   6  -5   34.64    1.25
  -2  -6  -5   32.05    2.54
  -2   6  -5   38.58    3.03
   2   6   5   36.72    2.94
  -3   6  -5   21.71    1.20
  -3  -6  -5   20.83    2.13
   3   6   5   19.03    2.29
   3  -6   5   21.88    2.27
   4   6   5  345.26   11.05
  -4   6  -5  371.10    7.86
   4  -6   5  353.22   10.54
  -5   6  -5  116.30    3.92
   5   6   5  107.72    5.77
   5  -6   5  118.43    5.53
   6   6   5    2.10    1.32
   6  -6   5    4.71    1.34
  -6   6  -5    3.47    0.78
  -7   6  -5    9.36    1.28
   7  -6   5    6.46    1.45
   8  -6   5   62.64    4.21
  -8   6  -5   63.20    3.46
  -9   6  -5   54.61    3.52
  -9   6  -5   58.17    3.53
   9  -6   5   51.45    3.98
 -10   6  -5   37.62    2.99
 -10   6  -5   35.81    2.95
  10  -6   5   39.24    3.59
 -11   6  -5   98.01    5.22
  11  -6   5   94.85    5.82
 -12   6  -5  278.10    9.85
  12  -6   5  263.15   10.66
 -13   6  -5   31.40    3.26
  13  -6   5   31.93    3.67
  14  -6   5   15.94    2.84
 -18  -7   5   37.08    4.18
 -18   7   5   37.01    4.65
 -17  -7   5    1.03    1.09
 -17   7   5    0.68    1.32
 -16  -7   5  103.44    6.40
 -16   7   5  100.24    7.18
 -15  -7   5  102.95    6.15
 -15   7   5  110.83    7.25
 -14  -7   5   85.80    5.31
 -14   7   5   84.49    6.17
 -13  -7   5  553.55   15.16
 -13   7   5  582.34   17.25
 -12  -7   5    7.61    1.46
 -12   7   5    7.49    1.67
  12  -7  -5    7.07    1.32
 -11  -7   5    2.87    0.85
  11  -7  -5    4.57    0.97
 -11   7   5    5.10    1.36
 -10  -7   5    9.86    1.50
  10  -7  -5   11.89    1.41
 -10   7   5   11.55    1.99
   9  -7  -5  130.14    4.49
  -9  -7   5  130.53    5.20
  -9   7   5  145.71    6.84
  -8  -7   5   61.50    3.25
   8  -7  -5   63.50    2.66
  -8   7   5   62.97    4.38
  -7  -7   5    0.65    0.54
  -7   7   5    0.80    0.45
   7  -7  -5    1.00    0.44
   7   7  -5   -0.22    0.73
  -7   7   5   -0.60    0.76
  -6  -7   5  568.38   11.48
   6  -7  -5  520.19    9.70
   6   7  -5  540.48   14.25
  -6   7   5  532.80   14.21
  -6   7   5  520.13   11.00
  -5  -7   5  236.14    5.94
  -5   7   5  232.02    6.05
  -5   7   5  239.99    8.47
   5   7  -5  243.20    8.49
   4   7  -5    5.51    1.26
  -4   7   5    8.24    1.45
  -4  -7   5    7.98    0.78
   3   7  -5  420.25   11.20
  -3   7   5  436.10   11.37
  -2   7   5   85.92    4.61
  -1   7   5   22.62    1.39
   1  -7  -5   22.83    1.98
   1   7  -5   20.94    2.46
  -1   7   5   21.17    2.28
   1  -7  -5   21.88    1.05
   0  -7  -5   45.37    2.97
   0   7  -5   48.45    3.68
   0   7   5   46.02    2.17
   0  -7  -5   47.80    1.94
  -1  -7  -5  123.07    5.22
   1   7   5  131.81    6.13
  -1  -7  -5  122.25    3.86
  -1   7  -5  130.36    6.13
  -2  -7  -5   48.56    3.23
   2   7   5   48.13    3.70
  -2   7  -5   48.20    3.71
  -3  -7  -5    6.72    1.24
  -3   7  -5    5.56    0.59
   3   7   5    3.99    1.22
   3  -7   5    8.32    1.56
  -3   7  -5    6.39    0.59
  -4   7  -5  424.59    8.54
   4  -7   5  407.57   11.91
   4   7   5  397.00   12.56
  -5   7  -5  488.44   10.16
   5   7   5  457.63   14.11
   5  -7   5  487.13   13.23
  -6   7  -5  394.12    9.21
   6   7   5  367.60   12.53
   6  -7   5  394.91   11.68
  -7   7  -5   14.13    1.57
   7   7   5   11.85    2.16
   7  -7   5   11.25    1.80
  -8   7  -5   32.68    2.43
   8   7   5   33.11    3.77
   8  -7   5   32.89    3.11
   9  -7   5    1.88    0.98
  -9   7  -5    3.59    0.95
 -10   7  -5   34.99    2.94
  10  -7   5   29.58    3.18
  11  -7   5   56.94    4.55
  12  -7   5   18.40    2.74
  13  -7   5  124.74    7.36
  14  -7   5   63.39    5.47
 -18  -8   5   -1.11    1.20
 -18   8   5    1.73    1.32
 -17  -8   5    1.13    1.00
 -17   8   5   -0.32    1.46
 -16  -8   5   81.55    5.65
 -16   8   5   69.80    6.03
 -15  -8   5    7.24    1.76
 -15   8   5    5.27    1.86
 -14  -8   5   84.87    5.35
 -14   8   5   86.42    6.28
 -13  -8   5   10.95    1.88
 -13   8   5   11.46    2.25
 -12  -8   5    9.20    1.63
 -12   8   5   14.26    2.53
 -11  -8   5   30.20    2.72
 -11   8   5   26.30    3.19
 -10  -8   5    3.85    0.99
 -10   8   5    2.18    1.13
  -9  -8   5  284.90    8.45
   9   8  -5  293.89   11.02
  -9   8   5  285.92   10.42
  -8  -8   5  149.54    5.38
   8  -8  -5  158.45    4.51
   8   8  -5  155.15    7.39
  -8   8   5  149.14    7.05
  -7  -8   5  127.19    4.60
   7  -8  -5  129.71    3.60
   7   8  -5  118.24    6.39
  -7   8   5  123.64    6.19
  -6  -8   5   69.92    3.01
   6  -8  -5   70.79    2.13
   6   8  -5   66.63    4.55
  -6   8   5   66.39    4.40
  -5  -8   5    7.65    0.86
   5   8  -5    8.81    1.65
   5  -8  -5    6.01    0.42
  -5   8   5    7.49    1.48
   4   8  -5  431.93   12.50
  -4   8   5  429.71   12.22
  -4  -8   5  406.23    8.14
  -3   8   5   43.42    3.35
   2   8  -5   82.74    5.18
   2  -8  -5   79.45    2.08
  -2   8   5   75.19    4.44
   1  -8  -5   51.00    3.08
  -1   8   5   51.97    2.45
   1  -8  -5   49.10    1.86
   1   8  -5   48.58    3.85
   0   8  -5  520.45   14.62
   0  -8  -5  504.78   12.55
   0   8   5  499.89   10.86
   0  -8  -5  506.59   10.05
  -1  -8  -5   33.34    2.65
  -1   8  -5   29.54    3.04
   2   8   5    3.91    1.21
  -2  -8  -5    3.91    1.09
  -2   8  -5    5.88    1.50
   3  -8   5  174.41    7.33
  -3  -8  -5  171.10    6.73
   3   8   5  175.08    7.88
   4   8   5   39.09    3.77
   4  -8   5   48.54    3.68
  -4   8  -5   41.42    1.75
   5   8   5   10.65    2.13
   5  -8   5   10.12    1.80
  -5   8  -5   12.57    1.12
   6   8   5  644.12   18.48
   6  -8   5  687.22   17.17
   7  -8   5   19.92    2.49
   7   8   5   24.97    3.24
   8  -8   5    9.54    1.72
   8   8   5   13.23    2.43
  -9   8  -5   55.73    3.40
   9  -8   5   52.67    4.20
   9   8   5   47.33    4.76
  10   8   5   88.51    6.64
  10  -8   5   78.02    5.29
  11  -8   5   16.92    2.56
  11   8   5   20.60    3.34
  12  -8   5   24.09    3.25
  12   8   5   14.77    3.37
  13  -8   5    1.63    1.32
 -18   9   5   30.10    4.44
 -17  -9   5    2.85    1.40
 -17   9   5    4.09    1.96
 -16  -9   5   45.45    4.24
 -16   9   5   46.29    5.01
 -15  -9   5    4.54    1.45
 -15   9   5    3.34    1.68
 -14  -9   5   34.71    3.43
 -14   9   5   27.08    3.66
 -13   9   5   19.08    2.98
 -13  -9   5   20.81    2.49
  12   9  -5  104.88    5.04
 -12  -9   5  100.41    5.37
 -12   9   5  106.87    6.71
 -11  -9   5   85.16    4.64
  11   9  -5   81.98    6.09
 -11   9   5   83.76    5.69
 -10  -9   5   12.96    1.76
  10   9  -5   10.13    2.27
 -10   9   5    7.45    1.70
  -9  -9   5    5.89    1.16
   9   9  -5    6.70    1.90
  -9   9   5    3.54    1.32
  -8  -9   5    5.31    1.00
   8   9  -5    2.95    1.29
  -8   9   5    3.67    1.13
  -7  -9   5  199.81    6.00
   7   9  -5  183.83    8.46
  -7   9   5  200.94    8.27
  -6  -9   5   89.06    3.44
   6   9  -5   84.54    5.46
  -6   9   5   89.35    5.29
   5   9  -5  224.73    9.03
  -5   9   5  217.48    8.44
   4   9  -5   10.04    1.87
  -4   9   5   10.13    1.77
  -3   9   5   71.34    4.47
  -2   9   5  147.00    6.55
   2   9  -5  153.15    7.54
  -1   9   5   63.31    3.02
   1  -9  -5   62.35    3.55
   1   9  -5   67.09    4.84
   0   9  -5  146.30    7.29
   0  -9  -5  151.55    5.95
   0   9   5  142.31    4.93
  -1  -9  -5  305.08    9.32
  -1   9  -5  305.93   10.97
  -2  -9  -5  118.19    5.47
  -2   9  -5  123.58    6.59
   3  -9   5   25.83    2.85
   3   9   5   29.84    3.35
  -3  -9  -5   32.28    2.82
   4   9   5   57.29    4.69
   4  -9   5   57.33    4.19
   5  -9   5  581.56   15.62
   5   9   5  557.18   17.12
   6   9   5   65.10    5.26
   6  -9   5   61.88    4.39
   7   9   5    2.96    1.64
   7  -9   5    1.81    0.93
  -8   9  -5  140.82    5.98
   8  -9   5  148.02    7.09
   8   9   5  140.07    8.25
   9  -9   5   41.56    3.82
   9   9   5   36.08    4.32
  -9   9  -5   45.68    3.27
  10   9   5    2.28    1.51
  10  -9   5    5.30    1.63
  11  -9   5   23.60    3.06
  11   9   5   17.20    3.22
  12  -9   5    1.12    1.33
  12   9   5    3.08    1.88
  13  -9   5   -0.45    1.18
  13   9   5    0.50    1.49
 -17  10   5    2.45    1.42
 -16  10   5    3.24    1.83
  15  10  -5   79.45    7.53
 -15  10   5   96.46    7.09
  14  10  -5    3.99    1.92
 -14  10   5    4.02    1.74
  13  10  -5   93.51    7.26
 -13  10   5  100.26    6.85
  12  10  -5   61.65    5.60
 -12  10   5   59.97    5.08
  12  10  -5   59.99    4.00
  11  10  -5   12.60    1.85
  11  10  -5   10.83    2.51
 -11  10   5   12.95    2.43
  10  10  -5   86.68    4.76
 -10  10   5   90.77    5.94
  10  10  -5   86.90    6.30
  -9  10   5   21.74    2.81
   9  10  -5   25.59    3.45
   8  10  -5   59.75    4.98
  -8  10   5   55.55    4.41
   7  10  -5   29.12    3.44
  -7  10   5   27.57    3.06
   6  10  -5    6.03    1.68
  -6  10   5    5.99    1.50
  -5  10   5   16.71    2.27
   5  10  -5   15.47    2.49
  -4  10   5  103.63    5.63
  -3  10   5    5.81    1.59
   2  10  -5   71.54    5.31
   1 -10  -5  153.73    5.97
  -1  10   5  157.16    5.43
   1  10  -5  149.93    7.69
   0  10   5   16.57    1.65
   0 -10  -5   13.89    1.77
   0  10  -5   19.94    2.77
   1  10   5  101.85    4.57
  -1 -10  -5  109.67    5.26
  -2  10  -5   15.89    2.58
  -2 -10  -5   16.94    2.10
  -3 -10  -5    1.06    0.80
   3  10   5    1.85    1.37
   3 -10   5    0.34    0.86
  -4 -10  -5    2.93    1.04
   4  10   5    5.14    1.77
   4 -10   5    5.66    1.52
   5 -10   5   82.51    5.16
   5  10   5   68.95    5.57
   6 -10   5    3.35    1.26
   6  10   5    0.42    1.23
  -7  10  -5    4.22    1.20
   7  10   5    1.35    1.24
   7 -10   5    2.53    1.15
  -8  10  -5    4.02    1.20
   8 -10   5    3.59    1.23
   8  10   5    2.71    1.41
  -9  10  -5   29.33    2.80
   9 -10   5   26.82    3.11
   9  10   5   32.48    4.27
  10  10   5    7.97    2.42
  10 -10   5   10.63    2.08
  11 -10   5   17.78    2.82
  11  10   5   10.82    2.95
  12 -10   5   13.91    2.54
  12  10   5   22.01    3.87
  14  11  -5   73.54    6.77
 -14  11   5   81.95    6.39
  13  11  -5   65.66    6.30
 -13  11   5   67.29    5.65
  12  11  -5    1.95    1.03
  12  11  -5   -1.54    1.67
 -12  11   5    1.66    1.57
  11  11  -5    0.73    0.77
  11  11  -5    2.40    1.48
 -11  11   5    1.26    0.91
  10  11  -5   19.45    3.22
 -10  11   5   19.30    2.81
  10  11  -5   16.25    2.19
   9  11  -5  100.75    6.96
  -9  11   5  107.78    6.43
   8  11  -5    4.12    1.67
  -8  11   5    5.68    1.54
   8  11  -5    4.87    1.23
  -7  11   5   39.81    3.68
   7  11  -5   41.55    4.39
   6  11  -5    4.18    1.44
  -6  11   5    8.67    1.81
  -5  11   5  120.94    6.37
  -4  11   5  128.20    6.40
   3  11  -5    2.33    1.34
   2  11  -5   51.65    4.67
   1  11  -5   18.81    2.87
  -1  11   5   19.33    1.88
   0  11   5   42.59    2.87
   0  11  -5   41.48    4.22
   0 -11  -5   41.51    3.14
  -1 -11  -5   26.46    2.63
  -1  11  -5   32.62    3.63
  -2  11  -5    8.33    2.09
  -2 -11  -5   11.59    1.87
   3 -11   5   69.84    5.02
  -3 -11  -5   71.07    4.51
   4 -11   5    1.48    0.90
   4  11   5    3.13    1.47
  -4 -11  -5    0.73    0.85
  -5  11  -5   37.43    3.29
   5 -11   5   34.58    3.47
  -5 -11  -5   30.25    3.17
   5  11   5   33.81    4.11
  -6  11  -5   91.67    5.20
  -6 -11  -5   78.76    5.33
   6  11   5   78.15    6.34
   6 -11   5   81.38    5.40
  -7  11  -5  131.55    6.44
   7  11   5  134.99    8.59
   7 -11   5  154.53    7.62
  -8  11  -5   22.91    2.68
   8 -11   5   21.96    2.85
   8  11   5   21.97    3.63
  -9  11  -5    2.54    1.11
   9  11   5    2.86    1.66
   9 -11   5    2.29    1.36
  10 -11   5   46.57    4.38
  10  11   5   45.38    5.35
  11 -11   5    6.89    1.88
  13  12  -5   39.47    5.01
  12  12  -5   54.27    4.23
  12  12  -5   53.12    5.62
  11  12  -5   58.86    4.33
  11  12  -5   50.75    5.35
  10  12  -5    5.47    1.52
  10  12  -5    6.22    2.08
 -10  12   5    8.66    1.95
   9  12  -5   91.09    6.82
  -9  12   5   90.49    5.94
   8  12  -5   92.83    5.51
   8  12  -5   78.64    6.52
  -8  12   5   86.03    5.72
  -7  12   5  164.30    7.93
   7  12  -5  156.05    8.91
   7  12  -5  175.17    7.57
  -6  12   5   76.99    5.15
   6  12  -5   76.09    4.86
   5  12  -5  248.99    9.19
  -5  12   5  230.73    9.24
   4  12  -5   93.26    5.36
   4  12  -5   88.67    6.49
  -4  12   5   92.14    5.51
   3  12  -5   75.79    5.90
   2  12  -5  252.51   11.15
   1  12  -5    0.46    1.24
   0  12  -5  122.31    7.40
  -1  12  -5   11.72    2.35
  -1  12  -5   15.12    2.22
  -2  12  -5  247.26    9.22
  -2 -12  -5  233.52    8.80
  -2  12  -5  238.12   10.56
  -3  12  -5    6.67    1.62
  -3 -12  -5    6.07    1.41
   3 -12   5    5.02    1.56
  -4  12  -5   47.77    3.89
  -4 -12  -5   41.41    3.71
   4 -12   5   44.43    4.13
  -5 -12  -5    4.49    1.40
   5  12   5    2.06    1.40
  -5  12  -5    3.33    1.29
   5 -12   5    2.55    1.30
  -6  12  -5   62.74    4.52
  -6 -12  -5   57.03    4.68
   6  12   5   57.23    5.70
   6 -12   5   62.01    4.82
  -7  12  -5   20.59    2.64
  -7 -12  -5   16.27    2.64
   7  12   5   18.58    3.39
   7 -12   5   17.80    2.73
  -8  12  -5    0.27    0.87
   8 -12   5    2.22    1.25
   8  12   5   -0.50    1.38
   9 -12   5   11.20    2.39
  -9  12  -5   15.39    2.37
   9  12   5   12.56    2.93
  10 -12   5  188.71    9.31
  12  13  -5   11.20    2.10
  11  13  -5   57.76    4.56
  11  13  -5   59.00    6.11
  10  13  -5   19.59    2.67
  10  13  -5   17.91    3.54
   9  13  -5    0.68    0.99
   9  13  -5    1.60    1.46
   8  13  -5   -0.69    1.17
   8  13  -5    0.34    1.21
   7  13  -5   29.73    3.23
   6  13  -5   14.69    2.42
  -5  13   5  135.59    6.97
   5  13  -5  139.85    7.06
   4  13  -5    8.52    1.85
   4  13  -5    4.28    1.81
   3  13  -5   52.58    4.25
   3  13  -5   55.04    5.32
   2  13  -5   15.22    2.84
   2  13  -5   11.16    2.27
   1  13  -5  200.30    8.60
   1  13  -5  199.78    9.96
   0  13  -5    7.11    2.09
   0  13  -5    7.14    1.77
  -1  13  -5  204.96    8.70
  -1  13  -5  201.22   10.05
  -2  13  -5   25.33    2.98
   2 -13   5   23.96    3.19
  -3  13  -5   30.88    3.29
   3 -13   5   24.18    3.16
  -4  13  -5  203.96    8.91
   4 -13   5  215.68    9.60
  -5  13  -5   -0.76    1.01
   5 -13   5    2.41    1.61
  -6 -13  -5  314.21   11.87
   6  13   5  319.79   14.47
   6 -13   5  337.82   12.35
  -6  13  -5  322.28   11.56
  -7  13  -5   25.54    3.08
   7  13   5   30.81    4.39
   7 -13   5   28.25    3.40
  -7 -13  -5   29.73    3.54
  -8  13  -5   89.17    5.80
  -8 -13  -5   87.68    6.28
   8 -13   5   95.53    6.25
   9 -13   5   61.33    5.21
  -9 -13  -5   61.65    5.45
  11  14  -5    8.42    2.23
  10  14  -5    2.06    1.15
  10  14  -5    5.26    2.24
   9  14  -5   92.47    6.09
   9  14  -5   98.45    7.68
   8  14  -5    1.85    1.23
   7  14  -5  185.02    8.72
   6  14  -5   23.84    3.11
   5  14  -5  118.59    6.91
   5  14  -5  120.28    8.23
   4  14  -5   61.23    4.87
   4  14  -5   59.24    5.65
   3  14  -5   92.86    5.98
   3  14  -5   94.35    7.00
   2  14  -5   57.42    4.75
   2  14  -5   55.08    5.44
   1  14  -5    4.80    1.85
   1  14  -5    1.59    1.32
   0  14  -5  185.02    8.67
   0  14  -5  202.63   10.42
  -1  14  -5   22.14    3.44
  -1  14  -5   23.12    3.10
  -2  14  -5  190.84    8.81
   2 -14   5  181.20    9.21
  -3  14  -5    7.96    1.97
   3 -14   5    8.55    2.06
  -4  14  -5  110.87    6.66
   4 -14   5  119.17    7.22
  -5  14  -5   13.18    2.44
   5 -14   5    9.80    2.18
   6 -14   5    0.69    1.04
  -6  14  -5    2.54    1.34
  -7  14  -5    3.59    1.40
   7 -14   5    4.48    1.59
  -8  14  -5   15.52    2.53
   6  15  -5   41.98    5.09
   5  15  -5   93.49    6.26
   5  15  -5   93.79    7.51
   4  15  -5   75.23    6.69
   4  15  -5   84.22    5.90
   3  15  -5    2.75    1.46
   3  15  -5    3.75    1.91
   2  15  -5    0.74    1.31
   2  15  -5   -0.53    1.36
   1  15  -5    0.47    1.41
   1  15  -5    1.32    1.20
   0  15  -5    2.00    1.50
   0  15  -5    3.56    1.72
  -1  15  -5   28.97    3.57
  -1  15  -5   32.14    4.26
   2 -15   5    0.27    1.16
   3 -15   5   -0.45    1.09
 -19   0   6  156.90    9.14
 -18   0   6    0.17    1.06
 -17   0   6   16.42    2.78
 -16   0   6   61.59    5.02
 -15   0   6   23.40    2.97
 -14   0   6   19.49    2.66
 -13   0   6  534.61   15.14
 -12   0   6  119.74    6.07
 -11   0   6  508.18   13.84
 -10   0   6   69.51    4.24
  -9   0   6 1125.26   23.46
  -8   0   6  131.33    5.57
  -7   0   6 1993.81   36.52
  -6   0   6 1491.59   26.92
   6   0  -6 1368.36   22.92
  -5   0   6 1125.31   22.07
  -4   0   6 2907.60   49.92
  -3   0   6   98.22    4.06
  -2   0   6  128.74    4.78
   1   0  -6  371.41    8.07
  -1   0   6  340.70    8.96
   0   0   6  693.13   11.82
   0   0   6  714.82   14.06
   1   0   6  210.83    5.88
   1   0   6  204.14    5.83
   2   0   6 1035.11   19.81
   3   0   6  423.68   10.09
   4   0   6  170.96    5.78
  -5   0  -6   74.19    4.22
   5   0   6   75.07    3.78
  -6   0  -6   40.17    3.20
   6   0   6   44.44    3.02
  -7   0  -6 2260.86   42.09
   7   0   6 2226.31   41.19
  -8   0  -6 2099.23   40.22
   8   0   6 2102.54   39.67
  -9   0  -6  127.70    6.34
   9   0   6  128.49    6.34
 -10   0  -6  178.73    7.92
  10   0   6  169.04    7.60
 -11   0  -6   30.98    3.30
  11   0   6   32.10    3.36
 -12   0  -6  303.21   11.41
  12   0   6  297.60   11.33
 -13   0  -6   90.38    6.12
  13   0   6   88.28    6.17
 -14   0  -6    1.70    0.99
 -14   0  -6    0.82    1.37
  14   0   6    3.20    1.55
 -15   0  -6   15.86    2.62
  15   0   6   15.00    2.80
 -15   0  -6   15.12    2.86
 -16   0  -6   19.79    3.39
 -19  -1   6  162.86    9.29
 -19   1   6  179.34    9.80
 -18   1   6    5.11    1.98
 -18  -1   6    5.01    1.79
 -17  -1   6   47.09    4.53
 -17   1   6   52.04    4.81
 -16  -1   6   96.23    6.26
 -16   1   6   94.26    6.29
 -15  -1   6  699.99   18.74
 -15   1   6  637.95   18.39
 -14  -1   6  103.25    6.00
 -14   1   6  112.85    6.43
 -13  -1   6  104.13    5.79
 -13   1   6  112.02    6.15
 -12   1   6   17.23    2.38
 -12  -1   6   13.76    2.04
 -11   1   6   14.93    2.01
 -11  -1   6   14.08    1.95
 -10   1   6   16.34    2.05
 -10  -1   6   14.15    1.87
  -9   1   6  153.96    6.46
  -9  -1   6  151.91    6.13
  -8   1   6    1.00    0.61
  -8  -1   6    0.25    0.53
  -7   1   6  730.46   16.83
  -7  -1   6  770.82   16.52
  -6   1   6  516.54   12.81
  -6  -1   6  546.79   12.59
  -5   1   6  604.39   13.92
   5   1  -6  601.81   11.16
  -5  -1   6  594.11   13.27
  -4   1   6  587.25   13.74
  -4  -1   6  615.61   13.35
   4   1  -6  618.27   11.65
  -3  -1   6  346.15    8.72
   3   1  -6  359.86    7.73
  -3   1   6  331.02    9.11
   2  -1  -6   30.68    1.39
   2  -1  -6   31.23    1.48
  -2   1   6   29.72    2.24
  -2  -1   6   32.39    2.11
   1   1  -6 1129.10   20.76
  -1  -1   6 1116.14   21.01
  -1   1   6 1108.30   21.83
  -1   1   6 1101.31   19.91
   0   1  -6  218.46    6.09
   0   1   6  213.96    4.79
   0   1   6  201.25    5.22
   0  -1   6  209.59    6.17
   0   1   6  194.09    5.37
   1   1   6  659.35   13.11
   1   1   6  678.31   13.43
   1  -1   6  659.57   14.18
   2   1   6  476.98   10.47
   2   1   6  472.07   10.15
   2  -1   6  480.17   11.02
   3  -1   6   89.57    3.99
   3   1   6   88.93    3.68
   4  -1   6  172.81    5.91
   4   1   6  171.25    5.70
   5  -1   6   25.91    2.28
  -5   1  -6   25.16    2.43
   5   1   6   23.47    2.08
  -6  -1  -6   60.98    3.93
  -6   1  -6   56.95    3.79
   6   1   6   60.85    3.57
   6  -1   6   54.61    3.47
  -7  -1  -6  136.95    6.24
   7   1   6  134.59    5.87
   7  -1   6  133.57    5.82
  -7   1  -6  144.73    6.35
  -8   1  -6  575.57   15.22
   8   1   6  585.03   14.90
   8  -1   6  561.57   14.66
  -8  -1  -6  568.25   15.31
  -9  -1  -6  613.61   16.20
  -9   1  -6  586.56   15.70
   9   1   6  575.20   15.41
   9  -1   6  576.15   15.46
 -10  -1  -6  157.87    7.54
  10   1   6  153.41    7.16
  10  -1   6  150.55    7.19
 -10   1  -6  155.67    7.30
 -11   1  -6  196.56    8.47
 -11  -1  -6  198.65    8.81
  11   1   6  187.99    8.42
  11  -1   6  197.06    8.61
 -11   1  -6  189.69    7.96
 -12   1  -6    9.27    1.80
 -12  -1  -6    8.69    1.90
  12   1   6    8.41    2.01
 -12   1  -6    8.55    1.79
  12  -1   6    7.23    1.81
  13   1   6  102.19    6.64
 -13  -1  -6  103.71    6.71
 -13   1  -6  101.36    6.34
  13  -1   6   98.74    6.46
 -13   1  -6  100.11    5.98
 -14   1  -6   14.23    2.34
 -14  -1  -6   15.07    2.83
 -14   1  -6   18.93    2.89
  14   1   6   15.34    2.86
  14  -1   6   15.90    2.68
 -15  -1  -6   29.48    3.95
 -15   1  -6   32.43    3.87
  15   1   6   32.70    4.16
 -15   1  -6   32.37    3.59
 -16   1  -6   -1.58    1.53
 -19  -2   6   73.85    6.09
 -19   2   6   75.38    6.40
 -18  -2   6   38.25    4.28
 -18   2   6   36.47    4.37
 -17   2   6    8.23    2.30
 -17  -2   6    5.54    1.84
 -16   2   6   12.96    2.43
 -16  -2   6   13.54    2.30
 -15  -2   6   97.54    6.01
 -15   2   6  114.44    6.78
 -14   2   6   -0.58    1.00
 -14  -2   6    1.43    1.09
 -13  -2   6  209.24    8.41
 -13   2   6  226.95    9.14
 -12  -2   6   84.21    4.91
 -12   2   6   92.87    5.46
 -11  -2   6  145.26    6.39
 -11   2   6  158.65    7.04
 -10   2   6    3.47    1.27
 -10  -2   6   -0.19    0.85
  -9   2   6   35.40    3.04
  -9  -2   6   41.90    3.00
  -8  -2   6   14.70    1.75
  -8   2   6   15.22    1.93
  -7   2   6  465.99    9.93
  -7   2   6  449.47   12.11
  -7  -2   6  471.59   11.45
  -6  -2   6    3.34    0.80
  -6   2   6    6.13    1.24
  -5   2   6  412.13   10.92
  -5  -2   6  414.93    9.93
  -4   2   6    1.65    0.80
  -4  -2   6    1.62    0.68
   4   2  -6    2.86    0.56
  -3   2   6  175.44    6.25
  -3  -2   6  166.31    5.26
   3   2  -6  183.84    4.98
   3   2  -6  173.97    5.09
   2  -2  -6  929.41   16.21
  -2   2   6  937.74   18.49
  -2  -2   6  938.10   17.00
  -2   2   6  928.25   15.49
   2   2  -6  991.07   16.99
   2   2  -6  934.49   16.65
   1   2  -6    2.60    0.61
  -1   2   6    3.05    0.48
   1  -2  -6    2.80    0.57
  -1  -2   6    3.01    0.63
   1   2  -6    2.67    0.70
  -1   2   6    2.78    0.81
   1   2  -6    3.05    0.65
   0   2  -6   23.63    1.93
   0  -2   6   21.60    1.00
   0   2   6   22.34    1.18
   0   2  -6   21.95    1.73
   0   2   6   23.13    1.37
   0   2  -6   22.50    1.71
   0   2   6   24.90    1.56
   1   2   6  254.12    6.42
   1   2   6  243.42    5.64
  -1   2  -6  244.61    7.01
   1  -2   6  241.14    7.23
   1   2   6  246.58    6.09
  -2   2  -6    1.40    0.53
   2  -2   6    2.97    0.80
   2   2   6    2.52    0.55
   3   2   6   63.93    3.06
   3  -2   6   67.66    3.53
  -3   2  -6   72.39    3.60
   4   2   6  701.19   15.09
   4  -2   6  736.81   15.90
  -4   2  -6  707.88   15.78
   5  -2   6  404.44   10.57
   5   2   6  374.30   10.11
  -5   2  -6  395.22   10.61
   6  -2   6  760.92   17.14
  -6  -2  -6  723.93   17.58
  -6   2  -6  767.25   17.64
   6   2   6  728.51   16.68
  -6   2  -6  743.26   17.02
  -7  -2  -6   28.86    2.84
   7   2   6   28.02    2.56
  -7   2  -6   28.48    2.69
  -7   2  -6   29.71    2.65
   7  -2   6   30.80    2.73
  -8  -2  -6   70.43    4.61
  -8   2  -6   69.58    4.48
   8  -2   6   68.91    4.30
   8   2   6   68.03    4.23
  -8   2  -6   59.02    3.98
  -9   2  -6    8.58    1.72
   9  -2   6   10.29    1.94
  -9   2  -6    8.74    1.78
   9   2   6    9.01    1.74
 -10   2  -6   19.90    2.47
  10  -2   6   18.08    2.46
  10   2   6   18.88    2.48
 -10   2  -6   15.54    2.27
  11   2   6   31.56    3.38
 -11   2  -6   32.04    3.33
  11  -2   6   33.54    3.44
 -11   2  -6   32.50    3.22
 -12   2  -6    0.59    0.86
  12   2   6    1.06    1.07
  12  -2   6   -0.20    0.84
 -13   2  -6   11.14    2.19
  13   2   6    7.68    2.08
  13  -2   6    8.46    2.03
 -13   2  -6   12.07    2.16
 -14  -2  -6    0.83    1.52
  14   2   6   -1.49    1.16
 -14   2  -6   -2.00    1.38
  14  -2   6   -0.53    1.23
 -14   2  -6   -0.09    0.85
 -15  -2  -6    2.03    1.83
  15   2   6   -0.37    1.34
 -15   2  -6   -0.06    1.04
 -15   2  -6    0.59    0.94
 -16   2  -6   19.05    3.11
 -19   3   6   14.98    3.01
 -19  -3   6   13.81    2.79
 -18  -3   6  142.92    8.29
 -18   3   6  174.87    9.54
 -17  -3   6   43.92    4.32
 -17   3   6   44.30    4.62
 -16   3   6    3.20    1.52
 -16  -3   6    3.59    1.45
 -15   3   6    4.34    1.76
 -15  -3   6    2.01    1.24
 -14  -3   6  458.14   13.95
 -14   3   6  497.41   15.25
 -13   3   6    0.65    0.93
 -13  -3   6    0.52    0.77
 -12  -3   6  123.29    5.96
 -12   3   6  136.30    6.84
 -11   3   6   22.31    2.71
 -11  -3   6   23.68    2.45
 -10  -3   6  306.80    9.23
  10  -3  -6  285.41    5.43
 -10   3   6  293.94    9.90
  -9  -3   6  292.89    8.73
  -9  -3   6  271.76    6.10
  -9   3   6  293.62    9.65
  -8  -3   6  176.80    4.53
  -8   3   6  174.59    7.01
  -8  -3   6  184.68    6.34
  -7   3   6  469.44    9.39
  -7   3   6  493.65   12.66
  -7  -3   6  474.88   11.28
  -6  -3   6    4.70    0.93
  -6   3   6    3.44    0.49
  -6  -3   6    5.51    0.73
  -5   3   6   64.30    2.02
  -5   3   6   57.99    3.60
  -5  -3   6   63.86    3.05
   4   3  -6  599.04   11.78
  -4  -3   6  597.35   12.46
  -4   3   6  575.50   14.06
  -3   3   6  297.43    5.63
   3   3  -6  306.28    6.87
  -3   3   6  290.94    8.87
  -3  -3   6  299.76    7.32
   3   3  -6  284.75    7.24
   3   3  -6  302.66    6.90
   2  -3  -6   24.18    1.82
  -2   3   6   26.83    2.39
  -2  -3   6   25.72    1.73
   2   3  -6   27.63    1.89
   2   3  -6   28.35    1.69
   1   3  -6  375.28    9.91
   1  -3  -6  386.54    9.01
  -1  -3   6  376.93    8.40
  -1   3   6  376.90   10.23
   1   3  -6  391.03    8.51
   1   3  -6  390.99    9.21
  -1   3   6  369.51    7.39
   0  -3  -6  124.62    5.12
   0   3  -6  119.02    4.89
   0   3   6  119.39    2.85
   0  -3  -6  123.64    3.79
   0  -3   6  129.16    3.57
   0   3  -6  120.60    4.10
   0   3   6  124.49    3.49
   0   3  -6  121.72    4.53
   0   3   6  127.99    4.37
  -1   3  -6  298.64    8.57
   1   3   6  288.95    7.77
  -1   3  -6  294.59    7.50
   1  -3   6  299.36    8.56
   1   3   6  301.63    6.91
  -1   3  -6  298.72    8.08
   2   3   6   50.25    2.79
   2   3   6   46.42    2.40
   2  -3   6   53.59    3.19
  -2   3  -6   51.07    2.96
   3  -3   6  514.05   12.45
   3   3   6  506.04   11.39
  -3   3  -6  502.43   12.16
  -4   3  -6    9.64    1.45
   4   3   6   11.18    1.39
   4  -3   6   10.25    1.53
  -5  -3  -6   16.24    2.05
   5  -3   6   14.69    1.82
   5   3   6   17.95    1.81
  -5   3  -6   17.64    1.95
   6  -3   6    5.55    1.32
  -6   3  -6    7.54    1.47
  -6  -3  -6    6.79    1.53
  -6   3  -6    6.50    1.30
   6   3   6    8.71    1.49
   7  -3   6  141.08    6.16
  -7  -3  -6  154.83    6.83
   7   3   6  137.82    5.98
  -7   3  -6  149.11    6.41
  -7   3  -6  140.29    6.13
   8   3   6   66.95    4.40
  -8   3  -6   79.28    4.68
  -8   3  -6   78.67    4.59
   8  -3   6   81.43    4.69
   9   3   6   24.67    2.78
  -9   3  -6   22.19    2.56
   9  -3   6   24.28    2.78
  -9   3  -6   28.42    2.85
  10   3   6   54.18    4.29
  10  -3   6   56.25    4.29
 -10   3  -6   60.63    4.31
 -10   3  -6   62.76    4.43
  11   3   6   28.74    3.29
 -11   3  -6   29.74    3.18
  11  -3   6   36.41    3.64
 -11   3  -6   32.43    3.25
 -12   3  -6   27.27    3.20
  12   3   6   19.59    2.93
  12  -3   6   22.60    3.08
 -12   3  -6   23.04    2.88
 -13   3  -6   17.36    2.74
  13   3   6   16.98    2.92
  13  -3   6   16.76    2.78
 -13   3  -6   17.63    2.60
  14   3   6    7.31    2.19
 -14   3  -6    6.42    1.97
  14  -3   6    2.22    1.29
 -14   3  -6    2.91    1.31
 -15   3  -6  104.63    6.86
 -15   3  -6  115.66    6.93
 -16   3  -6   25.43    3.47
 -19   4   6    5.29    2.18
 -19  -4   6   -0.07    1.43
 -18   4   6    9.50    2.68
 -18  -4   6    4.25    1.52
 -17   4   6    1.47    1.40
 -17  -4   6    2.18    1.59
 -16   4   6    0.00    1.36
 -16  -4   6   -0.51    0.92
 -15   4   6    2.82    1.47
 -15  -4   6    4.37    1.52
 -14   4   6   13.11    2.48
 -14  -4   6   14.33    2.27
 -13  -4   6  142.25    6.67
 -13   4   6  151.45    7.69
 -12  -4   6   47.40    3.57
 -12   4   6   46.09    4.04
 -11  -4   6   55.56    3.72
 -11   4   6   55.55    4.25
 -10  -4   6    2.27    1.00
  10  -4  -6    0.64    0.31
 -10   4   6    1.67    0.99
  -9  -4   6   14.01    1.70
  -9   4   6   11.07    1.84
  -8   4   6  225.38    8.26
  -8   4   6  219.73    5.46
  -8  -4   6  231.69    7.22
  -7   4   6  580.09   14.66
  -7   4   6  572.89   10.64
  -7  -4   6  559.01   12.80
  -6   4   6  188.71    7.23
  -6   4   6  188.65    4.05
  -6  -4   6  191.24    5.89
   5   4  -6 1030.30   18.98
  -5   4   6 1007.92   22.11
  -5  -4   6 1053.74   19.88
  -5   4   6 1064.34   17.06
   4   4  -6    3.93    0.58
   4   4  -6    3.99    0.81
  -4   4   6    3.30    0.94
  -4  -4   6    4.68    0.78
   3   4  -6  311.52    6.52
   3   4  -6  295.73    7.47
  -3   4   6  283.59    8.92
  -3  -4   6  293.33    7.08
  -2   4   6   51.20    1.41
  -2   4   6   53.51    3.40
   2   4  -6   53.73    2.06
  -1   4   6  209.89    4.48
   1   4  -6  187.25    6.85
  -1  -4   6  217.62    5.61
  -1   4   6  202.32    7.14
   1   4  -6  198.14    6.20
   1   4  -6  204.36    5.00
   0  -4  -6    0.73    0.27
   0   4  -6    0.82    0.49
   0  -4   6    0.99    0.37
   0   4   6    1.82    0.41
   0   4  -6    1.13    0.40
   0  -4  -6    1.25    0.61
  -1  -4  -6   14.33    1.77
  -1   4  -6   11.54    1.62
   1   4   6   11.97    1.10
   1   4   6   11.03    1.47
  -1   4  -6   11.30    1.12
  -1   4  -6   12.89    1.53
  -1  -4  -6   11.56    1.10
  -2  -4  -6   17.09    1.95
   2   4   6   19.56    1.95
  -2   4  -6   15.19    1.41
  -2   4  -6   16.17    1.76
   2  -4   6   15.74    1.85
   2   4   6   16.95    1.43
   3  -4   6    4.54    1.10
   3   4   6    5.30    0.92
   3   4   6    3.94    1.05
  -3   4  -6    2.76    0.81
  -3  -4  -6    5.91    1.31
  -4  -4  -6   19.74    2.19
   4   4   6   20.09    1.88
   4   4   6   16.79    1.95
  -4   4  -6   17.08    1.89
   4  -4   6   18.90    2.03
  -5  -4  -6    4.54    1.28
   5   4   6    4.66    1.06
   5  -4   6    6.10    1.30
  -5   4  -6    8.14    1.40
   6   4   6   18.62    2.01
  -6  -4  -6   21.07    2.49
   6  -4   6   20.43    2.15
  -6   4  -6   22.89    2.40
   7  -4   6  282.69    9.47
   7   4   6  296.48    9.52
  -7   4  -6  293.78    9.38
  -7   4  -6  291.03    9.65
   8   4   6  112.50    5.69
  -8   4  -6  107.48    5.52
  -8   4  -6  113.56    5.75
   8  -4   6  110.21    5.70
   9   4   6  134.05    6.64
  -9   4  -6  150.17    6.74
  -9   4  -6  144.23    6.76
   9  -4   6  134.03    6.60
  10  -4   6    2.57    1.08
 -10   4  -6    1.35    0.87
  10   4   6    2.27    1.12
 -10   4  -6    3.87    1.54
  11  -4   6    2.94    1.30
  11   4   6    0.22    0.88
 -11   4  -6   -0.48    1.02
 -11   4  -6    0.31    0.91
  12   4   6   41.30    4.14
 -12   4  -6   41.04    3.87
  12  -4   6   36.50    3.84
 -12   4  -6   39.24    3.77
 -13   4  -6    4.15    1.46
  13  -4   6    5.74    1.86
 -13   4  -6    5.93    1.62
  14  -4   6   57.85    5.19
 -14   4  -6   62.33    5.02
 -15   4  -6    3.10    1.34
 -16   4  -6    6.80    2.00
 -19   5   6    0.50    1.30
 -19  -5   6   -1.48    1.44
 -18   5   6    3.61    1.57
 -18  -5   6    3.29    1.54
 -17  -5   6   98.42    6.42
 -17   5   6  106.17    7.40
 -16   5   6   10.64    2.46
 -16  -5   6   10.61    2.13
 -15   5   6    0.35    1.06
 -15  -5   6    1.10    1.13
 -14  -5   6  119.93    6.34
 -14   5   6  121.25    7.20
 -13  -5   6  576.33   15.52
 -13   5   6  572.37   16.98
 -12  -5   6  219.76    8.19
 -12   5   6  213.94    9.29
 -11  -5   6    8.86    1.57
 -11   5   6   10.41    2.06
 -10  -5   6  248.32    8.15
 -10   5   6  253.45    9.59
  -9  -5   6    0.92    0.66
  -9   5   6    2.01    1.13
  -8  -5   6   89.80    4.20
  -8   5   6  103.00    3.19
  -8   5   6   97.93    5.37
  -7   5   6   33.27    1.42
  -7   5   6   32.19    2.95
  -7  -5   6   33.91    2.34
  -6   5   6  374.17   10.69
  -6  -5   6  374.94    8.60
   5   5  -6   29.45    2.30
   5  -5  -6   28.30    1.61
  -5   5   6   28.66    2.71
  -5  -5   6   28.09    1.83
   4   5  -6   57.16    3.20
   4  -5  -6   52.18    1.96
  -4   5   6   59.94    3.81
  -4  -5   6   53.72    2.41
   3   5  -6    4.41    0.87
  -3   5   6    3.70    1.08
  -3  -5   6    2.32    0.47
   2   5  -6    1.52    0.29
  -2  -5   6    0.95    0.31
  -2   5   6    2.40    0.90
   1   5  -6  172.99    6.80
  -1  -5   6  195.40    5.76
  -1   5   6  185.22    6.91
   1   5  -6  177.62    3.96
   0  -5  -6  319.71    9.16
   0   5  -6  293.83    6.25
   0   5  -6  295.02    9.34
   0  -5  -6  306.71    6.54
  -1   5  -6    6.87    1.30
   1   5   6    8.37    1.28
  -1  -5  -6    7.85    0.87
  -1  -5  -6    6.94    1.26
  -1   5  -6    8.31    0.83
   2   5   6   46.68    2.50
   2   5   6   49.08    3.32
  -2   5  -6   45.94    2.24
   2  -5   6   46.49    3.31
  -2   5  -6   45.89    3.08
  -2  -5  -6   51.40    3.40
   3   5   6  422.54   10.10
  -3  -5  -6  415.42   11.60
   3   5   6  409.95   11.46
   3  -5   6  404.06   11.47
  -3   5  -6  419.86   11.30
   4  -5   6  155.71    6.36
   4   5   6  160.18    5.70
  -4  -5  -6  156.70    6.52
   4   5   6  156.29    6.55
  -4   5  -6  157.94    6.35
   5  -5   6    5.87    1.34
   5   5   6    5.39    1.09
   5   5   6    4.27    1.32
  -5  -5  -6    4.33    1.14
  -5   5  -6    6.86    1.33
   6   5   6  200.99    7.27
  -6  -5  -6  183.99    7.66
   6  -5   6  203.11    7.70
  -6   5  -6  206.16    7.80
   7   5   6  187.67    7.44
  -7   5  -6  195.58    7.72
   7  -5   6  180.76    7.43
   8  -5   6  251.97    9.24
   8   5   6  245.59    8.98
  -8   5  -6  232.99    8.34
  -8   5  -6  250.74    9.15
  -9   5  -6  159.48    6.86
  -9   5  -6  162.57    7.39
   9  -5   6  154.09    7.17
  10  -5   6   17.35    2.49
 -10   5  -6   14.25    2.23
 -10   5  -6   16.65    2.24
  11  -5   6    0.19    0.86
 -11   5  -6    0.60    0.90
 -11   5  -6    1.56    1.23
  12  -5   6    2.72    1.45
 -12   5  -6    0.99    0.90
 -12   5  -6    3.23    1.48
  13  -5   6   80.84    5.97
 -13   5  -6   79.31    5.35
 -13   5  -6   83.53    5.78
 -14   5  -6   23.54    2.96
  14  -5   6   20.82    3.26
 -14   5  -6   18.34    2.87
 -19  -6   6   12.62    2.65
 -18  -6   6    0.86    1.12
 -18   6   6    4.98    2.02
 -17  -6   6   32.87    3.81
 -17   6   6   32.14    4.18
 -16  -6   6    3.09    1.38
 -16   6   6    3.19    1.72
 -15  -6   6    6.29    1.80
 -15   6   6    2.88    1.34
 -14  -6   6    1.18    0.82
 -14   6   6    0.73    1.07
 -13  -6   6  108.39    5.78
 -13   6   6  104.84    6.61
 -12  -6   6   51.46    3.73
 -12   6   6   46.81    4.25
 -11  -6   6   97.10    4.99
 -11   6   6   91.25    5.75
 -10  -6   6  138.80    5.81
 -10   6   6  138.77    7.00
  -9  -6   6  910.81   18.80
  -9   6   6  869.62   16.52
  -9   6   6  883.51   21.36
  -8   6   6    5.43    0.68
  -8  -6   6    5.81    1.06
  -8   6   6    6.83    1.63
  -7   6   6  178.52    7.47
  -7  -6   6  189.95    6.03
   6  -6  -6   23.89    1.79
   6   6  -6   25.72    2.40
  -6   6   6   23.25    2.57
  -6  -6   6   23.39    1.77
   5  -6  -6   22.89    1.60
   5   6  -6   20.92    2.11
  -5   6   6   20.04    2.32
  -5  -6   6   20.06    1.51
   4   6  -6  111.61    4.88
  -4   6   6  101.92    5.25
  -4  -6   6  100.10    3.32
  -3   6   6    0.69    0.60
  -3  -6   6    1.39    0.36
  -2   6   6   37.32    3.04
   1  -6  -6  199.78    4.21
   1   6  -6  188.03    7.55
  -1   6   6  205.64    7.61
   0  -6  -6  308.57    9.08
   0   6  -6  294.69    9.60
   0  -6  -6  325.60    6.35
  -1  -6  -6  265.73    8.35
  -1  -6  -6  260.28    5.95
  -1   6  -6  247.92    8.71
   1   6   6  234.77    8.24
  -1   6  -6  222.03    4.81
   2   6   6  150.36    6.38
  -2   6  -6  133.46    3.85
   2  -6   6  152.35    6.44
  -2   6  -6  150.46    6.55
  -2  -6  -6  161.01    6.35
   3   6   6  146.27    6.46
  -3   6  -6  131.92    4.20
   3  -6   6  137.34    6.18
  -3  -6  -6  138.76    6.06
   4  -6   6   66.58    4.14
  -4  -6  -6   61.53    3.99
   4   6   6   64.59    4.34
  -5  -6  -6  354.31   11.05
   5   6   6  369.60   11.66
   5  -6   6  354.07   10.89
  -6  -6  -6   19.82    2.50
   6   6   6   23.16    2.84
   6  -6   6   18.76    2.34
   7  -6   6   45.85    3.66
   7   6   6   43.80    3.94
   8  -6   6   12.53    2.04
   9  -6   6   84.09    5.31
 -10   6  -6  168.73    6.91
  10  -6   6  173.07    8.02
 -11   6  -6    9.05    1.68
  11  -6   6    8.09    1.88
  12  -6   6    4.05    1.66
  13  -6   6   18.88    2.96
 -18  -7   6   36.99    4.19
 -18   7   6   42.13    5.06
 -17  -7   6    3.73    1.61
 -17   7   6    4.07    1.79
 -16  -7   6    3.78    1.64
 -16   7   6    1.34    1.56
 -15  -7   6  135.46    7.14
 -15   7   6  138.69    8.30
 -14  -7   6   14.61    2.29
 -14   7   6   12.68    2.43
 -13  -7   6   22.63    2.65
 -13   7   6   32.34    3.69
 -12  -7   6    2.69    1.13
 -12   7   6    2.32    1.22
 -11  -7   6  140.77    6.17
 -11   7   6  153.61    7.78
 -10  -7   6   28.91    2.57
 -10   7   6   33.31    3.49
  -9  -7   6   11.90    1.55
  -9   7   6   11.89    2.06
  -8  -7   6   47.58    2.92
   8   7  -6   49.81    3.87
  -8   7   6   48.85    3.94
  -7   7   6  284.20    9.95
   7   7  -6  269.25    9.42
  -7  -7   6  288.41    7.78
   6   7  -6   25.03    2.55
  -6   7   6   27.25    2.80
  -6  -7   6   33.23    2.05
   5   7  -6    6.31    1.31
  -5   7   6    5.47    1.21
  -5  -7   6    5.48    0.80
   4   7  -6    2.10    0.88
  -4   7   6    1.02    0.66
  -4  -7   6    1.23    0.38
  -3   7   6  335.32   10.52
   2   7  -6  339.90   11.31
  -2   7   6  352.47   10.76
   1  -7  -6  124.28    5.30
   1  -7  -6  121.30    2.87
   1   7  -6  117.03    6.02
   0  -7  -6   53.98    2.04
   0  -7  -6   56.50    3.56
   0   7  -6   56.86    4.12
   0   7   6   55.89    2.10
  -1  -7  -6   16.01    2.04
  -1   7  -6   15.97    2.22
  -1  -7  -6   13.17    1.13
  -2  -7  -6  756.56   17.62
  -2   7  -6  744.42   18.52
   2   7   6  752.33   18.48
   3  -7   6    0.02    0.88
  -3   7  -6    0.43    0.25
  -3  -7  -6    1.29    0.82
   3   7   6   -0.97    1.05
  -3   7  -6   -0.02    0.26
  -4   7  -6    8.50    0.85
   4  -7   6   10.54    1.76
  -4  -7  -6   11.59    1.90
   4   7   6   11.01    2.08
  -5   7  -6   30.68    1.84
  -5  -7  -6   29.34    2.92
   5   7   6   30.89    3.24
   5  -7   6   33.15    3.10
  -6   7  -6    0.84    0.52
  -6  -7  -6    2.42    1.23
   6   7   6    0.80    1.06
   6  -7   6    1.97    0.91
  -7   7  -6   83.90    3.78
   7  -7   6   87.84    5.21
   7   7   6   74.81    5.42
   8  -7   6   16.02    2.27
  -8   7  -6   16.22    1.77
   8   7   6   16.61    2.67
   9   7   6    4.03    1.64
   9  -7   6    4.41    1.40
  10  -7   6   20.66    2.88
  10   7   6   21.38    3.24
  11  -7   6   80.61    5.61
  12  -7   6   30.91    3.65
  13  -7   6  100.02    6.75
 -18  -8   6   35.57    4.23
 -18   8   6   29.38    4.27
 -17  -8   6    8.55    2.24
 -17   8   6   17.62    3.38
 -16  -8   6   18.81    2.86
 -16   8   6   20.93    3.39
 -15  -8   6    7.16    1.70
 -15   8   6    2.39    1.59
 -14  -8   6   79.03    5.17
 -14   8   6   83.33    6.27
 -13  -8   6  233.53    8.95
 -13   8   6  238.78   10.69
 -12  -8   6   42.66    3.47
 -12   8   6   63.35    5.11
 -11  -8   6   86.18    4.66
 -11   8   6   75.05    5.51
  10   8  -6   18.90    2.74
 -10  -8   6   17.29    2.04
 -10   8   6   16.55    2.57
  -9  -8   6   25.04    2.24
   9   8  -6   26.60    3.05
  -9   8   6   24.51    2.92
  -8  -8   6   99.77    4.26
  -8   8   6   92.13    5.66
   8   8  -6   83.22    5.39
   7   8  -6   15.97    2.31
  -7   8   6   17.99    2.40
  -7  -8   6   18.82    1.68
   6   8  -6   49.82    3.86
  -6   8   6   46.49    3.84
  -6  -8   6   48.07    2.45
   5   8  -6   20.41    2.47
  -5   8   6   17.83    2.37
  -5  -8   6   18.69    1.32
   4   8  -6    0.05    0.69
  -4   8   6   -0.45    0.75
  -4  -8   6    0.55    0.25
  -3   8   6   21.89    2.49
   2   8  -6  501.48   14.80
  -2   8   6  495.91   13.77
   1   8  -6   49.80    4.06
   1  -8  -6   47.04    3.22
   0  -8  -6  260.49    8.58
   0   8  -6  256.35    9.77
   0   8   6  255.14    6.17
  -1  -8  -6   42.47    3.27
  -1   8  -6   44.87    3.82
  -2  -8  -6  108.55    5.43
  -2   8  -6  104.05    5.93
   2   8   6  106.04    5.98
  -3  -8  -6    0.48    0.88
   3  -8   6   -0.62    1.11
   3   8   6    0.51    0.86
  -4  -8  -6   53.46    3.84
   4   8   6   47.37    4.16
   4  -8   6   51.99    4.03
  -5  -8  -6  265.20    9.62
   5   8   6  276.58   10.78
   5  -8   6  273.26    9.78
  -6  -8  -6  208.78    8.56
   6   8   6  188.71    9.03
   6  -8   6  199.10    8.31
   7   8   6  121.06    7.31
   7  -8   6  137.89    6.81
   8  -8   6   75.72    5.03
   8   8   6   78.61    5.93
   9  -8   6   57.23    4.59
   9   8   6   53.48    5.05
  10   8   6   44.69    4.83
  10  -8   6   44.27    4.10
  11  -8   6    4.53    1.66
  11   8   6    7.21    1.91
  12  -8   6    6.96    1.83
  12   8   6    7.21    2.33
  13   8   6    4.70    1.99
 -17  -9   6    4.28    1.82
 -17   9   6    1.36    1.48
 -16  -9   6   77.92    5.62
 -16   9   6   83.05    6.80
 -15  -9   6   99.22    6.11
 -15   9   6   98.02    7.24
 -14  -9   6  160.38    7.61
 -14   9   6  152.30    8.83
  13   9  -6   11.62    1.78
 -13  -9   6   10.46    1.88
 -13   9   6   15.34    2.76
 -12  -9   6   10.09    1.76
  12   9  -6    8.59    2.19
 -12   9   6   13.47    2.56
 -11  -9   6   46.10    3.40
  11   9  -6   44.57    4.39
 -11   9   6   47.84    4.43
 -10  -9   6   24.59    2.32
  10   9  -6   25.71    3.25
 -10   9   6   26.55    3.23
  -9  -9   6   26.15    2.27
   9   9  -6   28.19    3.32
  -9   9   6   26.21    3.20
   8   9  -6    0.46    0.94
  -8   9   6   -0.65    0.90
   7   9  -6  382.53   12.78
  -7   9   6  392.82   12.78
   6   9  -6  150.40    7.32
  -6   9   6  148.93    7.14
   5   9  -6    5.35    1.47
  -5   9   6    4.41    1.32
  -4   9   6   -0.69    0.85
  -3   9   6    6.87    1.58
   2   9  -6  167.18    8.12
   1   9  -6   29.47    3.35
   0   9   6    6.95    0.94
   0  -9  -6    4.55    1.09
  -1  -9  -6  418.84   12.01
  -1   9  -6  421.34   13.58
   1   9   6  406.36    9.55
  -2  -9  -6  372.28   11.33
  -2   9  -6  369.51   12.53
  -3  -9  -6   36.48    3.23
   3   9   6   44.94    4.08
  -4  -9  -6   20.03    2.48
   4   9   6   28.33    3.39
   4  -9   6   22.75    2.78
  -5  -9  -6    0.36    0.81
   5   9   6   -0.78    1.16
   5  -9   6   -0.10    0.80
   6  -9   6    0.85    0.78
  -6  -9  -6    0.16    0.81
   6   9   6    2.28    1.24
  -7  -9  -6    5.27    1.45
   7  -9   6    2.68    1.11
   7   9   6    3.43    1.69
   8  -9   6    3.33    1.16
   8   9   6    5.97    1.93
  -9   9  -6    9.28    1.58
   9   9   6    9.81    2.38
   9  -9   6    6.63    1.86
  10   9   6  202.76   10.78
  10  -9   6  215.27    9.56
  11   9   6   39.44    4.93
  11  -9   6   39.94    4.09
  12   9   6  123.62    8.74
  12  -9   6  138.59    7.95
 -17  10   6    4.85    2.27
 -16  10   6    1.28    1.45
  15  10  -6    1.40    1.66
 -15  10   6    0.90    1.17
  14  10  -6   29.31    4.30
 -14  10   6   33.14    4.08
  13  10  -6    4.18    1.79
 -13  10   6    3.18    1.54
  12  10  -6  262.40    8.93
  12  10  -6  264.60   11.88
 -12  10   6  264.93   11.46
  11  10  -6    3.51    1.76
 -11  10   6    0.27    0.99
  10  10  -6    2.58    1.36
 -10  10   6    1.00    0.96
   9  10  -6    1.19    1.02
  -9  10   6   -1.48    1.11
  -8  10   6  384.22   13.07
   8  10  -6  371.29   13.37
   7  10  -6   30.41    3.42
  -7  10   6   29.56    3.22
   6  10  -6   10.00    2.01
  -6  10   6   10.71    1.98
  -5  10   6   26.57    2.98
  -4  10   6   40.71    3.73
   3  10  -6  882.13   23.01
  -3  10   6  871.83   21.11
   2  10  -6   45.25    4.30
   1  10  -6  583.85   17.37
   0 -10  -6  141.24    6.27
   0  10  -6  142.62    7.57
  -1  10  -6    6.21    1.74
  -1 -10  -6    3.77    1.30
  -2 -10  -6  107.82    5.70
  -2  10  -6  112.82    6.69
  -3 -10  -6  254.00    9.74
   3 -10   6  372.66   12.19
   4 -10   6    0.75    0.98
   4  10   6    2.45    1.39
  -4 -10  -6    1.24    0.87
   5 -10   6  125.34    6.63
   5  10   6  110.54    7.15
  -6 -10  -6   21.54    2.74
   6  10   6   27.74    3.76
   6 -10   6   32.18    3.45
  -7 -10  -6   23.29    3.07
   7 -10   6   26.35    3.21
   7  10   6   16.61    2.92
  -8 -10  -6    1.68    1.23
   8  10   6    0.64    1.20
   8 -10   6    2.98    1.17
  -8  10  -6    2.31    1.11
  -9  10  -6  185.47    7.54
   9 -10   6  197.43    9.01
  -9 -10  -6  185.84    9.18
   9  10   6  180.66   10.31
  10  10   6   -0.48    1.53
  10 -10   6    0.89    1.19
  11 -10   6   24.74    3.39
  11  10   6   26.91    4.18
 -15  11   6    0.00    1.36
  14  11  -6   13.21    3.00
 -14  11   6   14.52    2.89
  13  11  -6   79.68    6.82
 -13  11   6   81.90    6.40
  12  11  -6  109.81    5.75
  12  11  -6  102.15    7.46
 -12  11   6  103.21    7.01
 -11  11   6   30.84    3.83
  11  11  -6   26.01    3.64
  11  11  -6   25.43    2.77
  10  11  -6    3.20    1.56
 -10  11   6    3.62    1.56
   9  11  -6   25.41    3.52
  -9  11   6   31.73    3.61
   8  11  -6    0.96    1.04
  -8  11   6   -0.31    0.88
   7  11  -6   16.32    3.00
  -7  11   6   17.07    2.55
  -6  11   6  192.67    8.59
   6  11  -6  187.63    9.27
  -5  11   6    2.76    1.09
  -4  11   6  205.66    8.67
   3  11  -6    0.63    1.01
   2  11  -6   65.95    5.42
   1  11  -6    0.02    1.07
   0  11  -6   28.84    3.57
   0 -11  -6   29.54    2.84
  -1  11  -6  571.36   17.50
  -1 -11  -6  538.13   14.86
  -2 -11  -6   48.25    3.90
  -2  11  -6   58.24    4.96
  -3 -11  -6  313.37   10.96
   3 -11   6  322.19   11.89
   4 -11   6  107.94    6.42
   4  11   6  105.50    7.21
  -4 -11  -6  105.26    6.08
   5 -11   6  306.15   11.33
  -5 -11  -6  285.07   10.83
   5  11   6  287.42   12.54
   6 -11   6   24.25    3.09
  -6 -11  -6   17.12    2.58
   6  11   6   29.53    3.98
  -7  11  -6   80.26    4.90
   7  11   6   66.03    6.07
   7 -11   6   79.81    5.60
  -8  11  -6  105.01    5.73
  -8 -11  -6   97.15    6.52
   8  11   6   99.86    7.62
   8 -11   6  102.17    6.35
  -9 -11  -6    2.24    1.58
   9  11   6    1.53    1.42
   9 -11   6    1.82    1.11
  10 -11   6   37.26    4.07
 -10 -11  -6   36.90    4.18
  10  11   6   33.81    4.74
  13  12  -6   10.48    2.69
  12  12  -6   23.16    2.85
  12  12  -6   18.64    3.32
 -12  12   6   22.18    3.38
  11  12  -6   15.12    2.30
  11  12  -6   10.67    2.51
 -11  12   6   17.16    2.95
  10  12  -6  128.00    8.26
 -10  12   6  125.47    7.50
   9  12  -6   57.80    5.56
  -9  12   6   70.70    5.45
   9  12  -6   76.31    4.90
   8  12  -6  117.97    6.20
  -8  12   6  111.50    6.80
   8  12  -6  123.58    7.84
  -7  12   6   96.51    6.16
   7  12  -6  100.19    6.92
  -6  12   6   46.82    4.26
  -5  12   6   24.68    3.06
   4  12  -6  113.99    7.61
   3  12  -6  342.47   13.59
   2  12  -6   -0.51    1.34
   1  12  -6   15.15    2.74
   0  12  -6   12.66    2.60
  -1  12  -6   79.02    6.11
   2 -12   6    4.92    1.59
  -2 -12  -6    2.58    1.18
   3 -12   6    6.58    1.64
  -3 -12  -6    6.64    1.69
  -4  12  -6  100.37    5.76
  -4 -12  -6  104.16    6.22
   4 -12   6  103.49    6.56
  -5  12  -6   21.70    2.74
  -5 -12  -6   23.84    3.15
   5 -12   6   27.07    3.36
  -6  12  -6   68.38    4.75
  -6 -12  -6   53.14    4.67
   6  12   6   70.03    6.29
   6 -12   6   66.10    5.21
  -7  12  -6   26.50    3.02
  -7 -12  -6   20.93    3.09
   7  12   6   24.25    3.88
   7 -12   6   25.79    3.30
  -8  12  -6   19.47    2.60
  -8 -12  -6   17.71    2.98
   8 -12   6   19.69    2.90
   8  12   6   14.42    3.10
   9 -12   6   11.41    2.45
  -9 -12  -6   12.72    2.59
  12  13  -6   31.34    3.40
  12  13  -6   29.85    4.48
  11  13  -6    4.58    1.60
  11  13  -6    7.77    2.57
  10  13  -6    0.52    0.99
  10  13  -6   -0.73    1.52
   9  13  -6   19.83    2.71
   9  13  -6   19.03    3.32
   8  13  -6    2.17    1.05
   8  13  -6    2.59    1.65
   7  13  -6    7.96    1.79
  -7  13   6    7.70    1.93
   6  13  -6   37.54    3.59
  -6  13   6   34.17    3.69
   5  13  -6   13.97    2.47
   5  13  -6   12.45    2.57
   4  13  -6    9.58    1.99
   4  13  -6    8.19    2.37
   3  13  -6   -0.12    1.43
   2  13  -6    0.52    1.25
   1  13  -6   19.61    3.21
   0  13  -6   16.33    2.47
   0  13  -6   14.53    2.93
  -1  13  -6   42.59    3.88
  -1  13  -6   42.81    4.67
   2 -13   6   66.31    5.54
  -2  13  -6   75.73    5.17
  -3  13  -6    3.28    1.54
   3 -13   6   -0.20    1.03
   4 -13   6   13.57    2.58
  -4  13  -6   12.34    2.19
   5 -13   6   58.64    4.97
  -5  13  -6   52.20    4.48
  -6  13  -6    4.79    1.69
   6 -13   6    8.44    2.04
  -6 -13  -6    4.13    1.54
  -7  13  -6    7.22    1.87
  -7 -13  -6    4.39    1.69
   7  13   6    3.99    2.04
   7 -13   6    6.17    1.96
  -8  13  -6    6.35    1.62
   8 -13   6    8.03    2.07
  -8 -13  -6    7.95    2.17
  11  14  -6    8.53    1.96
  10  14  -6   53.85    4.62
  10  14  -6   51.48    5.71
   9  14  -6   17.44    2.66
   9  14  -6   21.97    3.63
   8  14  -6   10.23    2.17
   7  14  -6  264.57   10.69
   6  14  -6  102.76    6.30
   6  14  -6  100.94    7.84
   5  14  -6   30.01    3.49
   5  14  -6   29.64    4.41
   4  14  -6   12.56    2.44
   4  14  -6    8.31    2.39
   3  14  -6   34.25    3.63
   3  14  -6   36.42    4.52
   2  14  -6   15.72    2.56
   2  14  -6   14.05    3.04
   1  14  -6   48.83    4.38
   1  14  -6   53.75    5.35
   0  14  -6   13.80    2.38
   0  14  -6   15.58    2.91
  -1  14  -6    8.27    1.94
  -1  14  -6    6.97    2.31
   2 -14   6   13.50    2.49
  -2  14  -6   15.99    2.64
  -3  14  -6   46.72    4.31
   3 -14   6   46.17    4.61
   4 -14   6    3.23    1.64
  -4  14  -6    1.03    1.27
  -5  14  -6    0.13    1.22
   5 -14   6   -0.52    1.12
   6 -14   6    6.80    1.94
  -6  14  -6    4.43    1.77
  -7  14  -6    3.09    1.39
   5  15  -6    0.98    1.67
   4  15  -6   95.19    7.61
   3  15  -6    3.25    1.88
   2  15  -6   11.69    2.78
   1  15  -6   63.10    6.11
   0  15  -6   -1.22    1.43
   1 -15   6   12.00    2.59
   2 -15   6    7.28    2.03
   3 -15   6   85.37    6.49
   4 -15   6   55.64    5.25
 -19   0   7    3.27    1.96
 -18   0   7    0.52    1.09
 -17   0   7    2.94    1.63
 -16   0   7    1.01    1.02
 -15   0   7    1.64    1.27
 -14   0   7    1.38    1.11
 -13   0   7    2.01    1.27
 -12   0   7   -0.45    0.76
 -11   0   7    1.56    1.06
 -10   0   7    0.99    0.84
  -9   0   7   -0.04    0.58
  -8   0   7    0.49    0.64
  -7   0   7    1.26    0.78
   7   0  -7    0.87    0.33
  -6   0   7    1.00    0.81
  -5   0   7   -0.20    0.67
  -4   0   7    0.25    0.54
  -3   0   7    0.36    0.46
   2   0  -7    0.14    0.30
  -2   0   7   -0.31    0.56
   1   0  -7    0.35    0.39
  -1   0   7    0.31    0.44
  -1   0   7    0.19    0.41
   0   0   7    0.35    0.17
   0   0   7    3.48    0.77
   1   0   7    0.07    0.41
   2   0   7    1.42    0.65
   3   0   7    0.66    0.55
  -4   0  -7   -0.81    0.92
   4   0   7    1.03    0.71
  -5   0  -7   -0.24    0.77
   5   0   7    1.48    0.78
   6   0   7   -0.35    0.60
  -6   0  -7    0.45    0.81
   7   0   7    1.38    0.98
  -7   0  -7    0.58    1.09
   8   0   7    0.25    0.83
  -8   0  -7   -0.20    1.03
  -9   0  -7    1.41    1.23
   9   0   7    1.08    0.98
 -10   0  -7    0.35    0.83
  10   0   7    0.17    1.01
 -11   0  -7    4.25    1.68
  11   0   7    2.68    1.38
 -12   0  -7    2.43    1.35
  12   0   7   -0.01    1.11
 -13   0  -7   -0.17    1.35
  13   0   7   -1.26    1.27
 -14   0  -7    0.68    0.97
  14   0   7   -0.32    1.19
 -14   0  -7    0.74    1.22
 -15   0  -7   -0.78    1.04
 -15   0  -7   -1.27    1.51
 -19   1   7   24.52    3.77
 -19  -1   7   27.36    3.89
 -18   1   7   10.10    2.40
 -18  -1   7    9.57    2.37
 -17   1   7   69.37    5.72
 -17  -1   7   74.41    5.79
 -16  -1   7   25.85    3.38
 -16   1   7   31.45    3.73
 -15   1   7   30.05    3.51
 -15  -1   7   34.63    3.59
 -14   1   7   10.62    2.23
 -14  -1   7   11.09    2.04
 -13   1   7   63.22    4.76
 -13  -1   7   71.09    4.85
 -12   1   7    3.79    1.23
 -12  -1   7    4.98    1.45
 -11   1   7   18.52    2.44
 -11  -1   7   18.48    2.29
 -10   1   7   15.11    2.16
 -10  -1   7   15.83    2.09
  -9   1   7   67.21    4.28
  -9  -1   7   60.56    3.90
   8  -1  -7    5.30    0.43
  -8   1   7    6.16    1.33
  -8  -1   7    5.97    1.20
  -7   1   7 2637.63   48.21
  -7  -1   7 2733.79   47.80
   6   1  -7   66.69    2.37
  -6   1   7   60.38    3.70
  -6  -1   7   70.04    3.73
  -5   1   7    1.33    0.72
  -5  -1   7    2.44    0.72
   5   1  -7    1.21    0.45
  -4   1   7 1872.32   34.79
  -4  -1   7 1886.00   34.11
   4   1  -7 1878.22   32.06
  -3   1   7   80.53    4.15
  -3  -1   7   83.16    3.88
   2  -1  -7   12.51    1.01
   2   1  -7   12.72    1.35
   2  -1  -7   15.42    0.96
  -2  -1   7   13.91    1.53
  -2   1   7   13.10    1.64
   1   1  -7  108.14    4.16
  -1   1   7  102.64    3.68
  -1  -1   7  109.50    4.42
  -1   1   7  104.18    4.68
   0  -1   7   48.76    2.85
   0   1   7   45.38    1.82
   0   1   7   44.56    2.36
   1   1   7   47.85    2.49
   1   1   7   49.70    2.14
   1   1   7   50.44    2.59
   1  -1   7   46.41    2.81
   2   1   7  161.38    5.24
   2  -1   7  163.59    5.67
  -3   1  -7    1.23    0.73
   3  -1   7    2.28    0.80
   3   1   7    2.12    0.66
  -4   1  -7  207.51    7.74
   4  -1   7  208.82    6.90
  -4  -1  -7  216.03    8.01
   4   1   7  195.29    6.50
   5  -1   7   71.03    3.93
  -5  -1  -7   74.39    4.51
  -5   1  -7   64.00    4.20
   5   1   7   64.38    3.64
  -6  -1  -7  529.93   14.46
  -6   1  -7  531.03   14.40
   6   1   7  493.51   12.91
   6  -1   7  526.13   13.28
  -7  -1  -7   27.96    2.99
  -7   1  -7   32.96    3.14
   7   1   7   30.88    2.81
   7  -1   7   30.42    2.84
   8  -1   7    7.88    1.54
  -8  -1  -7    7.74    1.89
  -8   1  -7    4.64    1.34
   8   1   7    6.57    1.50
  -9  -1  -7   28.52    3.29
   9  -1   7   26.22    2.87
  -9   1  -7   26.30    3.00
   9   1   7   23.58    2.74
 -10  -1  -7  144.56    7.57
 -10   1  -7  165.91    7.97
  10  -1   7  165.13    7.69
  10   1   7  146.90    7.21
 -11   1  -7    0.27    0.83
 -11  -1  -7    1.97    1.20
  11   1   7    0.28    1.10
  11  -1   7    0.52    1.03
 -12  -1  -7   50.60    4.63
 -12   1  -7   49.66    4.51
  12  -1   7   48.01    4.40
 -12   1  -7   45.42    4.11
  12   1   7   46.26    4.32
 -13  -1  -7   33.34    4.00
 -13   1  -7   36.89    4.08
  13  -1   7   32.00    3.76
  13   1   7   30.01    3.69
 -13   1  -7   38.26    3.85
  14   1   7   36.96    4.33
  14  -1   7   35.98    4.20
 -14  -1  -7   30.32    3.89
 -14   1  -7   28.19    3.71
 -14   1  -7   34.28    3.74
 -15   1  -7    0.77    0.97
 -15   1  -7    1.87    1.57
 -19   2   7    1.88    1.49
 -19  -2   7   -2.01    1.68
 -18   2   7   44.63    4.83
 -18  -2   7   44.88    4.67
 -17   2   7   12.22    2.60
 -17  -2   7   13.05    2.42
 -16   2   7    0.80    1.16
 -16  -2   7    1.75    1.30
 -15   2   7   26.00    3.34
 -15  -2   7   26.20    3.19
 -14   2   7  263.01   10.69
 -14  -2   7  273.91   10.39
 -13   2   7  562.47   16.43
 -13  -2   7  567.97   15.74
 -12   2   7  113.32    6.34
 -12  -2   7  120.27    6.09
 -11   2   7   62.84    4.49
 -11  -2   7   62.95    4.19
 -10   2   7   80.87    5.00
 -10  -2   7   84.33    4.68
  -9   2   7   50.38    3.70
  -9  -2   7   53.43    3.55
  -8   2   7  772.78   18.36
  -8  -2   7  777.89   17.47
  -7   2   7   61.51    3.95
  -7  -2   7   63.16    3.61
  -6   2   7    2.64    0.93
  -6  -2   7    2.40    0.80
  -5   2   7 1931.49   36.68
   5   2  -7 1954.93   33.45
  -5  -2   7 2023.85   35.53
  -4   2   7   31.61    2.59
  -4  -2   7   33.71    2.33
   4   2  -7   31.84    1.89
  -3   2   7  238.13    7.56
  -3  -2   7  243.38    6.72
   3   2  -7  237.11    6.00
  -2   2   7  669.50   12.98
   2   2  -7  698.25   15.02
   2  -2  -7  715.07   13.45
  -2  -2   7  705.84   14.59
   2   2  -7  692.92   14.13
   1   2  -7   61.70    3.31
  -1  -2   7   64.76    3.17
  -1   2   7   64.03    3.74
  -1   2   7   67.45    2.58
   1   2  -7   65.18    3.13
   0   2  -7   10.23    1.30
   0   2   7    8.21    0.90
   0   2  -7    7.17    1.15
   1   2   7   15.98    1.35
   1   2   7   13.09    1.12
   1   2   7   13.18    1.25
   1  -2   7   11.94    1.53
  -1   2  -7   14.91    1.59
   2  -2   7  517.59   12.44
   2   2   7  488.18   10.59
   2   2   7  502.88   11.11
   2   2   7  517.85   11.19
  -2   2  -7  515.95   12.31
   3  -2   7  492.97   12.13
   3   2   7  476.73   11.12
  -3   2  -7  481.83   12.12
  -4   2  -7    5.23    1.21
  -4   2  -7    1.71    0.80
   4  -2   7    3.74    1.01
   5  -2   7    0.74    0.64
  -5   2  -7    0.34    0.82
  -5  -2  -7    1.68    1.04
  -5   2  -7    0.85    0.80
   6  -2   7  227.63    7.98
  -6  -2  -7  205.85    8.28
  -6   2  -7  215.39    8.25
   6   2   7  214.36    7.53
  -6   2  -7  196.70    7.55
  -7  -2  -7  239.44    9.24
  -7   2  -7  244.19    9.17
   7   2   7  245.82    8.48
  -7   2  -7  243.14    8.72
   7  -2   7  252.20    8.70
  -8   2  -7   19.28    2.36
  -8  -2  -7   17.51    2.55
  -8   2  -7   19.36    2.57
   8  -2   7   16.52    2.23
   8   2   7   16.47    2.22
  -9   2  -7    2.26    1.16
   9  -2   7    1.28    0.86
  -9  -2  -7   -0.50    0.99
  -9   2  -7   -0.61    1.04
   9   2   7   -0.72    0.96
 -10  -2  -7   87.22    5.79
 -10   2  -7   92.96    5.86
  10   2   7   83.60    5.33
  10  -2   7   94.65    5.70
 -10   2  -7   94.11    5.58
 -11  -2  -7   89.03    6.07
  11   2   7   87.88    5.78
 -11   2  -7   96.82    6.18
  11  -2   7   94.21    5.98
 -11   2  -7   96.30    5.81
  12   2   7   62.04    5.10
 -12  -2  -7   69.94    5.56
 -12   2  -7   70.21    5.38
  12  -2   7   66.28    5.29
 -12   2  -7   67.35    4.95
 -13  -2  -7   15.61    2.88
  13   2   7   21.72    3.18
 -13   2  -7   15.60    2.73
  13  -2   7   16.83    2.81
 -13   2  -7   16.68    2.57
  14   2   7   42.81    4.59
 -14  -2  -7   46.85    4.88
 -14   2  -7   50.40    4.92
  14  -2   7   46.68    4.71
 -14   2  -7   41.76    4.10
 -15   2  -7   16.32    2.83
 -15   2  -7    9.62    2.20
 -16   2  -7   35.11    4.35
 -19   3   7   31.01    4.24
 -19  -3   7   25.26    3.71
 -18  -3   7   60.58    5.43
 -18   3   7   71.63    6.17
 -17   3   7    7.21    2.11
 -17  -3   7    7.65    1.94
 -16  -3   7  199.07    9.30
 -16   3   7  221.27   10.41
 -15   3   7   29.43    3.62
 -15  -3   7   23.37    3.04
 -14   3   7   12.23    2.21
 -14  -3   7   10.92    2.07
 -13   3   7  444.04   14.30
 -13  -3   7  425.30   13.15
 -12   3   7   60.30    4.67
 -12  -3   7   59.28    4.25
 -11   3   7  583.21   16.35
 -11  -3   7  583.07   15.16
 -10   3   7  134.88    6.56
 -10  -3   7  120.30    3.35
 -10  -3   7  130.77    5.85
  -9   3   7  128.15    6.29
  -9  -3   7  126.64    3.61
  -9  -3   7  130.53    5.66
  -8  -3   7    6.73    1.26
  -8   3   7    6.14    0.83
  -8  -3   7    7.70    0.86
  -8   3   7    5.49    1.34
  -7   3   7  549.72   10.73
  -7   3   7  524.31   14.14
  -7  -3   7  535.11   12.89
  -6   3   7  874.44   19.75
  -6  -3   7  880.12   18.20
  -5  -3   7   11.64    1.38
  -5   3   7   13.52    1.83
  -4  -3   7   69.03    3.29
   4   3  -7   68.65    2.73
  -4   3   7   61.32    3.89
  -3   3   7   19.00    1.04
   3   3  -7   14.25    1.07
  -3   3   7   17.70    2.07
  -3  -3   7   18.65    1.62
   3   3  -7   19.24    1.60
   3   3  -7   17.56    1.46
  -2   3   7  388.98    7.70
   2  -3  -7  393.80    9.28
   2   3  -7  382.07   10.44
  -2  -3   7  405.09    9.30
  -2   3   7  379.51   10.82
   2   3  -7  390.93    9.48
   2   3  -7  394.86    9.09
  -1   3   7  113.97    3.28
   1   3  -7  100.05    4.66
  -1   3   7  105.12    5.02
   1   3  -7  110.50    4.09
   1   3  -7  107.76    4.32
   0   3   7    3.54    0.60
   0   3  -7    2.76    0.89
   0  -3   7    3.20    0.52
   0   3  -7    2.14    0.75
   1  -3   7  246.74    7.91
   1   3   7  247.38    5.67
   1   3   7  231.51    6.87
   1   3   7  249.05    6.32
  -1   3  -7  256.14    7.58
   2  -3   7   11.07    1.54
   2   3   7   12.53    1.28
   2   3   7   11.15    1.38
  -2   3  -7   14.05    1.68
  -3  -3  -7   77.57    4.57
   3   3   7   81.39    3.91
   3   3   7   83.07    3.69
  -3   3  -7   75.98    4.05
   3  -3   7   76.64    4.13
  -4  -3  -7  198.19    7.85
   4   3   7  209.18    6.77
   4  -3   7  222.20    7.52
  -4   3  -7  197.73    7.25
  -5  -3  -7   52.89    3.90
   5   3   7   54.93    3.32
   5  -3   7   53.64    3.57
  -5   3  -7   55.89    3.68
   6  -3   7  201.55    7.52
  -6  -3  -7  183.71    7.82
  -6   3  -7  185.67    7.53
   6   3   7  197.90    7.17
  -6   3  -7  196.42    7.56
  -7   3  -7   11.67    1.91
  -7  -3  -7   13.15    2.22
  -7   3  -7   10.74    1.79
   7   3   7   12.57    1.90
   7  -3   7   11.03    1.87
  -8  -3  -7  840.68   20.98
  -8   3  -7  884.58   20.87
   8   3   7  815.80   19.91
  -8   3  -7  857.22   20.39
   8  -3   7  895.57   20.51
   9  -3   7    6.03    1.44
   9   3   7    5.03    1.34
  -9  -3  -7    8.56    2.07
  -9   3  -7    7.36    1.60
  -9   3  -7    5.63    1.40
  10   3   7  296.08   10.90
 -10  -3  -7  296.38   11.36
 -10   3  -7  289.68   10.90
  10  -3   7  295.89   10.84
 -10   3  -7  313.16   10.91
  11  -3   7   24.86    3.05
 -11   3  -7   22.30    2.92
  11   3   7   17.38    2.65
 -11  -3  -7   22.64    3.17
 -11   3  -7   27.15    3.12
 -12  -3  -7   18.76    3.01
 -12   3  -7   18.45    2.82
  12   3   7   16.49    2.81
  12  -3   7   19.14    2.97
 -12   3  -7   17.92    2.62
 -13  -3  -7   22.87    3.37
 -13   3  -7   19.23    2.99
  13   3   7   16.93    2.87
  13  -3   7   22.94    3.23
 -13   3  -7   19.77    2.96
 -14  -3  -7   25.87    3.78
 -14   3  -7   23.61    3.43
  14   3   7   17.90    3.12
 -14   3  -7   21.99    3.03
 -15   3  -7   69.11    5.60
 -19   4   7   12.63    2.82
 -19  -4   7    7.08    1.95
 -18  -4   7   89.26    6.54
 -18   4   7   77.97    6.55
 -17   4   7   30.15    4.00
 -17  -4   7   29.12    3.53
 -16  -4   7  160.11    8.25
 -16   4   7  179.99    9.40
 -15  -4   7   36.71    3.75
 -15   4   7   40.09    4.29
 -14  -4   7  230.64    9.39
 -14   4   7  242.99   10.50
 -13  -4   7   17.01    2.42
 -13   4   7   16.81    2.66
 -12  -4   7  678.12   17.32
 -12   4   7  711.22   19.15
 -11  -4   7    4.08    1.15
 -11   4   7    2.25    1.21
 -10   4   7  594.04   16.46
 -10  -4   7  618.25   15.12
  -9   4   7  593.09   15.88
  -9  -4   7  565.11   14.03
  -8   4   7 1032.78   18.49
  -8   4   7 1062.11   23.54
  -8  -4   7 1063.95   21.56
  -7   4   7  119.84    3.19
  -7   4   7  120.83    5.89
  -7  -4   7  111.49    4.74
  -6   4   7  145.01    3.32
  -6   4   7  150.80    6.53
  -6  -4   7  152.22    5.33
   5   4  -7  155.28    5.12
  -5   4   7  141.13    6.21
  -5   4   7  141.86    2.88
  -5  -4   7  142.47    4.98
   4   4  -7   50.17    2.27
   4   4  -7   51.69    2.64
  -4   4   7   53.07    3.65
  -4  -4   7   49.70    2.66
  -3   4   7  119.84    5.58
  -3  -4   7  118.92    4.18
  -3   4   7  121.22    2.55
   3   4  -7  118.75    3.74
   2   4  -7  829.29   18.45
  -2   4   7  803.29   14.04
  -2  -4   7  829.97   15.77
  -2   4   7  790.84   18.52
   2   4  -7  841.74   16.94
   2   4  -7  824.69   15.44
   1   4  -7    1.82    0.80
  -1   4   7    0.71    0.58
  -1   4   7    0.80    0.30
   1   4  -7    1.35    0.47
   1   4  -7    0.47    0.44
   0  -4  -7   19.39    2.12
   0   4  -7   19.82    2.10
   0   4   7   19.62    1.33
   0  -4   7   20.15    1.44
   0   4  -7   18.93    1.49
   0   4  -7   18.97    1.86
   1   4   7   10.08    1.07
  -1   4  -7   10.96    1.58
   1   4   7   10.60    1.44
  -1   4  -7    8.22    1.10
   1  -4   7    9.83    1.54
  -1  -4  -7   10.72    1.63
  -1   4  -7    9.07    1.36
  -2  -4  -7   13.22    1.86
   2   4   7   13.47    1.36
   2   4   7   11.70    1.54
   2  -4   7   14.46    1.89
  -2   4  -7   11.57    1.57
   3  -4   7  295.88    9.27
   3   4   7  307.35    8.18
   3   4   7  296.38    9.00
  -3   4  -7  300.87    9.24
  -3  -4  -7  306.83    9.99
  -4  -4  -7  581.44   15.38
   4   4   7  590.91   13.49
   4   4   7  581.64   14.43
  -4   4  -7  584.95   14.53
   4  -4   7  578.04   14.57
  -5  -4  -7    4.24    1.48
   5   4   7    1.11    0.74
   5  -4   7    3.17    1.10
  -5   4  -7    3.28    1.14
   6  -4   7    6.47    1.30
  -6  -4  -7    6.57    1.58
   6   4   7    7.94    1.41
  -6   4  -7    6.63    1.43
  -7  -4  -7    4.55    1.43
  -7   4  -7    1.85    0.82
   7   4   7    2.76    1.07
   7  -4   7    2.38    0.85
  -7   4  -7    3.04    1.09
  -8  -4  -7    2.30    1.14
   8   4   7    0.47    0.80
  -8   4  -7   -0.17    1.13
   8  -4   7    0.04    0.83
   9   4   7   32.70    3.30
  -9  -4  -7   34.00    3.58
  -9   4  -7   30.98    3.22
  -9   4  -7   35.06    3.44
   9  -4   7   30.09    3.11
 -10  -4  -7    1.39    1.22
  10  -4   7    3.81    1.37
  10   4   7    2.10    1.27
 -10   4  -7    2.74    1.19
 -10   4  -7    1.68    1.19
  11  -4   7    4.58    1.56
 -11  -4  -7    5.67    1.89
 -11   4  -7    1.63    1.14
  11   4   7    6.13    1.64
 -11   4  -7    3.43    1.44
  12   4   7  259.82   11.15
 -12  -4  -7  274.81   11.73
 -12   4  -7  287.99   11.21
  12  -4   7  267.55   11.19
 -12   4  -7  282.07   11.04
 -13  -4  -7  197.70   10.10
 -13   4  -7  192.17    9.26
  13  -4   7  200.74    9.93
 -13   4  -7  203.03    9.44
 -14   4  -7   22.44    3.16
 -15   4  -7    2.34    1.60
 -19  -5   7    0.47    1.26
 -19   5   7    2.09    1.59
 -18  -5   7    5.27    1.83
 -18   5   7    8.88    2.33
 -17  -5   7  123.84    7.41
 -17   5   7  150.25    9.05
 -16  -5   7   10.36    2.12
 -16   5   7   14.12    2.79
 -15  -5   7    5.55    1.50
 -15   5   7    5.54    1.72
 -14  -5   7   12.17    2.05
 -14   5   7   12.25    2.51
 -13  -5   7   24.46    2.74
 -13   5   7   29.18    3.56
 -12  -5   7  267.10    9.44
 -12   5   7  261.68   10.66
 -11  -5   7    3.80    1.38
 -11   5   7    4.52    1.64
 -10   5   7 1441.85   31.18
 -10  -5   7 1464.19   28.96
  -9   5   7  547.70   10.81
  -9   5   7  542.17   15.44
  -9  -5   7  548.87   13.54
  -8   5   7  599.39   11.33
  -8   5   7  639.24   16.55
  -8  -5   7  641.90   14.36
  -7   5   7  196.38    4.13
  -7   5   7  193.75    7.93
  -7  -5   7  203.13    6.50
   6   5  -7    3.82    0.98
  -6   5   7    2.72    1.01
  -6  -5   7    4.00    0.87
   5  -5  -7  317.53    6.63
   5   5  -7  297.05    8.54
  -5   5   7  305.33   10.12
  -5  -5   7  304.68    7.85
   4   5  -7   86.98    2.89
  -4   5   7   92.70    5.02
  -4  -5   7   88.21    3.43
   4   5  -7   87.83    3.90
   3   5  -7  213.05    5.02
  -3   5   7  214.08    7.99
  -3  -5   7  215.76    5.64
   2   5  -7   92.94    5.04
  -2   5   7   94.19    5.05
   2   5  -7   98.01    2.92
   1   5  -7  205.14    7.80
  -1  -5   7  230.70    6.33
  -1   5   7  210.58    7.94
   1   5  -7  212.38    5.14
   0   5   7  435.38    8.91
   0  -5  -7  434.31   11.90
   0   5  -7  413.11   11.94
   0  -5   7  420.20    9.93
   0   5  -7  435.83    8.98
   0  -5  -7  409.83    8.96
  -1  -5  -7   13.31    1.88
   1   5   7   14.58    1.30
  -1   5  -7   12.44    1.83
   1   5   7   13.41    1.72
  -1   5  -7   12.42    1.18
  -1   5  -7   15.08    1.81
  -2  -5  -7    0.48    0.66
   2   5   7    0.95    0.47
   2  -5   7    2.57    0.90
   2   5   7    1.98    0.87
  -2   5  -7    0.78    0.39
  -2   5  -7    2.72    1.05
   3   5   7  467.61   11.19
  -3  -5  -7  470.62   13.20
   3  -5   7  450.81   12.76
   3   5   7  477.75   12.69
  -3   5  -7  467.71   12.56
  -4  -5  -7   10.53    1.85
   4   5   7    4.99    1.00
   4   5   7    6.99    1.49
   4  -5   7    5.11    1.31
  -4   5  -7    9.35    1.57
  -5  -5  -7    4.14    1.33
   5   5   7    2.74    0.88
   5   5   7    4.40    1.36
   5  -5   7    7.39    1.51
  -5   5  -7    2.96    1.11
   6   5   7   29.24    2.67
  -6  -5  -7   24.13    2.82
   6  -5   7   33.18    3.04
   6   5   7   31.42    3.15
  -6   5  -7   28.42    2.84
   7   5   7  108.96    5.60
  -7  -5  -7  106.99    6.09
   7  -5   7  114.54    5.89
  -7   5  -7  125.20    6.27
   8  -5   7  589.78   16.16
   8   5   7  587.02   15.84
  -8   5  -7  621.27   16.47
   9   5   7   61.50    4.67
  -9  -5  -7   67.23    5.10
  -9   5  -7   74.35    5.08
   9  -5   7   70.96    4.87
 -10  -5  -7  121.17    7.14
 -10   5  -7  114.30    6.27
 -10   5  -7  118.34    6.66
  10  -5   7  118.59    6.64
 -11   5  -7   31.48    3.33
 -11  -5  -7   30.21    3.69
  11  -5   7   28.92    3.40
 -11   5  -7   25.69    3.18
  12  -5   7   15.85    2.81
 -12  -5  -7   15.97    2.85
 -12   5  -7   11.98    2.33
 -13  -5  -7    0.62    1.62
 -13   5  -7    0.57    1.12
  13  -5   7    1.56    1.41
 -14   5  -7   -0.72    1.07
 -19  -6   7   -0.08    1.29
 -18  -6   7    1.89    1.26
 -18   6   7    5.31    2.01
 -17  -6   7   40.76    4.20
 -17   6   7   41.27    4.85
 -16  -6   7   24.90    3.20
 -16   6   7   26.21    3.78
 -15  -6   7  202.39    8.94
 -15   6   7  225.84   10.74
 -14  -6   7   58.75    4.44
 -14   6   7   64.39    5.39
 -13  -6   7  274.42    9.88
 -13   6   7  268.56   11.26
 -12  -6   7  165.73    7.13
 -12   6   7  159.86    8.23
 -11  -6   7  239.73    8.51
 -11   6   7  235.89    9.96
 -10  -6   7    4.23    1.14
 -10   6   7    3.88    1.45
  -9  -6   7   13.91    1.75
  -9   6   7   16.54    2.51
  -8   6   7  131.99    3.38
  -8   6   7  133.89    6.76
  -8  -6   7  144.63    5.45
   7   6  -7  104.89    5.16
  -7   6   7  109.12    5.87
  -7  -6   7  110.84    4.48
   6  -6  -7  341.03    7.86
   6   6  -7  319.68    9.64
  -6   6   7  307.47   10.61
  -6  -6   7  331.98    8.44
   5   6  -7  179.01    6.52
  -5   6   7  160.68    7.15
  -5  -6   7  167.85    5.13
   4   6  -7   76.59    3.99
  -4   6   7   68.91    4.46
  -4  -6   7   75.05    2.91
  -3  -6   7   12.38    0.99
  -3   6   7   12.04    1.82
   2   6  -7    0.10    0.94
  -2   6   7   -0.06    0.65
   1   6  -7  105.40    2.53
   1   6  -7  135.20    6.27
   0  -6  -7   92.75    3.02
   0  -6  -7   93.54    4.89
   0   6  -7   94.26    5.20
   0   6  -7   79.74    2.37
  -1  -6  -7  177.91    7.20
  -1   6  -7  186.73    7.62
   1   6   7  178.19    6.98
  -1   6  -7  172.37    4.44
   2  -6   7  269.83    9.29
   2   6   7  267.03    9.11
  -2  -6  -7  275.59    9.34
  -2   6  -7  248.22    6.36
  -3  -6  -7  276.54    9.58
   3   6   7  292.42    9.75
  -3   6  -7  259.16    7.05
   3  -6   7  282.44    9.56
   4  -6   7   68.55    4.43
   4   6   7   65.49    4.43
  -4  -6  -7   71.48    4.62
  -5  -6  -7   93.01    5.44
   5   6   7   89.49    5.35
  -5   6  -7   95.28    5.28
   5  -6   7   92.30    5.22
  -6  -6  -7    3.23    1.27
   6   6   7    4.98    1.51
   6  -6   7    4.17    1.27
  -6   6  -7    4.89    1.33
   7  -6   7    9.44    1.72
  -7  -6  -7   10.07    1.94
   7   6   7   10.36    2.03
  -7   6  -7   10.73    1.98
   8  -6   7   39.25    3.59
  -8  -6  -7   32.19    3.50
   8   6   7   36.58    3.87
  -8   6  -7   38.14    3.63
  -9  -6  -7    1.67    1.17
   9  -6   7    0.67    0.89
  -9   6  -7   -1.78    1.09
 -10  -6  -7   28.82    3.57
 -10   6  -7   30.63    3.53
  10  -6   7   28.15    3.23
 -11  -6  -7   52.18    4.87
  11  -6   7   50.57    4.54
 -12  -6  -7   86.08    6.51
  12  -6   7   81.83    5.96
 -18  -7   7   62.53    5.42
 -18   7   7   62.26    6.18
 -17  -7   7  106.70    6.88
 -17   7   7  111.22    8.01
 -16  -7   7   19.25    2.92
 -16   7   7   20.21    3.37
 -15  -7   7   28.55    3.25
 -15   7   7   26.24    3.68
 -14  -7   7   44.18    3.86
 -14   7   7   39.86    4.35
 -13  -7   7  210.66    8.44
 -13   7   7  206.69    9.94
 -12  -7   7  248.43    8.93
 -12   7   7  245.18   10.59
 -11  -7   7  237.70    8.41
 -11   7   7  237.42   10.16
 -10  -7   7    1.99    0.85
 -10   7   7    0.31    0.90
  -9   7   7  228.29    9.43
  -9  -7   7  207.44    7.18
   8   7  -7   27.89    2.94
  -8   7   7   26.85    3.04
  -8  -7   7   28.21    2.30
  -7  -7   7    7.54    1.19
   7   7  -7    7.64    1.60
  -7   7   7    6.44    1.46
   6   7  -7    8.63    1.61
  -6   7   7    4.73    1.34
  -6  -7   7    9.49    1.16
   5   7  -7    4.69    1.18
  -5   7   7    5.45    1.53
  -5  -7   7    5.89    0.86
   4   7  -7  134.33    5.74
  -4   7   7  126.87    6.35
  -4  -7   7  127.51    3.67
  -3   7   7    0.50    0.67
   2   7  -7   75.33    4.90
  -2   7   7   74.03    4.67
   1   7  -7    3.92    1.28
   0  -7  -7  543.27   13.87
   0   7   7  495.24    8.70
   0   7  -7  526.08   14.69
  -1  -7  -7   99.30    5.32
  -1   7  -7  100.77    5.74
  -2  -7  -7  569.52   14.82
   2   7   7  553.93   14.96
   2  -7   7  560.36   15.03
  -3   7  -7   65.18    2.29
  -3  -7  -7   56.04    4.10
   3   7   7   62.41    4.42
   3  -7   7   64.05    4.41
   4  -7   7   57.71    4.24
  -4  -7  -7   64.16    4.47
   4   7   7   63.06    4.59
  -5   7  -7   72.49    3.06
  -5  -7  -7   69.13    4.72
   5   7   7   70.31    4.93
   5  -7   7   64.84    4.49
  -6  -7  -7   46.86    4.00
   6   7   7   44.06    4.02
   6  -7   7   40.11    3.54
  -7  -7  -7    3.01    1.20
   7  -7   7    3.67    1.33
   7   7   7    5.66    1.69
   8  -7   7   12.83    2.16
  -8  -7  -7   16.42    2.57
   8   7   7   15.44    2.63
   9  -7   7   43.66    4.04
  -9  -7  -7   42.73    4.22
   9   7   7   44.76    4.54
 -10  -7  -7    3.40    1.78
  10  -7   7    0.57    1.07
  10   7   7    1.00    1.00
 -11  -7  -7    0.84    1.22
  11  -7   7    2.59    1.56
  11   7   7   -0.02    1.63
 -12  -7  -7   47.20    4.93
  12   7   7   43.94    5.11
  12  -7   7   55.06    4.95
 -18  -8   7   -0.65    1.47
 -18   8   7    1.27    1.59
 -17  -8   7    1.71    1.34
 -17   8   7    1.29    1.51
 -16  -8   7   25.82    3.27
 -16   8   7   29.88    4.15
 -15  -8   7    0.69    1.13
 -15   8   7    3.20    1.87
 -14  -8   7    3.19    1.26
 -14   8   7    3.31    1.85
 -13  -8   7  160.51    7.25
 -13   8   7  157.17    8.74
 -12  -8   7   -0.07    0.71
 -12   8   7    0.61    1.16
 -11  -8   7   29.91    2.76
 -11   8   7   31.41    3.70
  10   8  -7  120.63    6.80
 -10   8   7  119.84    6.98
 -10  -8   7  126.98    5.60
  -9  -8   7    5.20    1.08
   9   8  -7    2.57    1.15
  -9   8   7    4.90    1.55
  -8  -8   7    0.85    0.57
   8   8  -7    1.80    1.10
  -8   8   7    0.91    0.91
   7   8  -7  114.10    6.11
  -7   8   7  114.72    6.47
  -7  -8   7  129.13    4.66
   6   8  -7  398.11   12.14
  -6   8   7  379.48   12.52
  -6  -8   7  392.38    9.06
   5   8  -7    3.83    1.25
  -5   8   7    2.76    1.21
  -4   8   7  434.47   13.23
   3   8  -7   -0.51    0.82
  -3   8   7    4.03    1.37
   2   8  -7   -0.54    0.83
  -2   8   7    2.28    1.08
   1   8  -7  107.33    6.24
   0   8   7   18.49    1.04
   0   8  -7   18.78    2.55
   0  -8  -7   18.61    2.28
  -1  -8  -7   48.54    3.70
  -1   8  -7   43.37    3.92
   1   8   7   44.79    2.01
  -2  -8  -7   48.67    3.78
  -2   8  -7   44.55    3.94
   2  -8   7   44.38    3.82
   2   8   7   43.12    3.80
   3   8   7   71.55    5.00
   3  -8   7   72.81    4.88
   4  -8   7   16.46    2.47
  -4  -8  -7   15.12    2.21
   4   8   7   10.84    2.08
  -5  -8  -7    0.80    0.93
   5   8   7   -0.11    0.94
   5  -8   7    0.05    0.67
  -6  -8  -7    0.82    0.86
   6   8   7   -1.47    1.06
   6  -8   7    0.22    0.89
  -7  -8  -7   12.89    2.32
   7  -8   7   12.36    2.29
   7   8   7   11.01    2.29
   8  -8   7    5.15    1.57
  -8  -8  -7    4.77    1.55
   8   8   7    3.09    1.62
  -9  -8  -7   10.03    2.22
   9   8   7    8.49    2.26
   9  -8   7   11.74    2.15
 -10  -8  -7    2.19    1.48
  10  -8   7    3.73    1.35
  10   8   7   -0.84    1.26
 -11  -8  -7   53.52    5.11
  11   8   7   42.40    4.84
  11  -8   7   56.62    4.99
  12   8   7    7.04    2.02
 -17   9   7    0.70    1.51
 -16   9   7    3.60    1.82
 -15   9   7  124.46    8.33
 -14   9   7    1.31    1.57
  13   9  -7   77.38    6.18
 -13   9   7   69.61    5.82
  12   9  -7   19.94    3.07
 -12   9   7   16.99    2.78
  11   9  -7    4.43    1.65
 -11   9   7    4.91    1.68
  10   9  -7   42.75    4.15
 -10   9   7   52.19    4.65
   9   9  -7   22.13    2.92
  -9   9   7   23.75    3.12
   8   9  -7   95.92    5.99
  -8   9   7  109.59    6.51
   7   9  -7   31.97    3.40
  -7   9   7   33.05    3.52
   6   9  -7   62.50    4.57
  -6   9   7   73.54    5.05
  -5   9   7    0.30    0.81
  -4   9   7  313.31   11.10
   3   9  -7   74.78    5.44
  -3   9   7   72.97    4.86
   2   9  -7  124.98    7.10
   1   9  -7  459.24   14.80
   0   9  -7   10.15    2.13
   0  -9  -7   11.89    1.91
  -1  -9  -7   41.00    3.54
  -1   9  -7   56.91    4.65
  -2   9  -7  260.67   10.25
   2  -9   7  255.20    9.91
   3   9   7   33.60    3.63
   3  -9   7   35.95    3.64
   4   9   7   68.00    5.24
   4  -9   7   73.16    5.06
  -5  -9  -7    1.93    1.18
   5   9   7    3.25    1.41
   5  -9   7    3.87    1.31
  -6  -9  -7  248.78   10.18
   6   9   7  254.81   11.13
   6  -9   7  266.61   10.32
  -7  -9  -7  105.84    6.48
   7   9   7  115.89    7.46
   7  -9   7  118.25    6.80
  -8  -9  -7   55.11    4.78
   8  -9   7   59.34    4.79
   8   9   7   59.84    5.49
   9  -9   7   96.57    6.24
  -9  -9  -7   89.70    6.33
   9   9   7   88.16    6.85
 -10  -9  -7   20.25    3.12
  10   9   7   16.55    3.37
  10  -9   7   18.60    2.86
  11  -9   7   13.78    2.57
  11   9   7   12.34    2.92
  12   9   7    2.90    1.81
 -17  10   7   -1.17    1.69
  16  10  -7   12.41    2.98
 -16  10   7   15.14    3.12
  15  10  -7   13.11    3.11
 -15  10   7   12.53    2.84
  14  10  -7   13.51    2.88
 -14  10   7   12.12    2.75
  13  10  -7    9.01    2.47
 -13  10   7    9.42    2.32
  12  10  -7   72.89    5.93
 -12  10   7   67.83    5.67
  11  10  -7    6.64    2.00
 -11  10   7    8.03    2.04
  10  10  -7   36.18    4.06
 -10  10   7   29.74    3.51
   9  10  -7    8.51    2.10
  -9  10   7   10.30    2.23
   8  10  -7   18.63    2.76
  -8  10   7   18.97    2.88
   7  10  -7   -0.15    0.94
  -7  10   7   -0.74    1.09
   6  10  -7   18.98    2.76
  -6  10   7   18.91    2.79
  -5  10   7   13.18    2.24
  -4  10   7   25.61    3.00
   3  10  -7  240.50   10.69
  -3  10   7  251.43    9.86
   2  10  -7   10.66    2.24
   1  10  -7  142.38    7.95
   0 -10  -7  104.87    5.63
   0  10  -7   97.03    6.42
  -1  10  -7    6.43    2.00
  -1 -10  -7    4.05    1.25
  -2 -10  -7  100.25    5.84
  -2  10  -7  114.28    6.86
   2 -10   7   99.14    6.26
   3 -10   7   -0.84    0.98
  -3 -10  -7    0.09    0.89
  -4 -10  -7   22.17    2.81
   4  10   7   30.98    3.75
   4 -10   7   32.14    3.48
  -5 -10  -7    1.10    0.73
   5  10   7    3.85    1.62
   5 -10   7    2.73    1.38
   6 -10   7   16.82    2.55
  -6 -10  -7   14.82    2.49
   6  10   7   22.13    3.38
  -7 -10  -7    5.40    1.61
   7  10   7    4.99    2.02
   7 -10   7    3.95    1.44
   8 -10   7   26.63    3.26
  -8 -10  -7   25.70    3.37
   8  10   7   24.64    3.76
  -9 -10  -7    9.37    2.21
   9  10   7    7.14    2.23
   9 -10   7   11.12    2.29
 -10 -10  -7   20.26    3.30
  10  10   7   19.92    3.70
  10 -10   7   21.77    3.20
  11  10   7    8.47    2.42
 -16  11   7   -0.95    1.62
  15  11  -7    7.52    2.51
 -15  11   7   15.83    3.19
  14  11  -7   -0.95    1.77
 -14  11   7    0.19    1.20
  13  11  -7   67.85    4.52
  13  11  -7   72.07    6.40
 -13  11   7   75.90    6.30
  12  11  -7    0.36    1.31
 -12  11   7    3.10    1.56
  11  11  -7    8.44    2.33
 -11  11   7    6.18    1.83
  10  11  -7   42.51    4.47
 -10  11   7   38.15    4.11
   9  11  -7   82.97    6.24
  -9  11   7   93.52    6.37
   8  11  -7   42.78    4.45
  -8  11   7   45.11    4.37
   7  11  -7   28.03    3.44
  -7  11   7   24.09    3.13
  -6  11   7   73.61    5.35
  -5  11   7   16.31    2.55
   4  11  -7   57.37    5.27
  -4  11   7   59.26    4.71
   3  11  -7  147.15    8.44
   2  11  -7    0.89    1.08
   1  11  -7  119.67    7.43
   0  11  -7   15.24    2.71
  -1 -11  -7   80.29    5.14
  -1  11  -7   70.64    5.67
  -2 -11  -7   14.67    2.20
   2 -11   7   17.25    2.87
  -3 -11  -7   22.43    2.95
   3 -11   7   22.08    3.04
   4 -11   7    0.74    1.11
  -4 -11  -7   -0.22    1.02
  -5 -11  -7    3.32    1.39
   5  11   7    4.35    1.82
   5 -11   7    6.64    1.85
   6  11   7   25.84    3.76
   6 -11   7   30.95    3.54
  -6 -11  -7   19.72    2.96
  -7 -11  -7   99.67    6.70
   7  11   7  107.07    7.75
  -8  11  -7   36.29    3.40
  -8 -11  -7   27.29    3.66
   8 -11   7   33.39    3.85
   8  11   7   31.26    4.38
   9 -11   7   28.64    3.59
  -9 -11  -7   21.99    3.35
   9  11   7   29.97    4.32
  13  12  -7   12.47    2.89
 -13  12   7   13.94    2.94
  12  12  -7    1.12    0.82
  12  12  -7    0.82    1.15
 -12  12   7    1.21    1.64
  11  12  -7   49.51    4.06
  11  12  -7   58.76    5.71
 -11  12   7   52.33    5.12
  10  12  -7  130.42    8.35
 -10  12   7  145.35    8.30
   9  12  -7   16.73    3.14
  -9  12   7   16.01    2.83
   8  12  -7   71.88    5.95
  -8  12   7   77.55    5.84
  -7  12   7    0.10    1.02
  -6  12   7  263.02   10.80
   5  12  -7   17.49    3.21
  -5  12   7   18.26    2.88
   4  12  -7  116.02    7.76
   3  12  -7    3.90    1.77
   2  12  -7  115.70    7.67
   1  12  -7  232.25   11.03
   0  12  -7   96.62    6.94
  -1  12  -7    8.52    2.20
   2 -12   7    4.42    1.52
  -2 -12  -7    4.22    1.32
  -3 -12  -7   33.43    3.64
   3 -12   7   32.23    3.77
  -4 -12  -7   42.44    4.17
   4 -12   7   48.34    4.59
  -5 -12  -7   20.54    3.16
   5 -12   7   18.63    2.86
   6 -12   7    0.41    0.87
  -6  12  -7    2.24    1.25
  -6 -12  -7    2.06    1.21
   6  12   7    1.40    1.53
  -7  12  -7   15.82    2.56
  -7 -12  -7   19.95    3.13
   7  12   7   20.19    3.70
   7 -12   7   20.03    3.05
  -8  12  -7    3.11    1.37
   8 -12   7    3.91    1.71
  -8 -12  -7    4.04    1.66
   8  12   7    3.24    2.00
  12  13  -7  161.09    7.87
  12  13  -7  164.06   10.16
  11  13  -7   41.15    3.91
  11  13  -7   37.50    4.71
  10  13  -7   44.16    5.12
  10  13  -7   48.95    4.19
   9  13  -7   22.30    2.83
   9  13  -7   23.39    3.61
  -9  13   7   25.49    3.50
  -8  13   7    1.03    1.35
  -7  13   7   -1.15    1.14
  -6  13   7   75.17    5.59
   5  13  -7   31.80    4.28
   4  13  -7   73.51    6.39
   3  13  -7   14.85    2.88
   2  13  -7  140.39    8.71
   1  13  -7    4.47    1.88
   0  13  -7  193.37   10.39
  -1  13  -7    9.28    2.51
   2 -13   7  244.57   11.19
   3 -13   7   18.16    2.94
  -4  13  -7   60.07    4.72
   4 -13   7   68.07    5.62
  -5  13  -7   37.05    3.77
   5 -13   7   37.06    4.15
  -6  13  -7   55.35    4.61
  -6 -13  -7   44.06    4.73
   6 -13   7   50.39    4.83
  -7  13  -7  317.15   11.65
  -7 -13  -7  270.17   12.25
  10  14  -7   52.83    4.63
  10  14  -7   51.15    5.58
   9  14  -7    0.81    1.28
   8  14  -7  113.39    6.69
   7  14  -7    1.87    1.55
   6  14  -7  188.73    8.80
   6  14  -7  185.10   10.85
   5  14  -7    8.76    2.05
   5  14  -7    8.92    2.47
   4  14  -7  113.38    6.70
   4  14  -7  119.06    8.44
   3  14  -7   17.20    2.75
   3  14  -7    9.85    2.54
   2  14  -7   53.47    4.59
   2  14  -7   46.88    5.33
   1  14  -7    1.49    1.36
   1  14  -7    0.22    1.26
   0  14  -7  106.84    6.53
   0  14  -7   96.28    7.45
  -1  14  -7    7.85    1.96
  -1  14  -7    7.47    2.15
   1 -14   7    7.52    1.82
  -2  14  -7   10.38    2.09
   2 -14   7    8.23    2.07
  -3  14  -7   58.73    4.90
   3 -14   7   62.04    5.47
  -4  14  -7   81.12    5.75
   4 -14   7   70.83    5.96
   5 -14   7   16.27    2.95
   1 -15   7    2.54    1.44
   2 -15   7    2.57    1.42
 -19   0   8   18.74    3.22
 -18   0   8    6.56    2.13
 -17   0   8   11.68    2.57
 -16   0   8  126.86    7.53
 -15   0   8   40.80    4.11
 -14   0   8   61.97    4.93
 -13   0   8  177.46    8.27
 -12   0   8 1043.18   24.40
 -11   0   8    6.69    1.54
 -10   0   8  186.62    7.85
  -9   0   8   70.12    4.47
   8   0  -8  944.25   16.24
  -8   0   8  937.88   21.12
  -7   0   8  917.91   20.24
   7   0  -8  898.74   16.07
  -6   0   8 1180.63   24.37
  -5   0   8   53.15    3.44
  -4   0   8    3.28    0.89
  -3   0   8  332.84    9.63
   2   0  -8  169.18    5.24
  -2   0   8  163.10    6.26
  -1   0   8  174.56    5.75
  -1   0   8  172.55    6.48
   0   0   8  166.11    5.59
   1   0   8  622.85   11.38
   1   0   8  626.28   13.75
   2   0   8  377.86    9.78
   3   0   8   52.95    3.13
  -3   0  -8   51.19    3.80
  -4   0  -8    3.06    1.04
   4   0   8    4.01    0.99
  -5   0  -8  311.48   10.77
   5   0   8  305.42    9.31
  -6   0  -8  425.83   13.27
   6   0   8  409.85   11.60
  -7   0  -8  108.47    6.27
   7   0   8   96.11    5.19
  -8   0  -8  455.73   14.31
   8   0   8  415.98   12.66
  -9   0  -8  413.86   13.83
   9   0   8  385.62   12.59
 -10   0  -8  104.60    6.68
  10   0   8   98.29    6.03
 -11   0  -8   36.52    3.98
  11   0   8   34.47    3.73
 -12   0  -8   67.90    5.71
  12   0   8   63.90    5.19
 -13   0  -8  219.58   10.79
  13   0   8  210.46   10.20
 -13   0  -8  222.33    9.90
 -14   0  -8   60.88    5.76
 -14   0  -8   50.69    4.75
 -19   1   8   17.42    3.29
 -19  -1   8   16.14    3.17
 -18   1   8   66.00    5.89
 -18  -1   8   57.68    5.35
 -17   1   8   -1.58    1.27
 -17  -1   8   -0.04    1.03
 -16   1   8   65.24    5.47
 -16  -1   8   71.43    5.57
 -15   1   8  280.42   11.42
 -15  -1   8  275.17   11.07
 -14   1   8  468.05   15.00
 -14  -1   8  446.13   14.43
 -13   1   8    4.77    1.60
 -13  -1   8    4.46    1.45
 -12   1   8   85.66    5.57
 -12  -1   8   92.52    5.54
 -11  -1   8   22.20    2.69
 -11   1   8   18.45    2.63
 -10   1   8   85.72    5.24
 -10  -1   8   88.80    5.10
  -9   1   8  172.52    7.28
  -9  -1   8  175.39    7.06
  -8   1   8  276.80    9.45
  -8  -1   8  253.87    8.74
   7   1  -8  136.92    3.87
  -7   1   8  144.05    6.33
  -7  -1   8  146.34    6.07
  -6   1   8  194.93    7.41
  -6  -1   8  202.42    7.19
   6   1  -8  210.06    5.30
  -5   1   8  208.08    7.63
  -5  -1   8  229.38    7.51
   5   1  -8  219.99    5.79
  -4   1   8  227.20    7.85
  -4  -1   8  218.03    7.28
   4   1  -8  218.94    6.04
   3  -1  -8  261.53    5.75
   3  -1  -8  263.16    6.38
  -3   1   8  246.50    8.29
  -3  -1   8  256.09    7.98
   2  -1  -8   59.55    2.53
   2   1  -8   52.86    2.94
  -2  -1   8   56.18    3.35
  -2   1   8   46.44    3.29
  -2   1   8   55.48    2.75
  -1   1   8   60.72    2.90
   1   1  -8   57.66    3.13
  -1  -1   8   60.69    3.47
  -1   1   8   63.00    3.72
   0   1   8  291.01    7.62
   0  -1   8  301.21    8.44
   1  -1   8  407.19   10.51
   1   1   8  404.86    8.62
   1   1   8  416.46    9.92
   2   1   8  250.97    7.28
   2   1   8  263.98    6.63
   2  -1   8  249.59    7.77
  -3  -1  -8   70.64    4.56
   3  -1   8   71.17    3.86
   3   1   8   70.11    3.58
   4  -1   8   15.05    1.84
  -4   1  -8   14.51    2.11
  -4  -1  -8   14.39    2.12
   4   1   8   17.78    1.88
   5  -1   8  401.31   11.19
  -5  -1  -8  407.52   12.62
  -5   1  -8  387.14   12.14
   5   1   8  369.33   10.55
  -6  -1  -8   45.95    3.89
  -6   1  -8   36.99    3.49
   6   1   8   41.19    3.15
   6  -1   8   43.09    3.27
  -7  -1  -8  109.22    6.29
  -7   1  -8  100.14    5.92
   7   1   8   93.89    5.12
   7  -1   8  101.87    5.35
  -8  -1  -8  120.11    6.85
  -8   1  -8  112.84    6.55
   8   1   8  109.74    5.91
   8  -1   8  111.16    5.89
  -9  -1  -8  247.86   10.40
  -9   1  -8  259.98   10.54
   9   1   8  238.55    9.35
   9  -1   8  241.96    9.47
 -10  -1  -8   72.94    5.56
 -10   1  -8   67.44    5.36
  10   1   8   63.38    4.75
  10  -1   8   71.55    5.16
 -11   1  -8    8.89    1.94
 -11  -1  -8    5.33    1.70
 -11   1  -8    9.56    2.24
  11   1   8    6.56    1.78
  11  -1   8    8.64    1.93
 -12   1  -8   17.67    2.74
 -12  -1  -8   20.51    3.26
 -12   1  -8   19.08    3.02
  12   1   8   18.70    2.96
  12  -1   8   20.93    2.97
 -13   1  -8   20.19    2.95
 -13  -1  -8   19.58    3.33
 -13   1  -8   20.65    3.22
  13   1   8   18.70    2.99
  13  -1   8   16.06    2.86
 -14   1  -8   32.51    3.73
 -14  -1  -8   33.45    4.30
 -14   1  -8   34.08    4.26
 -19   2   8  127.35    8.62
 -19  -2   8  120.38    8.04
 -18   2   8  151.55    9.11
 -18  -2   8  156.82    8.88
 -17   2   8   42.85    4.66
 -17  -2   8   49.65    4.78
 -16   2   8   54.03    5.06
 -16  -2   8   53.37    4.77
 -15   2   8   36.52    4.04
 -15  -2   8   40.27    3.99
 -14   2   8   21.38    3.00
 -14  -2   8   18.45    2.65
 -13   2   8   52.05    4.50
 -13  -2   8   59.67    4.52
 -12   2   8  322.26   11.57
 -12  -2   8  295.51   10.59
 -11   2   8   93.40    5.72
 -11  -2   8   93.42    5.35
 -10   2   8  581.78   15.89
 -10  -2   8  560.45   15.01
  -9   2   8   85.96    5.15
  -9  -2   8   86.37    4.82
  -8   2   8   22.78    2.55
  -8  -2   8   21.96    2.30
  -7   2   8  137.67    6.33
  -7  -2   8  142.78    5.87
  -6   2   8 1572.63   32.10
   6   2  -8 1657.50   28.41
  -6  -2   8 1634.13   31.06
  -5   2   8    3.41    1.09
  -5  -2   8    2.52    0.87
   5   2  -8    3.28    0.74
  -4   2   8 1903.64   34.45
   4   2  -8 1971.19   31.19
   3  -2  -8  282.86    6.63
  -3   2   8  281.99    6.53
  -3   2   8  272.52    8.81
  -3  -2   8  286.93    8.06
   3   2  -8  277.35    7.24
  -2   2   8   27.02    1.68
   2   2  -8   26.30    2.23
  -2  -2   8   28.07    2.22
  -2   2   8   25.78    2.46
   2   2  -8   26.75    2.04
   1   2  -8  139.52    5.38
  -1   2   8  141.44    6.00
  -1   2   8  143.38    4.40
   1   2  -8  142.22    5.21
   0   2   8  742.38   14.49
   0  -2   8  720.56   16.34
   0   2  -8  754.53   16.29
   0   2  -8  706.10   15.82
  -1   2  -8    9.37    1.44
   1   2   8    8.28    0.99
   1  -2   8    7.73    1.30
   1   2   8    9.75    1.08
   1   2   8    8.65    1.04
   2  -2   8  676.21   15.52
   2   2   8  654.88   13.99
  -2   2  -8  691.31   15.65
   2   2   8  690.03   14.37
  -3  -2  -8   37.16    3.28
   3  -2   8   34.40    2.74
   3   2   8   39.59    2.61
  -3   2  -8   35.29    2.82
  -4  -2  -8   94.55    5.48
   4  -2   8  103.13    4.92
   4   2   8   96.18    4.39
  -4   2  -8   93.19    4.83
   5  -2   8   79.07    4.37
  -5   2  -8   69.37    4.59
   5   2   8   70.35    3.94
  -5   2  -8   68.65    4.27
   6  -2   8  308.37   10.01
  -6  -2  -8  307.46   11.09
  -6   2  -8  313.21   10.77
   6   2   8  296.07    9.50
  -6   2  -8  312.96   10.20
  -7  -2  -8  224.65    9.33
  -7   2  -8  207.48    8.76
   7   2   8  214.01    8.12
  -7   2  -8  210.81    8.36
   7  -2   8  214.19    8.19
  -8   2  -8    7.74    1.80
  -8  -2  -8    5.62    1.61
  -8   2  -8    4.20    1.50
   8  -2   8    4.97    1.44
   8   2   8    6.70    1.47
  -9   2  -8    4.09    1.45
   9  -2   8    5.88    1.55
  -9  -2  -8    8.78    1.97
  -9   2  -8    9.33    2.17
   9   2   8    5.64    1.46
 -10   2  -8   20.60    2.83
  10  -2   8   22.40    2.89
  10   2   8   23.90    2.95
 -10  -2  -8   16.67    2.80
 -10   2  -8   13.95    2.57
 -11  -2  -8  120.15    7.41
  11   2   8  110.97    6.71
 -11   2  -8  121.25    7.29
  11  -2   8  122.35    7.14
 -11   2  -8  114.85    6.68
 -12   2  -8   23.21    3.07
 -12  -2  -8   25.44    3.63
 -12   2  -8   26.76    3.56
  12   2   8   20.75    3.09
  12  -2   8   19.08    2.95
 -13  -2  -8   43.88    4.79
  13  -2   8   39.83    4.30
  13   2   8   34.37    4.02
 -13   2  -8   39.12    4.37
 -13   2  -8   38.83    4.08
 -14   2  -8   29.53    3.96
 -14   2  -8   27.83    3.52
 -15   2  -8   -2.67    1.89
 -19   3   8   43.08    5.07
 -19  -3   8   41.21    4.65
 -18   3   8    6.60    2.05
 -18  -3   8    9.87    2.43
 -17   3   8   55.58    5.41
 -17  -3   8   37.57    4.20
 -16   3   8   63.47    5.53
 -16  -3   8   62.77    5.17
 -15  -3   8   11.77    2.29
 -15   3   8   16.34    2.93
 -14   3   8  107.63    6.88
 -14  -3   8  106.67    6.27
 -13   3   8   52.26    4.63
 -13  -3   8   51.32    4.16
 -12  -3   8    0.96    1.08
 -12   3   8   -0.12    1.10
 -11   3   8  745.95   19.70
 -11  -3   8  772.45   18.66
 -10   3   8   61.34    4.52
 -10  -3   8   60.82    4.08
  -9   3   8   64.92    4.56
  -9  -3   8   69.62    4.19
  -8   3   8   26.77    1.72
  -8   3   8   28.35    2.95
  -8  -3   8   28.03    2.53
  -7   3   8  268.84    9.61
  -7  -3   8  294.17    8.78
  -6   3   8    7.92    1.64
  -6  -3   8    8.46    1.32
  -5   3   8  199.91    7.79
  -5  -3   8  202.20    6.65
  -4   3   8  218.13    4.98
  -4   3   8  211.96    7.91
  -4  -3   8  234.30    6.94
   4   3  -8  226.03    6.34
  -3  -3   8  850.24   17.08
   3   3  -8  810.93   16.69
  -3   3   8  821.60   14.67
  -2   3   8  550.05   10.83
   2   3  -8  539.13   13.56
   2  -3  -8  577.43   12.18
  -2  -3   8  567.32   12.53
  -2   3   8  553.78   14.33
   2   3  -8  555.42   12.67
  -1   3   8   20.20    1.38
   1   3  -8   22.33    2.21
  -1   3   8   19.51    2.22
   1   3  -8   22.75    1.99
   0   3  -8   11.29    1.60
   0  -3   8   11.68    0.79
   0   3   8   11.43    1.10
   0   3  -8    9.40    1.35
  -1  -3  -8  136.87    6.27
   1   3   8  131.56    4.88
   1   3   8  138.33    4.00
   1   3   8  130.05    4.43
  -1   3  -8  138.41    5.55
   1  -3   8  138.44    5.84
   2  -3   8   57.93    3.70
   2   3   8   56.64    2.62
   2   3   8   62.42    3.31
  -2  -3  -8   57.43    4.07
   2   3   8   60.12    3.00
  -2   3  -8   63.80    3.74
   3   3   8   67.88    3.46
  -3  -3  -8   68.29    4.56
   3   3   8   59.15    3.42
  -3   3  -8   69.61    4.05
   3  -3   8   70.44    4.11
  -4  -3  -8   35.22    3.33
   4   3   8   32.61    2.55
   4   3   8   34.71    2.71
   4  -3   8   31.92    2.85
  -4   3  -8   32.13    2.87
  -5  -3  -8  417.32   13.21
   5  -3   8  419.81   12.04
   5   3   8  432.96   11.53
  -5   3  -8  430.64   12.33
  -6   3  -8    9.19    1.68
  -6  -3  -8   12.96    2.16
   6   3   8   13.03    1.82
   6  -3   8   10.14    1.67
  -7   3  -8    7.89    1.65
  -7  -3  -8    9.20    1.89
  -7   3  -8    7.19    1.50
   7   3   8   11.06    1.76
   7  -3   8    9.36    1.73
  -8   3  -8    7.53    1.67
  -8  -3  -8    6.16    1.69
  -8   3  -8    7.73    1.88
   8  -3   8    8.15    1.74
   8   3   8    6.47    1.43
  -9  -3  -8    5.42    1.67
  -9   3  -8    4.01    1.43
   9  -3   8    4.41    1.47
   9   3   8    7.85    1.75
  -9   3  -8    5.37    1.53
  10  -3   8    7.37    1.67
 -10  -3  -8    8.30    1.99
 -10   3  -8    6.77    1.82
  10   3   8    7.06    1.72
 -10   3  -8    9.55    2.04
  11  -3   8    7.63    1.93
 -11  -3  -8    7.73    2.07
 -11   3  -8    4.89    1.49
  11   3   8    6.86    1.81
 -11   3  -8    7.67    1.86
 -12  -3  -8    4.06    2.05
 -12   3  -8    1.99    1.06
  12   3   8    3.36    1.44
  12  -3   8    0.45    0.84
 -12   3  -8    2.24    1.33
 -13   3  -8   12.97    2.55
 -13  -3  -8   17.07    3.14
  13   3   8   12.20    2.68
 -13   3  -8   12.91    2.59
 -14   3  -8   44.14    4.79
 -14   3  -8   52.47    4.88
 -19  -4   8    2.48    1.58
 -19   4   8    6.66    2.20
 -18   4   8  119.67    8.31
 -18  -4   8  115.89    7.56
 -17  -4   8   16.92    2.95
 -17   4   8   24.27    3.79
 -16  -4   8    0.72    1.01
 -16   4   8    3.56    1.50
 -15   4   8   65.30    5.57
 -15  -4   8   68.00    5.10
 -14  -4   8    1.70    1.20
 -14   4   8    1.21    1.01
 -13  -4   8    0.84    1.10
 -13   4   8   -1.42    1.42
 -12   4   8  265.05   10.81
 -12  -4   8  281.85    9.97
 -11   4   8   33.72    3.50
 -11  -4   8   30.58    2.95
 -10   4   8  195.89    8.57
 -10  -4   8  193.86    7.52
  -9   4   8  273.30    6.66
  -9   4   8  284.09   10.40
  -9  -4   8  297.17    9.31
  -8   4   8  328.70    7.16
  -8   4   8  321.49   11.07
  -8  -4   8  341.85    9.84
  -7   4   8  143.13    3.64
  -7   4   8  141.35    6.74
  -7  -4   8  152.59    5.82
  -6   4   8    5.87    0.53
  -6   4   8    3.88    1.18
  -6  -4   8    4.69    0.95
  -5   4   8  168.63    7.22
  -5  -4   8  176.07    5.87
  -5   4   8  159.02    3.58
   4   4  -8  189.09    5.40
  -4   4   8  186.02    7.53
  -4  -4   8  185.38    5.97
  -4   4   8  183.86    3.80
  -3   4   8  300.49   10.05
  -3  -4   8  319.34    8.25
   3   4  -8  320.49    8.64
  -3   4   8  321.03    6.18
   2   4  -8  668.56   16.40
  -2  -4   8  705.17   14.32
  -2   4   8  657.47   16.79
  -2   4   8  688.52   12.43
   2   4  -8  704.31   15.29
   2   4  -8  692.11   13.99
   1   4  -8  311.14    9.73
  -1   4   8  299.93   10.06
  -1   4   8  321.90    6.99
   1   4  -8  329.50    9.16
   0  -4   8    1.66    0.45
   0   4  -8    1.68    0.79
   0   4   8    1.09    0.38
   1  -4   8   16.99    2.14
   1  -4   8   18.63    1.45
  -1  -4  -8   18.29    2.32
   1   4   8   19.55    1.94
   1   4   8   18.83    1.13
   1   4   8   18.12    1.52
  -1   4  -8   18.24    1.99
  -2  -4  -8   97.69    5.39
   2   4   8   95.03    3.89
   2   4   8   90.30    4.37
   2  -4   8   96.97    5.04
  -2   4  -8   92.28    4.73
  -3  -4  -8    0.27    1.00
   3   4   8    1.07    0.74
   3   4   8   -0.12    0.45
   3  -4   8   -0.43    0.64
  -3   4  -8    0.77    0.73
   4  -4   8    3.48    1.21
  -4  -4  -8    3.34    1.37
   4   4   8    3.68    1.15
   4   4   8    3.28    0.93
  -4   4  -8    4.40    1.18
  -5  -4  -8   14.38    2.22
   5  -4   8   16.37    2.17
   5   4   8   13.94    1.81
   5   4   8   15.05    2.01
  -5   4  -8   16.10    2.13
   6  -4   8   21.48    2.47
   6   4   8   21.70    2.34
  -6  -4  -8   23.67    2.97
  -6   4  -8   20.79    2.45
   7  -4   8  146.81    6.87
   7   4   8  148.22    6.63
  -7  -4  -8  143.85    7.51
  -7   4  -8  147.97    7.02
   8   4   8   70.94    4.74
  -8  -4  -8   70.81    5.29
  -8   4  -8   70.03    4.89
   8  -4   8   70.13    4.80
  -9   4  -8    0.91    0.97
  -9  -4  -8    1.33    1.04
   9   4   8   -0.74    0.96
   9  -4   8    1.00    0.94
  -9   4  -8    2.53    1.42
  10   4   8   40.96    3.94
 -10  -4  -8   33.04    3.89
 -10   4  -8   37.18    3.80
  10  -4   8   37.77    3.78
 -10   4  -8   34.99    3.62
  11  -4   8    1.79    1.27
 -11  -4  -8    2.41    1.21
 -11   4  -8    0.67    1.06
  11   4   8    0.67    0.90
 -11   4  -8   -0.33    1.03
  12  -4   8   25.28    3.43
 -12  -4  -8   23.12    3.44
 -12   4  -8   24.40    3.33
  12   4   8   22.23    3.29
 -12   4  -8   28.51    3.59
  13   4   8   13.52    2.64
 -13   4  -8   15.46    2.76
 -14   4  -8    7.50    2.06
 -19  -5   8   72.63    6.20
 -18  -5   8    8.31    2.30
 -18   5   8    6.42    2.00
 -17  -5   8   14.49    2.65
 -17   5   8   17.51    3.23
 -16   5   8  161.00    9.33
 -16  -5   8  167.15    8.52
 -15   5   8   59.34    5.41
 -15  -5   8   54.36    4.57
 -14  -5   8   15.38    2.46
 -14   5   8   15.04    2.81
 -13   5   8   75.91    5.79
 -13  -5   8   81.16    5.18
 -12   5   8  398.33   13.91
 -12  -5   8  406.07   12.38
 -11   5   8   82.87    5.75
 -11  -5   8   93.65    5.14
 -10  -5   8   10.29    1.70
 -10   5   8   15.01    2.43
  -9  -5   8   10.24    1.66
  -9   5   8   11.48    2.11
  -8   5   8  106.31    2.81
  -8   5   8   92.43    5.65
  -8  -5   8  101.63    4.76
  -7   5   8  360.94    6.47
  -7   5   8  389.23   12.22
  -7  -5   8  399.56   10.22
   6   5  -8   66.16    3.55
  -6   5   8   68.40    4.58
  -6  -5   8   64.14    3.38
   5   5  -8    0.40    0.44
  -5   5   8   -0.10    0.73
  -5  -5   8   -0.30    0.41
   4   5  -8    6.75    0.85
   4   5  -8    5.05    0.98
  -4   5   8    6.10    1.38
  -4  -5   8    6.62    0.99
  -3  -5   8  328.36    7.88
  -3   5   8  302.04   10.28
   3   5  -8  312.68    7.17
  -2   5   8  195.06    4.30
   2   5  -8  196.83    7.79
  -2   5   8  195.48    7.92
   2   5  -8  197.81    5.20
   1   5  -8    0.05    0.68
  -1   5   8    0.78    0.33
   1   5  -8    0.55    0.34
   0   5   8  127.50    3.98
   0   5  -8  124.27    5.98
   0  -5   8  133.23    4.51
   0   5  -8  126.69    5.50
   0   5  -8  125.82    4.25
   1   5   8  591.00   12.39
  -1  -5  -8  596.17   15.66
   1   5   8  583.89   14.35
  -1   5  -8  614.59   15.53
   1  -5   8  577.80   12.64
   1   5   8  588.98   10.54
   1  -5   8  592.73   15.31
  -1   5  -8  562.58   12.49
  -1   5  -8  615.45   14.78
  -2  -5  -8    6.25    1.51
   2   5   8    9.05    1.21
   2   5   8    6.47    1.34
   2  -5   8    7.60    1.50
  -2   5  -8   10.84    1.70
   3   5   8  103.85    4.41
  -3  -5  -8   96.75    5.65
   3  -5   8   94.30    5.23
   3   5   8  101.30    5.15
  -3   5  -8   95.39    5.15
   4   5   8  278.96    8.47
  -4  -5  -8  278.13   10.29
   4   5   8  273.87    9.43
  -4   5  -8  295.76    9.80
   4  -5   8  279.90    9.62
   5   5   8  588.88   14.55
  -5  -5  -8  589.73   16.56
   5   5   8  582.67   15.51
   5  -5   8  593.23   15.68
  -5   5  -8  586.20   15.73
   6   5   8   29.08    2.71
  -6  -5  -8   33.71    3.49
   6  -5   8   28.14    2.95
   6   5   8   26.96    2.94
  -6   5  -8   26.95    2.90
   7   5   8  146.62    6.76
   7  -5   8  153.78    7.15
  -7  -5  -8  138.55    7.40
   7   5   8  155.57    7.51
  -7   5  -8  142.41    7.09
   8  -5   8   25.30    2.97
   8   5   8   24.99    2.86
  -8  -5  -8   26.28    3.31
  -8   5  -8   30.34    3.27
  -9  -5  -8   14.63    2.61
   9   5   8   15.86    2.41
   9  -5   8   18.14    2.64
  -9   5  -8   13.29    2.24
 -10  -5  -8    1.73    1.38
  10   5   8    0.31    1.04
  10  -5   8    0.18    0.89
 -10   5  -8    1.95    1.08
  11  -5   8   18.87    2.82
 -11  -5  -8   23.43    3.49
 -11   5  -8   21.92    3.06
  12  -5   8    2.45    1.43
 -12  -5  -8    1.91    1.37
 -12   5  -8    3.18    1.66
 -13   5  -8    7.91    2.25
 -19  -6   8   42.44    4.88
 -18  -6   8    4.73    1.82
 -18   6   8    3.99    1.71
 -17  -6   8    5.22    1.69
 -17   6   8    6.33    2.14
 -16   6   8   58.62    5.62
 -16  -6   8   45.56    4.37
 -15  -6   8    2.07    1.14
 -15   6   8    1.16    1.39
 -14  -6   8    8.11    1.74
 -14   6   8   12.90    2.51
 -13   6   8   36.31    4.03
 -13  -6   8   32.92    3.30
 -12   6   8  152.32    8.22
 -12  -6   8  157.92    7.10
 -11   6   8  275.99   11.17
 -11  -6   8  283.61    9.59
 -10   6   8  452.47   14.48
 -10  -6   8  429.53   12.08
  -9   6   8  142.10    7.39
  -9  -6   8  143.81    5.96
  -8   6   8  475.53   14.55
  -8  -6   8  479.46   12.10
   7   6  -8   70.42    4.12
  -7   6   8   63.32    4.60
  -7  -6   8   67.35    3.56
   6   6  -8   10.90    1.57
  -6   6   8    9.96    1.90
  -6  -6   8    9.65    1.31
   5   6  -8    2.31    0.79
  -5   6   8    2.08    0.94
  -5  -6   8    3.26    0.75
  -4   6   8  128.35    6.52
  -4  -6   8  137.94    4.46
   3   6  -8   31.97    1.49
   3   6  -8   27.20    2.99
  -3  -6   8   32.91    1.79
  -3   6   8   34.90    3.25
   2   6  -8   13.80    0.92
   2   6  -8   11.71    1.89
  -2   6   8   15.72    2.15
   1   6  -8   97.35    5.54
   1   6  -8   91.29    2.78
   0   6  -8   18.35    1.25
   0   6  -8   17.91    2.31
  -1  -6  -8   11.98    1.92
   1   6   8   13.04    0.68
  -1   6  -8   13.44    2.11
  -1   6  -8   13.43    1.22
  -2  -6  -8   30.68    3.08
   2   6   8   32.98    2.99
   2  -6   8   38.02    3.38
   3   6   8  120.34    6.03
   3  -6   8  122.69    6.22
  -3   6  -8  122.76    5.95
  -3  -6  -8  121.51    6.44
  -4  -6  -8    6.02    1.48
   4   6   8    2.73    1.26
   4  -6   8    4.52    1.32
  -4   6  -8    4.85    1.35
   5  -6   8    3.41    1.32
  -5  -6  -8    0.37    0.90
   5   6   8    0.85    0.78
  -5   6  -8    3.15    1.09
  -6  -6  -8   44.28    4.06
   6   6   8   36.48    3.56
   6  -6   8   40.91    3.69
  -6   6  -8   42.15    3.74
  -7  -6  -8   45.33    4.24
   7  -6   8   40.50    3.73
   7   6   8   38.59    3.85
  -7   6  -8   51.03    4.21
  -8  -6  -8   15.87    2.64
   8   6   8   16.37    2.64
   8  -6   8   14.88    2.31
  -8   6  -8   17.93    2.70
  -9  -6  -8   89.31    6.23
   9   6   8   77.06    5.81
  -9   6  -8   86.51    5.82
   9  -6   8   77.24    5.46
 -10  -6  -8   12.96    2.50
  10  -6   8   10.92    2.29
  10   6   8   13.13    2.82
 -10   6  -8   13.67    2.36
 -11  -6  -8  190.60    9.85
 -11   6  -8  182.73    9.18
  11  -6   8  190.94    9.27
 -19  -7   8    6.44    2.08
 -18   7   8   41.09    5.09
 -18  -7   8   48.38    4.85
 -17  -7   8   27.06    3.54
 -17   7   8   31.09    4.24
 -16   7   8   42.48    4.92
 -16  -7   8   41.33    4.08
 -15  -7   8   14.73    2.45
 -15   7   8   14.94    3.00
 -14  -7   8   26.81    3.12
 -14   7   8   27.30    3.77
 -13  -7   8    1.61    0.82
 -13   7   8    0.78    1.15
 -12   7   8   74.13    5.80
 -12  -7   8   80.01    4.88
 -11   7   8  378.23   13.57
 -11  -7   8  373.89   11.32
 -10  -7   8   -0.37    0.73
 -10   7   8    1.19    1.18
   9   7  -8   67.39    4.63
  -9   7   8   63.08    4.94
  -9  -7   8   66.14    3.86
   8   7  -8    0.44    0.72
  -8   7   8    1.12    0.93
  -8  -7   8   -0.39    0.77
   7   7  -8    5.99    1.40
  -7   7   8   10.57    2.00
  -7  -7   8    9.55    1.36
   6   7  -8   87.17    4.76
  -6   7   8   85.42    5.52
  -6  -7   8   89.37    3.77
   5   7  -8    6.66    1.30
  -5   7   8    8.18    1.67
  -5  -7   8    4.23    0.77
  -4   7   8  315.14   10.82
  -4  -7   8  284.16    6.67
   3   7  -8    3.60    1.23
  -3   7   8    4.17    1.25
   2   7  -8  536.36   15.60
  -2   7   8  546.39   15.34
   1   7  -8  573.69   16.16
   0  -7  -8  280.55    9.84
   0   7  -8  281.24   10.33
  -1  -7  -8   -0.10    0.80
  -1   7  -8    0.49    0.85
   2   7   8    0.46    0.84
   2  -7   8   -0.33    0.90
  -2  -7  -8    0.56    0.88
  -3  -7  -8  134.62    6.87
   3   7   8  127.50    6.55
   3  -7   8  122.63    6.49
   4  -7   8   67.40    4.76
  -4  -7  -8   67.15    4.84
   4   7   8   68.43    4.84
  -5  -7  -8  278.01   10.69
   5   7   8  269.56   10.51
   5  -7   8  273.10   10.17
  -6  -7  -8    2.66    1.46
   6   7   8    3.10    1.22
   6  -7   8    3.23    1.22
  -7  -7  -8    4.45    1.61
   7  -7   8    4.32    1.25
   7   7   8    5.45    1.71
   8  -7   8   29.24    3.31
  -8  -7  -8   25.92    3.37
   8   7   8   23.74    3.22
   9  -7   8   71.67    5.36
  -9  -7  -8   66.64    5.46
   9   7   8   65.93    5.54
 -10  -7  -8   16.61    2.96
  10  -7   8   13.78    2.56
  10   7   8   14.63    2.77
 -11  -7  -8    1.27    1.22
  11  -7   8    4.61    1.72
  11   7   8    3.05    1.74
  12   7   8   -3.27    2.11
  13   7   8   39.88    4.97
 -18  -8   8   44.98    4.68
 -17  -8   8   11.54    2.52
 -17   8   8    9.45    2.63
 -16  -8   8   10.62    2.33
 -16   8   8   13.52    3.00
 -15   8   8   51.55    5.43
 -15  -8   8   64.35    5.00
 -14  -8   8   16.32    2.54
 -14   8   8   19.73    3.35
 -13  -8   8   17.04    2.45
 -13   8   8   14.29    2.74
 -12  -8   8    1.84    1.13
 -12   8   8    0.78    1.23
  11   8  -8  309.72   11.67
 -11   8   8  300.05   12.20
 -11  -8   8  321.78   10.17
  10   8  -8   20.49    2.74
 -10   8   8   20.16    2.98
 -10  -8   8   23.89    2.39
   9   8  -8  312.62   11.12
  -9   8   8  332.52   12.25
   8   8  -8  171.16    7.63
  -8   8   8  173.37    8.45
   7   8  -8  151.17    7.09
  -7   8   8  190.45    8.60
   6   8  -8  349.85   11.31
  -6   8   8  341.50   12.09
  -5   8   8  369.68   12.50
  -4   8   8   79.27    5.27
   3   8  -8    5.93    1.48
  -3   8   8    5.21    1.46
   2   8  -8  188.14    8.72
   1   8  -8   36.01    3.69
   0  -8  -8   10.02    1.83
   0   8  -8   13.95    2.36
  -1  -8  -8   45.68    3.86
  -1   8  -8   61.74    4.70
   2  -8   8  241.57    9.52
  -2  -8  -8  174.67    8.08
  -3  -8  -8   83.55    5.50
   3  -8   8   91.32    5.70
   3   8   8   88.73    5.74
   4  -8   8   25.22    2.99
  -4  -8  -8   23.28    2.99
   4   8   8   24.69    3.10
   5  -8   8    1.12    0.99
  -5  -8  -8    0.82    1.22
   5   8   8    2.68    1.45
  -6  -8  -8   18.15    2.69
   6   8   8   18.60    2.87
   6  -8   8   15.97    2.42
  -7  -8  -8   10.52    2.25
   7  -8   8   11.36    2.16
   7   8   8   11.45    2.44
   8  -8   8    3.69    1.47
  -8  -8  -8    5.74    1.76
   8   8   8    3.24    1.70
   9  -8   8   32.66    3.65
  -9  -8  -8   32.22    3.90
   9   8   8   33.98    4.19
 -10  -8  -8  130.83    8.14
  10   8   8  140.44    8.70
  10  -8   8  129.03    7.81
  11   8   8   31.50    4.25
  12   8   8    4.51    1.97
 -17   9   8   31.72    4.63
 -16   9   8   29.95    4.29
 -15   9   8  160.86    9.68
 -14   9   8   63.40    5.87
  13   9  -8   24.58    3.50
 -13   9   8   25.74    3.65
  12   9  -8    9.14    2.20
 -12   9   8    3.33    1.56
  11   9  -8   11.06    2.26
 -11   9   8    9.98    2.16
  10   9  -8    2.37    1.24
 -10   9   8    1.61    1.11
   9   9  -8  134.72    7.17
  -9   9   8  125.77    7.37
   8   9  -8    6.60    1.64
  -8   9   8    6.16    1.71
   7   9  -8  229.55    9.30
  -7   9   8  226.61    9.80
   6   9  -8  183.80    8.00
  -6   9   8  173.51    8.37
  -5   9   8  302.96   11.32
  -4   9   8   14.06    2.28
   3   9  -8  228.14   10.23
  -3   9   8  226.78    9.43
   2   9  -8    6.02    1.80
   1   9  -8  175.31    8.68
   0   9  -8   75.19    5.52
  -1  -9  -8   -0.33    0.97
  -1   9  -8    1.12    1.09
  -2  -9  -8  170.24    8.09
   2  -9   8  234.19    9.64
  -3  -9  -8    1.01    0.87
   3  -9   8    2.52    1.05
   4  -9   8   18.48    2.69
  -4  -9  -8   15.82    2.46
   4   9   8   22.38    3.16
   5   9   8    0.97    1.03
   5  -9   8    2.32    1.20
  -6  -9  -8   30.50    3.67
   6   9   8   40.48    4.36
   6  -9   8   29.60    3.43
  -7  -9  -8   11.72    2.32
   7  -9   8   11.49    2.30
   7   9   8   14.02    2.70
   8  -9   8    3.12    1.46
  -8  -9  -8    2.23    1.17
   8   9   8    0.70    1.31
  -9  -9  -8   21.67    3.48
   9   9   8   19.60    3.24
   9  -9   8   21.88    3.13
  10   9   8    0.72    1.31
  11   9   8   12.30    2.86
  16  10  -8   93.39    7.70
 -16  10   8  104.65    8.03
  15  10  -8   -0.87    2.00
 -15  10   8    1.01    1.40
  14  10  -8    1.89    1.67
 -14  10   8    3.98    1.90
  13  10  -8    7.33    2.13
 -13  10   8   11.38    2.60
  12  10  -8   11.84    2.46
 -12  10   8   14.08    2.72
  11  10  -8  172.59    9.02
 -11  10   8  173.21    9.26
  10  10  -8   64.37    5.33
 -10  10   8   75.69    5.90
   9  10  -8   27.45    3.38
  -9  10   8   26.70    3.49
   8  10  -8    1.08    0.94
  -8  10   8    0.21    0.92
   7  10  -8  349.50   12.64
  -7  10   8  412.33   14.01
  -6  10   8   24.00    3.18
  -5  10   8   14.12    2.40
   4  10  -8   21.97    3.04
  -4  10   8   24.03    3.08
   3  10  -8   63.53    5.33
   2  10  -8  115.03    7.21
   1  10  -8   93.72    6.46
   0  10  -8  264.92   11.31
  -1 -10  -8   68.17    4.89
  -1  10  -8   67.36    5.45
  -2 -10  -8   18.14    2.73
   2 -10   8   25.49    3.18
  -3 -10  -8    8.04    1.89
   3 -10   8    7.54    1.91
   4 -10   8   86.93    5.89
   4  10   8   87.47    6.27
  -5 -10  -8   22.93    3.17
   5  10   8   36.74    4.30
   5 -10   8   33.20    3.65
  -6 -10  -8   96.33    6.56
   6  10   8  107.63    7.34
   6 -10   8  118.15    7.00
  -7 -10  -8   23.71    3.38
   7  10   8   16.37    3.01
   7 -10   8   22.37    3.19
  -8 -10  -8   29.98    3.78
   8 -10   8   32.78    3.76
   8  10   8   24.24    3.59
  -9 -10  -8    5.51    2.00
   9  10   8    6.42    2.29
   9 -10   8    8.22    2.18
  10  10   8  204.85   11.42
  15  11  -8   31.60    4.45
 -15  11   8   35.15    4.68
  14  11  -8   22.11    3.68
 -14  11   8   21.55    3.68
  13  11  -8   35.41    4.43
 -13  11   8   42.15    4.85
  12  11  -8   46.74    4.97
 -12  11   8   40.53    4.59
  11  11  -8    9.40    2.37
 -11  11   8   11.25    2.37
  10  11  -8   -0.10    1.11
 -10  11   8    3.31    1.65
   9  11  -8    3.29    1.48
  -9  11   8   -0.18    1.08
   8  11  -8   12.56    2.46
  -8  11   8   19.75    2.97
  -7  11   8    4.08    1.55
  -6  11   8    5.74    1.77
   5  11  -8   51.65    5.21
  -5  11   8   48.38    4.45
   4  11  -8   60.90    5.53
  -4  11   8   61.37    4.95
   3  11  -8  164.54    9.14
   2  11  -8   -1.70    1.35
   1  11  -8  512.15   17.20
   0  11  -8   48.55    4.79
  -1 -11  -8   11.49    2.13
  -1  11  -8    9.74    2.40
   2 -11   8  128.66    7.63
  -2 -11  -8  138.55    7.43
  -3 -11  -8   64.56    5.16
   3 -11   8   67.70    5.44
  -4 -11  -8  114.39    7.03
   4 -11   8  100.54    6.69
  -5 -11  -8   14.62    2.73
   5  11   8   20.42    3.36
   5 -11   8   15.80    2.69
  -6 -11  -8  380.71   14.36
   6  11   8  381.17   15.22
   6 -11   8  402.27   14.23
  -7 -11  -8   10.03    2.30
   7  11   8    6.77    2.31
   7 -11   8   11.46    2.46
  -8 -11  -8   30.33    3.96
   8 -11   8   34.03    3.84
   8  11   8   33.78    4.61
   9  11   8  175.07   10.61
  14  12  -8    1.77    1.33
 -14  12   8    1.93    1.54
  13  12  -8   29.68    3.16
  13  12  -8   26.64    4.08
 -13  12   8   26.49    3.98
  12  12  -8    2.36    1.17
 -12  12   8    1.05    1.11
  11  12  -8   22.59    3.51
 -11  12   8   26.31    3.70
  10  12  -8    0.10    1.26
 -10  12   8   -1.23    1.40
   9  12  -8   40.88    4.47
  -9  12   8   30.06    3.84
   8  12  -8  107.68    7.21
  -8  12   8  106.76    7.08
  -7  12   8   78.56    5.98
  -6  12   8   47.41    4.53
   5  12  -8  172.53    9.90
  -5  12   8  165.71    8.55
   4  12  -8   62.30    5.85
   3  12  -8   63.36    5.85
   2  12  -8   75.89    6.34
   1  12  -8    4.93    1.76
   0  12  -8   38.60    4.56
  -1  12  -8   37.29    4.44
   2 -12   8  114.05    7.42
  -2 -12  -8  106.74    6.65
  -3 -12  -8   -2.05    1.30
   3 -12   8   -0.19    1.07
   4 -12   8    0.20    1.12
  -4 -12  -8   -0.39    1.13
  -5 -12  -8   13.70    2.66
   5 -12   8   10.30    2.28
  -6 -12  -8   71.42    5.93
   6 -12   8   78.47    6.00
  -7  12  -8   20.46    2.82
   7  12   8   22.19    3.81
  -7 -12  -8   18.18    3.14
  12  13  -8   -1.77    1.41
  12  13  -8   -0.16    1.27
  11  13  -8   -0.05    1.13
  11  13  -8    0.24    1.33
 -11  13   8   -0.45    1.15
  10  13  -8   -1.10    1.08
 -10  13   8    2.28    1.55
  -9  13   8   54.98    5.19
  -8  13   8    3.80    1.66
  -7  13   8   10.70    2.32
   6  13  -8   12.53    3.06
  -6  13   8   16.77    2.79
   5  13  -8    2.17    1.62
   4  13  -8   50.54    5.55
   3  13  -8   26.51    3.73
   2  13  -8    6.46    2.01
   1  13  -8   31.14    4.28
   0  13  -8   11.48    2.66
  -1  13  -8   24.45    3.76
   1 -13   8   20.96    3.36
   2 -13   8   -1.48    1.44
   3 -13   8    4.06    1.76
   4 -13   8    1.27    1.13
  -5  13  -8   18.50    2.82
   5 -13   8   17.23    3.11
  -6  13  -8   13.73    2.49
  -6 -13  -8   14.60    2.98
  -7  13  -8   22.13    3.09
   6  14  -8   40.71    5.18
   5  14  -8   23.69    4.16
   4  14  -8   55.11    5.86
   3  14  -8   29.08    4.30
   2  14  -8   52.43    5.62
   1  14  -8    5.13    1.99
   1 -14   8    3.01    1.56
   2 -14   8    6.64    2.18
 -19   0   9   -0.36    1.28
 -18   0   9    0.51    1.17
 -17   0   9   -1.25    1.17
 -16   0   9   -0.16    1.05
 -15   0   9   -1.49    1.54
 -14   0   9   -1.27    1.51
 -13   0   9   -0.29    1.14
 -12   0   9    1.04    1.00
 -11   0   9    1.83    1.12
 -10   0   9    3.85    1.42
  -9   0   9    0.64    0.90
  -8   0   9    1.07    0.74
   8   0  -9    1.01    0.36
   7   0  -9    0.30    0.36
  -7   0   9    0.53    0.81
  -6   0   9    0.42    0.60
  -5   0   9    0.06    0.56
  -4   0   9   -0.06    0.55
   3   0  -9    0.18    0.52
  -3   0   9   -0.07    0.60
   2   0  -9    0.06    0.40
  -2   0   9   -0.68    0.76
  -1   0   9   -0.22    0.55
   0   0   9   -0.01    0.51
   1   0   9    0.76    0.57
   1   0   9    0.05    0.20
   2   0   9    0.06    0.49
   3   0   9    0.35    0.79
  -4   0  -9   -1.05    1.48
   4   0   9   -0.71    0.86
  -5   0  -9   -0.75    1.25
   5   0   9    0.06    0.66
  -6   0  -9   -0.49    1.24
   6   0   9    0.35    0.78
   7   0   9   -1.00    0.77
  -7   0  -9   -1.65    1.28
   8   0   9    0.02    0.67
  -8   0  -9    1.53    1.09
  -9   0  -9   -1.75    1.60
   9   0   9    0.79    1.06
 -10   0  -9   -1.27    1.64
  10   0   9    0.53    1.03
 -11   0  -9   -1.06    1.13
  11   0   9   -0.02    0.94
 -12   0  -9   -0.17    1.29
  12   0   9   -0.46    1.04
 -13   0  -9   -0.74    1.19
 -13   0  -9    0.27    1.32
 -19   1   9    4.23    1.87
 -19  -1   9    3.37    1.88
 -18   1   9    4.89    2.04
 -18  -1   9   -0.25    1.27
 -17   1   9   24.43    3.69
 -17  -1   9   31.43    3.92
 -16   1   9   -0.33    1.45
 -16  -1   9    0.81    1.09
 -15   1   9    9.83    2.26
 -15  -1   9   11.33    2.29
 -14   1   9   95.83    6.45
 -14  -1   9   95.95    6.25
 -13   1   9   55.91    4.71
 -13  -1   9   59.61    4.72
 -12   1   9    6.13    1.75
 -12  -1   9    6.49    1.65
 -11   1   9   56.47    4.50
 -11  -1   9   68.82    4.78
 -10   1   9    5.29    1.53
 -10  -1   9    0.57    0.90
  -9   1   9   80.87    5.01
  -9  -1   9   71.61    4.56
   9  -1  -9   69.03    2.23
  -8   1   9   60.18    4.25
  -8  -1   9   66.69    4.28
  -7   1   9  109.05    5.66
  -7  -1   9  110.28    5.41
   7   1  -9  101.93    3.50
  -6   1   9  231.62    8.50
  -6  -1   9  240.83    8.26
   6   1  -9  234.26    6.18
  -5   1   9  478.07   13.16
  -5  -1   9  468.84   12.47
   5   1  -9  473.79   10.55
   4  -1  -9  252.84    5.85
  -4   1   9  236.48    8.54
  -4  -1   9  253.66    8.34
   4   1  -9  259.04    7.04
   3  -1  -9    3.16    0.64
   3   1  -9    2.34    0.73
  -3   1   9    2.32    0.80
  -3  -1   9    3.12    0.95
   2   1  -9   26.41    2.14
  -2  -1   9   28.27    2.49
  -2   1   9   24.17    2.48
  -2   1   9   26.76    1.98
  -1   1   9   54.44    2.94
   1   1  -9   60.40    3.31
  -1  -1   9   59.02    3.43
   0  -1   9    9.28    1.35
   0   1   9   11.07    1.31
   1  -1   9   33.63    2.61
   1   1   9   35.65    1.82
   1   1   9   36.21    2.45
   2   1   9    2.01    0.56
   2  -1   9    3.53    0.98
   2   1   9    2.13    0.77
  -3  -1  -9   17.27    2.37
   3   1   9   20.98    2.01
   4  -1   9   60.41    3.74
  -4  -1  -9   59.26    4.55
   4   1   9   56.24    3.49
   5  -1   9  110.95    5.48
  -5  -1  -9  108.18    6.32
  -5   1  -9   99.10    5.95
   5   1   9  110.69    5.21
  -6  -1  -9   28.19    3.30
  -6   1  -9   33.85    3.48
   6   1   9   33.64    2.94
   6  -1   9   36.88    3.15
  -7  -1  -9  109.77    6.75
  -7   1  -9  119.90    6.88
   7   1   9  108.05    5.70
   7  -1   9  113.93    5.92
  -8  -1  -9   24.72    3.28
  -8   1  -9   29.57    3.52
   8   1   9   35.63    3.41
   8  -1   9   29.48    3.14
   9  -1   9    0.63    0.88
  -9  -1  -9    1.90    1.42
  -9   1  -9    2.45    1.41
   9   1   9   -0.37    1.28
 -10   1  -9    8.91    1.97
 -10  -1  -9    6.28    1.99
 -10   1  -9    8.51    2.18
  10   1   9    5.02    1.44
  10  -1   9    9.66    2.00
 -11  -1  -9  168.07    9.29
 -11   1  -9  164.45    9.10
  11   1   9  162.35    8.42
  11  -1   9  162.21    8.51
 -11   1  -9  166.77    8.39
 -12   1  -9    2.54    1.43
 -12  -1  -9   -0.99    1.87
 -12   1  -9    0.16    1.23
  12   1   9   -1.36    1.39
  12  -1   9   -0.37    1.05
 -13  -1  -9   56.56    5.62
 -13   1  -9   53.45    5.45
 -13   1  -9   57.66    5.06
 -19   2   9   11.64    2.76
 -19  -2   9    6.37    2.13
 -18   2   9    2.37    1.54
 -18  -2   9    7.28    2.18
 -17   2   9   -0.65    1.45
 -17  -2   9    3.34    1.51
 -16  -2   9   17.70    2.93
 -16   2   9   16.11    2.95
 -15   2   9   74.84    5.97
 -15  -2   9   76.82    5.74
 -14  -2   9    7.36    1.90
 -14   2   9    5.91    1.79
 -13   2   9  644.34   18.59
 -13  -2   9  608.52   17.46
 -12  -2   9    2.82    1.32
 -12   2   9   -0.25    0.99
 -11   2   9  181.24    8.40
 -11  -2   9  194.79    8.25
 -10   2   9   33.62    3.40
 -10  -2   9   28.84    2.91
  -9   2   9  141.61    6.99
  -9  -2   9  136.39    6.39
  -8   2   9   27.67    2.94
  -8  -2   9   28.56    2.77
  -7   2   9  181.45    7.73
  -7  -2   9  188.14    7.18
  -6   2   9  293.42   10.09
  -6  -2   9  309.49    9.49
   6   2  -9  308.85    7.66
  -5   2   9  196.39    7.88
  -5  -2   9  199.51    7.07
   5   2  -9  202.26    5.95
   4  -2  -9  701.67   13.06
  -4   2   9  653.50   16.81
  -4  -2   9  705.49   16.01
   4   2  -9  697.16   14.53
   4  -2  -9  678.81   13.69
   3   2  -9    7.75    1.20
   3  -2  -9    7.24    0.74
   3   2  -9   10.84    1.54
   3  -2  -9    9.63    1.00
  -3   2   9    8.70    1.57
  -3  -2   9   10.66    1.50
  -3   2   9    8.98    1.06
   2   2  -9  237.06    7.58
  -2  -2   9  234.23    7.52
  -2   2   9  225.71    8.25
   2   2  -9  232.16    7.13
  -2   2   9  226.53    6.20
   1   2  -9   -0.04    0.51
   1   2  -9    0.54    0.58
  -1   2   9    0.12    0.35
   0   2  -9    0.91    0.60
   0  -2   9    0.55    0.64
  -1   2  -9    3.82    0.84
   1  -2   9    5.84    1.16
   1   2   9    6.15    0.89
   1   2   9    6.03    0.90
   1   2   9    7.82    1.14
   2   2   9   45.75    2.59
  -2   2  -9   44.26    3.21
   2  -2   9   43.74    3.16
   2   2   9   41.48    2.67
  -3  -2  -9   81.70    5.21
   3   2   9   71.07    3.52
   3  -2   9   77.16    4.32
   3   2   9   72.68    3.74
  -3   2  -9   72.76    4.32
  -4  -2  -9  114.69    6.41
   4  -2   9  108.50    5.36
   4   2   9  112.82    5.00
  -4   2  -9  109.45    5.52
   5  -2   9  356.50   10.94
  -5  -2  -9  369.17   12.64
   5   2   9  353.19   10.36
  -5   2  -9  348.76   11.16
   6  -2   9  236.65    8.75
  -6  -2  -9  228.26    9.74
   6   2   9  220.63    8.22
  -6   2  -9  212.91    8.56
  -7  -2  -9   52.84    4.68
  -7   2  -9   46.74    4.17
   7   2   9   48.32    3.78
  -7   2  -9   51.28    4.07
   7  -2   9   45.67    3.71
  -8  -2  -9   77.77    5.82
  -8   2  -9   75.46    5.47
   8   2   9   76.61    4.93
   8  -2   9   69.74    4.84
  -8   2  -9   67.44    4.87
  -9   2  -9   18.06    2.62
   9  -2   9   16.32    2.49
  -9  -2  -9   14.22    2.56
  -9   2  -9   14.77    2.60
   9   2   9   14.93    2.31
 -10   2  -9   18.99    2.72
  10  -2   9   18.29    2.69
 -10  -2  -9   15.35    2.84
  10   2   9   19.87    2.81
 -10   2  -9   19.21    3.05
 -11   2  -9    2.20    1.18
 -11  -2  -9    1.74    1.61
 -11   2  -9    2.78    1.55
  11   2   9    0.28    1.07
  11  -2   9    1.95    1.22
 -12   2  -9   24.37    3.27
 -12  -2  -9   25.53    3.84
 -12   2  -9   25.89    3.71
  12   2   9   22.47    3.21
  12  -2   9   19.76    3.02
 -13   2  -9   37.48    4.44
 -13   2  -9   37.24    4.19
 -14   2  -9   39.44    4.89
 -19  -3   9    5.52    2.13
 -19   3   9    2.94    1.64
 -18  -3   9    1.52    1.69
 -18   3   9    0.06    1.65
 -17   3   9  227.54   11.41
 -17  -3   9  212.61   10.26
 -16  -3   9    1.35    1.26
 -16   3   9    1.96    1.26
 -15   3   9  208.67   10.46
 -15  -3   9  222.06    9.89
 -14  -3   9   19.53    2.83
 -14   3   9   14.11    2.65
 -13  -3   9   24.62    3.11
 -13   3   9   20.04    2.95
 -12   3   9   52.89    4.67
 -12  -3   9   59.91    4.49
 -11   3   9   87.83    5.85
 -11  -3   9   87.83    5.29
 -10   3   9    2.63    1.33
 -10  -3   9    1.76    0.77
  -9   3   9  546.09   15.69
  -9  -3   9  535.04   14.34
  -8   3   9  142.54    6.94
  -8  -3   9  139.15    6.13
  -7   3   9    7.32    1.58
  -7  -3   9    7.06    1.35
  -6   3   9  145.26    6.79
  -6  -3   9  142.70    5.86
   5   3  -9   63.14    2.57
  -5   3   9   53.58    4.08
  -5  -3   9   55.06    3.42
   5   3  -9   59.93    3.08
   4  -3  -9   51.36    1.66
  -4   3   9   49.11    3.73
  -4  -3   9   53.53    3.27
  -4   3   9   50.58    2.23
   4   3  -9   50.71    2.90
   3   3  -9 1048.84   22.17
  -3  -3   9 1036.80   21.00
  -3   3   9  994.43   22.88
   3   3  -9 1027.98   20.59
  -3   3   9 1032.17   18.51
  -2   3   9   88.46    3.14
   2   3  -9   82.62    4.48
  -2  -3   9   95.24    4.28
  -2   3   9   85.01    4.99
   2   3  -9   83.76    4.03
  -1   3   9  161.08    4.74
   1   3  -9  154.78    6.32
   1   3  -9  165.56    6.06
   0   3  -9 1386.56   27.42
   0  -3   9 1314.57   27.43
   0   3  -9 1367.60   26.82
   0   3   9 1371.72   24.66
  -1   3  -9    1.77    0.80
   1   3   9    1.34    0.56
   1   3   9    2.16    0.55
   1   3   9    1.40    0.62
   1  -3   9    1.89    0.36
   1  -3   9    1.14    0.70
   2  -3   9   66.01    4.10
  -2  -3  -9   65.68    4.61
   2   3   9   69.55    3.54
   2   3   9   69.25    3.43
  -2   3  -9   66.72    4.08
  -3   3  -9    8.71    1.59
   3   3   9    5.29    1.04
   3  -3   9    8.43    1.59
  -3  -3  -9    5.18    1.49
   3   3   9    5.95    1.13
  -4  -3  -9  222.22    9.43
   4   3   9  225.82    7.58
   4   3   9  234.75    7.73
   4  -3   9  238.92    8.57
  -4   3  -9  230.63    8.55
  -5   3  -9   -0.17    0.92
   5  -3   9   -1.74    1.18
  -5  -3  -9    0.31    1.04
   5   3   9    0.35    0.62
   5   3   9    0.90    0.89
   6  -3   9  528.48   14.74
  -6  -3  -9  559.71   16.73
   6   3   9  536.13   14.18
  -6   3  -9  542.19   15.16
  -7  -3  -9  316.02   12.07
   7   3   9  294.14   10.14
  -7   3  -9  315.20   11.02
   7  -3   9  310.40   10.74
  -8   3  -9   16.74    2.51
  -8  -3  -9   25.50    3.43
   8   3   9   21.05    2.64
   8  -3   9   24.38    2.88
   9   3   9   27.39    3.12
  -9  -3  -9   24.59    3.50
   9  -3   9   21.08    2.81
  -9   3  -9   25.85    3.24
  -9   3  -9   22.67    2.96
  10  -3   9    0.16    1.02
 -10  -3  -9    1.87    1.48
 -10   3  -9    0.64    1.03
  10   3   9    0.24    0.96
 -10   3  -9   -0.57    1.20
  11   3   9   51.43    4.69
 -11  -3  -9   54.79    5.31
 -11   3  -9   51.68    4.82
  11  -3   9   52.73    4.76
 -11   3  -9   51.14    4.63
 -12  -3  -9   10.93    2.72
 -12   3  -9    7.20    1.93
  12   3   9    6.80    1.98
  12  -3   9    8.22    2.27
 -12   3  -9   11.47    2.44
 -13   3  -9    7.96    2.36
 -13   3  -9   13.84    2.73
 -19  -4   9    2.80    1.69
 -18  -4   9   33.33    4.30
 -18   4   9   35.15    4.63
 -17   4   9   45.58    5.08
 -17  -4   9   35.29    4.12
 -16  -4   9    0.53    1.20
 -16   4   9   -1.38    1.69
 -15   4   9  140.42    8.46
 -15  -4   9  140.41    7.66
 -14  -4   9   21.28    2.95
 -14   4   9   17.84    2.91
 -13   4   9  387.30   14.12
 -13  -4   9  386.48   12.82
 -12   4   9   26.79    3.45
 -12  -4   9   31.36    3.22
 -11   4   9  320.44   12.13
 -11  -4   9  334.67   11.04
 -10   4   9    2.69    1.38
 -10  -4   9    0.12    0.98
  -9   4   9 1412.60   31.24
  -9  -4   9 1459.09   29.28
  -8   4   9   63.66    2.41
  -8   4   9   57.24    4.45
  -8  -4   9   61.78    3.84
  -7   4   9  223.93    5.07
  -7   4   9  198.98    8.47
  -7  -4   9  206.09    7.39
  -6   4   9  619.09   17.05
  -6  -4   9  650.71   15.17
  -5   4   9  150.59    3.61
   5   4  -9  163.37    5.06
  -5   4   9  151.89    7.12
  -5  -4   9  155.20    5.76
  -4   4   9  351.28    6.99
  -4   4   9  355.92   11.50
  -4  -4   9  366.58    9.65
   3   4  -9  230.46    8.47
  -3  -4   9  236.43    7.09
  -3   4   9  223.02    8.65
   3   4  -9  220.05    7.24
  -3   4   9  230.45    5.12
   2   4  -9  371.72   11.16
  -2   4   9  362.86   11.58
   2   4  -9  348.80    9.94
  -2   4   9  377.94    7.78
   1   4  -9   30.33    2.84
  -1   4   9   27.05    1.65
   1   4  -9   28.70    2.49
   0   4  -9   39.41    3.24
   0   4   9   39.94    2.21
   0   4  -9   44.25    3.13
   1  -4   9   20.28    2.34
   1   4   9   28.70    2.33
   1  -4   9   22.81    1.49
   1   4   9   23.23    1.36
   1   4   9   25.97    1.95
  -1   4  -9   26.73    2.58
  -2  -4  -9   34.18    3.40
   2   4   9   36.85    2.78
   2  -4   9   35.94    3.12
   2   4   9   37.76    2.55
  -2   4  -9   37.07    3.11
   3   4   9    0.33    0.62
   3  -4   9    1.08    0.87
   3   4   9    0.01    0.54
  -3  -4  -9   -0.50    1.05
  -3   4  -9    1.51    1.01
  -4  -4  -9  356.93   12.32
   4   4   9  340.48    9.83
   4   4   9  331.07   10.36
   4  -4   9  365.34   11.25
  -4   4  -9  347.02   11.06
  -5  -4  -9  134.00    7.31
   5   4   9  132.11    5.80
   5   4   9  122.45    5.95
   5  -4   9  129.93    6.37
  -5   4  -9  128.13    6.40
   6  -4   9    1.28    0.89
  -6  -4  -9    4.56    1.56
   6   4   9    2.53    1.09
   6   4   9    2.94    1.11
  -6   4  -9    1.27    0.72
  -7  -4  -9    7.36    1.99
   7   4   9    8.35    1.57
   7  -4   9    7.31    1.54
   8   4   9   66.76    4.72
  -8  -4  -9   77.76    5.82
  -8   4  -9   71.66    5.15
   8  -4   9   66.34    4.83
  -9  -4  -9    1.50    1.36
   9  -4   9   -0.27    0.80
   9   4   9   -0.13    0.96
  -9   4  -9   -0.24    0.95
  10  -4   9   15.46    2.59
 -10  -4  -9   13.59    2.73
  10   4   9   14.79    2.57
 -10   4  -9   20.04    2.90
  11  -4   9   10.52    2.25
 -11  -4  -9   14.66    2.93
  11   4   9   10.17    2.32
 -11   4  -9   15.21    2.55
  12   4   9    7.94    2.07
 -12   4  -9   11.68    2.67
 -19  -5   9    2.72    1.90
 -18  -5   9    6.31    2.07
 -18   5   9    3.48    1.74
 -17  -5   9    6.07    1.94
 -17   5   9    3.20    1.19
 -16   5   9   50.77    5.33
 -16  -5   9   51.85    4.76
 -15  -5   9   10.95    2.18
 -15   5   9    7.38    2.10
 -14   5   9   80.08    6.21
 -14  -5   9   72.48    5.21
 -13   5   9  191.79    9.62
 -13  -5   9  180.08    8.21
 -12  -5   9   10.34    1.87
 -12   5   9   10.21    2.30
 -11   5   9   32.81    3.76
 -11  -5   9   34.30    3.18
 -10   5   9   37.12    3.87
 -10  -5   9   36.15    3.14
  -9   5   9  906.80   22.90
  -9  -5   9  926.32   20.57
  -8   5   9  540.09   15.94
  -8  -5   9  555.24   13.84
   7   5  -9   71.20    3.87
  -7   5   9   73.34    5.02
  -7  -5   9   79.21    4.16
   6   5  -9   90.96    4.17
  -6   5   9  101.21    5.85
  -6  -5   9   93.11    4.36
   5   5  -9  163.57    5.62
  -5   5   9  165.69    7.62
  -5  -5   9  174.38    6.03
  -4   5   9    0.47    0.75
  -4  -5   9    0.17    0.45
  -3   5   9    5.58    0.49
   3   5  -9    5.80    1.38
  -3  -5   9    5.91    0.97
  -3   5   9    6.16    1.54
  -2   5   9   47.73    1.87
   2   5  -9   40.61    3.50
  -2   5   9   41.51    3.58
  -1   5   9   73.30    2.73
   1   5  -9   66.85    4.43
   1   5  -9   74.37    4.18
   0   5   9  504.29   10.83
   0   5  -9  497.56   14.18
   0  -5   9  522.45   10.95
   0   5  -9  518.48   13.48
  -1  -5  -9    0.13    1.20
   1   5   9    0.10    0.38
   1  -5   9    2.06    1.00
  -1   5  -9    0.64    0.74
   2   5   9   21.64    1.89
   2   5   9   25.58    2.50
   2  -5   9   23.04    2.61
  -2   5  -9   25.82    2.65
  -2  -5  -9   20.86    2.73
   3  -5   9   61.73    4.43
   3   5   9   66.20    3.61
  -3  -5  -9   63.82    4.77
   3   5   9   65.97    4.11
  -3   5  -9   59.63    4.19
   4   5   9   55.31    3.49
  -4  -5  -9   50.94    4.37
   4   5   9   49.33    3.77
  -4   5  -9   56.22    4.16
   4  -5   9   55.50    4.10
   5   5   9   27.88    2.64
  -5  -5  -9   28.00    3.39
   5   5   9   28.07    2.96
   5  -5   9   27.00    2.91
  -5   5  -9   28.73    3.05
   6   5   9  160.57    7.03
  -6  -5  -9  163.14    8.30
   6  -5   9  161.38    7.49
   6   5   9  167.47    7.66
  -6   5  -9  169.20    7.85
  -7  -5  -9    5.54    1.69
   7   5   9    6.82    1.49
   7   5   9    6.55    1.72
  -7   5  -9    8.03    1.86
   7  -5   9    7.00    1.66
  -8  -5  -9    0.74    1.20
   8   5   9    0.96    1.02
   8   5   9    1.48    1.11
   8  -5   9    1.39    1.21
  -8   5  -9    4.12    1.57
   9   5   9  131.13    7.14
  -9  -5  -9  125.33    7.83
   9   5   9  125.35    7.52
  -9   5  -9  130.21    7.41
   9  -5   9  124.19    7.03
  10   5   9   83.10    5.90
 -10  -5  -9   76.68    6.23
 -10   5  -9   88.80    6.19
  10  -5   9   83.00    5.85
  11   5   9   49.32    4.82
 -11  -5  -9   45.18    4.98
  11  -5   9   49.27    4.73
 -11   5  -9   59.32    5.16
 -12   5  -9    5.07    1.97
 -19  -6   9    6.97    2.18
 -18  -6   9    3.83    1.73
 -18   6   9    2.66    1.61
 -17   6   9   64.01    6.24
 -17  -6   9   63.90    5.48
 -16   6   9   78.98    6.80
 -16  -6   9   83.60    5.99
 -15  -6   9    1.88    1.27
 -15   6   9   -0.13    1.25
 -14   6   9   44.84    4.77
 -14  -6   9   45.12    4.09
 -13  -6   9    5.70    1.55
 -13   6   9    5.87    2.02
 -12   6   9  495.52   16.60
 -12  -6   9  507.67   14.51
 -11  -6   9   15.60    2.18
 -11   6   9   19.24    3.03
 -10   6   9  236.19   10.25
 -10  -6   9  235.38    8.50
  -9   6   9    2.01    1.44
  -9  -6   9    2.56    1.12
   8   6  -9  112.31    5.37
  -8   6   9  123.05    6.85
  -8  -6   9  115.92    5.19
  -7   6   9   60.70    4.74
  -7  -6   9   67.07    3.65
   6   6  -9    7.02    1.46
  -6   6   9    8.59    2.04
  -6  -6   9   10.08    1.52
   5   6  -9  456.88   11.58
  -5  -6   9  470.82   10.95
   4   6  -9   93.87    3.22
  -4  -6   9  107.38    4.01
  -4   6   9   96.76    5.74
   3   6  -9  203.47    5.16
   3   6  -9  222.04    9.01
  -3   6   9  219.97    8.95
   2   6  -9  188.01    8.19
  -2   6   9  192.63    8.29
   1   6  -9  491.56   14.43
   0   6  -9   16.29    2.30
   1   6   9  275.26    7.38
  -1  -6  -9  260.48   10.02
  -1   6  -9  271.66    9.95
   1  -6   9  244.39    9.51
   2   6   9    8.62    1.27
  -2  -6  -9   10.07    2.03
   2   6   9    7.45    1.46
   2  -6   9   10.39    2.06
  -2   6  -9    9.48    1.75
   3   6   9  157.06    5.92
  -3  -6  -9  153.24    7.68
   3  -6   9  142.09    6.99
   3   6   9  160.13    7.03
  -3   6  -9  146.61    6.92
   4   6   9  199.63    7.21
  -4  -6  -9  194.85    8.94
   4   6   9  185.65    8.00
  -4   6  -9  194.99    8.25
   4  -6   9  191.68    8.21
  -5  -6  -9   -0.08    1.02
   5   6   9    0.28    0.77
   5   6   9    1.72    1.14
  -5   6  -9    0.22    0.87
   5  -6   9    0.69    0.82
   6   6   9   36.83    3.24
  -6  -6  -9   32.21    3.70
   6   6   9   34.72    3.55
   6  -6   9   39.56    3.75
  -6   6  -9   37.30    3.65
   7   6   9   26.51    2.89
   7  -6   9   28.24    3.17
  -7  -6  -9   30.69    3.61
   7   6   9   29.70    3.38
  -7   6  -9   27.98    3.32
   8  -6   9   60.13    4.79
  -8  -6  -9   56.24    5.13
   8   6   9   61.22    5.00
  -8   6  -9   69.10    5.26
  -9  -6  -9   32.83    4.11
   9   6   9   31.34    3.71
  -9   6  -9   34.29    3.77
   9  -6   9   27.96    3.39
 -10  -6  -9    2.53    1.44
  10  -6   9    3.70    1.78
  10   6   9    1.48    1.36
 -10   6  -9    3.26    1.41
  11   6   9   15.54    2.69
 -11   6  -9   17.84    2.89
 -19  -7   9    5.63    1.98
 -18  -7   9   36.01    4.27
 -17  -7   9   -0.97    1.06
 -17   7   9    0.56    1.48
 -16   7   9  243.52   12.28
 -16  -7   9  235.79   10.48
 -15   7   9   23.67    3.75
 -15  -7   9   27.91    3.36
 -14   7   9   35.53    4.42
 -14  -7   9   32.46    3.48
 -13   7   9   86.35    6.54
 -13  -7   9   84.50    5.39
 -12   7   9  106.24    7.06
 -12  -7   9   69.48    4.77
 -11   7   9   72.21    5.70
 -11  -7   9   71.45    4.57
  10   7  -9   41.88    3.69
 -10   7   9   45.19    4.40
 -10  -7   9   45.78    3.48
   9   7  -9  142.40    6.62
  -9   7   9  145.48    7.86
  -9  -7   9  151.19    6.21
   8   7  -9  334.21   10.76
  -8   7   9  348.70   12.58
  -8  -7   9  348.43    9.83
   7   7  -9  125.67    5.89
  -7   7   9  124.01    7.00
  -7  -7   9  132.96    5.19
   6   7  -9    0.47    0.67
  -6   7   9    1.60    1.12
  -6  -7   9   -0.12    0.47
  -5   7   9   64.50    4.87
  -4   7   9  532.89   15.74
   3   7  -9   48.83    4.32
  -3   7   9   45.46    3.98
   2   7  -9  385.86   12.98
  -2   7   9  377.97   12.67
   1   7  -9  307.60   11.27
   0   7  -9   23.92    2.93
  -1  -7  -9  145.47    7.22
  -1   7  -9  143.13    7.20
   1  -7   9  138.95    7.14
  -2  -7  -9  123.49    6.76
   2  -7   9  119.03    6.60
  -3  -7  -9  132.44    7.20
   3   7   9  134.95    6.82
   3  -7   9  129.65    6.81
  -4  -7  -9   63.99    5.11
   4   7   9   65.72    4.78
   4  -7   9   75.68    5.14
   5  -7   9   10.92    2.06
  -5  -7  -9    6.57    1.81
   5   7   9    6.73    1.78
  -6  -7  -9   22.23    3.21
   6  -7   9   26.20    3.11
   6   7   9   18.66    2.82
  -7  -7  -9   34.86    3.96
   7  -7   9   37.25    3.68
   7   7   9   39.76    4.04
   8  -7   9   76.07    5.53
  -8  -7  -9   72.15    5.86
   8   7   9   77.57    5.89
   9  -7   9   63.85    5.18
  -9  -7  -9   58.20    5.46
   9   7   9   52.85    5.01
 -10  -7  -9   78.61    6.43
  10   7   9   66.10    5.89
  10  -7   9   74.53    5.77
  11   7   9    6.58    2.40
 -17   8   9   14.08    3.13
 -16   8   9    6.91    2.54
 -15   8   9    9.90    2.69
 -14   8   9   58.12    5.66
 -13   8   9   36.79    4.39
  12   8  -9   15.00    2.55
 -12   8   9   14.28    2.64
  11   8  -9   10.58    2.09
 -11   8   9   13.79    2.68
  10   8  -9  107.98    6.26
 -10   8   9  160.29    8.42
   9   8  -9  118.72    6.35
  -9   8   9  114.42    7.19
   8   8  -9    5.65    1.55
  -8   8   9    6.91    1.85
   7   8  -9    0.16    0.81
  -7   8   9   -0.47    0.98
   6   8  -9   23.54    2.61
  -6   8   9   20.16    2.89
  -5   8   9  244.21   10.08
   4   8  -9    2.71    1.40
  -4   8   9    3.50    1.32
   3   8  -9  122.13    7.18
  -3   8   9  122.99    6.82
   2   8  -9    2.68    1.23
   1   8  -9   22.71    2.99
   0   8  -9   58.57    4.81
   1  -8   9   -0.55    1.17
  -1  -8  -9    1.12    0.95
  -1   8  -9    1.89    1.38
  -2  -8  -9   89.77    5.92
   2  -8   9  119.44    6.65
  -3  -8  -9   22.92    3.10
   3  -8   9   20.74    2.79
   3   8   9   17.63    2.66
   4  -8   9   51.37    4.41
  -4  -8  -9   59.87    4.97
   4   8   9   53.85    4.62
  -5  -8  -9   41.88    4.25
   5   8   9   40.49    4.06
   5  -8   9   41.96    4.01
  -6  -8  -9   24.12    3.42
   6   8   9   21.83    3.07
   6  -8   9   23.87    3.09
  -7  -8  -9   90.22    6.52
   7  -8   9   87.81    5.99
   7   8   9   79.74    6.03
   8  -8   9   31.32    3.64
  -8  -8  -9   29.32    3.88
   8   8   9   31.08    3.85
   9  -8   9   53.87    4.90
  -9  -8  -9   55.50    5.37
   9   8   9   41.80    4.62
  10   8   9   11.65    2.75
  11   8   9    5.97    2.17
 -16   9   9    3.04    1.64
 -15   9   9    3.47    1.87
  14   9  -9   24.40    3.58
 -14   9   9   28.02    3.98
  13   9  -9   19.22    3.03
 -13   9   9   15.00    2.89
  12   9  -9   11.19    2.31
 -12   9   9   11.15    2.59
  11   9  -9   10.55    2.19
 -11   9   9    6.78    1.94
  10   9  -9    0.64    0.94
 -10   9   9    1.24    1.11
   9   9  -9    4.87    1.51
  -9   9   9    4.96    1.80
   8   9  -9  262.11   10.25
  -8   9   9  294.68   11.81
   7   9  -9   29.54    3.17
  -7   9   9   21.74    2.98
  -6   9   9    7.99    2.00
  -5   9   9   83.08    5.80
   4   9  -9  165.53    8.86
  -4   9   9  164.52    8.20
   3   9  -9    2.15    1.46
  -3   9   9    1.21    1.06
   2   9  -9   23.87    3.24
   1   9  -9   32.89    3.76
   0   9  -9  133.68    7.66
  -1  -9  -9    2.79    1.12
   1  -9   9    4.82    1.77
  -2  -9  -9  111.06    6.74
   2  -9   9  152.51    7.91
  -3  -9  -9   47.92    4.42
   3  -9   9   76.21    5.50
   4  -9   9   27.60    3.48
  -4  -9  -9   29.67    3.57
   4   9   9   22.76    3.12
  -5  -9  -9   97.31    6.64
   5   9   9   84.60    6.20
   5  -9   9   90.15    6.06
  -6  -9  -9    0.31    1.24
   6   9   9    0.94    1.22
   6  -9   9    1.48    1.36
  -7  -9  -9   22.44    3.43
   7  -9   9   22.04    3.06
   7   9   9   24.08    3.49
   8  -9   9   33.97    3.97
  -8  -9  -9   35.33    4.32
   8   9   9   34.44    4.41
   9   9   9    2.97    1.63
  10   9   9    5.36    2.13
  16  10  -9    2.44    1.93
 -16  10   9    3.39    1.95
  15  10  -9    4.88    1.83
 -15  10   9    3.34    1.39
  14  10  -9   18.60    3.23
 -14  10   9   16.53    3.08
  13  10  -9   29.59    3.93
 -13  10   9   38.21    4.61
  12  10  -9   12.23    2.60
 -12  10   9   10.59    2.62
  11  10  -9   11.99    2.44
 -11  10   9    9.27    2.33
  10  10  -9   47.00    4.43
 -10  10   9   48.25    4.89
   9  10  -9   24.53    3.28
  -9  10   9   23.57    3.34
   8  10  -9  145.17    7.73
  -8  10   9  161.53    8.67
  -7  10   9   14.57    2.67
  -6  10   9   69.89    5.47
   5  10  -9   43.53    4.69
  -5  10   9   45.28    4.26
   4  10  -9  100.69    7.15
  -4  10   9  103.85    6.55
   3  10  -9    1.44    1.08
   2  10  -9   24.93    3.41
   1  10  -9    0.47    0.88
   0  10  -9  106.12    7.09
   1 -10   9   68.29    5.47
  -1  10  -9   73.07    5.73
  -2 -10  -9    4.26    1.65
   2 -10   9    7.46    2.13
  -3 -10  -9   19.50    2.90
   3 -10   9   35.24    3.93
  -4 -10  -9    3.22    1.48
   4 -10   9    4.94    1.74
  -5 -10  -9   30.12    3.74
   5  10   9   28.52    3.82
   5 -10   9   27.47    3.43
  -6 -10  -9    3.72    1.87
   6  10   9    3.82    1.79
   6 -10   9    3.54    1.62
  -7 -10  -9    1.23    1.52
   7 -10   9    6.08    2.00
   7  10   9    4.50    1.88
  -8 -10  -9  129.87    8.37
   8  10   9  124.97    8.38
   9  10   9    0.27    1.49
  15  11  -9    3.78    1.89
 -15  11   9    2.02    1.76
  14  11  -9   31.33    4.26
 -14  11   9   37.20    4.70
  13  11  -9    3.39    1.57
 -13  11   9    2.76    1.67
  12  11  -9   27.07    3.79
 -12  11   9   34.65    4.53
  11  11  -9    2.42    1.23
 -11  11   9    1.97    1.24
  10  11  -9   23.32    3.39
 -10  11   9   21.27    3.28
   9  11  -9   11.83    2.47
  -9  11   9   11.42    2.56
  -8  11   9  111.72    7.35
   8  11  -9  118.90    7.18
  -7  11   9   25.30    3.53
  -6  11   9   23.76    3.32
   5  11  -9   28.98    4.03
  -5  11   9   32.46    3.77
   4  11  -9    1.91    1.29
   3  11  -9   17.96    3.09
   2  11  -9   27.28    3.77
   1  11  -9    5.36    2.00
   0  11  -9   28.21    3.89
   1 -11   9   -0.56    1.12
  -1  11  -9    3.10    1.66
  -2 -11  -9   65.73    5.31
   2 -11   9   79.31    6.06
  -3 -11  -9  111.81    7.12
   3 -11   9  105.99    7.04
   4 -11   9   50.42    4.82
  -4 -11  -9   51.68    4.93
  -5 -11  -9   19.01    3.17
   5 -11   9   21.74    3.16
  -6 -11  -9    0.98    1.21
   6  11   9    2.72    1.80
  -7 -11  -9   61.13    5.70
   7  11   9   50.29    5.42
   8  11   9  100.81    7.89
  14  12  -9  121.80    8.62
 -14  12   9  125.98    8.94
  13  12  -9    0.86    1.31
 -13  12   9    0.62    1.39
  12  12  -9    4.05    1.88
 -12  12   9    3.48    1.59
  11  12  -9   11.99    2.65
 -11  12   9   12.98    2.66
  10  12  -9  149.91    8.82
 -10  12   9  165.00    9.41
   9  12  -9   23.89    3.42
  -9  12   9   24.32    3.60
  -8  12   9   -0.71    1.32
  -7  12   9   28.26    3.75
   6  12  -9    2.47    1.53
  -6  12   9   -0.55    1.41
   5  12  -9   47.11    5.22
  -5  12   9   40.71    4.30
   4  12  -9    7.72    2.48
   3  12  -9  118.66    8.21
   2  12  -9  145.24    9.04
   1  12  -9   24.36    3.64
   0  12  -9   13.59    3.01
   1 -12   9   -1.63    1.77
   2 -12   9   -0.52    1.40
  -2 -12  -9    0.04    1.16
  -3 -12  -9   15.94    2.89
   3 -12   9   16.83    2.85
  -4 -12  -9   -2.32    1.80
   4 -12   9   -1.63    1.49
  -5 -12  -9  177.45    9.72
   5 -12   9  174.86    9.46
  -6 -12  -9   66.38    6.01
  12  13  -9    6.65    2.64
 -12  13   9    3.08    1.52
 -11  13   9   47.93    5.09
 -10  13   9    2.04    1.46
  -9  13   9  117.57    7.87
  -8  13   9   88.07    6.67
   7  13  -9    3.80    1.96
  -7  13   9    2.52    1.23
   6  13  -9   50.38    5.58
  -6  13   9   51.69    4.97
   5  13  -9   39.94    4.95
   4  13  -9  273.95   13.33
   3  13  -9   88.03    7.31
   2  13  -9    8.61    2.44
   1  13  -9  229.55   11.92
   0  13  -9   24.39    3.95
   1 -13   9  135.06    8.65
   2 -13   9   70.02    6.02
   3 -13   9   86.66    6.77
  -7  14   9   29.72    3.91
 -19   0  10   -0.72    1.53
 -18   0  10  108.45    7.84
 -17   0  10  102.42    7.39
 -16   0  10  105.45    7.30
 -15   0  10    0.79    1.12
 -14   0  10  531.99   17.07
 -13   0  10   24.93    3.25
 -12   0  10  146.85    7.72
 -11   0  10  613.08   17.42
 -10   0  10  261.69   10.13
   9   0 -10  142.77    4.00
  -9   0  10  150.67    7.17
  -8   0  10   51.77    3.93
   8   0 -10   38.39    2.00
  -7   0  10  149.20    6.91
   7   0 -10  153.89    4.75
  -6   0  10  301.76   10.09
  -5   0  10  283.27    9.69
   4   0 -10  653.26   14.05
  -4   0  10  616.40   15.98
   3   0 -10   95.74    4.00
  -3   0  10   87.24    4.92
  -2   0  10  204.41    6.85
   2   0 -10  214.10    6.50
  -2   0  10  204.18    7.73
  -1   0  10   72.85    3.79
   0   0  10   65.92    3.60
   1   0  10   27.93    2.42
   2   0  10  519.28   12.71
   2   0  10  484.15    9.91
   3   0  10  571.69   14.15
   4   0  10  111.20    5.38
   5   0  10   66.88    4.25
  -6   0 -10   51.63    4.59
   6   0  10   52.72    3.89
  -7   0 -10  120.65    7.37
   7   0  10  121.56    6.27
  -8   0 -10   68.56    5.66
   8   0  10   63.14    4.68
  -9   0 -10   -0.58    1.67
   9   0  10    1.58    1.11
 -10   0 -10  166.16    9.52
  10   0  10  172.06    8.69
 -11   0 -10   10.82    2.75
  11   0  10   16.89    2.72
 -12   0 -10   13.91    2.59
 -12   0 -10   16.17    3.04
 -19  -1  10    1.11    1.14
 -19   1  10    0.71    1.63
 -18  -1  10    4.77    1.82
 -18   1  10    3.89    1.92
 -17  -1  10   11.41    2.52
 -17   1  10   12.06    2.75
 -16  -1  10   30.59    3.89
 -16   1  10   35.19    4.26
 -15   1  10  136.52    8.18
 -15  -1  10  116.34    7.38
 -14   1  10  368.64   13.80
 -14  -1  10  351.23   13.22
 -13   1  10   63.10    5.23
 -13  -1  10   66.90    5.21
 -12   1  10   26.09    3.24
 -12  -1  10   28.70    3.34
 -11   1  10   44.76    4.16
 -11  -1  10   44.14    3.97
 -10   1  10   79.45    5.42
  10  -1 -10   78.41    2.40
 -10  -1  10   74.62    5.05
  -9   1  10   99.26    5.92
  -9  -1  10  111.72    6.02
   9  -1 -10  108.96    3.34
  -8   1  10  138.53    6.86
  -8  -1  10  136.35    6.55
   8   1 -10  140.90    4.34
  -7   1  10   40.30    3.58
  -7  -1  10   40.51    3.36
   7   1 -10   41.39    2.26
   6   1 -10    3.49    0.70
  -6   1  10    4.75    1.34
  -6  -1  10    2.26    0.89
  -5   1  10  174.37    7.43
  -5  -1  10  175.59    7.09
   5   1 -10  167.95    5.55
   4   1 -10   -0.55    0.59
   4  -1 -10    0.06    0.40
   4   1 -10   -0.41    0.53
   4  -1 -10    0.53    0.30
  -4   1  10   -0.13    0.68
  -4  -1  10    0.08    0.60
  -3   1  10  429.25   10.60
   3   1 -10  428.08   11.08
  -3  -1  10  419.13   12.08
  -3   1  10  404.84   12.41
   2   1 -10   67.56    3.60
  -2   1  10   66.70    3.37
  -2  -1  10   64.65    3.99
  -2   1  10   67.21    4.36
  -1  -1  10  803.93   17.77
  -1   1  10  797.38   16.67
   0  -1  10  230.28    7.76
   0   1  10  236.64    7.18
   1   1  10  184.17    6.27
   1  -1  10  176.98    6.74
   2   1  10   -0.20    0.38
   2  -1  10    0.38    0.60
   2   1  10    0.31    0.70
   3  -1  10  184.99    7.02
   3   1  10  167.14    5.42
   3   1  10  191.04    6.77
   4  -1  10  149.25    6.45
   4   1  10  151.22    6.23
   5   1  10   16.38    2.09
  -5  -1 -10   12.98    2.35
   5  -1  10   18.72    2.30
  -6  -1 -10  264.48   11.06
   6   1  10  245.89    8.98
   6  -1  10  264.47    9.43
   7   1  10   14.09    2.13
  -7  -1 -10   13.78    2.54
  -7   1 -10   14.88    2.62
   7  -1  10   13.98    2.20
  -8  -1 -10   72.31    5.94
  -8   1 -10   85.84    6.23
   8   1  10   73.54    5.15
   8  -1  10   78.60    5.21
  -9   1 -10    2.50    1.42
   9  -1  10    0.62    0.96
  -9  -1 -10    1.38    1.34
  -9   1 -10   -0.25    1.35
   9   1  10    0.18    0.96
 -10   1 -10    1.68    1.03
 -10  -1 -10    4.31    1.82
 -10   1 -10    1.26    1.22
  10   1  10    1.67    0.97
  10  -1  10    2.80    1.31
  11   1  10   32.21    3.76
 -11  -1 -10   35.56    4.49
 -11   1 -10   36.75    4.44
  11  -1  10   34.81    4.04
 -11   1 -10   32.27    3.84
 -12   1 -10    1.22    1.16
 -12  -1 -10    1.49    1.52
 -12   1 -10   -2.00    2.17
 -19  -2  10    6.36    2.28
 -19   2  10    7.38    2.37
 -18  -2  10   39.03    4.56
 -18   2  10   36.58    4.59
 -17   2  10   66.44    6.11
 -17  -2  10   67.47    5.90
 -16   2  10   50.10    5.09
 -16  -2  10   52.08    4.97
 -15  -2  10    6.06    1.83
 -15   2  10    2.98    1.62
 -14   2  10    2.66    1.11
 -14  -2  10   -0.15    1.12
 -13   2  10    6.70    1.81
 -13  -2  10    8.44    1.95
 -12   2  10    2.39    1.42
 -12  -2  10    4.06    1.48
 -11   2  10   23.17    3.07
 -11  -2  10   23.93    2.86
 -10   2  10   58.92    4.71
 -10  -2  10   61.96    4.50
  -9   2  10  295.20   11.03
  -9  -2  10  318.53   10.68
  -8   2  10  176.03    7.97
  -8  -2  10  177.41    7.50
  -7   2  10  465.29   14.04
  -7  -2  10  484.45   13.40
   7   2 -10  491.20   10.92
  -6   2  10    0.97    0.74
  -6  -2  10    1.17    0.82
   6   2 -10    3.29    0.79
   5   2 -10  748.81   13.02
  -5   2  10  729.01   18.49
  -5  -2  10  747.11   17.57
   5   2 -10  721.65   15.44
   4  -2 -10  177.65    4.73
   4  -2 -10  172.85    5.05
  -4   2  10  164.51    5.28
  -4   2  10  153.41    7.11
  -4  -2  10  165.32    6.63
   4   2 -10  162.58    5.72
   3   2 -10  621.58   14.95
  -3   2  10  633.72   13.23
  -3  -2  10  615.83   15.20
  -3   2  10  619.27   16.31
   3   2 -10  629.21   14.29
   2   2 -10   37.77    2.80
  -2  -2  10   39.23    3.00
  -2   2  10   36.98    3.24
  -2   2  10   33.95    2.21
   2   2 -10   35.64    2.73
   1   2 -10    0.09    0.53
   1   2 -10    0.44    0.59
  -1  -2  10   -0.26    0.65
  -1   2  10    0.21    0.44
   0   2 -10    1.49    0.77
   0   2  10    1.71    0.66
   0  -2  10    1.44    0.83
   1   2  10  693.45   14.94
   1  -2  10  656.80   16.19
  -1   2 -10  677.08   16.35
   2   2  10  147.49    5.05
   2  -2  10  150.54    6.35
  -2   2 -10  147.95    6.47
   2   2  10  151.89    5.66
   3   2  10   74.66    3.78
   3  -2  10   82.79    4.71
   3   2  10   79.93    4.12
  -3   2 -10   78.92    4.71
  -4  -2 -10   38.94    3.88
   4  -2  10   36.18    3.19
   4   2  10   34.51    2.63
   4   2  10   35.65    2.88
  -4   2 -10   40.73    3.47
  -5   2 -10    1.53    1.09
   5   2  10   -1.18    1.00
  -5  -2 -10    0.00    1.21
   5  -2  10    0.18    0.86
   6  -2  10   33.49    3.23
  -6  -2 -10   36.39    4.03
   6   2  10   33.27    3.12
  -6   2 -10   33.62    3.32
  -7   2 -10   -0.05    0.88
  -7  -2 -10   -0.70    1.46
   7  -2  10   -0.41    0.90
   7   2  10    2.18    1.02
  -8   2 -10    1.24    1.03
  -8  -2 -10   -1.35    1.47
   8  -2  10    1.70    1.17
   8   2  10    0.00    0.81
  -9   2 -10    4.69    1.60
   9  -2  10    2.75    1.21
  -9  -2 -10    4.56    2.03
  -9   2 -10    4.24    1.59
   9   2  10    6.90    1.79
 -10   2 -10   22.39    3.15
  10  -2  10   18.76    2.79
 -10  -2 -10   20.15    3.40
 -10   2 -10   23.95    3.56
  10   2  10   20.89    2.95
 -11  -2 -10   23.82    3.85
 -11   2 -10   24.32    3.53
  11   2  10   23.75    3.34
 -11   2 -10   31.97    3.78
  11  -2  10   27.25    3.60
 -12   2 -10   26.67    3.91
  12   2  10   29.74    3.93
 -13   2 -10   18.71    3.47
 -19  -3  10   53.12    5.50
 -18   3  10   46.52    5.36
 -18  -3  10   40.05    4.63
 -17  -3  10    7.67    2.25
 -17   3  10    3.34    1.72
 -16  -3  10    5.25    1.70
 -16   3  10    4.79    2.02
 -15   3  10   47.24    4.95
 -15  -3  10   55.37    4.93
 -14  -3  10   -1.13    1.13
 -14   3  10    1.71    1.14
 -13   3  10    2.45    1.32
 -13  -3  10    2.75    1.43
 -12   3  10   42.38    4.33
 -12  -3  10   31.55    3.42
 -11   3  10  131.49    7.44
 -11  -3  10  136.79    6.95
 -10   3  10  373.95   13.06
 -10  -3  10  370.27   11.96
  -9   3  10   22.21    2.86
  -9  -3  10   19.94    2.47
  -8   3  10  144.62    7.33
  -8  -3  10  146.89    6.60
  -7   3  10   51.24    4.18
  -7  -3  10   62.29    4.01
   6   3 -10   59.26    2.64
  -6   3  10   53.74    4.21
  -6  -3  10   52.66    3.60
   6   3 -10   55.09    2.99
   5   3 -10  420.07    8.34
  -5   3  10  410.90    8.99
   5  -3 -10  405.08    8.14
  -5   3  10  393.21   12.61
  -5  -3  10  407.68   11.41
   5   3 -10  401.68   10.24
  -4   3  10   32.18    1.88
  -4   3  10   27.70    3.01
   4   3 -10   32.35    2.43
   3   3 -10    5.57    1.27
  -3  -3  10    6.76    1.32
  -3   3  10    5.33    1.36
   3  -3 -10    6.67    1.01
  -3   3  10    5.18    0.83
   3   3 -10    6.23    1.18
  -2   3  10  358.15    8.15
   2   3 -10  337.22   10.32
  -2   3  10  333.65   11.24
   2   3 -10  341.08    9.75
  -1   3  10   10.25    1.16
   1   3 -10   11.27    1.73
   1   3 -10    8.96    1.52
   0   3 -10   39.18    3.06
   0   3  10   43.08    2.49
   0  -3  10   39.03    3.22
   1  -3  10   47.58    3.56
   1   3  10   49.61    2.86
  -1   3 -10   50.92    3.57
  -2   3 -10    1.35    0.81
   2   3  10    1.36    0.60
   2   3  10    1.74    0.72
   2  -3  10    0.20    0.63
  -3  -3 -10   28.27    3.32
   3   3  10   27.01    2.42
   3   3  10   24.70    2.24
   3  -3  10   26.73    2.72
  -3   3 -10   23.72    2.64
  -4  -3 -10  104.78    6.51
   4   3  10   87.05    4.51
   4   3  10  102.55    4.95
   4  -3  10   99.15    5.44
  -4   3 -10   92.10    5.35
  -5  -3 -10   91.81    6.24
   5  -3  10   88.40    5.25
   5   3  10   96.34    5.07
   5   3  10   90.50    4.82
  -5   3 -10   95.92    5.64
   6  -3  10  104.71    5.80
  -6  -3 -10   96.56    6.55
   6   3  10  103.42    5.49
   6   3  10   98.05    5.39
  -6   3 -10   98.06    5.88
   7   3  10   36.07    3.34
  -7  -3 -10   33.10    3.89
  -7   3 -10   38.02    3.78
   7  -3  10   38.17    3.57
  -8  -3 -10   76.96    6.08
   8   3  10   72.62    4.98
  -8   3 -10   65.70    5.05
   8  -3  10   65.40    4.92
  -9  -3 -10   -0.08    1.47
   9  -3  10    0.02    1.06
   9   3  10    1.20    0.97
  -9   3 -10    1.87    1.41
  10  -3  10   -0.77    1.05
 -10  -3 -10    1.01    1.42
  10   3  10    2.69    1.19
 -10   3 -10    1.85    1.16
  11  -3  10    8.73    2.27
 -11  -3 -10    1.93    1.47
  11   3  10    8.49    2.13
 -11   3 -10    3.71    1.55
  12   3  10   28.20    3.78
 -19  -4  10    2.88    1.90
 -18  -4  10   25.72    3.85
 -18   4  10   25.99    4.06
 -17   4  10  162.04    9.87
 -17  -4  10  158.11    8.96
 -16  -4  10   10.48    2.35
 -16   4  10    6.53    2.16
 -15  -4  10    1.22    1.42
 -15   4  10    1.69    1.46
 -14   4  10   46.68    4.81
 -14  -4  10   54.08    4.67
 -13  -4  10    8.07    1.83
 -13   4  10    4.02    1.99
 -12   4  10   60.60    5.23
 -12  -4  10   49.22    4.18
 -11   4  10  212.86    9.85
 -11  -4  10  230.19    9.17
 -10   4  10  247.35   10.47
 -10  -4  10  251.69    9.34
  -9   4  10  167.41    8.15
  -9  -4  10  159.40    6.98
  -8   4  10  279.30   10.69
  -8  -4  10  253.93    8.88
   7   4 -10  331.97    8.64
  -7   4  10  307.97   11.33
  -7  -4  10  320.03    9.94
  -6   4  10  452.12   14.14
  -6  -4  10  470.04   12.30
  -6   4  10  447.56    9.10
  -5   4  10  263.78   10.08
  -5  -4  10  270.72    8.44
  -5   4  10  255.61    5.65
  -4   4  10   56.45    2.09
  -4   4  10   52.54    4.19
  -4  -4  10   54.19    3.42
   4   4 -10   50.48    3.22
   3   4 -10   47.14    3.73
  -3  -4  10   56.57    3.35
  -3   4  10   46.03    3.86
   3   4 -10   56.20    3.44
  -3   4  10   53.37    2.20
   2   4 -10  320.35   10.61
  -2   4  10  312.93   11.06
   2   4 -10  349.07   10.05
  -2   4  10  342.25    7.61
   1   4 -10    1.92    1.00
   1   4 -10    2.53    1.02
   0   4 -10   96.77    5.29
   0  -4  10   97.18    5.41
   0   4  10   96.93    3.85
   0   4 -10  102.57    5.15
   1   4  10   20.80    1.94
   1  -4  10   24.88    2.70
  -1   4 -10   23.14    2.51
   2  -4  10    0.83    0.76
   2   4  10    0.94    0.69
  -2   4 -10   -0.03    0.78
  -3  -4 -10    5.96    1.57
   3  -4  10    4.27    1.33
   3   4  10    4.95    1.18
   3   4  10    5.19    1.11
  -3   4 -10    6.42    1.48
  -4  -4 -10   99.25    6.40
   4   4  10   96.07    4.77
   4   4  10   93.98    4.95
   4  -4  10   96.97    5.49
  -4   4 -10   91.66    5.41
   5   4  10   23.28    2.48
  -5  -4 -10   23.02    3.17
   5  -4  10   23.34    2.80
   5   4  10   21.86    2.46
  -5   4 -10   21.38    2.68
   6  -4  10   29.65    3.16
  -6  -4 -10   34.20    3.98
   6   4  10   32.03    3.01
   6   4  10   35.97    3.24
  -6   4 -10   30.41    3.28
  -7  -4 -10    3.84    1.54
   7   4  10    6.66    1.63
   7   4  10    3.59    1.33
   7  -4  10    5.49    1.58
  -7   4 -10    4.91    1.64
  -8  -4 -10   20.16    3.29
   8   4  10   13.59    2.21
   8  -4  10   13.59    2.34
  -8   4 -10   17.44    2.73
  -9  -4 -10    1.76    1.59
   9  -4  10    2.37    1.37
   9   4  10    2.26    1.28
  -9   4 -10    3.92    1.45
  10  -4  10    0.66    1.12
 -10  -4 -10    1.47    1.59
  10   4  10    0.73    0.95
 -10   4 -10    1.02    1.29
  11   4  10    1.40    1.11
 -11   4 -10    3.99    1.84
  12   4  10    4.96    2.00
 -19  -5  10   46.76    5.15
 -18   5  10  113.63    8.51
 -18  -5  10  120.44    7.93
 -17  -5  10    0.04    1.33
 -17   5  10    1.08    1.52
 -16  -5  10   18.93    3.08
 -16   5  10   14.38    2.92
 -15   5  10   62.73    5.82
 -15  -5  10   59.24    5.05
 -14   5  10  154.06    8.99
 -14  -5  10  136.91    7.58
 -13  -5  10   -0.05    0.87
 -13   5  10    1.68    1.58
 -12   5  10   42.57    4.51
 -12  -5  10   40.48    3.70
 -11   5  10  253.95   11.02
 -11  -5  10  256.02    9.64
 -10   5  10   59.08    4.96
 -10  -5  10   58.07    4.14
  -9   5  10   15.56    2.57
  -9  -5  10   16.81    2.15
   8   5 -10   23.61    2.29
  -8  -5  10   26.22    2.54
  -8   5  10   25.00    3.06
   7   5 -10    4.28    1.04
  -7   5  10    2.61    1.20
  -7  -5  10    3.29    1.05
  -6   5  10  152.53    7.68
  -6  -5  10  159.73    6.17
  -5  -5  10   34.92    2.64
  -5   5  10   26.18    3.01
  -4   5  10   93.15    2.33
   4   5 -10   82.78    5.31
  -4  -5  10   92.40    4.34
  -4   5  10   90.91    5.68
  -3   5  10   43.90    1.72
   3   5 -10   37.39    3.44
  -3   5  10   42.89    3.88
  -2   5  10  130.87    3.78
   2   5 -10  122.76    6.35
  -2   5  10  124.41    6.70
   2   5 -10  128.07    5.77
  -1   5  10  227.15    5.91
   1   5 -10  221.89    8.74
   1   5 -10  225.08    8.14
   0   5  10   29.86    1.98
   0   5 -10   28.30    3.02
   0  -5  10   28.10    2.98
   0   5 -10   24.83    2.60
   1   5  10  160.80    5.43
  -1   5 -10  154.00    6.87
   1  -5  10  148.90    7.13
   2   5  10  134.79    5.22
  -2  -5 -10  146.89    7.62
   2  -5  10  143.93    6.90
  -2   5 -10  135.43    6.59
   2   5  10  139.63    6.07
   3   5  10  302.89    8.99
  -3  -5 -10  314.54   11.92
   3   5  10  301.24    9.84
  -3   5 -10  304.24   10.62
   3  -5  10  309.58   10.73
   4  -5  10    2.96    1.08
  -4  -5 -10    3.52    1.34
   4   5  10    2.74    0.96
   4   5  10    2.69    1.12
  -4   5 -10    6.60    1.56
   5   5  10  149.06    6.56
  -5  -5 -10  166.86    8.66
   5   5  10  151.62    7.03
   5  -5  10  164.41    7.77
  -5   5 -10  162.22    7.76
   6   5  10  112.39    5.91
  -6  -5 -10  112.30    7.20
   6  -5  10  116.06    6.44
   6   5  10  114.95    6.24
  -6   5 -10  119.83    6.79
   7   5  10   23.46    2.78
  -7  -5 -10   27.30    3.56
   7   5  10   23.60    2.97
  -7   5 -10   26.42    3.27
   7  -5  10   25.54    3.16
  -8  -5 -10   16.03    2.85
   8   5  10   15.33    2.44
   8   5  10   13.74    2.37
   8  -5  10   14.96    2.58
  -8   5 -10   15.15    2.59
   9   5  10   79.80    5.59
  -9  -5 -10   73.78    6.29
  -9   5 -10   73.85    5.71
   9  -5  10   76.20    5.65
  10   5  10   32.87    3.84
 -10  -5 -10   31.70    4.23
  10  -5  10   31.80    3.80
 -10   5 -10   31.42    3.87
  11   5  10   24.10    3.35
 -19  -6  10    0.33    1.17
 -18  -6  10   13.71    2.78
 -17  -6  10   28.92    3.80
 -17   6  10   26.30    4.21
 -16  -6  10   15.68    2.80
 -16   6  10   20.49    3.69
 -15  -6  10   19.50    3.05
 -15   6  10   27.28    4.02
 -14   6  10   83.99    6.69
 -14  -6  10   84.37    5.82
 -13  -6  10   14.68    2.43
 -13   6  10   16.30    2.91
 -12   6  10  312.63   12.49
 -12  -6  10  201.76    8.88
 -11   6  10    1.17    1.03
 -11  -6  10   -0.19    0.75
 -10   6  10    2.55    1.28
 -10  -6  10    1.11    0.77
   9   6 -10  370.71   11.16
  -9   6  10  380.23   13.52
  -9  -6  10  390.74   11.41
   8   6 -10  240.17    8.17
  -8   6  10  240.71   10.36
  -8  -6  10  251.99    8.46
   7   6 -10  339.93    9.92
  -7   6  10  325.34   12.17
  -7  -6  10  339.10    9.83
   6   6 -10   99.18    4.58
  -6   6  10   94.74    6.10
  -6  -6  10   95.56    4.45
  -5   6  10   40.27    3.84
  -5  -6  10   43.87    2.81
   4   6 -10  132.62    7.13
  -4  -6  10  136.63    4.91
  -4   6  10  128.21    6.98
   3   6 -10  369.39   12.58
  -3   6  10  370.41   12.64
   2   6 -10    4.64    1.44
  -1   6  10   29.80    1.73
   1   6 -10   29.27    3.12
   0   6  10  135.97    4.56
   0   6 -10  134.52    6.86
   1  -6  10   70.70    4.94
   1   6  10   64.51    3.28
  -1   6 -10   65.85    4.46
   2   6  10   37.46    2.63
  -2  -6 -10   36.75    3.82
   2  -6  10   35.24    3.52
  -2   6 -10   38.67    3.53
  -3  -6 -10   -1.52    1.43
   3   6  10   -0.32    0.59
   3   6  10    0.58    0.77
  -3   6 -10   -1.02    1.18
   3  -6  10    1.36    1.00
   4   6  10   50.72    3.52
  -4  -6 -10   54.65    4.88
   4   6  10   47.21    3.88
  -4   6 -10   51.61    4.27
   4  -6  10   49.07    4.18
   5   6  10   40.70    3.33
  -5  -6 -10   37.57    4.16
   5   6  10   36.65    3.57
   5  -6  10   37.85    3.72
  -5   6 -10   42.89    4.00
   6   6  10   29.59    3.05
  -6  -6 -10   33.36    3.95
   6  -6  10   32.92    3.52
   6   6  10   26.82    3.17
  -6   6 -10   33.81    3.61
   7   6  10   54.73    4.34
   7  -6  10   62.83    4.89
  -7  -6 -10   60.74    5.43
   7   6  10   51.50    4.46
  -7   6 -10   63.54    5.11
  -8  -6 -10   10.63    2.55
   8   6  10    8.38    2.07
   8  -6  10    7.42    1.86
  -8   6 -10    9.67    2.09
  -9  -6 -10  100.02    7.37
  -9   6 -10   98.86    6.82
   9  -6  10  104.56    6.75
 -10   6 -10   97.71    6.90
 -18  -7  10   15.57    2.95
 -17  -7  10    6.77    1.88
 -17   7  10    8.75    2.50
 -16  -7  10    7.96    2.07
 -16   7  10    6.40    2.39
 -15  -7  10    7.04    1.72
 -15   7  10   13.80    3.07
 -14  -7  10   20.59    2.81
 -14   7  10   19.20    3.35
 -13   7  10   39.71    4.60
 -13  -7  10   50.31    4.28
 -12   7  10   13.53    2.62
 -12  -7  10   14.89    2.32
 -11   7  10   18.40    3.00
 -11  -7  10   17.59    2.35
  10   7 -10  257.14    9.43
 -10   7  10  255.12   11.20
   9   7 -10    4.31    1.17
  -9   7  10    4.43    1.62
   8   7 -10   -0.86    0.83
  -8   7  10    0.82    1.01
   7   7 -10    2.34    1.02
  -7   7  10    0.30    0.98
  -6   7  10    0.69    0.98
  -5   7  10   64.49    5.05
   4   7 -10   40.79    4.16
  -4   7  10   43.82    4.16
   3   7 -10  448.76   14.56
  -3   7  10  436.44   14.24
   2   7 -10   10.53    2.08
   1   7 -10  412.38   13.69
   0   7 -10    3.65    1.34
   1  -7  10  264.75   10.47
  -2  -7 -10    2.72    1.32
   2  -7  10    3.33    1.42
   3  -7  10   12.09    2.24
  -3  -7 -10   13.59    2.39
   3   7  10   14.75    2.31
  -4  -7 -10   18.15    2.97
   4   7  10   16.99    2.52
   4  -7  10   18.00    2.71
  -5  -7 -10   30.26    3.78
   5   7  10   33.76    3.57
   5  -7  10   38.78    3.84
  -6  -7 -10   98.75    6.88
   6   7  10   84.56    5.88
   6  -7  10   99.81    6.29
   7  -7  10   23.43    3.16
  -7  -7 -10   27.59    3.68
   7   7  10   22.72    3.18
   8  -7  10   70.13    5.48
  -8  -7 -10   60.87    5.62
   8   7  10   62.63    5.32
  -9  -7 -10   11.60    2.74
   9  -7  10    4.12    1.54
 -16   8  10    1.81    1.60
 -15   8  10   47.15    5.25
 -14   8  10   37.09    4.64
  13   8 -10    1.58    1.47
 -13   8  10    2.24    1.31
  12   8 -10   18.93    2.78
 -12   8  10   15.05    2.91
  11   8 -10   12.28    2.19
 -11   8  10   18.12    2.98
  10   8 -10   37.24    3.55
 -10   8  10   46.01    4.72
   9   8 -10    4.69    1.32
  -9   8  10    5.04    1.68
   8   8 -10   48.61    3.85
  -8   8  10   45.89    4.45
   7   8 -10   42.16    3.50
  -7   8  10   38.84    4.17
  -6   8  10  655.39   18.98
  -5   8  10  187.05    8.98
   4   8 -10  205.76    9.77
  -4   8  10  198.65    9.23
   3   8 -10  101.33    6.70
  -3   8  10   93.79    6.21
   2   8 -10  172.38    8.73
   1   8 -10   15.36    2.45
   0   8 -10  107.14    6.67
   1  -8  10  279.12   11.21
  -2  -8 -10   85.04    5.99
   2  -8  10  102.51    6.43
  -3  -8 -10  258.73   11.05
   3  -8  10  243.38   10.31
  -4  -8 -10    4.05    1.64
   4   8  10    3.61    1.42
   4  -8  10    5.25    1.66
   5  -8  10   14.22    2.54
  -5  -8 -10   15.88    2.91
   5   8  10   12.54    2.34
  -6  -8 -10  112.14    7.48
   6   8  10  101.66    6.63
   6  -8  10  107.75    6.79
   7  -8  10   -1.53    1.46
  -7  -8 -10    0.10    1.56
   7   8  10    2.23    1.30
  -8  -8 -10   -1.90    1.72
   8   8  10    1.23    1.43
   8  -8  10   -0.83    1.09
  16   9 -10    5.97    2.16
 -16   9  10    3.94    2.07
  15   9 -10  154.50    9.10
 -15   9  10  172.51   10.46
  14   9 -10   60.21    5.38
 -14   9  10   63.92    6.16
  13   9 -10    0.65    0.98
 -13   9  10    0.92    1.27
  12   9 -10   44.03    4.41
 -12   9  10   55.31    5.44
  11   9 -10   16.73    2.63
 -11   9  10   19.18    3.21
  10   9 -10   32.13    3.53
 -10   9  10   26.63    3.63
   9   9 -10   11.13    2.10
  -9   9  10    9.84    2.32
   8   9 -10  122.68    6.65
  -8   9  10  125.26    7.68
  -7   9  10  158.11    8.61
  -6   9  10   37.69    4.11
   5   9 -10    1.00    1.38
  -5   9  10    2.05    1.14
   4   9 -10  100.06    6.91
  -4   9  10  100.41    6.56
   3   9 -10   51.03    4.89
   2   9 -10  180.63    9.28
   1   9 -10    2.40    1.41
   0   9 -10  441.83   15.33
   1  -9  10   10.03    2.29
  -2  -9 -10   24.76    3.25
   2  -9  10   33.21    3.83
  -3  -9 -10   82.88    6.11
   3  -9  10   88.38    6.16
  -4  -9 -10    3.66    1.54
   4  -9  10    4.40    1.61
  -5  -9 -10   54.39    5.22
   5   9  10   58.32    5.10
   5  -9  10   60.56    5.08
  -6  -9 -10    6.89    2.35
   6   9  10    4.86    1.92
   6  -9  10    4.06    1.76
  -7  -9 -10  212.87   10.97
   7   9  10  203.48   10.40
   7  -9  10  214.42   10.05
   8   9  10    7.95    2.27
  16  10 -10   -1.03    1.78
  15  10 -10  113.40    7.95
 -15  10  10  120.42    8.80
  14  10 -10    5.85    1.98
 -14  10  10    6.73    2.21
  13  10 -10   11.15    2.32
 -13  10  10    9.30    2.30
  12  10 -10   71.20    5.73
 -12  10  10   75.35    6.47
  11  10 -10   11.61    2.47
 -11  10  10   12.39    2.55
  10  10 -10   84.11    5.88
 -10  10  10   74.07    6.18
  -9  10  10   73.12    6.06
  -8  10  10  115.33    7.53
  -7  10  10    0.33    1.36
  -6  10  10  236.97   10.78
   5  10 -10  160.42    9.27
  -5  10  10  155.29    8.49
   4  10 -10   94.50    6.99
  -4  10  10   85.21    6.16
   3  10 -10    0.05    1.21
   2  10 -10    8.29    2.15
   1  10 -10   15.81    2.90
   0  10 -10   10.40    2.43
   1 -10  10    3.61    1.66
  -2 -10 -10   40.43    4.23
   2 -10  10   64.27    5.40
   3 -10  10   11.34    2.31
  -3 -10 -10    4.85    1.71
   4 -10  10   62.55    5.35
  -4 -10 -10   58.51    5.38
   5 -10  10    1.54    1.31
  -5 -10 -10    2.35    1.27
  -6 -10 -10   54.03    5.43
   6  10  10   40.55    4.62
   6 -10  10   47.44    4.71
  -7 -10 -10   70.22    6.27
   7  10  10   68.49    6.12
   8  10  10   -0.08    1.36
 -14  11  10   45.50    5.31
 -13  11  10    4.99    2.12
 -12  11  10   26.06    4.08
 -11  11  10   99.36    7.43
 -10  11  10    0.36    1.24
  -9  11  10   10.15    2.39
  -8  11  10   12.21    2.66
  -7  11  10   78.78    6.19
   6  11 -10    6.15    2.16
  -6  11  10    4.99    1.74
   5  11 -10    7.93    2.32
  -5  11  10    7.89    2.10
   4  11 -10   46.67    5.10
   3  11 -10   12.80    2.73
   2  11 -10   38.10    4.52
   1  11 -10    6.09    2.18
   0  11 -10  224.44   11.14
   1 -11  10    8.79    2.28
   2 -11  10   28.86    3.94
  -3 -11 -10   40.48    4.42
   3 -11  10   40.66    4.43
  -4 -11 -10   20.87    3.37
   4 -11  10   23.81    3.41
  -5 -11 -10   18.22    3.24
  -6 -11 -10    1.88    1.56
   7  11  10   85.70    7.19
 -13  12  10   -0.75    1.83
 -12  12  10   52.59    5.63
 -11  12  10   30.54    4.19
 -10  12  10   10.63    2.52
  -9  12  10    4.84    1.85
  -8  12  10   50.97    5.15
   7  12 -10    4.80    1.80
  -7  12  10    4.13    1.64
   6  12 -10   22.03    3.74
  -6  12  10   20.84    3.27
   5  12 -10   33.18    4.51
   4  12 -10   81.35    6.99
   3  12 -10   19.32    3.52
   2  12 -10   40.89    4.89
   1  12 -10    7.39    2.16
   0  12 -10    5.94    2.02
   1 -12  10    2.12    1.59
   2 -12  10  114.11    7.85
   3 -12  10   25.87    3.73
  -3 -12 -10   27.80    3.84
  -4 -12 -10   -2.11    2.18
  -5 -12 -10   53.52    5.51
 -12  13  10   24.90    3.95
 -11  13  10    2.82    2.02
 -10  13  10   35.58    4.56
  -9  13  10    5.78    2.09
  -8  13  10   42.63    4.77
  -7  13  10    3.12    1.57
   5  13 -10    1.11    1.41
   4  13 -10   13.95    3.20
   3  13 -10   -1.80    1.76
   0 -13  10    2.23    1.36
  -9  14  10   -0.60    1.23
  -8  14  10   45.73    5.07
 -19   0  11   -1.32    1.64
 -18   0  11   -0.72    1.45
 -17   0  11    1.96    1.50
 -16   0  11   -1.26    1.34
 -15   0  11    0.96    1.39
 -14   0  11    2.61    1.81
 -13   0  11   -0.90    1.32
 -12   0  11    1.90    1.30
 -11   0  11    2.82    1.74
 -10   0  11    1.54    1.00
  10   0 -11    0.71    0.39
  -9   0  11    1.73    1.13
   9   0 -11    0.52    0.35
   8   0 -11    1.70    0.59
  -8   0  11    0.98    0.99
   7   0 -11    0.08    0.45
  -7   0  11    0.26    0.89
  -6   0  11    0.27    0.83
  -5   0  11    2.55    1.21
   4   0 -11    1.47    0.79
  -4   0  11    0.98    0.84
   3   0 -11   -0.63    0.58
  -3   0  11    0.31    0.78
  -3   0  11    0.89    0.59
  -2   0  11    0.18    0.70
  -2   0  11    0.27    0.67
  -1   0  11    1.03    0.71
   0   0  11    0.07    0.62
   1   0  11   -0.43    0.62
   2   0  11   -0.08    0.59
   3   0  11   -0.16    0.68
   4   0  11    1.91    1.20
   5   0  11    0.31    0.86
   6   0  11   -0.15    0.90
   7   0  11    1.48    1.16
   8   0  11    0.16    1.12
  -8   0 -11    1.03    1.36
  -9   0 -11   -1.01    1.56
   9   0  11    1.07    1.20
 -10   0 -11   -1.33    1.86
  10   0  11    2.21    1.34
 -11   0 -11    1.47    1.29
 -19  -1  11   11.02    2.88
 -18   1  11   35.96    4.64
 -18  -1  11   36.16    4.47
 -17   1  11    0.64    1.22
 -17  -1  11    4.91    1.99
 -16   1  11    4.65    1.84
 -16  -1  11    8.20    2.35
 -15   1  11   43.49    4.76
 -15  -1  11   32.28    4.08
 -14   1  11   65.29    5.56
 -14  -1  11   55.64    5.04
 -13   1  11    0.28    1.18
 -13  -1  11    1.29    1.55
 -12   1  11   60.16    5.09
 -12  -1  11   58.27    4.89
 -11   1  11  174.16    8.67
 -11  -1  11  179.16    8.53
 -10   1  11   49.46    4.40
 -10  -1  11   48.53    4.24
  10  -1 -11   49.14    2.11
   9   1 -11   50.04    2.45
  -9   1  11   48.24    4.25
  -9  -1  11   50.05    4.12
   9  -1 -11   50.14    2.37
  -8   1  11  522.71   15.45
  -8  -1  11  508.25   14.88
   8   1 -11  534.86   11.44
  -7   1  11    0.78    0.87
  -7  -1  11    3.00    1.27
   7   1 -11    0.97    0.64
  -6   1  11  950.15   22.84
  -6  -1  11  972.76   22.35
   6   1 -11  970.91   19.22
   5   1 -11    1.62    0.70
   5  -1 -11    1.81    0.67
  -5   1  11    1.73    1.02
  -5  -1  11    0.74    0.70
   4   1 -11    4.77    1.02
   4  -1 -11    2.57    0.72
   4   1 -11    2.92    0.85
  -4  -1  11    4.15    1.26
  -4   1  11    2.02    0.96
   3   1 -11  646.27   14.98
  -3  -1  11  644.68   16.38
  -3   1  11  633.97   16.87
  -3   1  11  656.13   14.56
  -2   1  11  387.02   10.09
  -2  -1  11  372.77   10.88
   2   1 -11  400.34   10.62
  -2   1  11  389.75   12.27
  -1   1  11   10.68    1.43
  -1  -1  11   10.83    1.65
   0  -1  11   40.47    3.12
   0   1  11   39.31    2.80
   1   1  11  188.88    6.71
   1  -1  11  192.19    7.24
   2  -1  11    2.30    0.82
   2   1  11    2.50    0.93
   3  -1  11    1.09    0.83
   3   1  11    0.64    0.90
   4  -1  11   45.86    3.59
   4   1  11   43.67    3.34
   5   1  11   84.46    4.86
   5  -1  11   87.67    5.19
   6   1  11   12.97    2.09
  -6  -1 -11    7.52    2.16
   6  -1  11   12.93    2.07
   7   1  11   22.17    2.74
  -7  -1 -11   17.73    2.93
   7  -1  11   26.19    3.03
  -8  -1 -11   88.50    6.81
   8   1  11   94.16    5.99
   8  -1  11   85.16    5.69
  -8   1 -11   82.49    5.81
  -9   1 -11   27.94    3.48
  -9  -1 -11   38.33    4.72
   9   1  11   30.35    3.54
   9  -1  11   32.46    3.65
 -10   1 -11    4.71    1.61
 -10  -1 -11    2.20    1.99
 -10   1 -11    1.19    1.48
  10   1  11    0.65    0.97
  10  -1  11    3.19    1.41
 -11   1 -11   31.87    4.30
  11   1  11   28.16    3.60
 -19  -2  11    1.80    1.43
 -18   2  11    0.41    1.26
 -18  -2  11   -0.24    1.31
 -17   2  11   72.53    6.49
 -17  -2  11   68.17    6.09
 -16   2  11    3.26    1.65
 -16  -2  11    3.26    1.59
 -15   2  11  174.37    9.76
 -15  -2  11  184.42    9.58
 -14   2  11   60.08    5.43
 -14  -2  11   70.38    5.57
 -13   2  11   71.28    5.79
 -13  -2  11   67.14    5.32
 -12   2  11  391.40   14.32
 -12  -2  11  418.31   13.94
 -11   2  11   89.95    6.22
 -11  -2  11   89.75    5.82
 -10   2  11   84.70    5.85
 -10  -2  11   84.38    5.44
  -9   2  11  114.45    6.67
  -9  -2  11  122.09    6.41
  -8   2  11  560.13   16.36
  -8  -2  11  561.59   15.53
  -7   2  11   43.01    3.94
  -7  -2  11   39.53    3.38
   7   2 -11   42.91    2.60
   6   2 -11  101.78    2.98
  -6   2  11   95.28    5.79
  -6  -2  11   96.02    5.38
   6   2 -11   98.64    4.26
   5  -2 -11  353.47    8.08
  -5   2  11  323.32   11.44
  -5  -2  11  345.30   10.84
   5   2 -11  345.55    9.32
   4   2 -11   12.38    1.59
  -4   2  11   12.98    1.41
   4  -2 -11   12.59    1.16
   4   2 -11   11.67    1.64
  -4  -2  11   12.22    1.87
  -4   2  11    9.66    1.87
  -3   2  11  551.92   12.36
   3   2 -11  568.14   14.11
  -3  -2  11  555.46   14.48
  -3   2  11  537.13   15.40
   3   2 -11  568.39   13.62
   2   2 -11  173.24    6.66
  -2   2  11  158.92    7.46
  -2   2  11  163.60    5.49
   2   2 -11  160.72    6.33
  -1   2  11   35.43    2.44
   1   2 -11   35.75    2.96
  -1  -2  11   33.67    2.96
   0   2  11    9.62    1.32
   0   2 -11    9.12    1.63
   0  -2  11    9.01    1.58
   1   2  11   51.25    3.17
  -1   2 -11   47.40    3.58
   1  -2  11   47.16    3.51
   2   2  11  317.79    8.18
   2  -2  11  325.43   10.42
  -2   2 -11  314.24   10.56
   2   2  11  330.67    9.43
  -3   2 -11    2.22    0.90
   3   2  11    2.00    0.89
   3  -2  11    3.35    1.17
   4  -2  11  106.28    5.69
   4   2  11  103.94    5.19
  -4   2 -11  109.18    6.07
  -5   2 -11    4.93    1.56
   5   2  11    3.77    1.09
  -5  -2 -11    3.51    1.70
   5  -2  11    6.24    1.56
  -6  -2 -11   22.91    3.41
   6   2  11   24.71    2.80
  -6   2 -11   29.47    3.32
   6  -2  11   23.20    2.85
  -7   2 -11    4.58    1.47
  -7  -2 -11    6.99    2.09
   7  -2  11    6.43    1.71
   7   2  11    4.59    1.53
  -8   2 -11    0.85    0.98
   8  -2  11    0.27    0.91
   8   2  11    1.62    1.07
  -9  -2 -11   54.87    5.49
   9   2  11   61.71    4.97
   9  -2  11   53.58    4.67
  -9   2 -11   59.94    5.10
 -10   2 -11   23.58    3.27
  10  -2  11   24.56    3.37
 -10  -2 -11   21.19    3.72
  10   2  11   19.88    2.94
  11   2  11    0.94    1.13
 -19  -3  11   26.33    3.94
 -18  -3  11    2.94    1.70
 -18   3  11    2.24    1.52
 -17  -3  11    3.14    1.50
 -17   3  11    4.34    2.05
 -16   3  11  125.96    8.47
 -16  -3  11  115.47    7.61
 -15   3  11   17.81    3.21
 -15  -3  11   12.12    2.51
 -14   3  11   10.54    2.51
 -14  -3  11   10.72    2.19
 -13   3  11    9.83    2.41
 -13  -3  11    6.26    1.81
 -12   3  11    2.71    1.57
 -12  -3  11    1.24    0.92
 -11   3  11   84.34    6.10
 -11  -3  11   81.82    5.43
 -10   3  11   29.05    3.56
 -10  -3  11   30.08    3.20
  -9   3  11   41.77    4.01
  -9  -3  11   41.16    3.65
  -8   3  11  159.43    7.97
  -8  -3  11  156.30    7.09
  -7   3  11   36.16    3.71
  -7  -3  11   31.58    3.01
  -6   3  11   57.00    4.47
  -6  -3  11   56.71    3.95
   6   3 -11   60.38    3.35
  -5   3  11  287.76   10.74
  -5  -3  11  287.64    9.52
  -5   3  11  286.61    7.21
   5   3 -11  283.71    8.45
   4   3 -11  324.97   10.58
  -4  -3  11  329.39   10.16
  -4   3  11  319.58   11.39
   4   3 -11  326.86    9.46
  -4   3  11  340.49    7.99
   3   3 -11   19.25    2.34
  -3  -3  11   17.65    2.12
  -3   3  11   20.50    1.63
  -3   3  11   21.88    2.76
   3   3 -11   21.56    2.18
  -2   3  11  532.27   11.56
   2   3 -11  543.70   14.17
  -2   3  11  503.39   15.19
   2   3 -11  521.75   13.45
  -1   3  11   22.99    1.84
   1   3 -11   20.53    2.36
  -1  -3  11   21.64    2.50
   1   3 -11   23.00    2.39
   0  -3  11   66.69    4.40
   0   3 -11   63.82    4.13
   0   3  11   65.20    3.34
   1  -3  11  269.28    9.48
   1   3  11  264.09    7.83
  -1   3 -11  272.10    9.41
   2   3  11  107.80    4.56
   2   3  11  111.08    4.90
  -2   3 -11  115.89    5.96
   2  -3  11  112.43    5.84
   3   3  11  217.42    7.61
   3  -3  11  233.45    8.85
  -3   3 -11  221.56    8.84
  -4   3 -11    4.72    1.54
  -4  -3 -11    1.43    1.11
   4  -3  11    3.52    1.25
   4   3  11    1.49    0.82
   5  -3  11  134.45    6.77
  -5  -3 -11  137.16    8.11
   5   3  11  139.30    6.43
  -5   3 -11  139.70    7.15
  -6   3 -11    4.13    1.63
  -6  -3 -11    3.71    1.57
   6   3  11    5.02    1.45
   6  -3  11    4.64    1.40
  -7  -3 -11   75.86    6.29
   7   3  11   72.45    4.98
  -7   3 -11   78.48    5.53
   7  -3  11   70.84    5.14
  -8  -3 -11   20.48    3.46
   8  -3  11   21.45    2.89
   8   3  11   20.27    2.71
  -8   3 -11   19.13    2.86
   9   3  11   54.87    4.63
  -9  -3 -11   64.94    6.07
   9  -3  11   48.40    4.51
  -9   3 -11   60.09    5.11
  10  -3  11    4.19    1.40
 -10  -3 -11    3.05    1.66
  10   3  11    7.22    1.94
 -10   3 -11    7.19    2.07
  11   3  11   19.11    3.07
 -19  -4  11  123.22    8.58
 -18  -4  11   -0.08    1.31
 -18   4  11    0.89    1.30
 -17  -4  11    3.49    1.56
 -17   4  11   -1.52    1.68
 -16   4  11   15.73    3.19
 -16  -4  11   14.69    2.72
 -15   4  11    3.62    1.68
 -15  -4  11    6.18    1.93
 -14   4  11   18.33    3.18
 -14  -4  11   21.31    3.06
 -13   4  11   10.18    2.47
 -13  -4  11    4.88    1.54
 -12   4  11  501.98   17.12
 -12  -4  11  541.34   16.07
 -11   4  11   79.94    6.05
 -11  -4  11   71.03    5.04
 -10  -4  11   28.75    3.06
 -10   4  11   27.20    3.46
  -9   4  11   48.09    4.39
  -9  -4  11   41.04    3.53
  -8   4  11  301.22   11.71
  -8  -4  11  323.69   10.50
   7   4 -11    2.96    0.80
  -7   4  11    3.97    1.44
  -7  -4  11    3.40    1.17
  -6   4  11   47.24    2.05
  -6   4  11   43.56    4.04
  -6  -4  11   44.02    3.40
  -5   4  11  235.82    9.69
  -5   4  11  244.36    5.57
   5   4 -11  232.81    7.59
  -4   4  11   21.11    1.38
   4   4 -11   24.73    2.79
  -4   4  11   22.31    2.88
   4   4 -11   19.92    2.07
   3   4 -11  203.22    8.20
  -3   4  11  188.03    8.55
   3   4 -11  196.39    7.33
  -3   4  11  208.27    5.46
   2   4 -11   55.92    4.11
   2   4 -11   55.24    3.75
  -2   4  11   58.74    2.64
   1   4 -11  173.64    7.52
  -1   4  11  181.51    5.49
   1   4 -11  186.97    7.33
   0   4  11  388.21    9.55
   0   4 -11  390.50   11.73
   0  -4  11  389.08   12.31
   1  -4  11   89.83    5.37
   1   4  11   94.57    4.18
  -1   4 -11   92.82    5.27
   2  -4  11   -0.27    0.82
   2   4  11    1.10    0.73
  -2   4 -11    0.27    0.93
   3   4  11  386.83   11.04
   3   4  11  404.02   11.10
   3  -4  11  396.03   12.58
  -3   4 -11  393.04   12.53
  -4  -4 -11   -0.63    1.13
   4  -4  11    2.56    1.07
   4   4  11    0.43    0.69
  -4   4 -11    0.19    0.87
   5  -4  11    2.94    1.20
  -5  -4 -11    1.45    1.28
   5   4  11    1.81    1.01
  -5   4 -11    3.74    1.40
  -6  -4 -11   16.40    2.92
   6   4  11   15.00    2.24
   6  -4  11   10.00    1.96
  -6   4 -11   10.01    2.05
  -7  -4 -11    3.11    1.47
   7   4  11    5.26    1.49
   7  -4  11    3.72    1.42
  -7   4 -11    6.35    1.73
  -8  -4 -11   -1.28    1.57
   8   4  11   -0.58    1.28
   8  -4  11    1.00    0.93
  -8   4 -11    0.76    1.21
   9   4  11  293.89   11.55
  -9  -4 -11  289.20   13.38
  -9   4 -11  301.93   12.28
   9  -4  11  293.05   11.81
  10   4  11    2.20    1.02
  11   4  11    6.54    1.91
 -19  -5  11    5.20    1.99
 -18  -5  11    0.81    1.29
 -17  -5  11    0.50    1.04
 -17   5  11    0.62    1.39
 -16  -5  11    7.05    2.20
 -16   5  11    6.67    2.46
 -15   5  11   -0.02    1.17
 -15  -5  11    0.61    1.07
 -14   5  11    4.01    1.70
 -14  -5  11    5.25    1.56
 -13   5  11  386.64   14.92
 -13  -5  11  365.55   13.04
 -12   5  11  183.42    9.52
 -12  -5  11  125.41    6.96
 -11   5  11   62.55    5.40
 -11  -5  11   63.49    4.59
 -10   5  11    4.84    1.59
 -10  -5  11    7.76    1.67
  -9   5  11  151.19    8.15
  -9  -5  11  150.87    6.89
   8   5 -11  127.33    5.18
  -8   5  11  119.45    7.18
  -8  -5  11  123.42    5.94
  -7   5  11  337.15   12.67
  -7  -5  11  379.46   10.99
  -6   5  11   95.99    6.22
  -6  -5  11   91.22    4.73
  -5   5  11   36.16    3.71
  -5  -5  11   41.95    3.05
   4   5 -11   85.65    5.50
  -4  -5  11   85.07    4.27
  -4   5  11   77.38    5.47
   3   5 -11   23.40    2.88
  -3   5  11   22.52    1.36
  -3   5  11   20.49    2.87
   2   5 -11   62.04    4.54
  -2   5  11   67.96    2.75
   2   5 -11   67.98    4.24
   1   5 -11  291.26   10.66
  -1   5  11  296.86    7.46
   1   5 -11  299.96   10.00
   0   5  11    1.87    0.60
   0  -5  11    1.85    1.13
   0   5 -11    1.28    0.98
   1  -5  11    1.83    1.15
   1   5  11    3.88    0.90
  -1   5 -11    1.67    0.97
   2  -5  11   -1.24    1.17
  -2   5 -11   -0.62    1.03
   3   5  11   84.69    4.40
   3   5  11   71.74    4.56
  -3   5 -11   79.91    5.29
   3  -5  11   80.62    5.28
   4   5  11   72.49    4.30
  -4  -5 -11   72.75    5.84
   4   5  11   69.21    4.50
   4  -5  11   75.60    5.19
  -4   5 -11   77.99    5.34
   5   5  11   83.18    4.91
  -5  -5 -11   86.01    6.46
   5  -5  11   87.16    5.70
  -5   5 -11   78.85    5.52
   6   5  11   35.25    3.36
  -6  -5 -11   37.73    4.39
   6  -5  11   37.81    3.76
  -6   5 -11   40.35    3.99
   7  -5  11  157.32    8.03
   7   5  11  133.21    7.04
  -7  -5 -11  133.01    8.52
  -7   5 -11  147.28    8.05
  -8  -5 -11    1.40    1.54
   8   5  11   -0.02    0.90
   8  -5  11   -0.25    0.86
  -8   5 -11   -0.27    1.11
  -9  -5 -11    4.89    2.14
   9   5  11    7.24    1.89
   9  -5  11    5.49    1.59
  -9   5 -11    4.89    1.78
  10   5  11   -0.72    1.64
  11   5  11    3.94    1.52
 -19  -6  11   -0.28    1.62
 -18  -6  11    7.61    2.34
 -17  -6  11   22.88    3.50
 -17   6  11   17.27    3.47
 -16   6  11   41.16    5.07
 -16  -6  11   34.70    4.04
 -15   6  11    2.87    1.70
 -15  -6  11    3.56    1.53
 -14   6  11   37.80    4.71
 -14  -6  11   46.26    4.50
 -13   6  11    5.67    2.09
 -13  -6  11    4.77    1.77
 -12   6  11   95.10    7.05
 -12  -6  11  101.07    6.07
 -11   6  11  469.84   16.45
 -11  -6  11  478.74   14.16
  10   6 -11    1.34    0.89
 -10   6  11   -1.35    1.31
 -10  -6  11    1.07    0.87
  -9  -6  11   22.43    2.46
  -9   6  11   22.29    3.21
  -8  -6  11   22.42    2.40
  -8   6  11   25.93    3.39
  -7   6  11  198.02    9.49
  -7  -6  11  220.34    7.66
  -6   6  11  222.66    9.95
  -5   6  11    7.44    1.93
   4   6 -11  614.80   17.43
  -4   6  11  579.11   17.36
   3   6 -11   78.83    5.45
  -3   6  11   78.02    5.52
   2   6 -11    2.06    1.17
   1   6 -11  177.89    8.30
   0   6 -11  848.99   21.44
   0  -6  11  842.50   21.50
   0   6 -11  839.01   20.35
   1  -6  11    7.88    1.72
  -1   6 -11   11.29    1.97
   2  -6  11   60.82    4.75
  -2   6 -11   60.80    4.57
  -3  -6 -11   -0.75    1.27
   3   6  11    0.16    0.83
   3  -6  11    1.39    1.11
  -3   6 -11    0.81    0.82
   4   6  11   44.32    3.41
  -4  -6 -11   46.30    4.69
   4   6  11   51.06    4.05
  -4   6 -11   55.17    4.56
   4  -6  11   49.56    4.34
   5   6  11   29.20    2.91
  -5  -6 -11   28.08    3.74
   5  -6  11   30.00    3.44
  -5   6 -11   30.86    3.57
   6  -6  11    0.87    1.21
  -6  -6 -11   -0.53    1.46
   6   6  11    0.79    0.80
  -6   6 -11    2.05    1.42
   7  -6  11   25.88    3.31
   7   6  11   19.56    2.72
  -7  -6 -11   26.27    3.83
  -7   6 -11   18.97    2.92
   8  -6  11   36.25    4.08
   8   6  11   38.02    3.82
  -8  -6 -11   31.61    4.37
  -8   6 -11   38.78    4.31
 -16   7  11    3.35    2.31
 -15   7  11    2.73    1.53
 -14   7  11   12.63    2.85
 -13   7  11  120.09    8.14
  12   7 -11    0.81    1.17
 -12   7  11   -0.31    1.57
 -11   7  11    3.10    1.33
 -10   7  11   13.03    2.54
  -9   7  11   16.07    2.69
  -8   7  11    0.86    1.17
  -7   7  11  315.73   12.46
  -6   7  11  196.91    9.47
   5   7 -11  283.14   11.57
  -5   7  11  249.14   10.81
   4   7 -11    6.09    1.82
  -4   7  11    8.89    2.01
   3   7 -11   91.16    6.19
  -3   7  11   91.51    6.19
   2   7 -11   22.40    3.07
   1   7 -11   66.30    5.16
   0   7 -11  161.29    8.12
   0  -7  11  151.65    7.91
   1  -7  11    2.92    1.30
   2  -7  11  161.50    8.16
  -3  -7 -11   10.47    2.30
   3  -7  11    7.60    1.86
  -4  -7 -11   70.59    5.84
   4   7  11   65.44    4.95
   4  -7  11   74.59    5.44
  -5  -7 -11    3.02    1.58
   5  -7  11    3.20    1.48
  -6  -7 -11   12.42    2.64
   6  -7  11    9.58    2.05
   7  -7  11    8.39    1.95
  -7  -7 -11   15.18    2.99
 -16   8  11   46.70    5.61
 -15   8  11   -0.11    1.71
 -14   8  11   43.37    5.08
 -13   8  11  143.77    9.18
 -12   8  11   31.66    4.08
 -11   8  11    2.76    1.28
 -10   8  11   65.58    5.77
  -9   8  11  113.92    7.46
  -8   8  11   11.91    2.52
  -7   8  11  310.86   12.62
  -6   8  11    3.38    1.49
   5   8 -11    8.64    2.19
  -5   8  11    5.67    1.68
   4   8 -11  289.52   12.07
  -4   8  11  273.17   11.45
   3   8 -11   -0.31    1.11
   2   8 -11   13.60    2.46
   1   8 -11   17.88    2.98
   0   8 -11    0.41    1.10
   0  -8  11   -0.69    1.06
   1  -8  11   -0.01    1.30
   2  -8  11   10.46    2.16
  -3  -8 -11    9.22    2.23
   3  -8  11   13.81    2.45
  -4  -8 -11   28.47    3.74
   4  -8  11   25.46    3.34
  -5  -8 -11   48.15    5.00
   5  -8  11   40.97    4.23
  -6  -8 -11   19.59    3.31
   6  -8  11   18.66    2.89
  -7  -8 -11    3.06    2.03
 -15   9  11   29.15    4.49
 -14   9  11    6.20    2.04
 -13   9  11    0.49    1.35
 -12   9  11   21.02    3.54
 -11   9  11    0.66    1.26
 -10   9  11   48.13    5.02
  -9   9  11   23.76    3.56
  -8   9  11   13.87    2.71
  -7   9  11  100.19    6.94
  -6   9  11    1.68    1.36
   5   9 -11    1.83    1.26
  -5   9  11    1.89    1.28
   4   9 -11  189.73   10.04
  -4   9  11  195.60    9.67
   3   9 -11   58.81    5.39
   2   9 -11   70.71    5.80
   1   9 -11   40.51    4.39
   0   9 -11    4.26    1.73
   0  -9  11    2.85    1.62
   1  -9  11   22.87    3.28
   2  -9  11    5.08    1.76
   3  -9  11   23.07    3.21
  -3  -9 -11   19.66    3.10
  -4  -9 -11   16.79    2.88
   4  -9  11   21.02    3.14
  -5  -9 -11    2.86    1.40
   5  -9  11    8.47    2.06
  -6  -9 -11   70.17    6.29
 -14  10  11    3.63    1.74
 -13  10  11    0.11    1.58
 -12  10  11    1.32    1.46
 -11  10  11   17.57    3.27
 -10  10  11    5.41    1.85
  -9  10  11   10.88    2.51
  -8  10  11   47.87    4.91
  -7  10  11   42.25    4.61
   6  10 -11   40.04    4.70
  -6  10  11   42.16    4.52
   5  10 -11   27.35    3.97
  -5  10  11   28.18    3.71
   4  10 -11   75.12    6.32
   3  10 -11   13.19    2.86
   2  10 -11   26.40    3.78
   1  10 -11    1.93    1.46
   0  10 -11    7.35    2.34
   0 -10  11    3.85    1.54
   1 -10  11   49.56    4.94
   2 -10  11    2.66    1.47
   3 -10  11    0.79    1.10
  -4 -10 -11   16.18    3.01
   4 -10  11   15.14    2.75
  -5 -10 -11    1.08    1.33
 -13  11  11    3.53    1.63
 -12  11  11    6.65    2.08
 -11  11  11    9.13    2.32
 -10  11  11    4.27    1.82
  -9  11  11   13.00    2.83
  -8  11  11    3.05    1.52
   7  11 -11  116.32    8.42
  -7  11  11  116.37    7.76
   6  11 -11   72.85    6.61
  -6  11  11   62.37    5.69
   5  11 -11   25.63    3.98
  -5  11  11   24.99    3.62
   4  11 -11    0.33    1.33
   3  11 -11    3.32    1.74
   2  11 -11   98.16    7.50
   1  11 -11    4.15    2.04
   0 -11  11    1.89    1.03
   0  11 -11    3.14    1.68
   1 -11  11   42.99    4.73
   2 -11  11  110.92    7.61
  -4 -11 -11   44.48    4.91
 -11  12  11   42.78    5.16
 -10  12  11    1.06    1.57
  -9  12  11  195.97   10.76
  -8  12  11   -1.10    1.24
   7  12 -11   31.29    4.52
  -7  12  11   30.45    4.07
   6  12 -11    8.71    2.41
  -6  12  11    9.20    2.52
   5  12 -11    8.64    2.40
   4  12 -11    2.25    1.69
   3  12 -11   27.91    4.14
   2  12 -11   40.05    4.95
   1  12 -11   58.07    5.99
   0 -12  11   24.18    3.76
 -10  13  11   10.19    2.55
  -9  13  11    5.24    1.99
  -8  13  11   15.22    2.96
  -7  13  11    4.81    2.14
 -18   0  12   41.23    5.14
 -17   0  12   57.85    5.81
 -16   0  12  135.92    8.79
 -15   0  12  175.81    9.76
 -14   0  12  157.31    9.01
 -13   0  12  984.65   25.97
 -12   0  12   22.16    3.36
 -11   0  12  111.82    6.90
 -10   0  12  347.29   12.67
  -9   0  12   35.21    3.63
   9   0 -12   30.34    2.01
  -8   0  12   42.41    3.85
   8   0 -12   43.93    2.57
  -7   0  12  260.39   10.13
   7   0 -12  260.79    7.53
  -6   0  12  654.36   17.67
   5   0 -12   71.02    3.79
  -5   0  12   69.58    4.85
   4   0 -12  563.22   12.94
  -4   0  12  510.91   15.20
   3   0 -12  345.39    9.36
  -3   0  12  333.91   11.34
  -3   0  12  325.46    9.80
  -2   0  12    7.17    1.38
  -1   0  12    0.85    0.75
   0   0  12   55.13    3.65
   1   0  12 1165.16   24.41
   2   0  12  433.26   12.15
   3   0  12  225.19    8.42
   4   0  12  542.65   14.80
   5   0  12    8.69    1.77
   6   0  12   43.49    3.82
   7   0  12   66.84    4.96
   8   0  12  317.12   11.93
   9   0  12    0.53    1.20
 -18   1  12    5.51    2.16
 -18  -1  12    2.48    1.52
 -17   1  12   10.76    2.70
 -17  -1  12    4.98    1.82
 -16   1  12   45.91    5.14
 -16  -1  12   51.12    5.29
 -15   1  12   15.32    3.10
 -15  -1  12   10.30    2.57
 -14   1  12    2.23    1.60
 -14  -1  12   -0.37    1.13
 -13   1  12   65.05    5.67
 -13  -1  12   76.05    5.94
 -12   1  12   27.52    3.53
 -12  -1  12   24.58    3.39
 -11   1  12   60.72    5.13
 -11  -1  12   62.78    5.12
 -10   1  12    0.32    1.01
 -10  -1  12    0.64    1.17
  -9   1  12  267.49   10.81
  -9  -1  12  268.97   10.53
   9   1 -12  263.70    7.12
   9  -1 -12  269.74    7.10
  -8   1  12   20.44    2.81
  -8  -1  12   20.26    2.66
   8   1 -12   21.18    1.78
  -7   1  12    0.74    1.10
  -7  -1  12    1.56    0.99
   7   1 -12    1.31    0.66
   6   1 -12    5.94    1.12
  -6   1  12    3.18    1.35
  -6  -1  12    4.34    1.39
   5  -1 -12  542.76   11.57
  -5  -1  12  511.62   14.45
   5   1 -12  514.01   12.22
   4   1 -12   14.08    1.74
   4  -1 -12   15.16    1.59
  -4  -1  12   14.39    2.09
  -4   1  12   13.23    2.19
  -4   1  12   11.64    1.61
   3   1 -12    0.43    0.74
  -3   1  12   -0.64    0.67
   3   1 -12   -0.08    0.56
  -3  -1  12    0.30    0.84
  -3   1  12   -1.15    1.01
  -2  -1  12  913.71   20.64
  -2   1  12  940.20   19.53
  -1  -1  12   22.84    2.39
  -1   1  12   22.03    2.15
   0   1  12  485.20   12.47
   0  -1  12  478.33   13.02
   1   1  12    9.42    1.60
   1  -1  12    6.74    1.44
   2   1  12  328.60   10.02
   2  -1  12  303.18   10.18
   3  -1  12   64.46    4.31
   3   1  12   67.99    4.20
   4  -1  12  403.93   12.51
   4   1  12  406.03   12.08
   5   1  12  123.70    6.26
   5  -1  12  132.06    6.63
   6   1  12   41.31    3.68
   6  -1  12   44.43    3.89
   7   1  12   90.96    5.81
   7  -1  12  100.46    6.12
  -7   1 -12   89.67    6.15
  -8   1 -12   18.91    2.91
   8  -1  12   25.01    3.23
   8   1  12   21.36    3.03
  -9  -1 -12   84.02    7.07
   9   1  12   76.82    5.72
   9  -1  12   68.61    5.51
  -9   1 -12   64.95    5.54
  10   1  12   28.05    3.56
 -19  -2  12    7.18    2.29
 -18   2  12    1.12    1.39
 -18  -2  12    1.93    1.26
 -17   2  12   30.37    4.41
 -17  -2  12   26.75    3.86
 -16   2  12    9.23    2.59
 -16  -2  12   13.66    2.82
 -15   2  12   20.98    3.49
 -15  -2  12   18.20    3.09
 -14   2  12   36.82    4.47
 -14  -2  12   40.24    4.38
 -13   2  12    4.84    1.94
 -13  -2  12    2.52    1.35
 -12   2  12   46.70    4.74
 -12  -2  12   53.84    4.75
 -11   2  12   25.03    3.44
 -11  -2  12   23.83    3.13
 -10   2  12   53.83    4.81
 -10  -2  12   46.92    4.13
  -9   2  12    0.00    0.93
  -9  -2  12    0.00    1.07
  -8   2  12   65.48    5.13
  -8  -2  12   64.34    4.62
   8   2 -12   72.28    3.48
  -7   2  12   11.90    2.18
  -7  -2  12   13.77    2.30
   7   2 -12   10.31    1.39
  -6   2  12  329.05   11.87
  -6  -2  12  317.43   10.88
   6   2 -12  319.97    9.07
  -5   2  12  120.55    4.78
   5   2 -12  117.90    5.75
  -5   2  12  116.42    6.60
  -5  -2  12  127.81    6.35
   5   2 -12  122.62    5.19
   4   2 -12   80.07    4.55
  -4   2  12   75.20    3.64
  -4  -2  12   80.06    4.87
  -4   2  12   75.11    5.19
   4   2 -12   76.59    4.13
   3   2 -12  252.85    8.64
  -3  -2  12  226.21    8.73
  -3   2  12  246.83    9.81
   3   2 -12  255.37    8.45
  -3   2  12  250.76    7.34
  -2  -2  12  180.93    7.41
   2   2 -12  177.18    7.01
  -2   2  12  184.62    6.14
   2   2 -12  171.80    6.94
  -1   2  12  196.77    6.53
  -1  -2  12  196.13    7.80
   1   2 -12  193.95    7.63
   0  -2  12    1.83    1.00
   0   2 -12    0.89    0.94
   0   2  12    1.06    0.76
  -1   2 -12   15.99    2.22
   1  -2  12   11.49    1.84
   1   2  12   19.09    2.02
   2  -2  12  195.39    7.92
   2   2  12  192.87    7.07
  -2   2 -12  190.87    8.16
   3  -2  12  134.29    6.60
   3   2  12  138.68    6.08
  -3   2 -12  132.94    6.88
   4  -2  12    6.49    1.58
  -4   2 -12    4.71    1.59
   4   2  12    2.89    0.93
  -5   2 -12    2.57    1.29
   5   2  12    3.03    1.05
   5  -2  12    2.14    1.17
  -6   2 -12   25.08    3.22
   6   2  12   21.89    2.71
   6  -2  12   27.29    3.12
  -7   2 -12    7.50    2.01
  -7  -2 -12    5.80    2.05
   7  -2  12    5.66    1.63
   7   2  12    6.92    1.76
  -8   2 -12   10.93    2.41
   8  -2  12   11.76    2.27
  -8  -2 -12    7.62    2.26
   8   2  12   10.88    2.17
  -9   2 -12    4.76    1.75
   9  -2  12    2.75    1.35
  -9  -2 -12    2.58    1.49
   9   2  12    4.09    1.62
  10   2  12    3.15    1.72
 -19  -3  12   37.73    4.92
 -18   3  12    7.13    2.37
 -18  -3  12    7.93    2.35
 -17   3  12    4.13    2.09
 -17  -3  12    0.49    1.15
 -16   3  12    8.32    2.30
 -16  -3  12    8.25    2.13
 -15   3  12   15.15    2.95
 -15  -3  12   13.17    2.67
 -14   3  12    7.49    2.29
 -14  -3  12    5.15    1.82
 -13   3  12   -1.95    1.60
 -13  -3  12   -0.46    1.03
 -12   3  12    1.74    1.51
 -12  -3  12    3.04    1.49
 -11   3  12   13.93    2.68
 -11  -3  12   10.49    2.03
 -10   3  12   41.83    4.28
 -10  -3  12   43.12    3.99
  -9   3  12    4.24    1.56
  -9  -3  12    5.17    1.52
  -8   3  12   37.65    3.90
  -8  -3  12   32.92    3.24
  -7   3  12    4.97    1.39
  -7  -3  12    4.22    1.30
   7   3 -12    6.35    1.14
  -6   3  12  321.53   12.02
  -6  -3  12  335.07   10.94
   6   3 -12  335.97    9.55
  -6   3  12  339.62    8.40
  -5   3  12  109.93    4.12
   5   3 -12  108.76    5.84
  -5  -3  12  109.82    5.72
  -5   3  12  110.77    6.52
   5   3 -12  113.63    5.12
   4   3 -12  541.57   14.89
  -4  -3  12  508.78   14.32
  -4   3  12  527.51   16.14
   4   3 -12  558.46   13.95
  -4   3  12  576.87   12.06
  -3   3  12   11.41    1.31
   3   3 -12   11.02    1.83
  -3   3  12   11.79    2.20
   3   3 -12    8.65    1.48
  -2   3  12   11.27    1.29
   2   3 -12   10.25    1.84
   2   3 -12    8.92    1.61
  -1   3  12  643.91   14.03
   1   3 -12  609.26   15.78
  -1  -3  12  609.67   16.49
   0  -3  12   19.53    2.41
   0   3  12   17.84    1.83
   0   3 -12   19.63    2.41
   1  -3  12  172.41    7.59
   1   3  12  181.37    6.46
  -1   3 -12  174.91    7.64
  -2   3 -12    1.62    1.11
   2   3  12    4.26    1.13
   2  -3  12    3.01    1.33
   3  -3  12   81.67    5.29
   3   3  12   80.46    4.49
  -3   3 -12   85.93    5.44
  -4   3 -12    7.86    1.87
   4  -3  12    4.90    1.45
   4   3  12    7.51    1.47
  -5   3 -12   12.32    2.29
   5   3  12   14.06    2.14
   5  -3  12   11.93    2.14
  -6   3 -12    4.17    1.58
  -6  -3 -12    3.15    1.32
   6  -3  12    4.37    1.65
   6   3  12    4.02    1.37
   7  -3  12    1.02    1.03
   7   3  12    2.89    1.36
  -7   3 -12    0.30    1.01
  -8  -3 -12   11.52    2.85
   8  -3  12   11.98    2.40
   8   3  12    9.59    2.11
  -8   3 -12   12.12    2.40
   9   3  12    0.06    1.02
  10   3  12    9.64    2.23
 -19  -4  12   -1.24    1.73
 -18  -4  12   14.94    3.07
 -17   4  12    4.18    2.32
 -17  -4  12    3.62    1.89
 -16   4  12   -0.75    1.63
 -16  -4  12    1.52    1.52
 -15   4  12   16.91    3.23
 -15  -4  12   11.98    2.53
 -14   4  12   43.48    4.91
 -14  -4  12   55.44    5.06
 -13   4  12    3.57    1.85
 -13  -4  12    3.38    1.32
 -12   4  12    1.71    1.58
 -12  -4  12    3.05    1.31
 -11   4  12    3.62    1.86
 -11  -4  12    2.86    1.29
 -10   4  12   50.55    4.83
 -10  -4  12   48.09    4.11
  -9   4  12  111.50    7.06
  -9  -4  12  113.38    6.18
  -8   4  12    0.20    1.05
  -8  -4  12    2.04    1.04
  -7   4  12   32.08    3.68
  -7  -4  12   30.38    3.02
  -6   4  12  107.49    6.69
  -6  -4  12  114.11    5.75
   5   4 -12   93.01    5.74
  -5  -4  12  102.58    5.32
  -5   4  12  100.43    6.35
   5   4 -12  102.38    4.96
  -4   4  12   93.23    3.37
   4   4 -12   90.35    5.50
  -4  -4  12  100.76    5.15
  -4   4  12   88.77    5.93
   4   4 -12   96.23    4.96
   3   4 -12    7.15    1.62
  -3   4  12    9.18    2.01
   3   4 -12    9.59    1.67
  -3   4  12   11.24    1.18
   2   4 -12   11.83    2.01
  -2   4  12   14.48    1.41
   2   4 -12   12.69    1.93
  -1  -4  12   24.31    2.97
   1   4 -12   30.05    3.05
  -1   4  12   31.09    2.16
   1   4 -12   30.42    2.95
   0   4  12   87.47    3.99
   0  -4  12   81.25    5.28
   0   4 -12   90.80    5.29
   1  -4  12    0.10    0.88
  -1   4 -12    0.47    0.85
   1   4  12    0.27    0.66
   2   4  12  137.71    5.88
  -2   4 -12  147.38    7.20
   2  -4  12  138.63    6.98
   3   4  12   61.19    3.90
   3  -4  12   60.20    4.55
  -3   4 -12   55.06    4.45
   4  -4  12    1.73    1.15
   4   4  12    2.32    1.02
  -4   4 -12    3.89    1.41
   5  -4  12   -1.31    1.38
   5   4  12    0.13    0.78
  -5   4 -12   -2.09    1.40
  -6  -4 -12    8.03    2.41
   6   4  12   11.49    2.03
   6  -4  12   10.36    2.16
  -6   4 -12   11.19    2.28
   7   4  12   31.30    3.37
  -7  -4 -12   29.36    4.03
  -7   4 -12   39.65    4.23
   7  -4  12   38.16    3.98
   8   4  12   29.46    3.44
  -8  -4 -12   26.88    4.12
   8  -4  12   29.88    3.61
  -8   4 -12   20.10    3.21
   9   4  12   59.24    5.03
  10   4  12    3.55    1.39
 -19  -5  12    5.96    2.43
 -18  -5  12   70.20    6.37
 -17   5  12  100.13    8.21
 -17  -5  12  104.82    7.54
 -16   5  12    1.35    1.89
 -16  -5  12    0.83    1.06
 -15   5  12    3.62    1.93
 -15  -5  12    3.27    1.54
 -14   5  12   18.53    3.38
 -14  -5  12   17.96    2.89
 -13   5  12   53.69    5.41
 -13  -5  12   52.91    4.69
 -12   5  12  183.95    9.95
 -12  -5  12  179.88    8.62
 -11   5  12   24.40    3.54
 -11  -5  12   14.07    2.30
 -10   5  12    4.69    1.76
 -10  -5  12    5.70    1.50
  -9   5  12   61.05    5.29
  -9  -5  12   54.53    4.13
  -8   5  12   37.43    4.13
  -8  -5  12   35.12    3.15
  -7  -5  12   22.37    2.48
  -7   5  12   18.25    2.85
  -6   5  12    6.63    1.81
  -6  -5  12    5.12    1.29
   5   5 -12  474.23   14.88
  -5  -5  12  466.28   12.76
  -5   5  12  477.11   15.50
   4   5 -12   85.07    5.54
  -4   5  12   71.12    5.43
   3   5 -12   29.19    3.31
  -3   5  12   28.67    3.48
   3   5 -12   33.40    3.06
   2   5 -12   19.27    2.67
   2   5 -12   18.28    2.33
   1   5 -12   97.53    5.82
  -1  -5  12   95.44    5.91
   1   5 -12   95.91    5.49
   0  -5  12   30.94    3.42
   0   5 -12   24.44    2.84
   1  -5  12   54.51    4.42
  -1   5 -12   54.10    4.29
   2   5  12   18.16    1.98
   2  -5  12   16.79    2.59
  -2   5 -12   20.02    2.73
   3  -5  12   21.85    2.89
   3   5  12   27.82    2.57
  -3   5 -12   23.86    3.04
   4   5  12   77.72    4.63
   4  -5  12   75.82    5.39
  -4   5 -12   73.46    5.44
  -5  -5 -12    7.97    2.26
   5  -5  12   16.39    2.59
   5   5  12   14.17    2.11
  -5   5 -12   10.57    2.19
   6   5  12   87.29    5.40
   6  -5  12   82.08    5.75
  -6  -5 -12   81.20    6.76
  -6   5 -12   83.91    6.08
  -7  -5 -12   10.80    2.68
   7   5  12   11.80    2.23
   7  -5  12   12.73    2.52
  -7   5 -12   15.03    2.83
   8   5  12    1.92    0.96
 -16   6  12   50.36    5.82
 -16  -6  12   47.31    4.84
 -15   6  12    1.93    1.27
 -15  -6  12    2.19    1.40
 -14   6  12    6.87    2.24
 -14  -6  12    7.80    2.01
 -13   6  12   48.23    5.24
 -13  -6  12   48.55    4.43
 -12   6  12   49.94    5.17
 -11   6  12  117.72    7.78
 -10   6  12    9.07    2.32
  -9   6  12    7.93    2.10
  -8   6  12   92.66    6.51
  -7   6  12  104.66    6.93
  -6   6  12  152.08    8.31
   5   6 -12    1.67    1.06
  -5   6  12    3.09    1.69
   4   6 -12   -0.36    1.14
  -4   6  12    1.28    1.22
   3   6 -12    2.64    1.41
  -3   6  12    4.10    1.77
   2   6 -12  604.73   17.55
   1   6 -12    3.69    1.26
  -1  -6  12    3.95    1.41
   0   6 -12   27.96    3.22
   0  -6  12   30.32    3.40
   1  -6  12   10.28    1.99
  -1   6 -12    8.53    1.79
   2  -6  12   26.56    3.21
  -2   6 -12   29.32    3.36
  -3   6 -12   30.78    3.53
   3  -6  12   28.15    3.33
   4  -6  12    8.91    2.07
  -4   6 -12   12.15    2.36
  -5  -6 -12    3.31    1.71
   5  -6  12    1.49    1.27
  -5   6 -12    2.38    1.44
   6  -6  12    8.46    2.03
  -6  -6 -12   11.18    2.62
  -6   6 -12   14.08    2.67
   7  -6  12   53.36    4.85
  -7  -6 -12   51.65    5.52
  -7   6 -12   54.28    5.12
 -16   7  12    5.25    2.04
 -15   7  12   34.22    4.77
 -14   7  12    0.10    1.49
 -13   7  12    1.81    1.42
 -12   7  12   49.72    5.23
 -11   7  12   30.60    4.04
 -10   7  12    1.65    1.05
  -9   7  12   19.54    3.09
  -8   7  12   55.03    5.19
  -7   7  12  126.65    7.81
   6   7 -12    0.95    1.25
  -6   7  12    2.47    1.61
   5   7 -12    0.99    1.11
  -5   7  12    2.86    1.64
   4   7 -12    5.15    1.74
  -4   7  12    6.32    1.82
   3   7 -12  138.33    7.81
   2   7 -12  185.31    9.07
   1   7 -12   35.93    3.89
   0  -7  12  297.46   11.79
   1  -7  12    6.08    1.70
   2  -7  12   50.76    4.62
   3  -7  12    0.67    1.21
   4  -7  12   28.31    3.56
  -5  -7 -12    0.57    1.44
   5  -7  12    1.95    1.25
   6  -7  12    2.32    1.43
  -6  -7 -12    5.16    1.99
 -15   8  12    4.02    1.93
 -14   8  12  104.23    8.07
 -13   8  12   73.33    6.59
 -12   8  12   65.79    6.16
 -11   8  12    0.52    1.25
 -10   8  12   48.47    5.08
  -9   8  12   24.52    3.61
  -8   8  12    4.14    1.76
  -7   8  12    1.57    1.36
   6   8 -12  163.76    9.29
  -6   8  12  168.25    9.20
   5   8 -12  155.81    8.93
  -5   8  12  154.68    8.57
   4   8 -12   34.63    4.20
  -4   8  12   36.02    4.13
   3   8 -12  120.15    7.57
   2   8 -12   48.80    4.76
   1   8 -12   60.11    5.30
   0  -8  12    6.78    1.87
   1  -8  12   71.46    5.68
   2  -8  12    5.80    1.92
   3  -8  12  104.54    6.86
   4  -8  12    3.61    1.60
  -5  -8 -12   -2.07    1.62
   5  -8  12    0.22    0.80
 -14   9  12    3.90    1.96
 -13   9  12    3.37    2.07
 -12   9  12   37.56    4.81
 -11   9  12   81.24    6.84
 -10   9  12   75.69    6.50
  -9   9  12   34.63    4.36
  -8   9  12    7.54    2.22
  -7   9  12   68.61    5.92
   6   9 -12  119.43    8.08
  -6   9  12   97.31    7.03
   5   9 -12    0.17    1.25
  -5   9  12    2.06    1.59
   4   9 -12   22.34    3.56
   3   9 -12  111.70    7.54
   2   9 -12   16.70    3.02
   1   9 -12   81.56    6.35
   0  -9  12    1.55    1.34
   1  -9  12  108.55    7.35
   2  -9  12    6.96    1.94
   3  -9  12  163.01    8.96
   4  -9  12    1.90    1.31
  -5  -9 -12   64.68    6.09
 -13  10  12    2.47    1.57
 -12  10  12  109.25    8.20
 -11  10  12   67.83    6.32
 -10  10  12   92.00    7.33
  -9  10  12   85.17    6.92
  -8  10  12    4.09    1.99
   7  10 -12   55.12    5.73
  -7  10  12   52.25    5.24
   6  10 -12   -1.47    1.61
  -6  10  12    0.99    1.06
   5  10 -12  127.65    8.66
  -5  10  12  129.43    8.20
   4  10 -12   68.50    6.29
   3  10 -12   45.41    5.06
   2  10 -12    0.68    1.42
   1  10 -12    2.84    1.53
   0 -10  12    5.34    1.77
   1 -10  12    5.10    1.86
   2 -10  12   22.09    3.42
 -11  11  12    9.19    2.57
 -10  11  12   94.98    7.56
  -9  11  12    1.93    1.60
  -8  11  12    2.03    1.88
   7  11 -12   26.54    4.10
  -7  11  12   26.99    3.86
   6  11 -12  129.13    9.00
  -6  11  12  118.40    8.04
   5  11 -12   81.91    7.13
   4  11 -12  121.17    8.64
   3  11 -12   16.05    3.36
   2  11 -12   45.14    5.19
   1  11 -12  122.54    8.49
   0 -11  12   20.35    3.38
  -9  12  12    0.70    1.56
  -8  12  12    1.39    1.50
  -7  12  12   27.43    4.11
 -18   0  13    2.83    1.77
 -17   0  13    0.22    1.69
 -16   0  13    0.45    1.36
 -15   0  13    0.14    1.51
 -14   0  13    0.86    1.11
 -13   0  13    1.07    1.55
 -12   0  13    2.43    1.69
 -11   0  13    2.45    1.46
 -10   0  13   -0.40    1.20
  -9   0  13   -1.42    1.27
   9   0 -13    0.60    0.50
   8   0 -13    0.24    0.49
  -8   0  13    0.65    0.98
   7   0 -13   -0.24    0.60
  -7   0  13    0.10    0.87
   6   0 -13    0.26    0.74
  -6   0  13    1.68    1.38
   5   0 -13    0.35    0.53
  -5   0  13    0.86    0.84
  -4   0  13   -0.23    0.71
   4   0 -13    0.21    0.64
  -4   0  13    0.15    0.87
  -3   0  13    1.08    0.66
  -2   0  13    0.30    0.71
  -1   0  13   -0.43    0.71
   0   0  13    0.51    0.90
   1   0  13    1.11    0.99
   2   0  13   -0.14    0.70
   3   0  13    1.95    1.22
   4   0  13    1.76    0.99
   5   0  13    1.70    1.15
   6   0  13    2.39    1.26
   7   0  13    1.50    1.16
   8   0  13   -0.91    1.28
 -18   1  13   -0.31    1.56
 -18  -1  13   -1.05    1.88
 -17   1  13    4.21    2.22
 -17  -1  13    3.74    1.71
 -16   1  13    1.99    1.77
 -16  -1  13    2.92    1.71
 -15   1  13   16.14    3.13
 -15  -1  13   13.05    2.73
 -14   1  13   20.38    3.44
 -14  -1  13   18.94    3.21
 -13   1  13   36.71    4.43
 -13  -1  13   43.12    4.60
 -12   1  13   -0.50    1.08
 -12  -1  13    0.73    1.17
 -11   1  13    0.89    1.26
 -11  -1  13    0.50    1.06
 -10   1  13   18.12    2.87
 -10  -1  13   23.50    3.11
  -9   1  13   58.73    4.95
  -9  -1  13   59.30    4.73
   9   1 -13   52.16    2.93
   9  -1 -13   52.86    2.93
  -8   1  13   10.09    2.18
  -8  -1  13    7.67    1.85
   8   1 -13   10.82    1.40
  -7   1  13  282.91   11.16
  -7  -1  13  288.52   10.83
   7   1 -13  278.10    8.28
   6   1 -13   83.31    4.59
  -6   1  13   70.80    5.31
  -6  -1  13   86.79    5.55
   6   1 -13   80.30    4.14
   5   1 -13  294.81    9.25
  -5   1  13  281.26    8.79
  -5  -1  13  297.79   10.88
  -5   1  13  284.04   11.02
   5   1 -13  296.29    9.10
   4   1 -13   15.60    2.00
   4   1 -13   18.30    2.06
  -4  -1  13   18.78    2.54
  -4   1  13   21.04    2.85
  -4   1  13   17.33    1.97
  -3  -1  13  127.89    6.13
  -3   1  13  134.62    5.60
   3   1 -13  140.16    5.89
  -3   1  13  139.27    7.33
   3   1 -13  134.78    6.09
  -2  -1  13   37.28    3.17
  -2   1  13   34.46    2.75
   2   1 -13   38.34    3.19
  -1  -1  13   42.86    3.43
  -1   1  13   51.26    3.42
   0   1  13   44.55    3.23
   0  -1  13   39.08    3.34
   1   1  13  378.20   11.04
   1  -1  13  379.34   11.74
   2   1  13  157.58    6.70
   2  -1  13  139.74    6.67
   3  -1  13   29.13    3.04
   3   1  13   27.65    2.87
   4  -1  13  126.56    6.63
   4   1  13  120.89    6.22
   5   1  13   63.70    4.60
  -5   1 -13   60.93    4.96
   5  -1  13   68.54    4.94
   6   1  13  199.78    8.75
   6  -1  13  186.84    8.63
  -6   1 -13  183.01    9.06
  -7   1 -13    2.21    1.32
   7  -1  13    2.09    1.43
   7   1  13    4.80    1.73
   8  -1  13    2.62    1.49
   8   1  13    3.67    1.80
   9   1  13   31.93    3.90
 -18  -2  13   -0.22    1.35
 -17   2  13    1.40    1.27
 -17  -2  13    0.93    1.21
 -16   2  13   59.95    6.11
 -16  -2  13   60.92    5.85
 -15   2  13    7.12    2.25
 -15  -2  13    7.24    2.08
 -14   2  13   38.09    4.62
 -14  -2  13   38.77    4.35
 -13  -2  13   31.49    3.91
 -13   2  13   20.69    3.38
 -12   2  13   45.55    4.87
 -12  -2  13   46.15    4.54
 -11   2  13  187.96    9.72
 -11  -2  13  195.00    9.36
 -10   2  13    1.98    1.22
 -10  -2  13    2.40    1.12
  -9   2  13   36.38    3.95
  -9  -2  13   33.55    3.52
  -8   2  13  285.72   11.71
  -8  -2  13  306.66   11.34
   8   2 -13  304.43    8.66
  -7   2  13  225.19   10.05
  -7  -2  13  230.08    9.39
   7   2 -13  231.35    7.51
   6   2 -13  267.89    9.52
  -6   2  13  278.12   11.08
  -6  -2  13  283.30   10.45
  -6   2  13  265.11    8.04
   6   2 -13  264.09    8.39
   5   2 -13  391.59   11.72
  -5  -2  13  398.30   12.63
  -5   2  13  368.94   13.21
  -5   2  13  391.77   10.20
   5   2 -13  385.89   10.94
  -4   2  13  105.04    4.54
   4   2 -13  101.76    5.32
  -4  -2  13  107.08    5.94
  -4   2  13   99.82    6.29
   4   2 -13  105.89    5.22
   3   2 -13    2.66    1.07
  -3   2  13    2.10    0.98
  -3  -2  13    0.63    1.00
   3   2 -13    0.78    0.82
  -3   2  13    0.73    1.05
   2   2 -13   12.08    1.93
  -2  -2  13   13.57    2.01
  -2   2  13   18.61    1.97
  -1   2  13   23.74    2.24
  -1  -2  13   27.46    2.91
   1   2 -13   24.90    2.78
   0   2  13   51.98    3.39
   0   2 -13   47.42    3.84
   0  -2  13   47.59    3.79
   1  -2  13   49.87    3.99
  -1   2 -13   49.04    4.06
   1   2  13   54.25    3.56
   2  -2  13   72.00    4.85
   2   2  13   67.71    4.18
  -2   2 -13   76.49    5.17
   3  -2  13  216.06    8.75
   3   2  13  199.68    7.86
  -3   2 -13  216.67    9.28
  -4   2 -13    2.10    1.37
   4   2  13    2.44    1.13
   4  -2  13    5.11    1.63
  -5   2 -13   21.02    3.04
   5   2  13   22.66    2.74
   5  -2  13   21.35    2.87
  -6   2 -13   10.27    2.29
   6  -2  13   11.46    2.13
   6   2  13   12.14    2.13
   7   2  13   64.99    5.05
   7  -2  13   64.76    5.18
  -7   2 -13   67.51    5.59
   8   2  13   58.75    4.96
   8  -2  13   51.83    4.73
   9   2  13    3.26    1.52
 -18  -3  13    6.81    1.89
 -17   3  13    0.57    1.36
 -17  -3  13   -0.09    1.52
 -16   3  13    1.58    1.67
 -16  -3  13   -1.10    1.19
 -15   3  13    3.12    1.81
 -15  -3  13    1.79    1.49
 -14   3  13    1.65    1.54
 -14  -3  13    8.13    2.27
 -13   3  13   22.02    3.52
 -13  -3  13   22.78    3.22
 -12   3  13   41.52    4.67
 -12  -3  13   49.60    4.63
 -11   3  13    9.33    2.30
 -11  -3  13    6.24    1.65
 -10   3  13   90.56    6.51
 -10  -3  13   93.86    6.08
  -9   3  13    2.06    1.00
  -9  -3  13    2.31    1.20
  -8   3  13    0.14    0.93
  -8  -3  13   -0.33    0.92
  -7   3  13    2.76    1.50
  -7  -3  13    2.31    0.99
   7   3 -13    4.10    1.01
  -6   3  13    2.59    0.66
   6   3 -13    0.62    1.01
  -6   3  13    3.01    1.19
  -6  -3  13    2.96    1.15
   6   3 -13    3.84    1.08
   5   3 -13  270.35    9.86
  -5  -3  13  277.01    9.95
  -5   3  13  254.97   10.80
   5   3 -13  264.84    8.84
  -5   3  13  272.46    7.40
   4   3 -13  152.72    7.05
  -4  -3  13  179.33    7.66
  -4   3  13  168.52    8.44
  -4   3  13  172.11    5.56
   4   3 -13  166.51    6.84
  -3   3  13  843.19   16.86
   3   3 -13  788.03   19.66
  -3   3  13  808.10   21.66
   3   3 -13  801.26   19.03
  -2   3  13   41.59    2.69
  -2  -3  13   41.21    3.70
   2   3 -13   43.40    3.57
   2   3 -13   41.30    3.42
  -1  -3  13  177.64    7.86
   1   3 -13  179.49    7.67
  -1   3  13  180.91    6.31
   0  -3  13   -0.71    1.04
   0   3  13    1.19    0.78
   0   3 -13    0.73    0.93
   1   3  13  365.39   10.36
  -1   3 -13  365.43   12.15
   1  -3  13  357.18   11.91
  -2   3 -13   16.99    2.56
   2   3  13   16.43    2.02
   2  -3  13   20.56    2.70
  -3   3 -13   25.73    3.14
   3   3  13   20.72    2.34
   3  -3  13   24.25    2.95
   4  -3  13   58.97    4.63
   4   3  13   59.99    4.25
  -4   3 -13   58.00    4.82
   5  -3  13   14.78    2.42
   5   3  13   12.41    2.10
  -5   3 -13   12.97    2.41
   6   3  13   42.41    3.84
  -6   3 -13   39.75    4.16
   6  -3  13   46.11    4.31
   7  -3  13   -0.28    1.01
   7   3  13    0.44    0.95
   8   3  13   17.54    2.72
   9   3  13   16.15    2.81
 -18  -4  13   37.92    4.90
 -17   4  13    1.55    2.06
 -17  -4  13   -1.32    1.67
 -16   4  13  109.36    8.41
 -16  -4  13  100.94    7.37
 -15   4  13   15.48    3.31
 -15  -4  13   17.30    2.96
 -14   4  13  101.34    7.77
 -14  -4  13   93.02    6.73
 -13   4  13   34.21    4.41
 -13  -4  13   38.65    4.21
 -12  -4  13   27.85    3.48
 -12   4  13   25.29    3.82
 -11   4  13  101.53    7.15
 -11  -4  13   93.19    6.09
 -10   4  13   56.33    5.20
 -10  -4  13   42.06    3.94
  -9   4  13  193.49    9.86
  -9  -4  13  197.17    8.59
  -8   4  13  374.92   14.05
  -8  -4  13  388.97   12.58
  -7   4  13  170.04    8.90
  -7  -4  13  178.36    7.78
   6   4 -13    1.62    1.26
  -6  -4  13    0.43    0.72
  -6   4  13    0.02    0.98
   5   4 -13   11.42    2.01
  -5  -4  13   13.43    2.00
  -5   4  13   10.13    2.17
   5   4 -13   11.77    1.79
   4   4 -13  159.60    7.55
  -4   4  13  147.39    8.02
   4   4 -13  157.48    6.79
   3   4 -13    4.23    1.29
   3   4 -13    5.49    1.41
   2   4 -13    1.38    1.01
  -2  -4  13    0.58    0.85
   2   4 -13    2.73    1.22
   1   4 -13  217.05    8.76
  -1  -4  13  227.72    9.45
   0  -4  13  244.91    9.85
   0   4 -13  258.95    9.81
   1  -4  13   87.06    5.57
   1   4  13   90.81    4.51
  -1   4 -13   90.13    5.68
   2  -4  13    3.69    1.50
   2   4  13    2.81    1.00
  -2   4 -13    3.50    1.48
   3  -4  13    7.05    1.66
   3   4  13    7.76    1.53
  -3   4 -13    8.59    2.03
   4   4  13   30.65    2.98
   4  -4  13   32.18    3.57
  -4   4 -13   29.36    3.47
   5  -4  13   30.83    3.45
   5   4  13   26.58    2.94
  -5   4 -13   27.07    3.44
   6   4  13   -0.35    1.07
   6  -4  13   -1.05    1.37
  -6   4 -13   -0.21    1.09
   7   4  13   21.99    2.94
   7  -4  13   28.47    3.55
   8   4  13   17.16    2.80
 -18  -5  13   60.62    6.05
 -17  -5  13   79.22    6.66
 -16   5  13    2.08    1.92
 -16  -5  13    1.49    1.44
 -15   5  13   84.36    7.35
 -15  -5  13   80.69    6.34
 -14   5  13   24.92    4.08
 -14  -5  13   27.11    3.53
 -13   5  13   19.15    3.38
 -13  -5  13   17.30    2.83
 -12   5  13  149.35    9.16
 -12  -5  13  148.11    7.95
 -11   5  13  200.63   10.42
 -11  -5  13  201.70    9.06
 -10   5  13  173.99    9.64
 -10  -5  13  176.70    8.25
  -9   5  13    0.34    1.11
  -9  -5  13   -0.68    0.83
  -8   5  13  137.72    8.20
  -8  -5  13  153.60    7.14
  -7   5  13   59.55    5.20
   6   5 -13   40.50    4.12
  -6   5  13   33.54    3.88
   5   5 -13   -1.05    1.33
  -5   5  13    0.08    1.07
   4   5 -13   51.02    4.47
  -4   5  13   45.28    4.49
   3   5 -13  238.10    9.89
   3   5 -13  258.46    9.38
   2   5 -13  103.22    6.21
   2   5 -13  119.49    6.23
  -1  -5  13   80.13    5.53
   1   5 -13   85.00    5.40
   0  -5  13   47.44    4.25
   0   5 -13   50.96    4.24
   1  -5  13  105.43    6.43
  -1   5 -13  112.01    6.49
  -2   5 -13   90.37    5.93
   2  -5  13   95.85    6.10
   3  -5  13   76.20    5.49
  -3   5 -13   76.78    5.59
   4  -5  13   -0.07    0.94
  -4   5 -13    1.49    1.14
   5  -5  13   74.60    5.58
  -5   5 -13   59.80    5.17
   6  -5  13  230.56   10.37
  -6   5 -13  225.45   10.69
 -15   6  13    8.56    2.73
 -14   6  13    2.67    1.79
 -13   6  13   59.20    5.93
 -12   6  13   19.83    3.36
 -11   6  13   18.08    3.29
 -10   6  13   44.19    4.78
  -9   6  13   38.36    4.38
  -8   6  13   48.47    4.91
  -7   6  13    8.01    1.85
   6   6 -13   14.42    2.63
  -6   6  13   14.69    2.76
   5   6 -13  363.23   13.37
  -5   6  13  337.76   13.29
   4   6 -13   31.88    3.79
  -4   6  13   31.60    3.85
   3   6 -13   34.54    3.74
   2   6 -13   49.88    4.49
  -1  -6  13   12.11    2.33
   0  -6  13   17.85    2.91
   0   6 -13   16.57    2.50
   1  -6  13  296.84   11.71
  -1   6 -13  308.01   11.60
   2  -6  13   16.58    2.69
  -2   6 -13    9.54    2.05
   3  -6  13    6.66    1.72
  -3   6 -13    2.67    1.51
   4  -6  13   97.93    6.57
  -4   6 -13   95.20    6.59
   5  -6  13   12.12    2.62
  -5   6 -13    3.85    1.48
 -15   7  13   -2.52    2.04
 -14   7  13    4.15    2.15
 -13   7  13    1.89    1.53
 -12   7  13   51.73    5.47
 -11   7  13   46.68    5.10
 -10   7  13    1.95    1.68
  -9   7  13   62.25    5.65
  -8   7  13   17.74    3.15
  -7   7  13  113.20    7.59
   6   7 -13  187.10    9.85
  -6   7  13  188.02    9.87
   5   7 -13   20.08    3.27
  -5   7  13   19.48    3.13
   4   7 -13  124.50    7.61
  -4   7  13  103.47    7.18
   3   7 -13    1.75    1.41
   2   7 -13   84.64    6.17
  -1  -7  13    1.84    1.26
   1   7 -13    3.58    1.40
   0  -7  13   17.79    2.87
   1  -7  13   20.20    3.04
   2  -7  13    4.29    1.58
   3  -7  13   10.75    2.31
   4  -7  13   11.20    2.40
 -14   8  13   32.47    4.57
 -13   8  13   55.26    5.93
 -12   8  13   38.88    4.86
 -11   8  13    0.03    1.63
 -10   8  13   15.08    3.04
  -9   8  13   66.12    6.01
  -8   8  13   20.80    3.55
   7   8 -13   15.68    3.13
  -7   8  13   19.94    3.29
   6   8 -13  263.14   12.23
  -6   8  13  253.88   11.78
   5   8 -13   22.26    3.46
  -5   8  13   24.85    3.65
   4   8 -13   19.80    3.17
   3   8 -13  192.27    9.95
   2   8 -13    5.02    1.87
   1   8 -13    5.62    1.66
  -1  -8  13    6.93    1.93
   0  -8  13    0.31    1.06
   1  -8  13   15.54    2.77
   2  -8  13   17.46    2.94
   3  -8  13    0.52    1.04
 -13   9  13    1.51    1.89
 -12   9  13    5.19    2.14
 -11   9  13   26.70    3.99
 -10   9  13    3.02    1.51
  -9   9  13    1.66    1.55
  -8   9  13    8.39    2.38
   7   9 -13    8.13    2.21
  -7   9  13   11.02    2.65
   6   9 -13   23.44    3.79
  -6   9  13   20.49    3.33
   5   9 -13   57.40    5.71
  -5   9  13   48.08    4.98
   4   9 -13    2.43    1.56
   3   9 -13   38.45    4.60
   2   9 -13   17.84    3.10
   1   9 -13  114.42    7.74
  -1  -9  13  119.85    7.89
   0  -9  13    3.72    1.58
   1  -9  13    0.68    1.34
   2  -9  13   40.16    4.48
 -11  10  13    4.62    2.14
 -10  10  13    6.13    2.25
  -9  10  13    7.43    2.22
   8  10 -13    2.39    1.28
  -8  10  13    2.41    1.41
   7  10 -13    6.21    2.37
  -7  10  13    3.96    1.66
   6  10 -13    1.45    1.48
  -6  10  13    0.20    1.17
   5  10 -13   99.09    7.76
   4  10 -13    0.48    1.56
   3  10 -13   20.83    3.50
   2  10 -13    1.86    1.65
   1  10 -13    2.06    1.52
  -1 -10  13   -1.05    1.44
  -9  11  13    4.29    2.02
  -8  11  13    2.45    1.48
   7  11 -13    4.40    1.81
  -7  11  13    2.74    1.90
   6  11 -13   31.83    4.61
   5  11 -13   25.95    4.24
   4  11 -13    4.40    1.92
   3  11 -13    0.87    1.84
 -17   0  14  131.34    9.29
 -16   0  14    7.63    2.47
 -15   0  14   52.86    5.57
 -14   0  14   54.99    5.56
 -13   0  14    0.86    1.39
 -12   0  14  111.30    7.51
 -11   0  14  102.38    7.01
 -10   0  14   16.07    2.75
  -9   0  14    2.20    1.45
   9   0 -14   -0.32    0.58
  -8   0  14   66.48    5.30
   8   0 -14   74.71    3.90
  -7   0  14  118.45    7.07
   7   0 -14  111.85    5.10
  -6   0  14   76.36    5.52
   6   0 -14   77.67    4.29
  -5   0  14  369.71   13.06
  -5   0  14  364.52   11.07
  -4   0  14   52.05    4.52
  -4   0  14   54.87    3.82
  -3   0  14   17.14    2.09
  -2   0  14    9.94    1.76
  -1   0  14  180.00    7.33
   0   0  14  258.98    9.11
   1   0  14   14.38    2.09
   2   0  14  140.01    6.68
   3   0  14    1.06    0.93
   4   0  14   15.57    2.26
   5   0  14   36.53    3.64
   6   0  14    7.16    1.84
   7   0  14  118.78    7.18
 -17   1  14   -0.24    1.35
 -17  -1  14    1.36    1.41
 -16   1  14   27.36    4.19
 -16  -1  14   28.29    4.28
 -15   1  14   -0.24    1.43
 -15  -1  14    0.26    1.25
 -14   1  14    8.05    2.53
 -14  -1  14    7.49    2.26
 -13   1  14   82.03    6.74
 -13  -1  14   80.05    6.49
 -12   1  14    0.97    1.06
 -12  -1  14    2.90    1.50
 -11   1  14    0.47    1.01
 -11  -1  14    2.25    1.35
 -10   1  14    3.50    1.69
 -10  -1  14    1.17    0.91
  -9   1  14    5.26    1.88
  -9  -1  14    2.83    1.38
   9   1 -14    7.74    1.23
  -8   1  14  103.00    6.78
  -8  -1  14  103.58    6.57
   8   1 -14  117.17    4.99
   7   1 -14  152.19    6.68
  -7   1  14  154.33    8.28
  -7  -1  14  154.12    8.00
   7   1 -14  148.20    5.97
   6   1 -14   47.37    3.55
  -6  -1  14   46.66    4.14
  -6   1  14   47.04    4.39
   6   1 -14   50.12    3.43
   5   1 -14    6.15    1.25
  -5   1  14    7.82    1.38
  -5  -1  14    7.85    1.78
  -5   1  14    7.54    1.99
  -4   1  14  443.05   11.80
  -4  -1  14  423.56   12.68
  -4  -1  14  429.75   13.93
  -4   1  14  428.04   14.39
   4   1 -14  417.88   12.25
   3   1 -14   14.32    2.02
  -3   1  14   16.64    2.01
  -3  -1  14   14.85    2.07
  -2  -1  14  215.07    8.42
  -2   1  14  220.25    7.74
   2   1 -14  215.33    8.55
  -1   1  14  135.70    6.06
   1   1 -14  135.05    6.73
  -1  -1  14  143.20    6.58
   0   1  14   16.68    2.09
   0   1 -14   17.60    2.51
   0  -1  14   15.10    2.13
   1   1  14  312.04   10.20
   1  -1  14  312.54   10.74
  -1   1 -14  316.98   11.39
  -2   1 -14   24.25    3.05
   2  -1  14   23.23    2.73
   2   1  14   25.99    2.78
   3  -1  14  131.47    6.76
   3   1  14  127.79    6.44
  -3   1 -14  135.12    7.39
  -4   1 -14    1.66    1.47
   4   1  14    0.23    0.88
   4  -1  14    0.64    0.94
   5   1  14  166.83    7.95
   5  -1  14  178.76    8.38
  -5   1 -14  168.23    8.81
   6   1  14   19.53    2.85
  -6   1 -14   16.24    2.89
   6  -1  14   15.44    2.58
   7  -1  14   13.40    2.42
   7   1  14   12.57    2.51
   8   1  14   29.70    3.78
 -18  -2  14   72.06    6.92
 -17   2  14    8.47    2.43
 -17  -2  14   13.08    3.08
 -16   2  14   33.97    4.65
 -16  -2  14   26.90    4.05
 -15   2  14   -0.55    1.14
 -15  -2  14    2.26    1.57
 -14  -2  14   40.72    4.60
 -14   2  14   32.70    4.39
 -13   2  14    0.28    1.19
 -13  -2  14    1.34    1.02
 -12   2  14   10.14    2.45
 -12  -2  14    9.70    2.25
 -11   2  14   -0.01    0.98
 -11  -2  14    4.44    1.73
 -10   2  14  144.19    8.53
 -10  -2  14  144.44    7.88
  -9   2  14   34.18    4.12
  -9  -2  14   28.91    3.43
   9   2 -14   37.89    2.71
  -8   2  14   -0.75    1.15
  -8  -2  14   -0.35    0.83
   8   2 -14   -0.58    0.68
   7   2 -14    1.71    0.97
  -7   2  14    3.58    1.60
  -7  -2  14    1.12    0.99
   7   2 -14    2.60    1.02
   6   2 -14   12.66    1.94
  -6  -2  14    8.04    1.78
  -6   2  14    8.94    2.08
   6   2 -14   11.18    1.69
  -6   2  14   13.51    1.70
  -5   2  14   76.34    3.97
   5   2 -14   73.04    4.58
  -5  -2  14   70.12    5.02
  -5   2  14   71.50    5.54
   5   2 -14   74.59    4.37
   4   2 -14   21.68    2.48
  -4   2  14   22.55    3.11
   4   2 -14   21.16    2.48
  -4   2  14   22.31    2.13
   3   2 -14    3.06    1.24
  -3  -2  14    3.50    1.24
  -3   2  14    4.49    1.04
  -2   2  14  381.41   10.49
  -2  -2  14  382.42   12.20
   2   2 -14  373.69   11.94
  -1  -2  14   44.65    3.79
  -1   2  14   43.38    3.18
   1   2 -14   51.17    4.07
   0   2  14  131.01    5.85
   0  -2  14  127.00    6.49
   0   2 -14  123.96    6.63
  -1   2 -14    6.19    1.67
   1   2  14    6.85    1.47
   1  -2  14    6.24    1.62
  -2   2 -14   18.11    2.71
   2   2  14   16.44    2.19
   2  -2  14   16.88    2.44
  -3   2 -14    5.08    1.71
   3  -2  14    4.11    1.43
   3   2  14    5.02    1.37
  -4   2 -14    3.40    1.49
   4   2  14    2.44    1.17
  -5   2 -14    1.40    1.22
   5  -2  14    0.37    0.84
   5   2  14    0.56    1.03
   6  -2  14   18.12    2.81
   6   2  14   18.45    2.75
   7   2  14  182.59    8.95
   8   2  14    0.27    1.08
 -18  -3  14   -0.94    1.69
 -17  -3  14    0.25    1.39
 -16   3  14   -0.74    1.56
 -16  -3  14    0.73    1.20
 -15   3  14  109.94    8.38
 -15  -3  14  111.35    7.92
 -14   3  14   12.17    2.89
 -14  -3  14   17.96    3.15
 -13   3  14   -0.29    1.22
 -13  -3  14    0.92    1.19
 -12   3  14   13.11    2.79
 -12  -3  14   12.69    2.53
 -11   3  14    5.14    1.82
 -11  -3  14    7.77    2.01
 -10   3  14    6.85    2.00
 -10  -3  14    5.77    1.62
  -9   3  14   59.30    5.34
  -9  -3  14   61.89    4.93
  -8   3  14    6.43    1.83
  -8  -3  14    6.42    1.79
   7   3 -14   44.34    4.02
  -7   3  14   68.23    5.59
  -7  -3  14   48.23    4.26
   7   3 -14   69.70    4.10
   6   3 -14    0.15    0.97
  -6  -3  14    1.33    1.06
  -6   3  14    1.50    1.34
   6   3 -14    0.45    0.62
   5   3 -14    2.30    1.10
  -5  -3  14    4.02    1.55
  -5   3  14    2.36    1.29
   5   3 -14    3.41    1.20
   4   3 -14   -0.06    0.70
  -4   3  14   -0.52    0.91
   4   3 -14    0.17    0.73
  -3  -3  14  177.24    8.06
   3   3 -14  193.38    7.76
  -2  -3  14   15.89    2.41
   2   3 -14   13.40    2.11
  -1  -3  14    3.71    1.18
   1   3 -14    6.09    1.55
   0  -3  14   43.50    3.91
   0   3 -14   45.69    4.00
   0   3  14   44.45    3.13
   1  -3  14   13.78    2.32
   1   3  14   15.51    1.98
  -1   3 -14   15.00    2.42
   2   3  14   12.60    1.88
   2  -3  14   13.98    2.28
  -2   3 -14   15.66    2.61
   3   3  14   14.88    2.21
   3  -3  14   16.00    2.39
  -3   3 -14   14.65    2.59
   4  -3  14   77.50    5.45
   4   3  14   76.82    5.10
  -4   3 -14   85.84    6.06
   5  -3  14   13.05    2.46
   5   3  14   12.36    2.14
  -5   3 -14   10.13    2.25
   6   3  14   61.26    4.80
   6  -3  14   59.48    5.08
   7   3  14    4.87    1.64
 -18  -4  14    3.86    2.19
 -17  -4  14    3.66    2.18
 -16   4  14    5.92    2.41
 -16  -4  14    1.89    1.17
 -15   4  14    0.82    1.51
 -15  -4  14    2.37    1.27
 -14   4  14    0.85    1.64
 -14  -4  14    2.21    1.49
 -13   4  14   64.87    6.09
 -13  -4  14   61.30    5.35
 -12   4  14    3.70    1.68
 -12  -4  14    3.68    1.64
 -11   4  14    4.25    1.77
 -11  -4  14    5.52    1.65
 -10   4  14    2.15    1.57
 -10  -4  14    1.23    0.84
  -9   4  14    6.48    1.90
  -9  -4  14    5.02    1.43
  -8   4  14    5.34    1.88
  -8  -4  14    6.07    1.68
   7   4 -14    1.48    0.98
  -7   4  14    0.60    0.88
  -7  -4  14   -0.53    0.78
   6   4 -14   15.41    2.50
  -6  -4  14   16.97    2.49
  -6   4  14   18.73    3.02
   6   4 -14   19.84    2.28
   5   4 -14    1.60    0.99
  -5   4  14    1.70    1.25
   5   4 -14    1.37    1.00
   4   4 -14   23.23    2.89
  -4   4  14   19.81    3.04
   4   4 -14   23.44    2.65
   3   4 -14   17.14    2.45
   3   4 -14   16.01    2.29
  -2  -4  14    8.21    1.82
   2   4 -14    6.25    1.67
  -1  -4  14    3.24    1.29
   1   4 -14    7.49    1.75
   0  -4  14    2.14    1.12
   0   4 -14    2.06    1.14
  -1   4 -14   96.04    6.12
   1  -4  14   92.31    5.95
   2  -4  14    5.60    1.57
  -2   4 -14    6.19    1.86
   3  -4  14    1.28    1.11
  -3   4 -14    1.38    1.21
   4  -4  14   36.79    3.87
  -4   4 -14   29.06    3.65
   5  -4  14   24.19    3.29
  -5   4 -14   24.30    3.50
 -15   5  14   12.76    3.06
 -14   5  14   26.52    4.23
 -13   5  14    2.86    1.86
 -12   5  14    2.39    1.46
 -11   5  14   92.78    7.25
 -10   5  14  116.57    8.01
  -9   5  14   19.97    3.31
  -8   5  14  180.79    9.76
   7   5 -14  131.28    7.73
  -7   5  14  113.61    7.51
   6   5 -14   18.84    2.93
  -6   5  14   20.50    3.14
   5   5 -14   -0.97    1.30
  -5   5  14    3.12    1.79
   4   5 -14  262.57   10.73
  -4   5  14  280.91   12.10
   4   5 -14  286.82   10.09
   3   5 -14   77.90    5.66
   3   5 -14  115.12    6.17
  -2  -5  14   -1.03    1.55
   2   5 -14    1.86    1.54
   2   5 -14   -0.91    0.99
  -1  -5  14   16.34    2.64
   1   5 -14   15.10    2.46
   0  -5  14  292.17   11.54
   0   5 -14  298.16   11.36
   1  -5  14   19.91    2.88
  -1   5 -14   16.44    2.68
   2  -5  14    6.41    1.86
  -2   5 -14    7.26    1.85
   3  -5  14    5.01    1.63
  -3   5 -14    3.04    1.56
   4  -5  14   36.92    4.13
  -4   5 -14   40.90    4.33
   5  -5  14    0.32    1.13
 -14   6  14   77.55    7.08
 -13   6  14   16.03    3.31
 -12   6  14  107.91    8.19
 -11   6  14    1.67    1.31
 -10   6  14   37.65    4.56
  -9   6  14    5.35    1.66
  -8   6  14    5.74    1.95
   7   6 -14   50.71    4.93
  -7   6  14   40.39    4.55
   6   6 -14    1.43    1.10
  -6   6  14    3.06    1.58
   5   6 -14  161.93    8.72
  -5   6  14  149.25    8.72
   4   6 -14   79.49    5.92
   3   6 -14   36.58    3.96
   2   6 -14  117.37    7.08
  -2  -6  14  122.93    7.43
   1   6 -14   87.72    5.80
  -1  -6  14   93.12    6.41
   0  -6  14   21.25    3.15
   0   6 -14   17.29    2.68
  -1   6 -14    0.07    1.05
   1  -6  14    1.84    1.31
  -2   6 -14   44.86    4.50
   2  -6  14   40.56    4.21
   3  -6  14    2.49    1.40
  -3   6 -14    1.25    1.24
   4  -6  14   -1.12    1.25
 -13   7  14   36.20    4.84
 -12   7  14   -0.44    1.28
 -11   7  14    7.76    2.37
 -10   7  14   34.40    4.50
  -9   7  14   28.12    4.10
  -8   7  14   11.19    2.74
   7   7 -14    0.75    1.15
  -7   7  14   -0.59    1.11
   6   7 -14   83.04    6.48
  -6   7  14   81.48    6.51
   5   7 -14    3.87    1.75
  -5   7  14    4.46    1.77
   4   7 -14  164.51    9.04
   3   7 -14    2.89    1.56
   2   7 -14   32.51    3.83
  -2  -7  14   31.07    3.82
  -1  -7  14   52.31    4.95
   0  -7  14   -0.25    0.93
   1  -7  14   50.82    4.91
   2  -7  14    0.64    1.08
 -12   8  14    2.79    1.69
 -11   8  14   19.83    3.56
 -10   8  14   36.23    4.73
  -9   8  14   15.53    3.20
   8   8 -14  115.41    8.27
  -8   8  14  115.78    8.21
   7   8 -14   35.90    4.59
  -7   8  14   45.71    5.08
   6   8 -14    3.22    1.63
  -6   8  14    2.03    1.64
   5   8 -14   51.16    5.25
  -5   8  14   57.05    5.59
   4   8 -14   11.22    2.43
   3   8 -14   74.87    6.19
   2   8 -14  147.90    8.70
  -2  -8  14  128.25    8.16
  -1  -8  14   90.76    6.75
   0  -8  14   34.25    4.21
   1  -8  14   92.03    6.72
 -11   9  14    3.31    2.21
 -10   9  14   -1.29    1.26
  -9   9  14   29.86    4.32
   8   9 -14    0.35    1.48
  -8   9  14   -1.11    1.41
   7   9 -14   80.38    7.00
  -7   9  14   76.16    6.57
   6   9 -14   44.09    5.16
  -6   9  14   37.80    4.70
   5   9 -14   51.62    5.49
   4   9 -14   -1.23    1.33
   3   9 -14   45.88    5.11
  -2  -9  14   -0.38    1.20
   2   9 -14    1.62    1.70
  -1  -9  14    6.24    2.27
   9  10 -14  274.92   13.97
   8  10 -14   -0.08    1.42
   7  10 -14    5.36    2.29
  -7  10  14   10.06    2.41
   6  10 -14   69.90    6.64
  -6  10  14   66.49    6.30
   5  10 -14    6.26    1.94
   4  10 -14   24.39    4.00
   3  10 -14   13.81    3.13
   2  10 -14   51.09    5.52
 -17   0  15    0.11    1.54
 -16   0  15    2.12    1.72
 -15   0  15    2.24    1.61
 -14   0  15    1.69    1.51
 -13   0  15   -0.27    1.08
 -12   0  15   -0.90    1.67
 -11   0  15    0.82    1.10
 -10   0  15    1.86    1.38
  -9   0  15    0.14    1.18
   8   0 -15    0.24    0.63
  -8   0  15    1.21    1.28
   7   0 -15   -0.59    0.77
  -7   0  15    0.73    1.17
   6   0 -15   -0.37    0.68
  -6   0  15    0.25    0.97
   5   0 -15   -1.16    1.00
  -5   0  15   -1.36    0.96
  -5   0  15    0.60    1.01
  -4   0  15   -0.22    0.67
  -3   0  15    0.55    0.68
  -2   0  15    1.39    0.93
  -1   0  15    1.26    1.14
   0   0  15    0.70    0.70
   1   0  15    0.94    0.99
   2   0  15    0.16    0.81
   3   0  15   -0.53    0.98
   4   0  15   -0.87    1.13
   5   0  15    0.40    1.03
   6   0  15    0.33    0.94
 -17  -1  15    7.19    2.43
 -16   1  15    1.35    1.71
 -16  -1  15    1.66    1.55
 -15   1  15   43.14    5.26
 -15  -1  15   42.48    5.13
 -14   1  15   -0.97    1.50
 -14  -1  15    2.05    1.57
 -13   1  15    2.17    1.60
 -13  -1  15    4.77    2.04
 -12   1  15   16.01    3.02
 -12  -1  15   15.70    2.98
 -11   1  15  107.30    7.57
 -11  -1  15  117.00    7.57
 -10   1  15   62.14    5.55
 -10  -1  15   53.59    5.05
  -9   1  15    2.70    1.30
  -9  -1  15    3.17    1.39
  -8   1  15   55.27    5.09
  -8  -1  15   58.81    5.07
   8   1 -15   61.89    3.71
   8  -1 -15   53.62    3.51
  -7  -1  15   35.08    3.90
  -7   1  15   35.39    3.92
   7   1 -15   41.74    3.16
   6   1 -15   -0.41    0.74
  -6   1  15    1.08    0.84
  -6  -1  15    0.74    0.90
  -6   1  15    0.65    0.95
   5   1 -15    1.31    0.91
  -5   1  15    0.23    0.63
  -5  -1  15    0.75    1.04
  -5   1  15    2.69    1.53
  -5  -1  15    1.94    1.05
   4   1 -15   18.97    2.43
  -4   1  15   15.75    2.00
  -4  -1  15   16.48    2.31
   3   1 -15   17.20    2.35
  -3  -1  15   21.20    2.52
  -3   1  15   20.68    2.32
   2   1 -15   18.53    2.46
  -2   1  15   28.03    2.70
  -2  -1  15   25.91    2.84
   1   1 -15    5.66    1.59
  -1  -1  15    5.49    1.54
  -1   1  15    6.75    1.44
   0   1 -15    2.42    1.02
   0  -1  15    2.66    1.27
   0   1  15    4.88    1.32
  -1   1 -15   10.75    2.15
   1  -1  15    9.84    1.98
   1   1  15   11.58    1.95
   2  -1  15   31.95    3.41
  -2   1 -15   36.09    3.82
   2   1  15   30.63    3.11
   3  -1  15   28.46    3.33
   3   1  15   27.81    3.08
  -3   1 -15   32.50    3.77
  -4   1 -15   15.13    2.72
   4   1  15   12.84    2.28
   4  -1  15    9.62    1.93
   5   1  15   21.16    2.90
   5  -1  15   21.05    2.98
   6   1  15    1.87    1.55
   6  -1  15   -0.04    1.06
 -17  -2  15    8.42    2.82
 -16   2  15   17.23    3.72
 -16  -2  15   15.56    3.27
 -15   2  15   38.97    5.10
 -15  -2  15   32.06    4.40
 -14   2  15    0.44    1.32
 -14  -2  15    1.95    1.78
 -13   2  15   51.26    5.51
 -13  -2  15   53.76    5.36
 -12   2  15   13.42    2.80
 -12  -2  15   14.93    2.90
 -11   2  15   -0.31    1.25
 -11  -2  15    0.76    1.25
 -10   2  15    8.00    2.24
 -10  -2  15    7.50    1.97
  -9   2  15    4.53    1.74
  -9  -2  15    7.50    1.90
  -8   2  15   44.26    4.61
  -8  -2  15   42.48    4.23
   8   2 -15   40.02    3.09
  -7  -2  15   10.99    2.17
  -7   2  15   11.48    2.41
   7   2 -15    9.21    1.58
  -6  -2  15  134.30    7.40
  -6   2  15  127.18    7.83
   6   2 -15  134.03    6.16
  -5  -2  15   83.82    5.75
  -5   2  15   83.25    6.23
   5   2 -15   89.08    5.03
  -4  -2  15   28.96    3.18
   4   2 -15   29.93    2.98
  -3  -2  15    0.49    0.96
   3   2 -15    3.86    1.37
  -2  -2  15   70.57    4.87
   2   2 -15   67.05    4.81
   1   2 -15   17.22    2.48
  -1  -2  15   20.96    2.64
  -1   2  15   18.56    2.15
   0   2 -15   23.00    2.97
   0  -2  15   20.37    2.75
   0   2  15   19.96    2.26
  -1   2 -15   10.03    2.15
   1   2  15    8.69    1.63
   1  -2  15    8.74    1.91
  -2   2 -15    2.40    1.21
   2  -2  15    0.43    1.00
   2   2  15    3.08    1.11
  -3   2 -15   17.86    2.80
   3   2  15   20.64    2.59
   3  -2  15   20.61    2.77
   4  -2  15   57.49    4.86
   4   2  15   55.14    4.41
  -4   2 -15   49.51    4.76
   5   2  15   26.56    3.30
   5  -2  15   25.20    3.29
   6   2  15   64.21    5.22
 -17  -3  15    1.44    1.49
 -16  -3  15   54.76    5.80
 -15   3  15   19.38    3.70
 -15  -3  15   18.03    3.46
 -14   3  15    4.30    2.22
 -14  -3  15    4.03    1.77
 -13   3  15   12.25    2.95
 -13  -3  15   11.37    2.65
 -12  -3  15   36.85    4.25
 -12   3  15   33.71    4.48
 -11   3  15    6.90    2.39
 -11  -3  15    6.52    1.77
 -10   3  15   39.29    4.61
 -10  -3  15   44.44    4.38
  -9   3  15   38.36    4.42
  -9  -3  15   36.12    3.82
   8   3 -15   60.19    4.84
  -8   3  15   55.75    5.25
  -8  -3  15   63.42    5.06
   7   3 -15  177.09    8.30
  -7  -3  15  187.42    8.81
  -7   3  15  176.37    9.50
   7   3 -15  187.78    7.42
   6   3 -15   20.80    2.70
  -6  -3  15   24.44    3.10
  -6   3  15   24.89    3.45
   6   3 -15   25.42    2.68
   5   3 -15   26.03    3.00
  -5   3  15   30.28    3.84
   5   3 -15   29.84    2.96
   4   3 -15  125.71    6.48
  -4  -3  15  117.40    6.68
   4   3 -15  128.76    6.44
  -3  -3  15   10.71    2.09
   3   3 -15   12.89    2.12
  -2  -3  15  365.07   12.55
   2   3 -15  355.80   12.08
  -1  -3  15   64.11    4.88
   1   3 -15   62.08    4.74
   0   3 -15   48.65    4.30
   0  -3  15   47.01    4.16
   1  -3  15    7.90    1.84
  -1   3 -15    7.77    2.01
   2  -3  15  108.32    6.57
  -2   3 -15  113.85    6.97
   3  -3  15   27.82    3.46
  -3   3 -15   29.63    3.68
   4  -3  15   23.07    3.12
 -17  -4  15    4.24    2.16
 -16  -4  15   16.14    3.20
 -15   4  15  116.57    8.94
 -15  -4  15  119.71    8.22
 -14   4  15   36.43    4.88
 -14  -4  15   35.08    4.22
 -13   4  15  172.18   10.40
 -13  -4  15  187.72    9.80
 -12   4  15    3.78    2.08
 -12  -4  15    6.68    2.03
 -11   4  15   67.68    6.24
 -11  -4  15   72.03    5.63
 -10   4  15    3.56    1.63
  -9   4  15   16.84    3.08
   8   4 -15  104.85    6.77
  -8   4  15  100.90    7.22
   7   4 -15  160.71    8.34
  -7   4  15  171.32    9.49
   6   4 -15   53.71    4.62
  -6   4  15   55.13    5.18
   6   4 -15   55.33    4.04
   5   4 -15    1.98    1.02
  -5   4  15    5.19    1.83
   5   4 -15    5.87    1.58
   4   4 -15    2.08    1.24
   4   4 -15    3.87    1.17
  -3  -4  15   83.94    5.85
   3   4 -15   94.40    5.83
   3   4 -15   93.00    5.68
  -2  -4  15   72.01    5.36
   2   4 -15   75.49    5.25
  -1  -4  15  265.17   10.80
   1   4 -15  272.46   10.73
   0   4 -15  150.20    7.88
   0  -4  15  152.28    7.88
  -1   4 -15  152.52    8.14
   1  -4  15  153.46    8.02
   2  -4  15   92.31    6.20
  -2   4 -15   94.73    6.42
   3  -4  15    1.27    1.20
  -3   4 -15    1.13    1.39
   4  -4  15  122.52    7.33
 -14   5  15   15.16    3.21
 -13   5  15    4.50    2.00
 -12   5  15    2.10    1.51
 -11   5  15   15.84    3.10
 -10   5  15    1.32    1.48
  -9   5  15  123.66    8.35
   8   5 -15    3.94    1.74
  -8   5  15    2.09    1.25
   7   5 -15    1.42    1.04
  -7   5  15    9.25    2.49
   6   5 -15    9.43    2.08
  -6   5  15   17.26    3.14
   5   5 -15   65.21    5.25
  -5   5  15  104.57    7.32
   4   5 -15    4.05    1.47
   4   5 -15   10.74    2.09
   3   5 -15   64.42    5.10
  -3  -5  15   75.07    5.69
   3   5 -15   80.37    5.35
   2   5 -15  163.40    8.00
  -2  -5  15  153.76    8.30
  -1  -5  15   11.90    2.26
   1   5 -15    7.48    2.00
   0  -5  15   51.56    4.78
   0   5 -15   55.99    4.86
  -1   5 -15   48.18    4.58
   1  -5  15   47.46    4.51
   2  -5  15   95.95    6.49
  -2   5 -15   91.31    6.55
   3  -5  15   10.43    2.27
 -13   6  15    0.60    1.52
 -12   6  15   12.18    2.93
 -11   6  15   28.76    4.14
 -10   6  15   96.33    7.55
  -9   6  15    1.00    1.39
   8   6 -15   76.80    6.34
  -8   6  15   68.23    6.16
   7   6 -15   68.01    5.80
  -7   6  15   66.29    6.08
   6   6 -15    5.24    1.78
  -6   6  15    6.26    2.25
   5   6 -15   11.76    2.52
  -5   6  15   18.25    3.38
   4   6 -15  142.03    8.13
  -3  -6  15    4.16    1.64
   3   6 -15    4.81    1.55
  -2  -6  15   -1.47    1.22
  -1  -6  15    4.16    1.61
   1   6 -15    7.88    1.96
   0  -6  15   47.26    4.61
   0   6 -15   47.44    4.53
  -1   6 -15  106.28    6.98
   1  -6  15   95.18    6.64
   2  -6  15   45.73    4.60
 -12   7  15   22.63    4.11
 -11   7  15   -1.86    2.02
 -10   7  15   65.00    6.33
  -9   7  15    7.70    2.30
   8   7 -15  152.56    9.34
  -8   7  15  131.77    8.84
   7   7 -15   12.40    2.95
  -7   7  15    8.43    2.28
   6   7 -15   36.13    4.37
  -6   7  15   29.91    4.11
   5   7 -15  277.69   12.36
   4   7 -15    0.54    1.29
   3   7 -15  169.01    9.11
  -3  -7  15  150.72    8.82
  -2  -7  15    3.84    1.80
  -1  -7  15   57.88    5.29
   0  -7  15   10.28    2.38
 -10   8  15   53.07    5.87
   9   8 -15   16.54    3.40
  -9   8  15   16.69    3.36
   8   8 -15   35.08    4.58
  -8   8  15   36.46    4.75
   7   8 -15   95.38    7.46
  -7   8  15   94.25    7.45
   6   8 -15   -0.78    1.53
  -6   8  15    0.82    1.47
   5   8 -15   44.99    5.05
   4   8 -15   22.80    3.58
   3   8 -15   25.86    3.78
  -2  -8  15  151.37    9.08
   9   9 -15   56.59    6.07
   8   9 -15   -0.14    1.40
   7   9 -15   15.45    3.26
   6   9 -15   21.80    3.83
   5   9 -15    9.86    2.45
   4   9 -15   14.57    3.02
   3   9 -15   14.85    3.10
 -16   0  16  235.60   13.06
 -15   0  16   27.05    4.28
 -14   0  16   13.22    2.99
 -13   0  16   15.50    3.09
 -12   0  16    3.05    1.72
 -11   0  16   66.31    6.01
 -10   0  16   78.32    6.40
  -9   0  16   22.46    3.39
  -8   0  16    3.90    1.69
  -7   0  16  143.21    8.31
   7   0 -16  133.93    6.23
  -6   0  16  172.54    9.03
   6   0 -16  162.61    7.11
  -6   0  16  158.30    7.18
   5   0 -16    5.58    1.41
  -5   0  16    6.00    1.27
   4   0 -16   11.16    1.95
  -4   0  16   11.35    1.94
   3   0 -16    7.28    1.68
  -3   0  16    6.46    1.52
  -2   0  16  242.58    9.11
  -1   0  16    4.54    1.34
   0   0  16   56.19    4.23
   1   0  16  139.90    7.04
   2   0  16   23.45    2.91
   3   0  16   64.20    4.86
   4   0  16    5.27    1.60
   5   0  16    3.26    1.34
 -16  -1  16    1.29    1.54
 -15   1  16   -0.89    1.44
 -15  -1  16   -0.23    1.32
 -14   1  16   24.39    4.11
 -14  -1  16   24.86    3.96
 -13   1  16  132.99    8.96
 -13  -1  16  121.31    8.29
 -12   1  16   70.97    6.45
 -12  -1  16   72.15    6.33
 -11   1  16    1.08    1.47
 -11  -1  16   -1.20    1.23
 -10   1  16   11.05    2.69
 -10  -1  16    7.57    2.03
  -9   1  16    4.10    1.65
  -9  -1  16    3.92    1.75
  -8  -1  16   14.30    2.60
  -8   1  16   16.77    2.80
   7  -1 -16    4.42    1.28
  -7  -1  16    7.30    2.14
  -7   1  16    5.19    1.97
   7   1 -16    5.07    1.18
  -6  -1  16    6.78    1.86
  -6   1  16    6.62    2.00
  -6  -1  16    4.27    1.26
   6   1 -16    5.87    1.41
  -5   1  16  131.41    8.00
   5   1 -16  120.74    6.22
  -5  -1  16  125.85    6.53
   4   1 -16   -0.03    0.76
  -4  -1  16    1.42    0.98
   3   1 -16   17.27    2.46
  -3  -1  16   15.58    2.31
   2   1 -16    1.37    1.24
  -2  -1  16    0.29    0.88
  -1  -1  16  193.72    8.35
   1   1 -16  180.04    8.59
   0   1 -16    0.24    1.13
   0  -1  16    0.50    1.08
   0   1  16    1.44    1.07
  -1   1 -16    2.62    1.43
   1  -1  16    2.23    1.20
   1   1  16    1.54    0.85
   2  -1  16   90.35    5.83
   2   1  16   88.83    5.53
  -2   1 -16   90.18    6.37
   3   1  16   16.95    2.59
   3  -1  16   14.45    2.45
   4   1  16  131.15    7.22
   4  -1  16  129.27    7.41
 -16  -2  16   52.38    5.87
 -15   2  16    0.47    1.51
 -15  -2  16    0.98    1.31
 -14   2  16   46.62    5.42
 -14  -2  16   41.63    5.01
 -13   2  16    2.69    1.38
 -13  -2  16    0.26    1.17
 -12   2  16    2.25    1.84
 -12  -2  16   -1.59    1.68
 -11   2  16    7.83    2.31
 -11  -2  16    8.57    2.29
 -10   2  16   21.23    3.52
 -10  -2  16   24.61    3.37
  -9   2  16   63.41    5.78
  -9  -2  16   65.57    5.47
  -8  -2  16   -1.01    1.24
  -8   2  16    2.13    1.57
  -7   2  16   42.12    4.63
   7   2 -16   45.07    3.52
  -6  -2  16  120.57    7.25
  -6   2  16  127.92    8.01
   6   2 -16  129.50    6.37
  -5  -2  16    5.66    1.59
  -5   2  16    4.86    1.72
   5   2 -16    4.27    1.31
  -4  -2  16   13.19    2.25
   4   2 -16   11.90    2.05
  -3  -2  16   45.28    4.06
   3   2 -16   44.64    3.95
  -2  -2  16    2.41    1.21
   2   2 -16    3.38    1.34
   1   2 -16   23.39    2.98
  -1  -2  16   26.58    3.10
   0  -2  16   41.51    3.92
   0   2 -16   53.49    4.66
   1  -2  16   89.88    5.93
  -1   2 -16   95.23    6.42
  -2   2 -16    3.91    1.55
   2  -2  16    2.85    1.15
   3  -2  16    9.18    1.99
   4  -2  16   27.18    3.44
 -17  -3  16    2.63    2.01
 -16  -3  16    2.11    1.57
 -15  -3  16    2.69    1.71
 -14   3  16    0.72    1.44
 -14  -3  16    0.62    1.13
 -13   3  16   -1.43    1.51
 -13  -3  16    3.01    1.73
 -12   3  16    5.32    2.29
 -12  -3  16    4.74    1.72
 -11   3  16    2.61    1.66
 -11  -3  16    2.50    1.72
 -10   3  16   28.02    4.07
 -10  -3  16   26.73    3.56
  -9   3  16    1.99    1.36
  -9  -3  16    1.55    1.38
  -8  -3  16    5.97    1.77
  -8   3  16    6.60    2.08
  -7   3  16   15.15    2.97
   7   3 -16    8.93    1.61
  -6   3  16    6.80    2.06
   6   3 -16    5.47    1.41
  -5  -3  16   17.52    2.61
  -5   3  16   24.87    3.57
   5   3 -16   20.27    2.66
  -4  -3  16   -1.76    1.30
   4   3 -16   -0.01    0.82
  -3  -3  16  133.78    7.29
   3   3 -16  126.50    6.89
  -2  -3  16    2.45    1.39
   2   3 -16    4.02    1.23
  -1  -3  16    5.08    1.42
   1   3 -16    4.05    1.45
   0  -3  16    8.85    2.01
   0   3 -16    3.29    1.34
   1  -3  16    1.49    1.23
  -1   3 -16    0.51    1.09
   2  -3  16   11.14    2.21
   3  -3  16   17.93    2.87
 -13   4  16    0.60    1.47
 -12   4  16   -0.10    1.46
 -11   4  16   28.14    4.14
 -10   4  16   42.05    5.02
   9   4 -16   12.63    2.43
  -9   4  16    9.43    2.55
  -8   4  16   74.33    6.44
  -7   4  16   17.27    3.24
  -6   4  16    1.79    1.40
   6   4 -16    2.66    1.19
   5   4 -16    7.25    1.77
  -4  -4  16   12.92    2.38
   4   4 -16   13.51    2.27
  -3  -4  16    0.86    1.20
   3   4 -16   -0.11    1.04
  -2  -4  16   12.95    2.41
   2   4 -16   17.66    2.68
  -1  -4  16   11.29    2.37
   1   4 -16   14.15    2.52
   0  -4  16   18.49    2.88
   0   4 -16   16.73    2.70
   1  -4  16    3.03    1.46
  -1   4 -16    1.53    1.29
   2  -4  16   63.09    5.26
 -12   5  16    1.54    1.32
 -11   5  16   -1.60    1.37
 -10   5  16  164.87   10.09
   9   5 -16    8.76    2.22
  -9   5  16    8.09    2.21
   8   5 -16   17.57    3.03
  -8   5  16   19.43    3.31
   7   5 -16   86.95    6.41
  -7   5  16   87.03    7.04
   6   5 -16  106.26    6.92
  -6   5  16  103.55    7.58
   5   5 -16   16.62    2.69
   4   5 -16   19.21    2.85
  -4  -5  16   19.91    3.01
   4   5 -16   15.53    2.45
   3   5 -16  101.62    6.35
  -3  -5  16  107.57    7.07
  -2  -5  16   48.97    4.68
   2   5 -16   60.97    4.95
  -1  -5  16   -0.35    1.11
   1   5 -16   -0.07    0.90
   0  -5  16   -0.04    1.07
   0   5 -16    0.58    1.09
   1  -5  16   44.12    4.53
 -11   6  16   14.97    3.39
 -10   6  16    0.68    1.57
   9   6 -16  199.12   10.68
  -9   6  16  172.02   10.45
   8   6 -16   12.88    2.65
  -8   6  16   12.65    2.82
   7   6 -16   52.50    5.25
  -7   6  16   45.57    5.21
   6   6 -16   10.65    2.54
  -6   6  16   10.79    2.72
   5   6 -16   23.77    3.47
  -4  -6  16    2.65    1.38
   4   6 -16    3.01    1.49
  -3  -6  16   33.73    4.10
  -2  -6  16    1.34    1.05
  -1  -6  16  145.36    8.45
   0  -6  16   83.04    6.37
   9   7 -16   19.07    3.59
   8   7 -16   12.94    2.86
  -8   7  16   14.79    3.16
   7   7 -16    3.93    1.36
  -7   7  16    8.78    2.68
   6   7 -16    1.80    1.48
  -6   7  16    2.99    1.74
   5   7 -16  162.59    9.39
   4   7 -16    0.76    1.35
  -3  -7  16  125.64    8.14
  -2  -7  16    0.57    1.22
  10   8 -16   39.66    5.19
   9   8 -16   -1.81    1.92
   8   8 -16   -0.60    1.62
   7   8 -16   19.91    3.71
   6   8 -16   55.26    5.58
   5   8 -16    6.76    2.28
   4   8 -16    1.18    1.46
   3   8 -16    8.64    2.46
 -15   0  17   -1.42    1.42
 -14   0  17    0.27    1.71
 -13   0  17   -2.33    1.82
 -12   0  17    2.97    2.00
 -11   0  17   -1.18    1.06
 -10   0  17   -0.35    1.13
  -9   0  17    0.81    1.06
  -8   0  17    0.29    1.15
   7   0 -17    1.17    0.88
  -7   0  17    1.14    1.54
   6   0 -17    0.70    0.76
  -6   0  17   -0.41    1.08
   5   0 -17   -0.09    0.90
   4   0 -17   -0.57    0.81
   3   0 -17    0.62    0.94
   2   0 -17    1.22    1.04
   1   0 -17   -0.02    1.33
   0   0 -17   -1.70    1.69
 -15  -1  17   11.77    3.15
 -14   1  17   68.25    6.75
 -14  -1  17   65.65    6.38
 -13   1  17   16.75    3.62
 -13  -1  17   18.15    3.54
 -12   1  17   51.86    5.69
 -12  -1  17   51.19    5.40
 -11   1  17   16.48    3.29
 -11  -1  17   13.46    2.64
 -10   1  17    5.07    2.11
 -10  -1  17    7.30    2.03
  -9  -1  17   -0.91    1.59
  -9   1  17   -0.26    1.18
  -8  -1  17    6.54    2.11
  -8   1  17    2.99    1.59
   7  -1 -17    1.02    0.81
  -7  -1  17    1.50    1.24
  -7   1  17    0.23    1.10
   7   1 -17   -0.09    0.83
  -7  -1  17   -0.22    0.94
  -6  -1  17   22.55    2.86
  -6  -1  17   32.92    4.00
  -6   1  17   29.16    3.91
   6   1 -17   26.64    2.95
   6  -1 -17   24.30    2.83
  -5  -1  17    1.33    0.97
   5   1 -17    0.99    1.10
  -4  -1  17   56.82    4.46
   4   1 -17   67.53    4.87
   3   1 -17    9.48    2.00
  -3  -1  17   11.03    2.08
   2   1 -17   16.74    2.66
  -2  -1  17   25.79    3.02
   1   1 -17   16.21    2.53
  -1  -1  17   21.77    2.80
   0   1 -17    6.04    1.89
   0  -1  17    5.26    1.45
   1  -1  17    4.73    1.39
   2  -1  17   67.25    5.27
   3  -1  17   17.77    2.79
 -15  -2  17    0.21    1.51
 -14  -2  17   28.33    4.15
 -13   2  17   89.87    7.67
 -13  -2  17   87.58    7.20
 -12   2  17   15.77    3.32
 -12  -2  17   15.61    3.07
 -11   2  17   17.59    3.45
 -11  -2  17   15.51    2.92
 -10   2  17   62.34    6.06
 -10  -2  17   69.76    5.99
  -9  -2  17   28.68    3.80
  -9   2  17   26.28    3.83
  -8  -2  17   27.57    3.73
  -8   2  17   30.97    4.16
  -7  -2  17    2.29    1.37
  -7   2  17    1.68    1.16
   7   2 -17    2.57    1.21
  -6  -2  17    0.50    0.93
  -6   2  17    2.13    1.52
   6   2 -17   -0.36    0.80
  -5  -2  17    2.01    1.13
   5   2 -17    2.31    1.11
  -4  -2  17   -1.91    1.30
   4   2 -17   -1.24    1.20
  -3  -2  17   -0.67    0.82
   3   2 -17    1.67    1.22
   2   2 -17   30.19    3.49
  -2  -2  17   33.07    3.58
  -1  -2  17    3.65    1.46
   1   2 -17    2.65    1.25
   0  -2  17   25.46    3.21
   0   2 -17   21.62    3.17
   1  -2  17   30.70    3.50
   2  -2  17   17.46    2.81
 -12   3  17    5.06    2.53
 -11   3  17   44.91    5.34
 -10   3  17   14.78    3.09
  -9   3  17   30.17    4.29
  -8   3  17   29.22    4.10
  -7   3  17   12.16    2.84
   7   3 -17    8.35    1.73
  -6   3  17   80.63    6.62
   6   3 -17   77.26    5.15
  -5  -3  17   57.02    4.90
   5   3 -17   51.48    4.31
  -4  -3  17  142.75    7.77
   4   3 -17  144.87    7.57
  -3  -3  17    2.99    1.36
   3   3 -17    4.81    1.62
  -2  -3  17   -1.35    0.94
   2   3 -17    0.30    0.91
  -1  -3  17  216.74    9.79
   1   3 -17  216.87    9.94
   0  -3  17   17.58    2.74
   1  -3  17    5.99    1.78
 -11   4  17   44.05    5.35
 -10   4  17   26.15    4.12
  -9   4  17   24.49    4.03
  -8   4  17   64.46    6.13
  -7   4  17   34.27    4.42
  -6   4  17   31.27    4.28
   6   4 -17   28.04    3.29
  -5  -4  17    9.22    2.08
   5   4 -17    7.81    1.94
  -4  -4  17   25.21    3.44
   4   4 -17   26.80    3.23
  -3  -4  17   -0.60    0.98
   3   4 -17    1.71    1.10
   2   4 -17   22.54    3.12
  -2  -4  17   19.18    3.01
  -1  -4  17   28.39    3.61
   1   4 -17   32.01    3.76
   0  -4  17   62.01    5.22
  -9   5  17   40.99    5.11
  -8   5  17   -1.84    1.85
  -7   5  17   18.32    3.39
  -5  -5  17   11.79    2.56
  -4  -5  17   15.36    2.76
   4   5 -17   15.70    2.53
  -3  -5  17   12.39    2.50
   3   5 -17   11.39    2.37
  -2  -5  17   26.83    3.55
   2   5 -17   22.85    3.27
  -1  -5  17   13.01    2.62
  -4  -6  17   28.75    3.88
  -3  -6  17  118.42    7.86
  11   7 -17   26.54    4.26
  10   7 -17    3.05    1.66
   9   7 -17   33.79    4.69
   8   7 -17    0.58    1.30
   7   7 -17   65.91    6.16
   6   7 -17    6.83    2.11
   5   7 -17   24.96    3.80
   4   7 -17    4.39    1.74
   8   8 -17    1.25    1.46
   7   8 -17   52.98    5.80
   6   8 -17   88.88    7.39
   5   8 -17   10.42    2.71
 -13   0  18   48.16    5.64
 -12   0  18   65.47    6.28
 -11   0  18  238.23   12.29
 -10   0  18   81.17    6.89
  -9   0  18   -1.74    2.05
  -8   0  18   26.66    3.78
  -7   0  18   75.67    6.33
   6   0 -18    0.95    0.93
   5   0 -18  208.94    9.13
   4   0 -18   15.29    2.45
   3   0 -18   12.73    2.41
   2   0 -18   86.50    6.13
 -14  -1  18   52.68    6.17
 -13  -1  18   42.29    5.24
 -12   1  18  118.14    8.75
 -12  -1  18  112.79    8.24
 -11   1  18   22.28    3.92
 -11  -1  18   16.99    3.25
 -10  -1  18   10.41    2.46
 -10   1  18    4.46    2.02
  -9  -1  18  134.09    8.66
  -9   1  18  133.75    8.86
  -8  -1  18    2.71    1.26
  -8   1  18    2.52    1.82
  -7  -1  18   35.77    4.34
  -7   1  18   35.67    4.49
   6  -1 -18    0.50    0.81
   6   1 -18    0.48    1.04
   5   1 -18   39.12    3.80
   5  -1 -18   31.86    3.42
   4   1 -18  100.43    6.28
   4  -1 -18   95.35    6.14
   3   1 -18    2.72    1.46
   2   1 -18   48.99    4.60
 -11   2  18    1.81    1.62
 -10   2  18   14.37    3.16
  -9   2  18   49.95    5.55
  -8   2  18    4.74    1.89
  -7   2  18    7.38    2.15
   6   2 -18    2.51    1.40
  -6  -2  18    4.41    1.46
  -5  -2  18    3.07    1.29
   5   2 -18    4.63    1.47
  -4  -2  18   23.96    3.22
   4   2 -18   28.99    3.32
  -3  -2  18   26.97    3.26
   3   2 -18   25.10    3.24
  -2  -2  18    0.93    1.09
   2   2 -18   -0.45    1.07
  -1  -2  18    0.17    1.09
   0  -2  18   12.26    2.38
  -9   3  18   11.88    2.98
  -8   3  18    4.26    2.07
  -7   3  18    0.81    1.41
  -7  -3  18    0.84    1.31
  -6  -3  18   18.95    2.99
   6   3 -18   17.79    2.60
  -5  -3  18    6.71    1.90
   5   3 -18    6.47    1.69
  -4  -3  18    3.79    1.54
   4   3 -18    4.79    1.55
  -3  -3  18    4.42    1.58
   3   3 -18    1.43    1.40
  -2  -3  18    4.89    1.67
  -1  -3  18    8.61    2.07
  -6  -4  18   13.36    2.62
   6   4 -18    9.23    2.06
  -5  -4  18    3.08    1.27
   5   4 -18    0.48    1.26
  -4  -4  18   19.22    3.11
   4   4 -18   22.09    3.11
  -3  -4  18   55.30    5.07
   3   4 -18   72.58    5.64
  -2  -4  18    8.27    2.03
  -6  -5  18   17.69    3.08
  -5  -5  18  104.20    7.31
 -11   0  19   -1.28    1.56
 -10   0  19   -0.44    1.46
  -9   0  19    3.22    1.88
  -8   0  19   -0.55    1.40
   5   0 -19   -0.48    0.98
   4   0 -19   -0.03    1.09
  -9   1  19    2.60    1.76
  -8   1  19   14.84    3.11
   5  -1 -19   -0.46    1.10
   5   1 -19    0.35    0.91
   4  -1 -19   29.96    3.59
   4   1 -19   31.46    3.66
   5   2 -19    1.40    1.46
   4   2 -19   -1.48    1.28
   5   3 -19   32.62    3.76
  -4  -3  19   20.83    3.09
  -7  -4  19   54.35    5.24
  -6  -4  19   50.75    5.03
   0   0   0    0.00    0.00


TITL DM463 in P2(1)/c
REM P2(1)/c (#14 in standard setting)
CELL 0.71073  15.670586  12.527802  14.370685  90.0000 110.8049  90.0000
ZERR    7.00   0.000881   0.000599   0.000807   0.0000   0.0063   0.0000
LATT  1
SYMM -x, y+1/2,-z+1/2
SFAC C H N Al Si
UNIT 105.00 140.00 21.00 7.00 7.00
TREF
HKLF 4
END
_computing_structure_solution     'SHELXT 2014/5 (Sheldrick, 2014)'
;
_shelx_hkl_checksum              18256
loop_
_space_group_symop_operation_xyz
'x, y, z'
'-x, y+1/2, -z+1/2'
'-x, -y, -z'
'x, -y-1/2, z-1/2'
loop_
_atom_site_label
_atom_site_type_symbol
_atom_site_fract_x
_atom_site_fract_y
_atom_site_fract_z
_atom_site_U_iso_or_equiv
_atom_site_adp_type
_atom_site_occupancy
_atom_site_site_symmetry_order
_atom_site_calc_flag
_atom_site_refinement_flags_posn
_atom_site_refinement_flags_adp
S1 S 0.94586(3) 0.80583(3) 0.56644(3) 0.01917(11) Uani 1 1 d . .
S2 S 0.51930(3) 0.15495(3) 0.77005(3) 0.02342(12) Uani 1 1 d . .
F1 F 0.88926(8) 0.99902(9) 0.50723(9) 0.0398(3) Uani 1 1 d . .
F2 F 0.81646(9) 0.92399(9) 0.58940(9) 0.0413(3) Uani 1 1 d . .
F4 F 0.52893(9) 0.06648(10) 0.61000(8) 0.0431(3) Uani 1 1 d . .
F3 F 0.79134(8) 0.87795(11) 0.43889(9) 0.0465(3) Uani 1 1 d . .
O3 O 0.98432(9) 0.80698(11) 0.49074(10) 0.0330(3) Uani 1 1 d . .
O6 O 0.49687(10) 0.11329(11) 0.85106(10) 0.0346(3) Uani 1 1 d . .
F6 F 0.56359(11) -0.03754(10) 0.73581(10) 0.0578(4) Uani 1 1 d . .
F5 F 0.42452(10) 0.00278(12) 0.65542(10) 0.0604(4) Uani 1 1 d . .
N1 N 0.81778(9) 0.60712(11) 0.69775(9) 0.0167(3) Uani 1 1 d . .
O2 O 0.89722(9) 0.71104(10) 0.57021(11) 0.0357(3) Uani 1 1 d . .
O5 O 0.45603(10) 0.22952(11) 0.70721(10) 0.0382(3) Uani 1 1 d . .
O4 O 0.61373(9) 0.18262(12) 0.79659(11) 0.0408(4) Uani 1 1 d . .
N3 N 0.75652(8) 0.35564(10) 0.62188(9) 0.0154(3) Uani 1 1 d . .
N2 N 0.69541(9) 0.60679(10) 0.56625(10) 0.0168(3) Uani 1 1 d . .
O1 O 1.00255(11) 0.84659(12) 0.66092(10) 0.0460(4) Uani 1 1 d . .
C4 C 0.78657(10) 0.43931(12) 0.59316(11) 0.0153(3) Uani 1 1 d . .
C1 C 0.76750(10) 0.54862(12) 0.62008(11) 0.0149(3) Uani 1 1 d . .
C3 C 0.69925(11) 0.70441(13) 0.61149(12) 0.0191(3) Uani 1 1 d . .
C2 C 0.77614(11) 0.70484(13) 0.69396(12) 0.0188(3) Uani 1 1 d . .
C16 C 0.70324(11) 0.34641(13) 0.68957(12) 0.0180(3) Uani 1 1 d . .
H16 H 0.700116 0.268587 0.703497 0.022 Uiso 1 1 calc R U
C12 C 0.90727(11) 0.57921(14) 0.77017(12) 0.0231(4) Uani 1 1 d . .
H12A H 0.915924 0.501749 0.769907 0.035 Uiso 1 1 calc R U
H12B H 0.910920 0.602106 0.836681 0.035 Uiso 1 1 calc R U
H12C H 0.954993 0.615047 0.752481 0.035 Uiso 1 1 calc R U
C10 C 0.94276(11) 0.43549(14) 0.58877(13) 0.0220(4) Uani 1 1 d . .
H10A H 0.953272 0.512157 0.601117 0.033 Uiso 1 1 calc R U
H10B H 0.980158 0.409218 0.551554 0.033 Uiso 1 1 calc R U
H10C H 0.959492 0.397623 0.652432 0.033 Uiso 1 1 calc R U
C7 C 0.78176(11) 0.25353(13) 0.58119(12) 0.0188(3) Uani 1 1 d . .
C5 C 0.84131(11) 0.41582(13) 0.52788(12) 0.0188(3) Uani 1 1 d . .
C19 C 0.85623(13) 0.90659(14) 0.52370(13) 0.0258(4) Uani 1 1 d . .
C9 C 0.69726(12) 0.18547(14) 0.53260(13) 0.0239(4) Uani 1 1 d . .
H9A H 0.672180 0.163108 0.583032 0.036 Uiso 1 1 calc R U
H9B H 0.713704 0.122255 0.502464 0.036 Uiso 1 1 calc R U
H9C H 0.651421 0.227160 0.480994 0.036 Uiso 1 1 calc R U
C6 C 0.81800(12) 0.29799(13) 0.50313(13) 0.0229(4) Uani 1 1 d . .
H6A H 0.771142 0.290976 0.435719 0.027 Uiso 1 1 calc R U
H6B H 0.873121 0.258183 0.504881 0.027 Uiso 1 1 calc R U
C11 C 0.81259(12) 0.48513(15) 0.43430(12) 0.0259(4) Uani 1 1 d . .
H11A H 0.748377 0.471332 0.394547 0.039 Uiso 1 1 calc R U
H11B H 0.850593 0.467903 0.394945 0.039 Uiso 1 1 calc R U
H11C H 0.820375 0.560601 0.453399 0.039 Uiso 1 1 calc R U
C14 C 0.62806(12) 0.78684(14) 0.56904(15) 0.0280(4) Uani 1 1 d . .
H14A H 0.622305 0.801650 0.500110 0.042 Uiso 1 1 calc R U
H14B H 0.645296 0.852416 0.608480 0.042 Uiso 1 1 calc R U
H14C H 0.569546 0.760905 0.570490 0.042 Uiso 1 1 calc R U
C15 C 0.62175(11) 0.57385(14) 0.47533(13) 0.0247(4) Uani 1 1 d . .
H15A H 0.633745 0.501447 0.457240 0.037 Uiso 1 1 calc R U
H15B H 0.618506 0.623129 0.421212 0.037 Uiso 1 1 calc R U
H15C H 0.563644 0.574907 0.486604 0.037 Uiso 1 1 calc R U
C17 C 0.74873(13) 0.40008(15) 0.78923(12) 0.0263(4) Uani 1 1 d . .
H17A H 0.813329 0.379890 0.816218 0.039 Uiso 1 1 calc R U
H17B H 0.718761 0.377418 0.835303 0.039 Uiso 1 1 calc R U
H17C H 0.743570 0.477719 0.780754 0.039 Uiso 1 1 calc R U
C20 C 0.50846(13) 0.04099(15) 0.68904(14) 0.0305(4) Uani 1 1 d . .
C13 C 0.81623(14) 0.78956(14) 0.76871(13) 0.0303(4) Uani 1 1 d . .
H13A H 0.825107 0.762083 0.835349 0.045 Uiso 1 1 calc R U
H13B H 0.774890 0.851033 0.754515 0.045 Uiso 1 1 calc R U
H13C H 0.875192 0.811598 0.765689 0.045 Uiso 1 1 calc R U
C18 C 0.60621(11) 0.38276(15) 0.63600(13) 0.0255(4) Uani 1 1 d . .
H18A H 0.604251 0.460918 0.633219 0.038 Uiso 1 1 calc R U
H18B H 0.567416 0.357070 0.671826 0.038 Uiso 1 1 calc R U
H18C H 0.583987 0.353882 0.568206 0.038 Uiso 1 1 calc R U
C8 C 0.85241(12) 0.19553(14) 0.66646(14) 0.0279(4) Uani 1 1 d . .
H8A H 0.903889 0.243384 0.698918 0.042 Uiso 1 1 calc R U
H8B H 0.874136 0.132679 0.640837 0.042 Uiso 1 1 calc R U
H8C H 0.824957 0.172970 0.714818 0.042 Uiso 1 1 calc R U
loop_
_atom_site_aniso_label
_atom_site_aniso_U_11
_atom_site_aniso_U_22
_atom_site_aniso_U_33
_atom_site_aniso_U_23
_atom_site_aniso_U_13
_atom_site_aniso_U_12
S1 0.0217(2) 0.0178(2) 0.0168(2) 0.00094(16) 0.00529(16) -0.00052(16)
S2 0.0254(2) 0.0195(2) 0.0226(2) 0.00437(17) 0.00501(17) -0.00130(17)
F1 0.0576(8) 0.0209(6) 0.0516(7) 0.0123(5) 0.0325(6) 0.0065(5)
F2 0.0603(8) 0.0299(6) 0.0517(7) 0.0059(5) 0.0421(6) 0.0128(5)
F4 0.0551(8) 0.0519(8) 0.0283(6) 0.0043(5) 0.0222(5) 0.0006(6)
F3 0.0303(6) 0.0547(8) 0.0419(7) -0.0062(6) -0.0027(5) 0.0152(6)
O3 0.0325(7) 0.0394(8) 0.0335(7) 0.0125(6) 0.0198(6) 0.0128(6)
O6 0.0506(8) 0.0282(7) 0.0306(7) 0.0053(6) 0.0214(6) 0.0046(6)
F6 0.1026(12) 0.0316(7) 0.0432(7) 0.0079(6) 0.0306(8) 0.0258(7)
F5 0.0616(9) 0.0668(9) 0.0548(8) -0.0253(7) 0.0233(7) -0.0422(7)
N1 0.0189(7) 0.0156(7) 0.0148(6) -0.0003(5) 0.0051(5) -0.0012(5)
O2 0.0416(8) 0.0179(7) 0.0571(9) 0.0030(6) 0.0292(7) -0.0008(6)
O5 0.0412(8) 0.0305(7) 0.0391(8) 0.0133(6) 0.0096(6) 0.0099(6)
O4 0.0274(7) 0.0458(9) 0.0403(8) 0.0011(7) 0.0011(6) -0.0130(6)
N3 0.0133(6) 0.0156(7) 0.0160(6) -0.0009(5) 0.0039(5) 0.0014(5)
N2 0.0143(6) 0.0158(7) 0.0192(7) 0.0004(5) 0.0047(5) -0.0003(5)
O1 0.0526(9) 0.0404(8) 0.0257(7) -0.0050(6) -0.0100(7) 0.0024(7)
C4 0.0108(7) 0.0175(8) 0.0139(7) -0.0015(6) -0.0002(6) -0.0016(6)
C1 0.0140(7) 0.0150(8) 0.0156(7) 0.0006(6) 0.0052(6) -0.0008(6)
C3 0.0222(8) 0.0144(8) 0.0246(8) 0.0020(7) 0.0132(7) 0.0006(6)
C2 0.0261(9) 0.0144(8) 0.0201(8) -0.0003(7) 0.0131(7) -0.0003(6)
C16 0.0190(8) 0.0190(8) 0.0193(8) 0.0018(7) 0.0110(7) 0.0002(6)
C12 0.0211(9) 0.0241(9) 0.0182(8) -0.0019(7) -0.0002(7) 0.0001(7)
C10 0.0169(8) 0.0255(9) 0.0264(9) -0.0023(7) 0.0110(7) -0.0021(7)
C7 0.0189(8) 0.0143(8) 0.0246(8) -0.0047(7) 0.0094(7) 0.0009(6)
C5 0.0180(8) 0.0198(8) 0.0202(8) -0.0035(7) 0.0088(6) -0.0024(6)
C19 0.0329(10) 0.0229(9) 0.0268(9) -0.0001(7) 0.0170(8) 0.0028(7)
C9 0.0257(9) 0.0204(9) 0.0244(9) -0.0040(7) 0.0073(7) -0.0044(7)
C6 0.0222(9) 0.0231(9) 0.0257(9) -0.0065(7) 0.0114(7) -0.0021(7)
C11 0.0278(9) 0.0311(10) 0.0201(8) -0.0008(8) 0.0100(7) -0.0023(8)
C14 0.0269(9) 0.0204(9) 0.0385(10) 0.0052(8) 0.0140(8) 0.0075(7)
C15 0.0184(8) 0.0237(9) 0.0243(9) 0.0009(7) -0.0018(7) 0.0007(7)
C17 0.0332(10) 0.0285(10) 0.0203(8) -0.0009(7) 0.0131(7) -0.0048(8)
C20 0.0385(11) 0.0295(10) 0.0248(9) 0.0025(8) 0.0128(8) -0.0046(8)
C13 0.0489(12) 0.0189(9) 0.0215(9) -0.0048(7) 0.0105(8) -0.0014(8)
C18 0.0185(8) 0.0312(10) 0.0305(9) 0.0059(8) 0.0133(7) 0.0033(7)
C8 0.0273(9) 0.0207(9) 0.0309(10) -0.0009(8) 0.0044(8) 0.0067(7)
loop_
_atom_type_symbol
_atom_type_description
_atom_type_scat_dispersion_real
_atom_type_scat_dispersion_imag
_atom_type_scat_source
C C 0.0033 0.0016 'International Tables Vol C Tables 4.2.6.8 and 6.1.1.4'
H H 0.0000 0.0000 'International Tables Vol C Tables 4.2.6.8 and 6.1.1.4'
F F 0.0171 0.0103 'International Tables Vol C Tables 4.2.6.8 and 6.1.1.4'
N N 0.0061 0.0033 'International Tables Vol C Tables 4.2.6.8 and 6.1.1.4'
O O 0.0106 0.0060 'International Tables Vol C Tables 4.2.6.8 and 6.1.1.4'
S S 0.1246 0.1234 'International Tables Vol C Tables 4.2.6.8 and 6.1.1.4'
loop_
_geom_angle_atom_site_label_1
_geom_angle_atom_site_label_2
_geom_angle_atom_site_label_3
_geom_angle
O3 S1 O2 114.65(9)
O3 S1 O1 115.81(10)
O2 S1 O1 115.05(9)
O3 S1 C19 102.75(8)
O2 S1 C19 103.38(8)
O1 S1 C19 102.55(9)
O5 S2 O6 115.99(9)
O5 S2 O4 115.46(9)
O6 S2 O4 113.64(9)
O5 S2 C20 102.93(9)
O6 S2 C20 103.98(8)
O4 S2 C20 102.35(9)
C1 N1 C2 108.91(13)
C1 N1 C12 126.64(14)
C2 N1 C12 124.16(13)
C4 N3 C16 129.03(14)
C4 N3 C7 113.03(13)
C16 N3 C7 117.92(12)
C1 N2 C3 108.97(13)
C1 N2 C15 126.88(14)
C3 N2 C15 124.13(14)
N3 C4 C1 122.86(14)
N3 C4 C5 113.44(14)
C1 C4 C5 123.69(14)
N1 C1 N2 108.15(13)
N1 C1 C4 127.75(13)
N2 C1 C4 124.08(13)
C2 C3 N2 107.00(14)
C2 C3 C14 131.39(16)
N2 C3 C14 121.61(15)
C3 C2 N1 106.96(14)
C3 C2 C13 130.71(16)
N1 C2 C13 122.30(15)
N3 C16 C18 109.82(13)
N3 C16 C17 113.43(13)
C18 C16 C17 113.54(14)
N3 C16 H16 106.5
C18 C16 H16 106.5
C17 C16 H16 106.5
N1 C12 H12A 109.5
N1 C12 H12B 109.5
H12A C12 H12B 109.5
N1 C12 H12C 109.5
H12A C12 H12C 109.5
H12B C12 H12C 109.5
C5 C10 H10A 109.5
C5 C10 H10B 109.5
H10A C10 H10B 109.5
C5 C10 H10C 109.5
H10A C10 H10C 109.5
H10B C10 H10C 109.5
C8 C7 N3 107.99(13)
C8 C7 C9 111.70(14)
N3 C7 C9 110.26(13)
C8 C7 C6 114.38(14)
N3 C7 C6 101.02(12)
C9 C7 C6 110.91(14)
C4 C5 C11 112.44(14)
C4 C5 C6 101.01(13)
C11 C5 C6 111.83(14)
C4 C5 C10 108.43(13)
C11 C5 C10 109.36(14)
C6 C5 C10 113.55(14)
F2 C19 F1 107.29(14)
F2 C19 F3 107.35(15)
F1 C19 F3 107.01(15)
F2 C19 S1 112.06(12)
F1 C19 S1 111.24(13)
F3 C19 S1 111.62(12)
C7 C9 H9A 109.5
C7 C9 H9B 109.5
H9A C9 H9B 109.5
C7 C9 H9C 109.5
H9A C9 H9C 109.5
H9B C9 H9C 109.5
C7 C6 C5 107.49(13)
C7 C6 H6A 110.2
C5 C6 H6A 110.2
C7 C6 H6B 110.2
C5 C6 H6B 110.2
H6A C6 H6B 108.5
C5 C11 H11A 109.5
C5 C11 H11B 109.5
H11A C11 H11B 109.5
C5 C11 H11C 109.5
H11A C11 H11C 109.5
H11B C11 H11C 109.5
C3 C14 H14A 109.5
C3 C14 H14B 109.5
H14A C14 H14B 109.5
C3 C14 H14C 109.5
H14A C14 H14C 109.5
H14B C14 H14C 109.5
N2 C15 H15A 109.5
N2 C15 H15B 109.5
H15A C15 H15B 109.5
N2 C15 H15C 109.5
H15A C15 H15C 109.5
H15B C15 H15C 109.5
C16 C17 H17A 109.5
C16 C17 H17B 109.5
H17A C17 H17B 109.5
C16 C17 H17C 109.5
H17A C17 H17C 109.5
H17B C17 H17C 109.5
F5 C20 F4 106.69(15)
F5 C20 F6 107.59(17)
F4 C20 F6 107.55(16)
F5 C20 S2 112.01(14)
F4 C20 S2 111.41(13)
F6 C20 S2 111.34(13)
C2 C13 H13A 109.5
C2 C13 H13B 109.5
H13A C13 H13B 109.5
C2 C13 H13C 109.5
H13A C13 H13C 109.5
H13B C13 H13C 109.5
C16 C18 H18A 109.5
C16 C18 H18B 109.5
H18A C18 H18B 109.5
C16 C18 H18C 109.5
H18A C18 H18C 109.5
H18B C18 H18C 109.5
C7 C8 H8A 109.5
C7 C8 H8B 109.5
H8A C8 H8B 109.5
C7 C8 H8C 109.5
H8A C8 H8C 109.5
H8B C8 H8C 109.5
loop_
_geom_bond_atom_site_label_1
_geom_bond_atom_site_label_2
_geom_bond_distance
S1 O3 1.4188(13)
S1 O2 1.4224(13)
S1 O1 1.4271(14)
S1 C19 1.8250(18)
S2 O5 1.4266(13)
S2 O6 1.4289(14)
S2 O4 1.4334(14)
S2 C20 1.812(2)
F1 C19 1.324(2)
F2 C19 1.321(2)
F4 C20 1.324(2)
F3 C19 1.330(2)
F6 C20 1.324(2)
F5 C20 1.320(2)
N1 C1 1.334(2)
N1 C2 1.379(2)
N1 C12 1.461(2)
N3 C4 1.276(2)
N3 C16 1.494(2)
N3 C7 1.516(2)
N2 C1 1.336(2)
N2 C3 1.376(2)
N2 C15 1.462(2)
C4 C1 1.482(2)
C4 C5 1.508(2)
C3 C2 1.357(2)
C3 C14 1.483(2)
C2 C13 1.482(2)
C16 C18 1.510(2)
C16 C17 1.512(2)
C16 H16 1.0000
C12 H12A 0.9800
C12 H12B 0.9800
C12 H12C 0.9800
C10 C5 1.538(2)
C10 H10A 0.9800
C10 H10B 0.9800
C10 H10C 0.9800
C7 C8 1.514(2)
C7 C9 1.520(2)
C7 C6 1.531(2)
C5 C11 1.528(2)
C5 C6 1.532(2)
C9 H9A 0.9800
C9 H9B 0.9800
C9 H9C 0.9800
C6 H6A 0.9900
C6 H6B 0.9900
C11 H11A 0.9800
C11 H11B 0.9800
C11 H11C 0.9800
C14 H14A 0.9800
C14 H14B 0.9800
C14 H14C 0.9800
C15 H15A 0.9800
C15 H15B 0.9800
C15 H15C 0.9800
C17 H17A 0.9800
C17 H17B 0.9800
C17 H17C 0.9800
C13 H13A 0.9800
C13 H13B 0.9800
C13 H13C 0.9800
C18 H18A 0.9800
C18 H18B 0.9800
C18 H18C 0.9800
C8 H8A 0.9800
C8 H8B 0.9800
C8 H8C 0.9800
loop_
_geom_torsion_atom_site_label_1
_geom_torsion_atom_site_label_2
_geom_torsion_atom_site_label_3
_geom_torsion_atom_site_label_4
_geom_torsion
C16 N3 C4 C1 -3.7(2)
C7 N3 C4 C1 177.56(13)
C16 N3 C4 C5 177.46(13)
C7 N3 C4 C5 -1.25(18)
C2 N1 C1 N2 0.65(18)
C12 N1 C1 N2 -173.28(15)
C2 N1 C1 C4 178.96(15)
C12 N1 C1 C4 5.0(3)
C3 N2 C1 N1 -0.77(18)
C15 N2 C1 N1 -179.19(15)
C3 N2 C1 C4 -179.15(14)
C15 N2 C1 C4 2.4(3)
N3 C4 C1 N1 92.1(2)
C5 C4 C1 N1 -89.2(2)
N3 C4 C1 N2 -89.8(2)
C5 C4 C1 N2 88.86(19)
C1 N2 C3 C2 0.58(18)
C15 N2 C3 C2 179.06(15)
C1 N2 C3 C14 -179.90(15)
C15 N2 C3 C14 -1.4(2)
N2 C3 C2 N1 -0.18(18)
C14 C3 C2 N1 -179.63(17)
N2 C3 C2 C13 177.83(17)
C14 C3 C2 C13 -1.6(3)
C1 N1 C2 C3 -0.28(18)
C12 N1 C2 C3 173.83(15)
C1 N1 C2 C13 -178.50(16)
C12 N1 C2 C13 -4.4(2)
C4 N3 C16 C18 73.7(2)
C7 N3 C16 C18 -107.68(15)
C4 N3 C16 C17 -54.6(2)
C7 N3 C16 C17 124.09(15)
C4 N3 C7 C8 109.17(15)
C16 N3 C7 C8 -69.70(17)
C4 N3 C7 C9 -128.54(14)
C16 N3 C7 C9 52.59(18)
C4 N3 C7 C6 -11.19(16)
C16 N3 C7 C6 169.94(12)
N3 C4 C5 C11 132.44(15)
C1 C4 C5 C11 -46.36(19)
N3 C4 C5 C6 13.08(17)
C1 C4 C5 C6 -165.71(14)
N3 C4 C5 C10 -106.51(15)
C1 C4 C5 C10 74.69(18)
O3 S1 C19 F2 -174.78(13)
O2 S1 C19 F2 65.65(15)
O1 S1 C19 F2 -54.27(15)
O3 S1 C19 F1 -54.68(14)
O2 S1 C19 F1 -174.24(12)
O1 S1 C19 F1 65.83(14)
O3 S1 C19 F3 64.77(14)
O2 S1 C19 F3 -54.80(15)
O1 S1 C19 F3 -174.72(13)
C8 C7 C6 C5 -96.95(16)
N3 C7 C6 C5 18.75(16)
C9 C7 C6 C5 135.63(14)
C4 C5 C6 C7 -19.37(16)
C11 C5 C6 C7 -139.16(14)
C10 C5 C6 C7 96.49(16)
O5 S2 C20 F5 -59.66(15)
O6 S2 C20 F5 61.71(15)
O4 S2 C20 F5 -179.77(14)
O5 S2 C20 F4 59.76(15)
O6 S2 C20 F4 -178.87(13)
O4 S2 C20 F4 -60.35(15)
O5 S2 C20 F6 179.82(14)
O6 S2 C20 F6 -58.81(16)
O4 S2 C20 F6 59.71(15)
