#------------------------------------------------------------------------------
#$Date: 2019-03-18 09:35:25 +0200 (Mon, 18 Mar 2019) $
#$Revision: 214153 $
#$URL: file:///home/coder/svn-repositories/cod/cif/1/54/70/1547070.cif $
#------------------------------------------------------------------------------
#
# This file is available in the Crystallography Open Database (COD),
# http://www.crystallography.net/
#
# All data on this site have been placed in the public domain by the
# contributors.
#
data_1547070
loop_
_publ_author_name
'Lan, Jianyong'
'Xie, Haisheng'
'Lu, Xiaoxia'
'Deng, Yuanfu'
'Jiang, Huanfeng'
'Zeng, Wei'
_publ_section_title
;
 Co(II)-Catalyzed Regioselective Cross-Dehydrogenative Coupling of Aryl
 C-H Bonds with Carboxylic Acids.
;
_journal_issue                   16
_journal_name_full               'Organic letters'
_journal_page_first              4279
_journal_page_last               4282
_journal_paper_doi               10.1021/acs.orglett.7b01942
_journal_volume                  19
_journal_year                    2017
_chemical_formula_sum            'C21 H14 N2 O3 S'
_chemical_formula_weight         374.40
_space_group_crystal_system      triclinic
_space_group_IT_number           2
_space_group_name_Hall           '-P 1'
_space_group_name_H-M_alt        'P -1'
_symmetry_space_group_name_Hall  '-P 1'
_symmetry_space_group_name_H-M   'P -1'
_atom_sites_solution_hydrogens   geom
_audit_creation_method           SHELXL-2016/6
_cell_angle_alpha                82.014(5)
_cell_angle_beta                 77.654(6)
_cell_angle_gamma                76.926(6)
_cell_formula_units_Z            4
_cell_length_a                   8.6027(8)
_cell_length_b                   14.6659(9)
_cell_length_c                   14.8286(9)
_cell_measurement_reflns_used    10841
_cell_measurement_temperature    293(2)
_cell_measurement_theta_max      62.57
_cell_measurement_theta_min      4.15
_cell_volume                     1772.1(2)
_computing_structure_refinement  'SHELXL-2016/6 (Sheldrick, 2016)'
_computing_structure_solution    'SHELXT 2014/5 (Sheldrick, 2014)'
_diffrn_ambient_temperature      293(2)
_diffrn_measured_fraction_theta_full 0.981
_diffrn_measured_fraction_theta_max 0.981
_diffrn_measurement_device_type  'SMART (Bruker, 1998)'
_diffrn_radiation_type           CuK\a
_diffrn_radiation_wavelength     1.54184
_diffrn_reflns_av_R_equivalents  0.0383
_diffrn_reflns_av_unetI/netI     0.0413
_diffrn_reflns_Laue_measured_fraction_full 0.981
_diffrn_reflns_Laue_measured_fraction_max 0.981
_diffrn_reflns_limit_h_max       9
_diffrn_reflns_limit_h_min       -9
_diffrn_reflns_limit_k_max       16
_diffrn_reflns_limit_k_min       -16
_diffrn_reflns_limit_l_max       15
_diffrn_reflns_limit_l_min       -17
_diffrn_reflns_number            10841
_diffrn_reflns_point_group_measured_fraction_full 0.981
_diffrn_reflns_point_group_measured_fraction_max 0.981
_diffrn_reflns_theta_full        62.574
_diffrn_reflns_theta_max         62.574
_diffrn_reflns_theta_min         4.153
_exptl_absorpt_coefficient_mu    1.834
_exptl_absorpt_correction_T_max  62.574
_exptl_absorpt_correction_T_min  4.153
_exptl_crystal_colour            colorless
_exptl_crystal_density_diffrn    1.403
_exptl_crystal_description       plane
_exptl_crystal_F_000             776
_exptl_crystal_size_max          0.280
_exptl_crystal_size_mid          0.210
_exptl_crystal_size_min          0.180
_refine_diff_density_max         1.154
_refine_diff_density_min         -0.746
_refine_diff_density_rms         0.079
_refine_ls_extinction_coef       0.0095(19)
_refine_ls_extinction_expression Fc^*^=kFc[1+0.001xFc^2^\l^3^/sin(2\q)]^-1/4^
_refine_ls_extinction_method     'SHELXL-2016/6 (Sheldrick 2016)'
_refine_ls_goodness_of_fit_ref   1.055
_refine_ls_hydrogen_treatment    constr
_refine_ls_matrix_type           full
_refine_ls_number_parameters     488
_refine_ls_number_reflns         5552
_refine_ls_number_restraints     0
_refine_ls_restrained_S_all      1.055
_refine_ls_R_factor_all          0.0939
_refine_ls_R_factor_gt           0.0856
_refine_ls_shift/su_max          0.000
_refine_ls_shift/su_mean         0.000
_refine_ls_structure_factor_coef Fsqd
_refine_ls_weighting_details
'w=1/[\s^2^(Fo^2^)+(0.1741P)^2^+1.5645P] where P=(Fo^2^+2Fc^2^)/3'
_refine_ls_weighting_scheme      calc
_refine_ls_wR_factor_gt          0.2585
_refine_ls_wR_factor_ref         0.2724
_reflns_Friedel_coverage         0.000
_reflns_number_gt                4719
_reflns_number_total             5552
_reflns_threshold_expression     'I > 2\s(I)'
_cod_data_source_file            ol7b01942_si_002.cif
_cod_data_source_block           sad
_cod_depositor_comments
;

2019-01-19
Z value and formula fixed to values more according to usual
chemical conventions.                 miguel
;
_cod_original_formula_sum            'C42 H28 N4 O6 S2'
_cod_original_formula_weight         748.80
_cod_original_formula_units_Z            2
_cod_original_cell_volume        1772.2(2)
_cod_database_code               1547070
_shelx_shelxl_version_number     2016/6
_shelx_space_group_comment
;
The symmetry employed for this shelxl refinement is uniquely defined
by the following loop, which should always be used as a source of
symmetry information in preference to the above space-group names.
They are only intended as comments.
;
_shelx_estimated_absorpt_t_min   0.628
_shelx_estimated_absorpt_t_max   0.734
_shelx_res_file
;
TITL 20170606-ljy-1-2_a.res in P-1
    sad.res
    created by SHELXL-2016/6 at 16:08:50 on 22-Jun-2017
CELL 1.54184 8.6027 14.6659 14.8286 82.014 77.654 76.926
ZERR 2 0.0008 0.0009 0.0009 0.005 0.006 0.006
LATT 1
SFAC C H N O S
UNIT 84 56 8 12 4
ACTA
Size 0.28 0.21 0.18
L.S. 40
PLAN  1
BOND $H
list 4
fmap 2 53
ACTA
WGHT    0.174100    1.564500
EXTI    0.009495
FVAR       0.97594
S1    5    0.724533    0.576552    0.078531    11.00000    0.12665    0.06285 =
         0.07436   -0.01616   -0.03670    0.01610
O1    4    0.945173    0.845258    0.107559    11.00000    0.07250    0.11987 =
         0.08459   -0.03851   -0.04268    0.00788
O2    4    0.448473    0.825442    0.082770    11.00000    0.06362    0.04422 =
         0.05511   -0.01325   -0.02548    0.00042
O3    4    0.574385    0.740923    0.194442    11.00000    0.10671    0.05183 =
         0.04842   -0.00848   -0.02788    0.00936
N1    3    0.725345    0.898282    0.037981    11.00000    0.05340    0.05758 =
         0.04037   -0.00567   -0.01428   -0.00106
AFIX  43
H1B   2    0.679985    0.889526   -0.005584    11.00000   -1.20000
AFIX   0
N2    3    0.851433    0.781562   -0.092829    11.00000    0.06891    0.06281 =
         0.03978   -0.00232   -0.01144   -0.00199
C1    1    0.913503    0.726110   -0.160384    11.00000    0.09444    0.07730 =
         0.04817   -0.00980   -0.01045   -0.00825
AFIX  43
H1A   2    0.848056    0.722465   -0.201676    11.00000   -1.20000
AFIX   0
C2    1    1.069846    0.673394   -0.173013    11.00000    0.09281    0.06411 =
         0.06106   -0.00912    0.00776   -0.01391
AFIX  43
H2A   2    1.109618    0.636396   -0.222300    11.00000   -1.20000
AFIX   0
C3    1    1.164531    0.677140   -0.110984    11.00000    0.06218    0.06426 =
         0.07771   -0.00247    0.00952   -0.01008
AFIX  43
H3A   2    1.270660    0.642657   -0.118776    11.00000   -1.20000
AFIX   0
C4    1    1.105563    0.731456   -0.036384    11.00000    0.04302    0.06173 =
         0.06905   -0.00338    0.00549   -0.00587
AFIX  43
H4A   2    1.167230    0.733134    0.007563    11.00000   -1.20000
AFIX   0
C5    1    0.945694    0.783672   -0.032349    11.00000    0.05146    0.05268 =
         0.04265    0.00287   -0.00244   -0.01272
C6    1    0.873467    0.846069    0.044205    11.00000    0.05469    0.06465 =
         0.05063   -0.00354   -0.01150   -0.01242
C7    1    0.639563    0.966959    0.099087    11.00000    0.06414    0.03991 =
         0.04050    0.00088   -0.01635   -0.00431
C8    1    0.714510    1.035097    0.112455    11.00000    0.07629    0.05581 =
         0.05793    0.00450   -0.01333   -0.02237
AFIX  43
H8A   2    0.820172    1.035723    0.081032    11.00000   -1.20000
AFIX   0
C9    1    0.635907    1.104258    0.172504    11.00000    0.10060    0.04233 =
         0.06784   -0.00066   -0.02865   -0.02290
AFIX  43
H9A   2    0.690584    1.149066    0.181808    11.00000   -1.20000
AFIX   0
C10   1    0.481399    1.106093    0.216822    11.00000    0.09697    0.03541 =
         0.05791   -0.00800   -0.01983   -0.00620
AFIX  43
H10A  2    0.430238    1.152826    0.255948    11.00000   -1.20000
AFIX   0
C11   1    0.396160    1.038920    0.205128    11.00000    0.07282    0.03366 =
         0.04781   -0.00050   -0.02013    0.00409
C12   1    0.233368    1.043187    0.249444    11.00000    0.06878    0.05090 =
         0.05837   -0.00995   -0.00924    0.01044
AFIX  43
H12A  2    0.182781    1.090823    0.287619    11.00000   -1.20000
AFIX   0
C13   1    0.148935    0.980390    0.238171    11.00000    0.05690    0.06992 =
         0.07805   -0.01225   -0.00874    0.00430
AFIX  43
H13A  2    0.040303    0.985808    0.266643    11.00000   -1.20000
AFIX   0
C14   1    0.225731    0.906530    0.183134    11.00000    0.05541    0.06361 =
         0.07261   -0.00923   -0.01854   -0.00875
AFIX  43
H14A  2    0.168430    0.862013    0.176295    11.00000   -1.20000
AFIX   0
C15   1    0.382918    0.899670    0.139878    11.00000    0.05834    0.03915 =
         0.04819   -0.01042   -0.02129    0.00337
C16   1    0.476907    0.965743    0.145717    11.00000    0.05524    0.03654 =
         0.03800   -0.00169   -0.01706    0.00283
C17   1    0.539912    0.747639    0.119623    11.00000    0.06171    0.03960 =
         0.04461   -0.00602   -0.01608   -0.00743
C18   1    0.591896    0.675181    0.055090    11.00000    0.06108    0.04229 =
         0.04610   -0.00598   -0.01055   -0.00986
C19   1    0.540655    0.678858   -0.034300    11.00000    0.04939    0.03492 =
         0.04206   -0.01343   -0.00827   -0.00249
AFIX  43
H19A  2    0.465512    0.725902   -0.059620    11.00000   -1.20000
AFIX   0
C20   1    0.630806    0.594976   -0.073609    11.00000    0.10832    0.07599 =
         0.05744   -0.01897   -0.02200   -0.02132
AFIX  43
H20A  2    0.621716    0.581066   -0.131337    11.00000   -1.20000
AFIX   0
C21   1    0.729259    0.537609   -0.022106    11.00000    0.12205    0.04838 =
         0.07552   -0.01814   -0.01250    0.00760
AFIX  43
H21A  2    0.794370    0.481127   -0.040878    11.00000   -1.20000
AFIX   0
S1'   5    0.280072    1.086794    0.497550    11.00000    0.12960    0.06588 =
         0.08566   -0.00647   -0.02569    0.01700
O1'   4    0.520831    1.338119    0.271554    11.00000    0.07276    0.09907 =
         0.04130   -0.01461   -0.00759    0.01547
O2'   4    0.062276    1.348395    0.485849    11.00000    0.05516    0.03368 =
         0.03727   -0.00544   -0.01301   -0.00235
O3'   4    0.127208    1.248962    0.374976    11.00000    0.10197    0.04673 =
         0.04302   -0.01259   -0.02365    0.00418
N1'   3    0.342758    1.404067    0.393182    11.00000    0.04577    0.05429 =
         0.03796   -0.00958   -0.00678   -0.00470
AFIX  43
H1'B  2    0.319140    1.401179    0.452731    11.00000   -1.20000
AFIX   0
N2'   3    0.504681    1.290281    0.512218    11.00000    0.05769    0.06952 =
         0.04818   -0.00302   -0.00901   -0.01398
C1'   1    0.584936    1.234264    0.573624    11.00000    0.08265    0.08043 =
         0.05590    0.00685   -0.01813   -0.01071
AFIX  43
H1'A  2    0.543944    1.239243    0.636471    11.00000   -1.20000
AFIX   0
C2'   1    0.725033    1.169775    0.548081    11.00000    0.08670    0.07486 =
         0.08542    0.02074   -0.03667   -0.01195
AFIX  43
H2'A  2    0.777146    1.132137    0.593097    11.00000   -1.20000
AFIX   0
C3'   1    0.786537    1.161208    0.458019    11.00000    0.06086    0.05886 =
         0.09586    0.00098   -0.02039   -0.00038
AFIX  43
H3'A  2    0.882406    1.118352    0.439930    11.00000   -1.20000
AFIX   0
C4'   1    0.706249    1.216521    0.392651    11.00000    0.05127    0.05251 =
         0.06050   -0.00574   -0.00500   -0.00542
AFIX  43
H4'A  2    0.745317    1.211219    0.329687    11.00000   -1.20000
AFIX   0
C5'   1    0.566448    1.279958    0.422987    11.00000    0.04423    0.05018 =
         0.04971   -0.00497   -0.00855   -0.01240
C6'   1    0.475674    1.343407    0.353604    11.00000    0.04457    0.06030 =
         0.04322   -0.01156   -0.00506   -0.00706
C7'   1    0.240853    1.471612    0.342681    11.00000    0.05350    0.04231 =
         0.03635   -0.00854   -0.01111   -0.00690
C8'   1    0.309469    1.532856    0.276553    11.00000    0.06070    0.06093 =
         0.05040   -0.00719   -0.00302   -0.01696
AFIX  43
H8'A  2    0.421201    1.528877    0.266206    11.00000   -1.20000
AFIX   0
C9'   1    0.215224    1.601601    0.223912    11.00000    0.09090    0.05080 =
         0.05083    0.00288   -0.00537   -0.01718
AFIX  43
H9'A  2    0.264852    1.642350    0.179090    11.00000   -1.20000
AFIX   0
C10'  1    0.051793    1.608950    0.238079    11.00000    0.09122    0.04142 =
         0.04366   -0.00189   -0.01581   -0.00145
AFIX  43
H10B  2   -0.009800    1.654277    0.202429    11.00000   -1.20000
AFIX   0
C11'  1   -0.025105    1.548217    0.306573    11.00000    0.06672    0.03343 =
         0.04064   -0.01071   -0.01768    0.00301
C12'  1   -0.197329    1.558454    0.324095    11.00000    0.06603    0.04513 =
         0.05664   -0.01377   -0.03047    0.00911
AFIX  43
H12B  2   -0.258587    1.605099    0.289434    11.00000   -1.20000
AFIX   0
C13'  1   -0.273508    1.501486    0.390322    11.00000    0.05033    0.05556 =
         0.07145   -0.01982   -0.02339   -0.00027
AFIX  43
H13B  2   -0.386035    1.509248    0.400831    11.00000   -1.20000
AFIX   0
C14'  1   -0.183051    1.431248    0.442674    11.00000    0.05045    0.04592 =
         0.05413   -0.01492   -0.00970   -0.00917
AFIX  43
H14B  2   -0.235518    1.392688    0.488636    11.00000   -1.20000
AFIX   0
C15'  1   -0.018024    1.418897    0.426735    11.00000    0.04963    0.03353 =
         0.03754   -0.01037   -0.01260   -0.00247
C16'  1    0.069743    1.477196    0.359795    11.00000    0.05441    0.03231 =
         0.03338   -0.00961   -0.01040   -0.00449
C17'  1    0.122524    1.262590    0.452481    11.00000    0.04946    0.03540 =
         0.04049   -0.00784   -0.00939   -0.00363
C18'  1    0.179170    1.193243    0.525080    11.00000    0.05161    0.03947 =
         0.04213   -0.00312   -0.00915   -0.00923
C19'  1    0.154042    1.207264    0.629934    11.00000    0.04147    0.01174 =
         0.02374    0.00601   -0.01031   -0.00175
AFIX  43
H19C  2    0.100625    1.259148    0.661980    11.00000   -1.20000
AFIX   0
C20'  1    0.241235    1.112609    0.663747    11.00000    0.10436    0.08140 =
         0.05782    0.01270   -0.03000   -0.02713
AFIX  43
H20B  2    0.249158    1.097831    0.725869    11.00000   -1.20000
AFIX   0
C21'  1    0.306062    1.051215    0.603044    11.00000    0.08680    0.04571 =
         0.08681    0.00600   -0.03054    0.00538
AFIX  43
H21C  2    0.363038    0.991385    0.619213    11.00000   -1.20000

AFIX   0
HKLF 4




REM  20170606-ljy-1-2_a.res in P-1
REM R1 =  0.0856 for    4719 Fo > 4sig(Fo)  and  0.0939 for all    5552 data
REM    488 parameters refined using      0 restraints

END

WGHT      0.1753      1.5541

REM Highest difference peak  1.154,  deepest hole -0.746,  1-sigma level  0.079
Q1    1   0.5497  0.6785 -0.0082  11.00000  0.05    0.61
;
_shelx_res_checksum              12215
_shelx_hkl_file
;
   0  -1  -1  869.79    8.33
   0  -3  -3 1346.72   17.04
   0   3   3 1335.59   20.24
   0  -4  -4 4384.91   37.51
   0   4   4 4982.34   43.01
   0   5   5  661.93   18.35
   0  -5  -5  679.64   16.69
   0  -6  -6  110.73    7.72
   0   6   6  103.15    8.28
   0   7   7   26.12    4.85
   0  -7  -7   28.07    6.55
   0  -8  -8   83.48   12.72
   0  -8  -8   88.33   12.62
   0  -9  -9  322.77   26.89
   0 -10 -10    0.30    0.97
   0 -11 -11    4.98    3.25
   0 -12 -12    0.79    1.14
   0 -11 -12   -4.22    2.37
   0 -11 -12    2.11    2.00
   0 -10 -11  413.76   30.69
   0  -9 -10  182.57   20.65
   0  -8  -9  105.90   14.08
   0  -8  -9  109.52   15.29
   0  -7  -8  969.09   38.79
   0   7   8 1048.91   32.02
   0  -7  -8  934.59   40.23
   0   6   7   26.54    4.48
   0  -5  -6 9500.26   62.37
   0   5   6 9001.63   73.26
   0   4   5  191.92    9.40
   0  -4  -5  176.14    7.36
   0   3   4 8601.35   53.89
   0  -1  -2 1045.59    8.42
   0   1   2 1039.49   12.16
   0  -2  -1 1646.37   12.43
   0  -3  -2   19.63    1.88
   0  -3  -2   20.67    2.08
   0  -4  -3 2561.09   27.87
   0  -5  -4  688.51   17.03
   0   5   4  803.23   19.51
   0  -6  -5  805.80   20.98
   0   6   5  826.74   22.12
   0   7   6 1250.66   30.88
   0  -7  -6 1417.98   30.55
   0  -8  -7   37.38    8.26
   0   8   7   44.20    6.44
   0   8   7   42.82    6.31
   0  -9  -8  208.84   20.48
   0   9   8  232.36   15.23
   0  -9  -8  189.39   19.79
   0 -10  -9   33.02    8.75
   0 -11 -10   11.24    5.13
   0 -12 -11   23.36    6.85
   0 -11 -13   30.49    6.81
   0 -10 -12    3.19    2.16
   0 -10 -12   -0.59    1.32
   0  -9 -11   -0.54    1.20
   0  -8 -10  126.75   16.66
   0  -7  -9   32.62    7.64
   0  -7  -9   24.93    7.24
   0  -6  -8  229.44   18.76
   0  -6  -8  266.57   18.82
   0   6   8  250.40   14.85
   0   5   7   89.61    7.84
   0  -4  -6  157.23    6.97
   0   4   6  180.63    9.72
   0  -3  -5   26.03    2.42
   0   3   5   32.60    3.57
   0   2   4   88.86    5.07
   0  -2  -4   83.56    3.40
   0  -2  -4   94.03    5.38
   0  -2   0  477.76    5.34
   0  -4  -2 1146.45   18.50
   0  -4  -2 1108.39   15.02
   0  -5  -3  715.55   17.23
   0  -6  -4  787.43   20.52
   0   6   4  892.95   21.09
   0  -7  -5    0.62    0.83
   0   7   5    1.77    1.08
   0   8   6  256.60   14.82
   0  -8  -6  207.20   17.83
   0   8   6  224.74   14.46
   0   9   7   58.12    7.70
   0  -9  -7   38.31    8.59
   0  10   8    1.56    1.17
   0 -10  -8   -3.67    2.85
   0 -11  -9  328.67   28.23
   0 -12 -10    5.48    3.38
   0 -13 -11   71.32   10.68
   0 -10 -13    4.63    2.95
   0 -10 -13    0.93    1.10
   0  -9 -12    1.97    0.36
   0  -9 -12   -0.03    2.29
   0  -8 -11   13.91    5.90
   0  -7 -10  411.27   26.82
   0  -7 -10  485.95   31.70
   0   6   9  194.22   13.60
   0  -6  -9  186.48   16.48
   0  -6  -9  167.27   16.90
   0   5   8    0.78    0.49
   0  -5  -8   -1.52    2.46
   0   4   7  259.16   12.74
   0   3   6   52.43    5.03
   0  -2  -5  819.13   18.46
   0   2   5  809.16   17.12
   0   1   4  613.57   12.84
   0  -1  -4  586.72    6.71
   0   0   3 1055.04   14.25
   0  -1   2 1463.42   13.68
   0  -2   1 1072.11   13.62
   0   2  -1 1058.36    9.17
   0  -2   1 1041.55   11.54
   0  -3   0  113.55    3.16
   0  -4  -1 4356.88   24.72
   0  -5  -2   48.42    4.44
   0  -5  -2   54.69    3.54
   0  -6  -3  775.89   20.18
   0   7   4    2.94    1.09
   0  -7  -4    1.81    1.48
   0   8   5  962.43   26.93
   0  -8  -5  943.33   27.34
   0   9   6   37.30    5.82
   0   9   6   32.51    5.80
   0  -9  -6   38.46    6.08
   0  -9  -6   23.88    6.27
   0  10   7   24.54    5.19
   0 -11  -8    4.51    0.76
   0  11   8    9.43    2.90
   0 -12  -9   80.56   13.44
   0 -13 -10   38.81    8.50
   0 -10 -14   40.26    7.48
   0  -9 -13   27.47    7.37
   0  -9 -13   23.49    5.34
   0  -9 -13   23.31    5.98
   0  -8 -12   70.85   12.17
   0  -8 -12   68.28   10.63
   0  -7 -11    3.09    3.36
   0  -6 -10   53.13    9.28
   0  -6 -10   27.19    7.13
   0  -5  -9  113.07   13.19
   0  -5  -9  128.85   12.85
   0   5   9  107.74    9.89
   0   4   8  799.03   24.12
   0   3   7   18.89    3.28
   0  -2  -6  344.12   13.68
   0   2   6  322.23   11.91
   0  -1  -5   30.43    3.67
   0   1   5   27.29    3.00
   0   0   4  530.16   11.62
   0   0  -4  589.26   16.54
   0  -1   3 4707.96   30.68
   0  -2   2 3214.01   26.53
   0  -2   2 3057.93   21.52
   0  -3   1   21.20    2.35
   0  -3   1   21.87    2.04
   0  -4   0   71.01    2.80
   0  -5  -1  277.81   10.18
   0  -5  -1  268.41    6.51
   0  -6  -2  290.37   12.40
   0  -7  -3  616.82   20.07
   0   8   4  231.51   12.88
   0  -8  -4  221.03   13.85
   0   9   5   86.18    8.46
   0  -9  -5   87.14    9.09
   0  -9  -5   70.65   10.65
   0  -9  -5   71.30   10.31
   0   9   5   76.04    8.74
   0  10   6    9.26    3.01
   0  11   7    5.30    2.55
   0 -12  -8   44.16    9.90
   0  12   8   66.55    8.35
   0 -13  -9   21.20    6.36
   0 -14 -10   43.68    8.08
   0  -9 -14   -0.61    0.92
   0  -9 -14    1.81    1.69
   0  -8 -13   73.36   11.86
   0  -8 -13   73.73    9.97
   0  -8 -13   55.45    9.42
   0  -7 -12  121.26   15.58
   0  -7 -12  151.16   18.08
   0  -6 -11    1.89    0.97
   0  -6 -11    1.72    1.26
   0  -5 -10   39.25    8.08
   0  -5 -10   40.62    7.92
   0   4   9  192.95   12.69
   0  -4  -9  189.90   16.15
   0  -4  -9  207.79   15.36
   0   3   8  937.98   24.43
   0   2   7  110.76    7.54
   0  -2  -7  113.96    8.81
   0   1   6  108.59    6.60
   0  -1  -6  118.22    8.35
   0   0  -5  107.23    7.55
   0   0   5   91.65    5.37
   0  -1   4  376.14    9.69
   0  -2   3 4268.21   29.21
   0  -3   2 3809.52   33.69
   0   3  -2 3736.17   24.69
   0  -4   1 1181.93   13.21
   0  -4   1 1192.56   20.51
   0  -5   0   57.97    2.73
   0  -5   0   47.20    4.25
   0  -6  -1   62.33    5.61
   0  -7  -2  176.65   10.49
   0   8   3    0.00    0.64
   0  -8  -3    3.11    1.69
   0   9   4  157.34   10.99
   0  -9  -4  166.18   12.40
   0   9   4  142.09   11.80
   0  10   5    4.09    2.07
   0  11   6  429.72   22.81
   0  12   7   75.39    9.24
   0 -13  -8   55.66   11.06
   0  13   8   59.75    7.51
   0 -14  -9    7.58    3.77
   0  -8 -14    4.71    2.72
   0  -8 -14    1.53    1.47
   0  -7 -13   87.99   10.84
   0  -7 -13   58.37    9.75
   0  -7 -13   78.21   12.57
   0  -6 -12   -0.04    1.45
   0  -6 -12    1.15    1.89
   0  -6 -12    3.69    3.06
   0  -5 -11  290.88   22.73
   0  -5 -11  255.17   19.59
   0  -4 -10  243.96   17.59
   0  -4 -10  258.09   19.70
   0   4  10  244.97   15.24
   0   3   9  102.52    8.64
   0  -3  -9   93.62   10.66
   0  -2  -8  546.71   21.65
   0   2   8  544.13   17.90
   0  -1  -7   10.36    2.78
   0   1   7    7.94    1.91
   0   0  -6  376.62   15.88
   0   0   6  398.33   12.29
   0  -1   5   24.11    2.71
   0  -2   4   52.17    3.65
   0  -2   4   25.97    1.72
   0  -3   3 4245.17   39.08
   0  -4   2  233.84    9.64
   0  -4   2  221.77    7.98
   0   4  -2  225.23    6.10
   0  -5   1  179.61    8.36
   0  -5   1  215.53    5.85
   0  -6   0 1618.13   27.72
   0  -7  -1  435.39   16.44
   0  -8  -2    3.70    1.74
   0   9   3  138.93   10.36
   0  -9  -3  131.04   10.77
   0  10   4  286.44   17.62
   0  11   5   64.97    8.93
   0  12   6    9.54    3.34
   0  13   7   -0.59    2.00
   0 -13  -7   -3.84    2.86
   0 -14  -8   -1.17    1.52
   0  14   8    0.57    0.69
   0  -8 -15  125.50   12.27
   0  -7 -14  111.39   13.10
   0  -6 -13  142.33   15.67
   0  -6 -13  169.49   14.99
   0  -6 -13  171.67   18.22
   0  -5 -12   -0.10    1.29
   0  -5 -12    0.27    1.72
   0  -4 -11  112.46   13.49
   0  -4 -11  102.38   10.95
   0  -4 -11  115.35   10.98
   0  -4 -11  116.11   13.61
   0  -4 -11   89.48   11.30
   0  -3 -10    2.94    1.37
   0  -3 -10    7.30    2.75
   0  -3 -10    1.90    2.18
   0   3  10    3.29    1.72
   0  -2  -9 1020.64   32.27
   0   2   9  981.94   25.84
   0   1   8   57.05    5.56
   0  -1  -8   58.52    7.10
   0   0   7 2363.50   32.60
   0   0  -7 2410.86   43.50
   0  -1   6  318.75   10.89
   0  -2   5   19.65    2.46
   0  -3   4  707.17   14.84
   0  -3   4  724.09   10.52
   0  -3   4  722.81   17.93
   0  -4   3  244.39    8.25
   0   4  -3  234.53    7.48
   0  -5   2    1.82    0.82
   0  -5   2    3.84    1.14
   0  -5   2    1.66    0.71
   0  -6   1  156.20    8.59
   0  -7   0   10.19    2.56
   0  -8  -1   88.43    8.19
   0  -9  -2   59.99    7.67
   0  -9  -2   52.50    6.61
   0  10   3    2.13    1.45
   0  11   4   32.28    6.00
   0  12   5  262.40   18.23
   0  13   6   12.01    3.60
   0  14   7    2.30    1.14
   0 -14  -7    0.05    2.36
   0 -15  -8   11.43    4.03
   0  -7 -15    0.85    1.17
   0  -6 -14   11.22    4.16
   0  -5 -13  759.50   36.07
   0  -5 -13  875.33   33.56
   0  -5 -13  874.77   40.04
   0  -4 -12  138.81   14.88
   0  -4 -12  140.15   15.40
   0  -4 -12  143.94   12.60
   0  -4 -12  144.58   13.27
   0  -3 -11  304.65   20.73
   0  -3 -11  289.06   17.17
   0  -3 -11  298.37   18.05
   0  -3 -11  258.90   17.90
   0  -3 -11  279.96   20.51
   0  -2 -10   -0.19    1.13
   0   2  10    4.23    1.74
   0  -2 -10    0.49    1.16
   0  -2 -10    1.87    1.34
   0   1   9   83.15    7.22
   0  -1  -9   78.71    9.08
   0   0   8  148.04    8.73
   0   0  -8  139.09   11.32
   0  -1   7    1.09    0.89
   0   1  -7    1.46    0.88
   0  -2   6   11.17    2.05
   0  -3   5    8.50    1.72
   0  -4   4  366.29   14.06
   0   4  -4  387.04   11.31
   0  -4   4  375.06    9.30
   0  -5   3 2053.76   34.60
   0   5  -3 2076.08   22.75
   0  -6   2   87.44    6.48
   0  -7   1 1287.50   27.33
   0  -8   0  232.03   13.01
   0  -9  -1   17.60    3.68
   0  -9  -1   18.78    4.38
   0  10   2    0.63    0.29
   0  11   3  518.99   24.78
   0  11   3  528.76   22.42
   0  12   4  264.10   18.44
   0  13   5   74.67    9.61
   0  14   6   26.31    5.22
   0  15   7    8.66    2.47
   0 -15  -7   11.73    4.63
   0  -6 -15   50.06    8.45
   0  -5 -14   64.47   10.24
   0  -5 -14   69.78    8.82
   0  -4 -13   10.13    3.33
   0  -4 -13   13.42    4.73
   0  -4 -13   13.44    3.83
   0  -3 -12   25.61    6.31
   0  -3 -12   28.10    5.50
   0  -3 -12   32.78    5.89
   0  -3 -12   27.54    5.56
   0  -2 -11   66.81    8.28
   0  -2 -11   69.45    8.31
   0  -2 -11   72.47    9.90
   0  -2 -11   81.00   10.56
   0  -2 -11   73.70    8.69
   0  -1 -10   71.30    9.33
   0  -1 -10   83.32    8.62
   0  -1 -10   85.51    9.88
   0  -1 -10   86.34    8.78
   0   1  10   79.24    7.46
   0   0   9  264.09   12.54
   0   0  -9  242.35   16.28
   0  -1   8 1632.28   28.89
   0   1  -8 1627.34   40.27
   0  -2   7   25.85    3.41
   0  -3   6   93.32    6.22
   0  -4   5 1976.30   35.54
   0   4  -5 1919.90   28.89
   0  -5   4  606.04   13.55
   0   5  -4  614.69   14.22
   0  -6   3  108.51    7.25
   0  -6   3   94.81    5.95
   0  -6   3   83.57    7.72
   0  -7   2  603.98   18.60
   0  -8   1  400.20   16.90
   0  -8   1  339.12   13.94
   0  -9   0  224.66   14.60
   0  -9   0  208.32   12.42
   0   9   0  237.62   13.52
   0 -10  -1   71.66    8.15
   0  10   1   66.78    7.56
   0  11   2  252.69   15.65
   0  12   3    5.39    2.50
   0  12   3    1.40    1.41
   0  13   4   56.56    8.61
   0  14   5   24.85    5.28
   0  15   6  100.34    9.32
   0 -15  -6   81.42   12.21
   0  -6 -16  160.77   13.49
   0  -5 -15   62.24    9.54
   0  -4 -14   35.47    6.04
   0  -4 -14   39.30    8.02
   0  -4 -14   33.56    6.18
   0  -3 -13    6.20    2.37
   0  -3 -13    4.84    2.49
   0  -3 -13    2.79    1.62
   0  -2 -12  743.69   33.00
   0  -2 -12  778.48   29.21
   0  -2 -12  702.08   27.54
   0  -2 -12  762.08   28.88
   0  -1 -11  128.43   11.21
   0  -1 -11  120.73   10.99
   0  -1 -11  114.03   10.92
   0  -1 -11  127.89   12.77
   0   0 -10   22.63    4.57
   0   0  10   20.93    3.68
   0   0 -10   26.81    5.59
   0   0 -10   23.01    4.53
   0   0 -10   16.99    4.87
   0   0 -10   27.66    5.08
   0  -1   9  218.57   11.19
   0   1  -9  237.17   14.19
   0   1  -9  220.22   15.93
   0   2  -8  172.45   13.71
   0  -2   8  168.03    9.33
   0  -3   7    8.48    2.18
   0   4  -6  355.70   13.82
   0  -4   6  406.92   17.39
   0  -5   5  104.04    8.93
   0   5  -5  108.95    6.86
   0  -6   4 1793.63   26.27
   0  -6   4 1758.67   37.75
   0  -7   3 1039.78   21.96
   0  -8   2 2278.18   35.77
   0  -9   1  170.34   10.94
   0   9  -1  181.61   12.30
   0 -10   0    1.58    0.70
   0  10   0    8.73    2.85
   0  11   1  264.88   16.31
   0  12   2  650.86   26.48
   0  13   3   89.40    9.72
   0  13   3   84.67   10.58
   0  14   4    3.17    1.81
   0  15   5   31.52    5.55
   0  -5 -16    0.63    1.64
   0  -4 -15   21.58    4.50
   0  -4 -15   31.38    6.55
   0  -3 -14  250.94   16.46
   0  -3 -14  262.14   20.08
   0  -3 -14  240.04   15.95
   0  -2 -13   67.94    8.77
   0  -2 -13   64.07    8.45
   0  -2 -13   56.75    9.27
   0  -2 -13   64.91    8.32
   0  -1 -12  164.16   13.45
   0  -1 -12  174.63   13.71
   0  -1 -12  175.30   15.65
   0  -1 -12  175.66   13.63
   0   0 -11    6.37    2.34
   0   0 -11    6.43    2.30
   0   0 -11    7.14    2.83
   0   0 -11    8.37    3.19
   0   1 -10    4.70    1.98
   0   1 -10    3.38    1.97
   0   1 -10    5.96    2.22
   0   1 -10    5.46    2.65
   0   1 -10    3.83    1.82
   0   2  -9  129.88   11.38
   0   2  -9  113.33    9.90
   0   2  -9  112.67   11.68
   0   2  -9  140.20   10.88
   0   2  -9  129.57   10.17
   0   3  -8   -0.29    0.26
   0   3  -8   -0.03    1.90
   0   4  -7  165.55   10.40
   0  -4   7  178.87   12.21
   0  -5   6 1552.68   37.05
   0   5  -6 1588.49   29.43
   0  -6   5  272.31   15.95
   0  -7   4   12.06    3.27
   0  -8   3   31.63    4.24
   0  -9   2  134.99    9.60
   0   9  -2  128.32   10.52
   0   9  -2  124.76   10.05
   0  10  -1   19.16    3.93
   0  10  -1   13.56    3.59
   0 -10   1   17.59    3.65
   0  11   0    1.10    0.98
   0  12   1   39.58    6.59
   0  13   2  354.86   21.58
   0  13   2  356.51   20.01
   0  14   3   13.03    3.43
   0  14   3   15.07    4.21
   0  15   4   24.38    5.10
   0  -4 -16   15.69    4.39
   0  -3 -15    4.14    2.57
   0  -3 -15    0.38    0.64
   0  -2 -14   -1.38    1.28
   0  -2 -14    0.90    1.44
   0  -2 -14   -0.79    1.02
   0  -1 -13  123.13   11.46
   0  -1 -13  137.88   14.06
   0  -1 -13  121.63   11.81
   0  -1 -13  134.11   11.92
   0   0 -12    5.86    2.02
   0   0 -12    6.82    3.03
   0   0 -12    3.01    1.79
   0   0 -12    3.32    1.92
   0   1 -11   47.51    6.96
   0   1 -11   38.13    6.29
   0   1 -11   40.47    6.27
   0   1 -11   40.52    7.00
   0   2 -10   24.08    5.66
   0   2 -10   31.33    5.47
   0   2 -10   25.98    5.05
   0   2 -10   24.54    5.26
   0   3  -9  115.45   12.32
   0   3  -9   99.54    9.39
   0   3  -9   87.70    8.25
   0   3  -9  108.96    9.71
   0   3  -9  105.54    9.83
   0   4  -8   63.24    6.97
   0  -4   8   67.14    7.93
   0   4  -8   57.23    6.60
   0   4  -8   66.37    7.26
   0   5  -7   30.22    4.76
   0  -5   7   31.99    5.59
   0  -6   6   25.72    5.19
   0  -7   5  170.56   13.68
   0   7  -5  191.60   12.41
   0   7  -5  186.00   12.19
   0   8  -4  460.22   19.75
   0   8  -4  480.06   19.71
   0   8  -4  524.10   20.62
   0  -9   3  640.53   20.62
   0   9  -3  646.60   24.25
   0   9  -3  671.32   23.55
   0   9  -3  614.18   23.36
   0  10  -2  177.05   13.18
   0  10  -2  158.19   11.94
   0  11  -1  262.88   16.93
   0  12   0  274.26   17.92
   0  13   1   20.52    5.28
   0  14   2  127.50   12.74
   0  14   2  128.48   11.84
   0  15   3   20.23    4.74
   0  16   4   56.95    6.87
   0  -3 -16   39.62    5.60
   0  -2 -15   28.79    6.42
   0  -2 -15   35.15    5.89
   0  -1 -14  179.77   15.76
   0  -1 -14  158.77   12.78
   0  -1 -14  167.77   13.56
   0   0 -13   83.18    9.33
   0   0 -13   92.48   10.24
   0   0 -13   92.06   11.24
   0   1 -12   16.13    3.91
   0   1 -12   16.78    4.18
   0   1 -12   18.37    4.72
   0   2 -11  129.61   11.45
   0   2 -11  125.11   11.37
   0   2 -11  130.19   12.49
   0   3 -10    0.72    0.69
   0   3 -10    2.20    1.37
   0   3 -10    0.82    0.85
   0   4  -9   12.74    3.32
   0   4  -9   13.70    3.40
   0   4  -9   13.60    4.53
   0  -4   9   16.53    4.05
   0   4  -9   11.81    3.15
   0   5  -8   10.31    2.96
   0  -5   8   14.48    3.82
   0   5  -8   12.76    3.06
   0   6  -7   48.70    6.45
   0   6  -7   47.10    6.36
   0  -7   6  120.27   12.17
   0   7  -6  107.80    8.92
   0   7  -6  114.95   10.30
   0   7  -6  122.92   10.40
   0   7  -6  151.29   11.62
   0   8  -5  500.92   21.58
   0   8  -5  585.03   22.94
   0   8  -5  530.08   22.09
   0   8  -5  536.10   21.28
   0   9  -4  109.95   10.00
   0   9  -4  108.40   10.06
   0   9  -4   91.60    9.34
   0  10  -3  145.79   11.42
   0  10  -3  142.01   12.12
   0  10  -3  142.54   11.75
   0  11  -2  493.48   23.33
   0  11  -2  443.69   20.70
   0  12  -1   39.52    6.90
   0  13   0  426.14   22.72
   0  14   1   35.81    6.89
   0  14   1   33.06    6.16
   0  15   2   32.08    5.90
   0  15   2   30.91    5.45
   0  16   3   35.28    5.57
   0  -2 -16    7.66    2.32
   0  -1 -15   18.81    4.41
   0   0 -14    0.25    0.42
   0   1 -13    1.60    1.12
   0   2 -12    1.48    1.54
   0   3 -11   10.69    3.21
   0   4 -10   58.95    7.43
   0   4 -10   62.24    7.72
   0   5  -9  613.52   23.53
   0   5  -9  582.32   23.43
   0   6  -8   89.52    8.61
   0   6  -8   82.26    8.77
   0  -6   8   87.47   10.68
   0   6  -8   78.51    8.67
   0   6  -8   80.46    9.05
   0   7  -7  327.63   17.93
   0   7  -7  327.81   17.74
   0   7  -7  304.25   16.98
   0  -7   7  332.14   21.18
   0  -8   6   -3.00    2.04
   0   8  -6    0.53    1.09
   0   8  -6   -1.86    1.36
   0   8  -6    0.16    0.58
   0   9  -5   57.37    7.36
   0   9  -5   53.84    7.36
   0   9  -5   62.10    7.86
   0  10  -4   36.14    6.11
   0  10  -4   43.73    6.74
   0  10  -4   41.01    6.36
   0  11  -3   16.38    4.37
   0  11  -3   20.40    4.56
   0  12  -2  194.63   15.26
   0  13  -1    1.65    1.73
   0  14   0  263.32   18.44
   0  14   0  276.83   18.10
   0  15   1  103.46   10.30
   0  15   1  100.91   10.72
   0  16   2   69.17    7.93
   0  -1 -16   -0.68    0.92
   0   0 -15  109.66   10.62
   0   1 -14    0.63    1.65
   0   2 -13   16.00    4.33
   0   3 -12  154.29   12.99
   0   4 -11  136.33   11.56
   0   4 -11  145.59   12.32
   0   5 -10  147.40   11.96
   0   5 -10  136.73   11.76
   0   6  -9   71.24    8.83
   0   6  -9   74.49    8.25
   0   6  -9   65.32    8.15
   0   7  -8 1206.91   36.22
   0   7  -8 1166.11   34.59
   0   8  -7   46.74    6.96
   0   8  -7   53.67    7.61
   0   8  -7   62.06    8.06
   0   9  -6  703.28   27.70
   0   9  -6  724.86   27.90
   0   9  -6  725.92   26.62
   0  10  -5  313.73   18.25
   0  10  -5  289.91   17.71
   0  10  -5  307.94   18.16
   0  11  -4  883.79   30.23
   0  11  -4  912.30   32.47
   0  11  -4  848.23   30.38
   0  12  -3  474.85   24.30
   0  13  -2  424.77   23.22
   0  14  -1  532.02   25.37
   0  15   0   22.15    5.15
   0  15   0   14.18    3.83
   0  16   1   32.99    5.50
   0  16   1   34.50    5.25
   0   0 -16    3.47    1.53
   0   1 -15    2.54    1.80
   0   2 -14  134.37   11.95
   0   2 -14  141.40   11.93
   0   3 -13   95.25   10.16
   0   4 -12   71.54    9.04
   0   4 -12   66.68    8.37
   0   5 -11   29.22    5.63
   0   5 -11   30.63    5.35
   0   5 -11   28.65    5.75
   0   6 -10  174.74   12.99
   0   6 -10  165.64   13.83
   0   6 -10  160.16   12.98
   0   7  -9  532.02   24.65
   0   7  -9  507.47   23.60
   0   8  -8  593.25   26.13
   0   8  -8  593.87   26.01
   0   9  -7   17.16    4.49
   0   9  -7   17.98    4.17
   0   9  -7   20.27    4.69
   0  10  -6    4.46    2.19
   0  10  -6    6.74    2.85
   0  10  -6    4.60    2.25
   0  11  -5  217.31   15.89
   0  11  -5  209.91   15.36
   0  11  -5  207.65   15.20
   0  12  -4  168.24   13.52
   0  12  -4  176.70   13.33
   0  12  -4  188.89   15.20
   0  13  -3  127.50   12.55
   0  13  -3  130.54   11.99
   0  14  -2  281.72   18.28
   0  15  -1    3.79    2.05
   0  15  -1    4.62    2.57
   0  16   0  212.23   13.83
   0  16   0  219.38   13.62
   0   1 -16    0.20    0.63
   0   2 -15    7.97    2.67
   0   2 -15    8.86    2.75
   0   3 -14  121.98   10.90
   0   3 -14  115.60   10.86
   0   4 -13    1.99    1.50
   0   4 -13    2.24    1.86
   0   5 -12    9.56    3.10
   0   5 -12   13.91    3.66
   0   5 -12   12.71    3.70
   0   6 -11  297.49   17.18
   0   6 -11  278.57   17.37
   0   6 -11  284.12   18.29
   0   7 -10   81.23    9.88
   0   7 -10   84.61    9.64
   0   8  -9    1.07    1.00
   0   8  -9    2.25    1.22
   0   9  -8  388.55   21.11
   0   9  -8  380.60   21.34
   0  10  -7  181.22   14.55
   0  10  -7  179.22   13.59
   0  10  -7  174.12   14.37
   0  11  -6  970.31   33.59
   0  11  -6  997.09   33.73
   0  11  -6  996.68   33.19
   0  12  -5   18.74    4.50
   0  12  -5   15.82    4.35
   0  12  -5   18.61    4.32
   0  13  -4  127.07   12.33
   0  14  -3    3.40    1.83
   0  15  -2   83.37    9.36
   0  15  -2   85.18    9.48
   0  16  -1   22.47    4.46
   0  16  -1   21.16    4.23
   0   2 -16    1.15    1.32
   0   3 -15    0.14    0.46
   0   3 -15   -0.63    0.50
   0   4 -14    1.69    0.86
   0   4 -14    2.16    1.14
   0   5 -13  185.56   13.92
   0   5 -13  183.52   13.42
   0   6 -12   60.13    8.09
   0   6 -12   67.59    8.04
   0   7 -11    0.77    1.00
   0   7 -11    1.51    1.48
   0   7 -11    0.91    1.53
   0   8 -10    2.21    1.44
   0   8 -10    1.11    0.61
   0   9  -9   38.35    6.69
   0   9  -9   39.32    6.62
   0  10  -8   60.69    8.42
   0  10  -8   67.81    8.92
   0  11  -7   -0.08    1.08
   0  11  -7    1.92    1.92
   0  11  -7    1.56    1.57
   0  12  -6   18.48    4.52
   0  12  -6   18.38    4.51
   0  13  -5  144.28   12.86
   0  14  -4    2.53    2.00
   0  15  -3  188.54   13.55
   0  15  -3  181.07   13.27
   0  16  -2   18.50    3.90
   0  16  -2   13.25    3.12
   0   3 -16    5.71    1.98
   0   4 -15   -0.09    0.36
   0   4 -15    0.46    0.27
   0   5 -14    4.32    1.63
   0   5 -14    8.45    2.64
   0   6 -13   -0.51    1.44
   0   6 -13    1.77    1.01
   0   7 -12  184.88   12.57
   0   7 -12  177.75   13.77
   0   8 -11   12.53    3.69
   0   8 -11   17.26    4.45
   0   9 -10  129.96   11.87
   0   9 -10  134.97   12.54
   0  10  -9   86.86    9.79
   0  10  -9   91.82   10.22
   0  11  -8    0.80    0.84
   0  11  -8    2.01    1.56
   0  12  -7   33.87    5.71
   0  12  -7   29.30    5.41
   0  13  -6   53.27    7.27
   0  13  -6   61.86    8.28
   0  14  -5   12.34    3.50
   0  14  -5   13.92    3.64
   0  15  -4    6.74    2.53
   0  15  -4    6.60    2.44
   0   5 -15   12.79    2.89
   0   5 -15   16.72    3.42
   0   6 -14  151.65   11.21
   0   6 -14  150.48   10.53
   0   7 -13   52.87    7.12
   0   8 -12   13.38    3.70
   0   9 -11   -0.15    0.44
   0  10 -10    0.03    1.09
   0  11  -9  263.29   16.57
   0  12  -8    7.22    2.60
   0  13  -7    2.32    1.09
   0  13  -7    7.55    2.64
   0  14  -6    4.22    1.98
   0  14  -6   -1.58    1.15
   0  15  -5   20.29    3.88
   0   7 -14   49.22    6.00
   0   8 -13   80.86    8.16
   0   9 -12    0.36    1.17
   0  10 -11   10.58    3.04
   0  11 -10    9.68    2.89
   0  12  -9   18.51    3.88
   0  13  -8    1.07    0.99
   0  14  -7   12.83    3.18
   0   9 -13   40.63    5.27
   0  10 -12   39.50    5.40
   0  10 -12   40.46    5.56
   0  11 -11    2.19    1.20
   0  11 -11    1.95    0.84
   0  12 -10    1.94    0.96
   0  12 -10    5.07    2.01
  -1  10 -12    0.46    0.21
  -1  12  -9   13.48    3.17
  -1  11 -10   -0.06    0.34
  -1  10 -11   27.80    4.86
  -1  10 -11   25.49    4.68
  -1   9 -12    8.89    2.81
  -1   8 -13   73.11    7.76
  -1   7 -14    2.38    1.53
  -1  14  -6   90.43    8.40
  -1  13  -7   26.25    4.71
  -1  12  -8    2.26    1.22
  -1  12  -8    2.96    1.25
  -1  12  -8    0.69    0.43
  -1  11  -9   68.30    8.03
  -1  11  -9   64.71    7.85
  -1  10 -10    7.89    2.78
  -1  10 -10    9.09    2.96
  -1   9 -11   10.74    3.21
  -1   9 -11   11.19    3.33
  -1   8 -12   40.84    6.29
  -1   8 -12   44.26    6.57
  -1   7 -13   37.11    5.60
  -1   7 -13   39.52    6.12
  -1   6 -14    1.67    1.00
  -1   5 -15    0.71    1.00
  -1   5 -15    1.03    1.04
  -1  15  -4   34.79    5.50
  -1  15  -4   36.85    5.44
  -1  14  -5    6.47    2.35
  -1  13  -6   12.13    3.34
  -1  12  -7    6.88    2.83
  -1  12  -7    5.57    2.67
  -1  12  -7    3.76    1.94
  -1  11  -8   16.08    4.17
  -1  11  -8   12.50    3.42
  -1  11  -8   11.19    3.29
  -1  10  -9   99.91   10.37
  -1  10  -9   92.38   10.00
  -1   9 -10    1.59    1.20
  -1   9 -10    2.24    1.85
  -1   8 -11   41.28    6.75
  -1   8 -11   40.90    6.46
  -1   7 -12    5.86    2.18
  -1   7 -12    4.10    2.20
  -1   6 -13    1.26    0.82
  -1   6 -13    0.58    0.59
  -1   5 -14   -0.56    0.82
  -1   5 -14   -0.58    1.54
  -1   4 -15  102.43    9.27
  -1   4 -15  103.60    9.00
  -1   3 -16    0.11    0.61
  -1   3 -16    1.15    0.97
  -1  15  -3  321.46   17.23
  -1  15  -3  322.91   16.74
  -1  14  -4   22.39    4.77
  -1  13  -5   64.63    8.30
  -1  12  -6   -1.11    1.05
  -1  12  -6    0.03    1.49
  -1  12  -6    0.93    0.54
  -1  11  -7  105.13   10.57
  -1  11  -7   94.00   10.04
  -1  11  -7  100.97   10.20
  -1  10  -8    3.50    2.05
  -1  10  -8    4.67    1.69
  -1  10  -8    4.55    2.32
  -1   9  -9  319.74   18.92
  -1   9  -9  306.17   18.67
  -1   8 -10    0.90    0.94
  -1   8 -10    0.35    0.57
  -1   7 -11  439.14   22.34
  -1   7 -11  439.49   21.93
  -1   6 -12   55.12    7.76
  -1   6 -12   56.08    7.68
  -1   5 -13   36.00    5.92
  -1   5 -13   40.61    6.51
  -1   5 -13   46.02    6.47
  -1   4 -14   -0.28    1.00
  -1   4 -14    0.75    0.92
  -1   3 -15  125.05   10.48
  -1   3 -15  119.21   10.35
  -1   2 -16  192.54   12.40
  -1   2 -16  194.55   12.17
  -1  15  -2   22.72    4.68
  -1  15  -2   20.15    4.57
  -1  14  -3    3.88    1.98
  -1  13  -4   81.81    9.53
  -1  12  -5   89.06    9.30
  -1  12  -5   95.53   10.46
  -1  11  -6   53.95    7.61
  -1  11  -6   51.19    7.54
  -1  11  -6   55.11    7.73
  -1  10  -7    7.38    2.96
  -1  10  -7   10.67    3.38
  -1  10  -7    8.38    2.47
  -1   9  -8  185.00   13.18
  -1   9  -8  182.43   14.56
  -1   9  -8  196.44   14.86
  -1   8  -9  208.51   15.46
  -1   8  -9  228.25   16.06
  -1   7 -10  197.75   15.08
  -1   7 -10  206.99   15.12
  -1   6 -11  154.48   12.96
  -1   6 -11  162.39   13.70
  -1   5 -12  261.54   16.61
  -1   5 -12  259.16   17.36
  -1   5 -12  261.50   15.86
  -1   4 -13   54.20    7.39
  -1   3 -14    3.11    1.96
  -1   2 -15   61.44    7.68
  -1   1 -16   46.56    6.08
  -1   1 -16   49.45    6.52
  -1  15  -1    3.72    1.92
  -1  15  -1    1.52    1.56
  -1  14  -2    7.66    2.82
  -1  13  -3    0.27    1.29
  -1  12  -4  157.95   13.52
  -1  11  -5    1.03    1.04
  -1  11  -5    1.53    0.85
  -1  11  -5    1.44    1.40
  -1  10  -6  586.03   24.93
  -1  10  -6  594.55   25.57
  -1  10  -6  586.72   25.27
  -1   9  -7   45.50    6.74
  -1   9  -7   47.36    7.26
  -1   8  -8    3.95    1.97
  -1   8  -8    6.23    2.66
  -1   7  -9    6.16    2.31
  -1   7  -9    7.06    2.85
  -1   6 -10  562.94   25.22
  -1   6 -10  559.29   24.47
  -1   5 -11    2.16    1.40
  -1   5 -11    0.99    0.68
  -1   4 -12  948.65   31.14
  -1   4 -12  990.78   31.66
  -1   3 -13    2.79    1.90
  -1   2 -14  377.59   20.17
  -1   1 -15   28.79    5.34
  -1   0 -16    3.60    1.83
  -1  15   0  134.40   11.26
  -1  15   0  122.81   11.31
  -1  14  -1  359.46   19.90
  -1  13  -2   31.66    5.99
  -1  12  -3  144.86   13.07
  -1  11  -4  177.41   14.18
  -1  11  -4  184.80   13.52
  -1  10  -5   25.69    5.11
  -1  10  -5   29.55    5.47
  -1  10  -5   26.99    5.17
  -1   9  -6  151.94   12.63
  -1   9  -6  156.25   12.52
  -1   9  -6  151.55   12.69
  -1   8  -7  132.78   11.78
  -1   8  -7  126.68   10.65
  -1   8  -7  136.12   11.91
  -1   7  -8  653.60   26.04
  -1   7  -8  614.24   25.57
  -1   6  -9  130.72   11.42
   1  -6   9  109.75   13.09
  -1   5 -10   48.52    6.97
  -1   5 -10   47.46    6.53
  -1   4 -11  387.46   19.43
  -1   4 -11  369.54   19.21
  -1   3 -12 1607.70   41.16
  -1   2 -13  411.95   21.26
  -1   1 -14   90.70   10.00
  -1   0 -15  485.19   22.54
  -1  -1 -16   51.92    6.99
  -1  15   1   48.62    7.12
  -1  15   1   50.18    6.65
  -1  14   0   23.56    5.50
  -1  14   0   24.13    5.21
  -1  13  -1    8.87    2.97
  -1  12  -2  706.60   28.87
  -1  11  -3   17.71    4.73
  -1  10  -4  125.84   11.07
  -1  10  -4  128.36   11.17
  -1  10  -4  122.48   11.43
  -1   9  -5   11.44    3.31
  -1   9  -5   13.73    3.80
  -1   9  -5   10.23    3.20
  -1   8  -6  647.94   24.08
  -1   8  -6  659.68   25.26
  -1   8  -6  656.35   25.50
  -1   7  -7  366.86   18.87
   1  -7   7  305.50   22.84
  -1   7  -7  335.17   16.35
  -1   7  -7  340.13   18.27
   1  -6   8  425.53   25.51
  -1   6  -8  452.51   20.80
  -1   5  -9  327.46   17.53
   1  -5   9  308.93   20.59
  -1   5  -9  340.89   16.91
  -1   4 -10  343.34   17.86
  -1   4 -10  329.88   17.64
  -1   3 -11  806.36   27.41
  -1   3 -11  875.75   29.49
  -1   2 -12    4.32    2.11
  -1   1 -13    4.29    2.18
  -1   0 -14  217.95   15.75
  -1  -1 -15   69.57    8.57
  -1  -2 -16    6.77    2.46
  -1  15   2   32.06    5.63
  -1  14   1   50.21    7.29
  -1  14   1   53.86    8.07
  -1  13   0   39.62    6.69
  -1  12  -1  127.34   12.16
  -1  11  -2   25.40    5.27
  -1  10  -3  562.70   24.40
  -1   9  -4  443.75   20.31
  -1   9  -4  439.16   19.99
  -1   9  -4  433.38   20.39
  -1   8  -5   16.20    3.82
  -1   8  -5   17.72    3.86
  -1   8  -5   17.13    3.87
  -1   7  -6   67.72    7.81
   1  -7   6   60.46    9.93
  -1   7  -6   69.40    7.46
   1  -6   7   92.54   11.73
  -1   6  -7   90.05    7.93
   1  -6   7  110.52   11.83
   1  -5   8   70.12    9.05
   1  -5   8   68.27    9.57
   1  -4   9  122.96   11.56
  -1   4  -9  116.70    9.87
  -1   4  -9  107.81    9.69
   1  -4   9  105.53   11.33
  -1   3 -10  397.15   19.25
  -1   3 -10  378.82   24.26
  -1   3 -10  368.58   17.97
  -1   2 -11  646.72   25.73
  -1   1 -12    6.63    2.81
  -1   1 -12    7.88    3.10
  -1   0 -13  155.55   13.35
  -1   0 -13  132.74   12.13
  -1  -1 -14  127.18   12.21
  -1  -1 -14  124.33   11.79
  -1  -2 -15   54.57    7.78
  -1  -2 -15   49.18    7.26
  -1  -3 -16   12.79    3.39
  -1  15   3    3.01    1.80
  -1  14   2  192.66   13.81
  -1  14   2  184.91   14.83
  -1  13   1   47.75    7.26
  -1  12   0   -1.11    1.73
  -1  11  -1  415.18   21.28
  -1  10  -2  527.95   23.25
  -1   9  -3    1.06    0.94
  -1   9  -3    9.36    2.68
   1  -9   3    2.90    1.41
  -1   9  -3    6.81    2.22
  -1   8  -4  222.31   13.72
  -1   8  -4  250.83   14.60
  -1   8  -4  216.85   13.32
   1  -7   5 1213.35   38.29
  -1   7  -5 1221.97   31.22
  -1   7  -5 1148.70   29.61
   1  -6   6  116.38   11.68
   1  -5   7  640.94   26.13
   1  -4   8   91.65    9.60
   1  -3   9  259.20   15.78
  -1   3  -9  226.67   13.38
  -1   3  -9  253.89   14.72
  -1   2 -10   25.00    5.76
  -1   2 -10   29.75    5.19
  -1   1 -11  504.30   21.83
  -1   1 -11  495.99   22.39
  -1   1 -11  518.08   23.15
  -1   1 -11  501.03   25.23
  -1   0 -12    6.15    2.33
  -1   0 -12   13.26    4.07
  -1   0 -12    9.92    3.63
  -1  -1 -13   14.77    4.60
  -1  -1 -13   14.86    4.25
  -1  -1 -13    8.08    2.18
  -1  -2 -14  142.59   14.62
  -1  -2 -14  142.69   12.94
  -1  -2 -14  155.57   13.53
  -1  -3 -15   25.27    6.09
  -1  -3 -15   32.72    5.98
  -1  -3 -15   28.72    5.72
  -1  -4 -16    9.04    2.87
  -1  -4 -16    9.69    2.78
  -1  15   4    8.26    2.47
  -1  14   3   86.04    9.87
  -1  13   2    2.54    1.85
  -1  13   2    3.82    2.63
  -1  12   1  187.36   14.32
  -1  11   0   19.75    4.56
  -1  10  -1  406.42   19.88
   1  -9   2  397.79   16.87
  -1   9  -2  418.90   19.31
   1  -8   3  268.92   12.74
  -1   8  -3  279.57   15.02
   1  -7   4  236.68   15.96
   1  -7   4  258.65   11.56
   1  -6   5   17.06    4.21
   1  -5   6   73.76    8.37
   1  -4   7  164.42   12.19
   1  -3   8   90.31    8.82
   1  -3   8   87.69    7.90
  -1   2  -9   30.47    5.09
   1  -2   9   39.55    5.29
  -1   1 -10    3.13    1.08
  -1   1 -10    5.53    2.51
  -1   1 -10    5.10    2.04
   1  -1  10    5.17    1.91
  -1   0 -11   55.04    7.03
  -1   0 -11   56.32    8.37
  -1   0 -11   42.01    6.51
  -1  -1 -12   59.31    9.09
  -1  -1 -12   44.70    7.04
  -1  -2 -13   76.34   11.04
  -1  -2 -13   71.90    9.17
  -1  -2 -13   76.61    9.70
  -1  -3 -14    3.04    1.71
  -1  -3 -14    7.37    3.10
  -1  -3 -14    7.51    3.59
  -1  -4 -15   59.76    9.42
  -1  -4 -15   60.19    8.42
  -1  -4 -15   56.89    7.72
  -1  -5 -16   -1.03    0.98
  -1  -5 -16    1.29    1.53
  -1  15   5   92.37    8.50
  -1  14   4   17.61    4.13
  -1  13   3   56.78    8.47
  -1  12   2  411.25   20.75
  -1  11   1   14.74    3.82
  -1  10   0    4.40    1.59
   1  -9   1  127.03    9.83
  -1   9  -1  130.29   10.56
   1  -8   2   55.44    5.85
  -1   8  -2   56.16    6.53
   1  -7   3  650.72   18.40
   1  -6   4  277.67   15.81
   1  -6   4  278.68   11.03
   1  -5   5  113.56    9.79
   1  -4   6   18.90    3.93
   1  -3   7 1609.39   31.96
   1  -3   7 1476.44   33.43
   1  -2   8  216.00   11.54
   1  -1   9  134.61    9.38
  -1   1  -9  140.73   10.81
  -1   1  -9  130.75   12.19
  -1   0 -10  136.15   12.50
  -1   0 -10  174.41   14.20
  -1   0 -10  163.02   11.58
   1   0  10  153.56   10.36
  -1   0 -10  156.83   11.94
  -1  -1 -11  299.09   19.70
  -1  -1 -11  275.50   16.87
  -1  -2 -12  110.51   12.73
  -1  -2 -12  100.83   10.84
  -1  -3 -13  250.52   19.99
  -1  -3 -13  278.27   18.46
  -1  -3 -13  302.63   19.61
  -1  -4 -14    4.15    2.42
  -1  -4 -14    6.82    3.21
  -1  -4 -14    7.32    3.46
  -1  -5 -15    0.46    1.22
  -1  -5 -15    0.18    1.11
  -1  -5 -15   -1.10    1.29
  -1  -6 -16    0.92    1.64
  -1  -6 -16   -0.23    0.97
   1 -15  -6   20.35    5.42
  -1  14   5   57.19    7.52
   1 -14  -5   51.57    8.88
  -1  13   4    0.87    0.86
  -1  12   3  368.11   21.55
  -1  11   2   65.27    8.01
  -1  10   1 1228.46   33.32
   1  -9   0    6.44    2.10
  -1   9   0    4.79    1.95
   1  -8   1  346.55   14.94
   1  -7   2   21.76    3.41
   1  -6   3 1578.33   25.92
   1  -6   3 1462.07   34.39
   1  -5   4  336.70   15.93
   1  -5   4  308.46   10.69
   1  -4   5  488.84   18.57
   1  -3   6 1977.22   37.05
   1  -3   6 2151.88   34.72
   1  -2   7  790.81   20.71
   1  -1   8  216.38   11.13
  -1   0  -9   19.28    4.38
   1   0   9   18.24    3.35
  -1  -1 -10   38.54    6.62
   1   1  10   32.14    4.73
  -1  -1 -10   34.77    5.70
  -1  -2 -11  143.39   13.81
  -1  -2 -11  119.88   11.41
  -1  -3 -12   65.20    9.90
  -1  -3 -12   68.39    9.16
  -1  -4 -13  241.17   19.77
  -1  -4 -13  256.40   18.62
  -1  -4 -13  218.12   16.26
  -1  -5 -14   -1.32    1.93
  -1  -5 -14   -1.23    1.88
  -1  -5 -14    1.94    1.09
  -1  -6 -15   12.35    4.23
  -1  -6 -15   12.65    3.92
  -1  -7 -16   14.71    3.99
  -1  14   6    2.02    1.30
  -1  13   5  176.41   14.12
   1 -13  -5  153.15   16.29
  -1  12   4    7.77    3.18
   1 -10  -2    7.13    4.12
  -1  10   2    7.92    2.71
   1  -9  -1 1031.69   29.26
  -1   9   1 1021.18   28.36
   1  -8   0   44.55    5.48
   1  -7   1  133.01    8.47
   1  -6   2  106.93    6.81
   1  -5   3  314.78   11.87
   1  -5   3  350.02   15.21
   1  -5   3  353.93   11.24
   1  -4   4  141.55    6.43
   1  -4   4  137.41    9.14
   1  -3   5 1281.97   25.24
   1  -3   5 1266.41   27.55
   1  -2   6  651.31   17.74
   1  -1   7  355.43   13.10
  -1   0  -8   55.93    7.06
   1   0   8   65.40    5.87
  -1  -1  -9  535.10   22.28
   1   1   9  570.92   18.81
   1   2  10   68.65    7.15
  -1  -2 -10   79.91    9.97
  -1  -2 -10   72.00    8.41
  -1  -2 -10   83.49    9.90
  -1  -3 -11  673.34   28.05
  -1  -3 -11  749.97   32.07
  -1  -3 -11  728.64   32.58
  -1  -4 -12   76.50   10.86
  -1  -4 -12   83.29   11.88
  -1  -4 -12   70.04    9.73
  -1  -5 -13  213.77   18.78
  -1  -5 -13  247.74   18.85
  -1  -5 -13  251.83   17.29
  -1  -6 -14   31.26    6.85
  -1  -6 -14   23.35    6.37
  -1  -7 -15    5.30    2.96
  -1  -7 -15    5.26    2.64
   1 -14  -7   69.42   11.50
  -1  13   6   22.15    4.72
   1 -13  -6   19.85    5.66
  -1  12   5  254.88   17.64
   1 -11  -4  148.89   17.65
  -1  11   4  155.37   13.60
   1 -10  -3    6.10    3.67
   1  -9  -2    8.15    2.44
   1  -9  -2   10.49    3.96
  -1   9   2    7.81    2.28
   1  -8  -1 1256.97   29.99
   1  -7   0   57.29    5.79
   1  -6   1  299.98   11.74
   1  -5   2    1.36    0.81
   1  -5   2    0.45    0.49
   1  -4   3  889.77   16.30
   1  -4   3  955.19   22.79
   1  -3   4 2717.14   37.00
   1  -2   5   46.88    4.45
   1  -1   6   32.74    3.72
   1   0   7   27.50    3.56
   1   1   8   40.01    4.63
  -1  -1  -8   41.90    5.70
   1   2   9  258.78   12.76
  -1  -3 -10   52.65    8.05
   1   3  10   49.55    6.08
  -1  -3 -10   46.87    7.77
  -1  -4 -11  558.63   29.43
  -1  -4 -11  549.85   27.73
  -1  -5 -12  622.82   31.39
  -1  -5 -12  619.50   33.53
  -1  -5 -12  615.05   29.77
  -1  -6 -13  166.17   15.91
  -1  -6 -13  183.39   18.76
  -1  -6 -13  156.19   16.02
  -1  -7 -14   17.18    5.31
  -1  -7 -14   18.55    5.29
  -1  -8 -15  197.06   15.76
  -1  -8 -15  250.75   16.55
   1 -14  -8   -0.99    1.33
   1 -13  -7   46.22    9.94
   1 -12  -6   17.83    5.55
  -1  12   6   21.61    4.80
  -1  11   5   83.35    9.84
   1 -11  -5   84.82   13.71
  -1  10   4    7.60    3.12
   1 -10  -4    7.08    3.64
   1  -9  -3   74.41    8.24
   1  -9  -3   50.14    8.93
   1  -8  -2  203.07   12.26
   1  -7  -1   56.70    5.84
   1  -6   0    5.58    1.53
   1  -6   0   11.74    1.95
   1  -5   1  324.76   10.29
   1  -5   1  328.95   11.05
   1  -4   2  187.32    7.41
   1  -4   2  176.62    7.63
   1  -4   2  201.74    9.82
   1  -3   3 1238.06   17.01
   1  -3   3 1275.91   23.45
   1  -1   5 1495.86   23.64
   1   0   6  276.80   10.62
   1   1   7  653.90   17.42
  -1  -1  -7  674.62   21.54
  -1  -2  -8 3678.92   51.03
   1   2   8 3737.25   45.42
   1   3   9    2.92    1.49
  -1  -4 -10  123.50   12.34
   1   4  10   94.41    8.78
  -1  -4 -10  102.75   12.11
  -1  -5 -11  605.07   29.85
  -1  -5 -11  633.26   32.63
  -1  -6 -12    2.14    1.85
  -1  -6 -12   -0.32    1.43
  -1  -7 -13    6.01    3.04
  -1  -7 -13    6.96    2.23
  -1  -8 -14   30.45    6.81
  -1  -8 -14   29.03    6.48
  -1  -8 -14   39.11    8.26
  -1  -9 -15    0.67    0.88
   1 -13  -8   -1.11    1.91
   1 -12  -7    5.60    3.09
   1 -11  -6   77.10   11.66
  -1  11   6   92.63   10.16
   1 -10  -5    7.21    3.43
  -1  10   5   16.93    4.28
  -1   9   4  213.64   14.95
   1  -9  -4  238.00   15.00
   1  -9  -4  207.84   18.98
  -1   9   4  211.03   14.65
   1  -8  -3  648.14   22.53
   1  -7  -2 3762.67   48.44
   1  -6  -1   84.85    6.51
   1  -6  -1   93.32    5.70
   1  -5   0 7329.55   53.70
   1  -4   1 2213.08   26.42
   1  -4   1 2260.52   31.63
   1  -3   2 1235.05   21.50
   1  -3   2 1255.18   17.01
   1  -2   3 4101.39   36.44
   1  -2   3 4268.22   39.85
   1  -1   4   50.42    3.96
   1   0   5  125.27    6.56
  -1  -1  -6   46.44    5.75
   1   1   6   53.04    4.58
  -1  -2  -7  295.98   13.02
   1   2   7  286.10   11.75
   1   3   8  127.88    8.65
  -1  -4  -9  899.67   34.30
   1   4   9  908.96   25.34
  -1  -5 -10  527.72   28.98
   1   5  10  520.23   21.23
  -1  -6 -11   54.58    9.91
  -1  -6 -11   51.32    8.97
  -1  -7 -12  112.11   13.34
  -1  -7 -12  139.70   16.67
  -1  -8 -13    1.04    0.60
  -1  -8 -13    3.57    3.36
  -1  -8 -13   -0.76    2.13
  -1  -9 -14   91.10   12.36
  -1  -9 -14   89.46   10.94
  -1  -9 -14   69.21    9.57
   1 -13  -9    6.64    3.53
   1 -12  -8    7.28    3.90
   1 -11  -7    2.72    1.93
   1 -10  -6  342.29   25.55
  -1  10   6  397.38   20.75
   1 -10  -6  368.11   25.06
  -1   9   5  432.31   21.14
   1  -9  -5  370.33   24.39
   1  -9  -5  416.74   28.20
   1  -8  -4   95.09   12.07
   1  -8  -4   97.29    8.82
   1  -7  -3   20.65    3.69
   1  -6  -2  116.77    7.82
   1  -6  -2  129.32    7.19
   1  -5  -1 2494.37   28.09
   1  -5  -1 2248.92   30.63
   1  -4   0   45.14    3.51
   1  -4   0   31.50    3.25
   1  -3   1 4821.97   40.01
   1  -2   2  996.44   13.45
   1  -2   2  973.92   16.58
   1   0   4 2077.60   24.40
   1   1   5   10.59    1.89
  -1  -1  -5    6.39    1.01
  -1  -2  -6 1539.60   26.12
   1   2   6 1501.02   25.10
   1   3   7  652.63   18.15
   1   4   8    6.60    1.94
   1   5   9  196.32   12.34
  -1  -5  -9  179.80   16.01
   1   5   9  210.99   11.97
  -1  -6 -10   44.73    8.87
  -1  -7 -11   36.37    8.41
  -1  -7 -11   40.63    8.96
  -1  -8 -12   -0.61    1.83
  -1  -8 -12    3.68    1.59
  -1  -9 -13   40.19    8.88
  -1  -9 -13   37.68    7.52
  -1 -10 -14   -1.02    1.95
  -1 -10 -14    6.99    2.83
  -1 -10 -14    7.68    3.33
   1 -13 -10    1.29    1.48
   1 -12  -9   10.15    4.66
   1 -11  -8   50.29   10.64
   1 -11  -8   42.54    8.65
   1 -10  -7    6.34    3.32
   1 -10  -7    7.74    4.30
   1  -9  -6    8.43    4.85
   1  -9  -6    0.03    2.08
  -1   8   5  161.39   12.16
   1  -8  -5  161.71   11.53
  -1   8   5  146.01   11.46
   1  -8  -5  137.28   13.75
   1  -8  -5  160.97   16.51
   1  -7  -4  325.07   14.76
   1  -6  -3 4997.62   52.16
   1  -6  -3 4946.37   48.14
   1  -5  -2    8.86    1.80
   1  -5  -2   94.11    6.33
   1  -4  -1 1462.82   21.94
   1  -4  -1 1510.58   20.69
   1  -3   0  131.96    5.62
   1  -2   1 4984.73   34.94
   1  -2   1 4721.35   31.65
  -1  -1  -4 3336.42   25.77
   1   1   4 3440.20   31.08
  -1  -2  -5   19.85    2.01
  -1  -2  -5   21.95    2.62
   1   2   5   16.94    2.43
  -1  -3  -6   93.34    5.97
   1   3   6   99.35    6.65
   1   4   7 2148.37   34.19
   1   5   8   96.86    8.08
   1   6   9 1167.92   31.16
  -1  -6  -9 1161.42   42.82
   1   6   9 1185.71   30.19
  -1  -7 -10   99.52   13.83
   1   7  10  112.89    9.93
  -1  -8 -11   -0.97    1.76
  -1  -8 -11    0.97    1.98
  -1  -9 -12  110.90   13.38
  -1  -9 -12  128.84   16.59
  -1 -10 -13  223.52   17.59
  -1 -10 -13  243.13   21.05
   1 -12 -10   10.82    4.73
   1 -11  -9   14.26    5.84
   1 -10  -8  212.72   22.03
   1 -10  -8  232.35   20.48
   1 -10  -8  223.70   21.59
   1  -9  -7    7.45    2.59
   1  -9  -7   18.26    6.38
   1  -8  -6  668.18   31.95
   1  -8  -6  586.65   28.77
  -1   8   6  787.82   28.52
   1  -8  -6  706.84   36.78
   1  -7  -5   79.08    7.33
  -1   7   5   75.48    7.88
   1  -6  -4    7.68    2.01
   1  -6  -4    0.70    0.64
   1  -5  -3 1437.53   24.78
   1  -5  -3 1446.54   25.19
   1  -4  -2  157.82    7.13
   1  -4  -2  153.46    7.21
   1  -4  -2  148.25    4.28
   1  -3  -1 3022.32   27.49
   1  -2   0   42.37    2.94
   1  -1   1  967.45   12.83
   1  -1   1  994.47   12.41
   1   0   2   80.41    3.74
   1   1   3  723.67   12.70
   1   2   4 2853.15   28.13
  -1  -2  -4 2644.70   24.19
   1   3   5 1194.52   20.72
  -1  -3  -5 1094.71   17.21
  -1  -4  -6  684.26   15.04
   1   4   6  651.10   17.31
   1   5   7 1496.12   29.61
   1   6   8    9.00    2.32
  -1  -6  -8    9.07    3.08
  -1  -6  -8    4.67    2.31
   1   7   9   40.18    5.86
  -1  -7  -9   36.75    7.83
   1   8  10    4.64    2.14
  -1  -8 -10   13.99    4.94
  -1  -9 -11  373.21   24.43
  -1  -9 -11  429.26   30.77
  -1 -10 -12    5.30    3.26
  -1 -10 -12    7.09    3.43
  -1 -11 -13   92.49   12.34
   1 -12 -11    4.78    2.79
   1 -11 -10  127.50   16.76
   1 -10  -9    1.23    0.77
   1 -10  -9   -2.53    2.46
   1  -9  -8    6.62    4.90
   1  -9  -8    0.45    2.38
   1  -9  -8    0.49    1.59
   1  -8  -7   86.28   11.52
   1  -8  -7  101.47   12.90
  -1   7   6  114.69   10.32
   1  -7  -6  131.48    9.44
   1  -7  -6  117.32   14.25
   1  -7  -6  122.43   12.54
   1  -7  -6   95.09   10.82
  -1   6   5   36.46    5.33
   1  -6  -5   43.35    4.92
   1  -5  -4  304.09   12.51
   1  -5  -4  309.06   11.81
   1  -4  -3  150.89    7.62
   1  -4  -3  146.83    5.45
   1  -4  -3  144.13    7.15
   1  -3  -2  962.03   11.89
   1  -3  -2  994.52   16.58
   1  -2  -1 1387.35   17.44
   1  -2  -1 1379.98   12.33
   1  -1   0  300.06    7.15
   1   0   1 1081.73   12.04
   1   0   1 1018.09   12.19
  -1  -3  -4  861.40   15.63
   1   3   4  993.03   17.44
  -1  -4  -5   40.00    3.80
   1   4   5   41.95    4.12
  -1  -5  -6  714.45   17.47
   1   5   6  729.43   19.42
   1   6   7 1209.74   28.03
   1   7   8  140.24   10.62
  -1  -7  -8  123.68   14.04
   1   7   8  150.58   11.11
  -1  -8  -9   31.47    7.87
   1   8   9   37.39    5.88
   1   9  10  727.18   27.22
  -1  -9 -10  665.38   38.50
  -1 -10 -11   71.36   10.50
  -1 -10 -11   74.46   12.83
  -1 -11 -12   42.88    9.12
  -1 -12 -13   45.11    7.83
   1 -11 -11    2.68    2.27
   1 -10 -10   12.60    5.92
   1  -9  -9   22.90    6.45
   1  -9  -9   21.80    7.07
   1  -9  -9   20.29    6.20
   1  -8  -8  280.02   22.14
   1  -8  -8  233.60   21.94
   1  -8  -8  277.59   21.42
   1  -7  -7  233.11   17.90
   1  -7  -7  258.14   18.98
  -1   7   7  255.25   16.23
  -1   6   6  135.54   10.59
   1  -6  -6  144.04    8.99
   1  -5  -5  422.17   14.02
  -1   5   5  406.58   16.10
   1  -4  -4 4393.29   40.10
   1  -4  -4 4428.22   35.47
   1  -3  -3  150.07    5.66
   1  -3  -3  155.22    6.63
   1  -3  -3  141.10    7.09
   1  -2  -2   46.89    3.51
   1  -2  -2   49.70    2.82
   1  -2  -2   51.27    3.25
   1  -1  -1   65.57    2.87
   1  -1  -1   67.43    3.54
   1   0   0  781.25   10.33
   1   0   0  803.67    6.90
   1   1   1   22.50    1.52
   1   2   2  202.90    5.89
  -1  -4  -4 5967.58   46.35
   1   5   5    5.82    1.68
  -1  -5  -5    5.01    1.52
  -1  -6  -6 1966.31   32.57
   1   6   6 1592.29   30.30
  -1  -7  -7 1619.18   48.18
  -1  -7  -7 1786.85   49.44
   1   8   8  999.98   29.83
   1   8   8 1006.95   30.51
   1   9   9  845.19   29.41
  -1  -9  -9  734.54   39.17
  -1 -10 -10  391.39   29.97
   1  10  10  422.39   21.09
  -1 -11 -11   34.30    8.66
  -1 -12 -12   43.18    8.42
   1 -11 -12   60.66    8.68
   1 -11 -12   88.26   11.84
   1 -10 -11  170.02   19.20
   1  -9 -10  223.02   20.30
   1  -9 -10  196.01   19.64
   1  -9 -10  216.32   22.53
   1  -8  -9  210.55   21.45
   1  -8  -9  231.21   20.24
   1  -8  -9  234.83   20.55
   1  -7  -8  175.49   16.50
   1  -7  -8  179.66   16.68
   1  -7  -8  172.26   17.84
  -1   6   7   41.16    6.12
   1  -6  -7   41.31    6.85
   1  -6  -7   32.78    6.33
  -1   5   6  173.77   11.25
   1  -4  -5 2750.28   31.75
  -1   4   5 2775.80   39.15
   1  -3  -4    7.70    1.50
   1  -3  -4   28.08    3.50
   1  -2  -3  881.83   14.03
   1  -2  -3  899.01   17.00
   1  -1  -2  922.11   12.63
   1  -1  -2  956.76   14.82
   1   0  -1 1017.03   12.50
   1   0  -1 1019.44   13.18
   1   3   2   34.97    2.59
  -1  -4  -3 4564.48   40.38
  -1  -5  -4 3345.84   39.62
   1   5   4 3760.65   37.39
  -1  -6  -5  480.65   16.31
   1   6   5  519.58   16.11
  -1  -7  -6 1174.71   28.97
   1   7   6 1127.49   27.00
   1   8   7 1133.19   29.87
   1   8   7 1120.84   32.08
   1   9   8   80.57    9.09
  -1  -9  -8   61.87   10.84
  -1 -10  -9  552.90   34.80
   1  10   9  630.83   26.28
  -1 -11 -10   68.18   12.24
   1  11  10   84.54    9.35
  -1 -12 -11   38.85    8.69
   1 -10 -12    4.60    2.66
   1  -9 -11   30.97    8.07
   1  -8 -10   28.81    8.26
   1  -8 -10   29.27    7.47
   1  -7  -9  717.75   33.94
   1  -7  -9  666.94   37.14
   1  -7  -9  715.04   34.96
  -1   6   8    0.90    0.73
   1  -6  -8    0.19    0.55
   1  -6  -8    0.34    0.86
   1  -6  -8   -0.38    0.83
  -1   5   7  308.03   16.04
  -1   4   6  189.04   11.06
  -1   3   5   31.60    3.92
   1  -3  -5   26.21    2.69
   1  -2  -4  242.10    9.91
   1  -2  -4  238.51    7.21
   1  -1  -3   27.07    3.09
   1  -1  -3   12.51    1.91
   1   0  -2   23.54    2.22
   1   0  -2   43.78    3.21
   1   1  -1  133.27    4.79
   1   1  -1  133.86    4.18
   1   2   0   86.98    2.38
   1   2   0   92.94    1.81
   1   3   1 2419.01   17.23
   1   4   2 1273.26   16.34
  -1  -4  -2 1095.23   19.53
  -1  -5  -3  201.52    9.62
   1   5   3  232.56    8.51
  -1  -6  -4 2072.23   34.02
   1   6   4 2265.87   31.29
  -1  -7  -5   74.79    7.10
   1   7   5   11.92    2.59
   1   8   6  661.90   24.13
   1   8   6  726.69   22.95
   1   9   7  105.76   10.39
   1   9   7   95.59    9.27
   1  10   8  111.68   11.08
  -1 -10  -8   94.33   14.00
  -1 -11  -9  249.03   23.73
   1  11   9  302.77   18.37
   1  12  10    3.05    1.78
  -1 -12 -10    4.26    3.12
  -1 -13 -11   28.24    6.65
   1 -10 -13    2.27    1.56
   1 -10 -13    2.58    1.94
   1  -9 -12    3.38    2.56
   1  -8 -11   68.32   12.24
   1  -8 -11   65.45   10.99
   1  -7 -10   39.79    9.42
   1  -7 -10   39.67    8.31
   1  -6  -9   17.59    5.41
   1  -6  -9   10.27    3.63
   1  -6  -9    7.87    3.77
  -1   5   8   96.05    9.61
   1  -5  -8   70.16   10.09
   1  -5  -8   81.93    9.52
   1  -5  -8   73.24    9.71
  -1   4   7   63.81    6.85
   1  -4  -7   69.62    6.52
  -1   3   6  641.70   19.04
  -1   2   5  117.29    7.04
   1  -1  -4  190.58    8.61
  -1   1   4  170.32    7.18
   1   0  -3 3148.97   29.92
   1   0  -3 3265.92   32.72
   1   1  -2 2440.90   25.61
   1   1  -2 2448.47   21.61
  -1  -2   1  119.47    3.67
  -1  -2   1  122.95    4.62
   1   2  -1  118.64    3.65
   1   4   1 3181.69   22.32
   1   5   2  116.77    5.47
  -1  -5  -2  120.52    7.23
  -1  -6  -3  726.12   20.13
   1   6   3  863.56   17.61
  -1  -7  -4  107.68    8.49
   1   7   4  121.09    7.70
   1   8   5   84.21    7.38
  -1  -8  -5  112.33    9.82
   1   9   6  110.38    9.42
   1   9   6  104.61   10.12
  -1  -9  -6  132.35   11.91
   1  10   7  232.65   16.10
   1  11   8   33.51    6.06
  -1 -11  -8   25.20    7.15
  -1 -12  -9   18.71    5.82
   1  12   9   24.44    5.13
  -1 -13 -10   32.37    7.81
   1  13  10   29.96    5.10
   1  -9 -13    3.81    2.46
   1  -9 -13   -6.61    3.05
   1  -8 -12   25.96    7.05
   1  -7 -11  155.80   18.36
   1  -7 -11  151.26   16.15
   1  -6 -10  126.14   14.07
   1  -6 -10  123.60   15.54
   1  -5  -9  159.15   14.28
   1  -5  -9  167.57   16.62
   1  -5  -9  179.77   16.41
   1  -4  -8   23.73    5.30
  -1   4   8   25.76    4.65
   1  -4  -8   30.83    4.74
   1  -4  -8   28.58    5.14
   1  -4  -8   25.82    5.59
  -1   3   7   21.36    3.80
  -1   2   6  254.53   11.35
  -1   1   5  250.16    9.62
   1  -1  -5  255.36   11.92
  -1   0   4  550.08   12.00
   1   0  -4  624.24   16.74
   1   1  -3 1451.99   20.28
  -1  -1   3 1439.79   12.19
   1   1  -3 1457.98   23.54
  -1  -2   2  875.24    8.61
  -1  -2   2  897.53   12.03
  -1  -3   1 2508.22   21.84
  -1  -3   1 2349.88   23.44
   1   4   0  396.74    6.40
  -1  -5  -1 2592.22   32.68
   1   5   1 2685.97   22.95
   1   6   2  385.21   10.81
  -1  -6  -2  347.89   13.81
  -1  -7  -3  134.64    9.32
   1   7   3  134.56    7.49
  -1  -8  -4 1453.75   34.53
   1   8   4 1496.89   29.13
  -1  -9  -5  543.14   24.15
   1   9   5  469.57   21.33
   1   9   5  517.94   19.21
   1  10   6  733.95   28.50
   1  11   7    0.03    2.16
  -1 -12  -8    3.34    1.71
   1  12   8    4.59    1.98
  -1 -13  -9  184.31   19.43
   1  13   9  202.59   14.24
  -1 -14 -10   24.55    6.10
   1  -9 -14   47.19    7.43
   1  -8 -13  133.26   15.36
   1  -8 -13   93.30   12.34
   1  -7 -12    5.44    2.89
   1  -6 -11   87.21   11.97
   1  -6 -11   82.85   12.60
   1  -5 -10  154.82   16.40
   1  -5 -10  148.79   14.54
   1  -4  -9  200.78   13.41
   1  -4  -9  214.02   17.68
   1  -4  -9  216.45   15.57
  -1   4   9  211.34   14.16
   1  -3  -8  215.29   12.71
  -1   3   8  209.73   12.80
  -1   2   7  356.56   14.45
  -1   1   6  110.74    7.02
   1  -1  -6   68.41    6.97
   1   0  -5   61.11    5.88
  -1   0   5   30.26    3.18
  -1  -1   4  534.52   11.38
   1   1  -4  518.25   13.68
   1   2  -3 1880.27   23.30
  -1  -2   3 1906.37   16.60
  -1  -5   0  297.36   10.84
  -1  -6  -1  621.46   18.11
   1   6   1  688.35   13.07
   1   7   2  137.21    7.11
  -1  -7  -2   97.87    7.89
   1   8   3   75.80    6.11
  -1  -8  -3   79.46    7.93
  -1  -9  -4  309.11   18.13
   1   9   4  272.86   15.88
   1  10   5  123.63   11.56
   1  11   6   81.87    9.83
   1  12   7  165.14   14.21
   1  13   8    4.29    1.62
  -1 -13  -8    6.03    3.45
   1  14   9    2.42    1.42
  -1 -14  -9    1.55    2.62
   1  -8 -14    2.43    1.81
   1  -7 -13   52.84    9.40
   1  -7 -13   77.05   11.57
   1  -6 -12   19.07    5.64
   1  -6 -12   25.50    6.96
   1  -5 -11    3.67    2.70
   1  -5 -11    7.35    3.86
   1  -4 -10  105.27   11.49
   1  -4 -10   95.57   12.21
  -1   3   9   18.81    3.92
   1  -3  -9   22.52    4.73
   1  -3  -9   14.76    3.35
   1  -3  -9   18.35    3.94
   1  -3  -9   15.77    4.40
   1  -2  -8   19.65    3.84
  -1   2   8   17.75    3.53
  -1   1   7 3408.27   42.24
   1  -1  -7 3335.76   53.73
  -1   0   6  528.31   14.54
   1   0  -6  543.90   19.83
  -1  -1   5  724.79   14.73
   1   1  -5  749.79   18.17
   1   1  -5  753.93   21.66
   1   2  -4   55.53    4.61
  -1  -2   4   58.95    3.58
  -1  -2   4   64.38    2.84
  -1  -3   3 7183.47   47.48
   1   4  -2   40.67    3.33
  -1  -4   2   46.24    3.59
  -1  -4   2   48.61    3.98
  -1  -5   1 1519.68   23.96
  -1  -6   0   11.47    2.32
  -1  -7  -1   26.52    4.02
  -1  -8  -2 3039.96   47.83
  -1  -9  -3  319.62   17.74
   1   9   3  290.17   16.03
   1  10   4   10.25    2.84
   1  10   4    8.90    3.13
   1  11   5   41.60    7.02
   1  12   6   17.84    4.69
  -1 -13  -7   -2.03    2.07
   1  13   7    6.96    2.78
   1  14   8   35.30    5.74
  -1 -14  -8   25.12    6.64
   1  -7 -14   10.75    3.76
   1  -6 -13   24.06    6.25
   1  -6 -13   43.92    8.74
   1  -5 -12  251.41   20.57
   1  -5 -12  209.35   17.76
   1  -5 -12  278.04   22.27
   1  -4 -11  326.41   21.39
   1  -4 -11  335.67   23.57
   1  -3 -10  140.86   14.16
   1  -3 -10  136.68   12.49
   1  -3 -10  133.12   10.93
   1  -2  -9  762.40   25.96
  -1   2   9  684.60   22.85
   1  -2  -9  698.38   23.74
   1  -2  -9  762.96   29.56
   1  -2  -9  813.77   27.01
  -1   1   8  217.33   11.46
   1  -1  -8  240.39   13.40
   1  -1  -8  219.65   15.09
  -1   0   7   50.60    4.87
   1   0  -7   45.74    6.34
   1   1  -6 2968.19   40.62
   1   1  -6 2986.76   47.40
   1   2  -5   47.12    5.75
   1   2  -5   37.28    4.11
  -1  -2   5   40.61    3.37
  -1  -3   4  262.65    7.06
  -1  -3   4  252.54    7.14
  -1  -4   3 4345.07   41.43
   1   4  -3 4436.48   38.96
  -1  -5   2  418.34   13.37
  -1  -5   2  409.05   12.31
  -1  -6   1    6.23    1.52
  -1  -7   0   65.58    6.09
  -1  -8  -1 1082.73   27.88
  -1  -9  -2 1026.56   31.06
   1  10   3  308.42   16.28
   1  10   3  315.66   17.92
   1  11   4  261.07   15.55
   1  11   4  238.66   16.50
   1  12   5  377.77   21.92
   1  13   6   10.03    3.61
  -1 -14  -7   -1.93    1.99
   1  14   7    2.23    1.96
   1  15   8    2.69    1.65
  -1 -15  -8    4.57    2.75
   1  -7 -15   62.08    8.61
   1  -6 -14    8.05    3.39
   1  -5 -13   45.42    8.59
   1  -5 -13   57.98   10.02
   1  -5 -13   42.11    7.16
   1  -4 -12  411.01   26.27
   1  -4 -12  379.16   24.93
   1  -3 -11   14.10    4.74
   1  -3 -11   10.23    3.90
   1  -3 -11   12.68    3.63
   1  -2 -10    9.23    3.37
   1  -2 -10    9.89    3.02
   1  -2 -10    7.19    2.42
  -1   2  10    5.96    2.20
   1  -1  -9 1318.19   40.44
   1  -1  -9 1569.24   37.36
   1  -1  -9 1457.79   34.77
   1  -1  -9 1677.46   42.11
  -1   1   9 1432.17   31.37
  -1   0   8   17.19    3.03
   1   0  -8   14.39    3.86
   1   0  -8   16.70    3.60
   1   1  -7 2414.43   47.06
  -1  -1   7 2377.04   32.17
   1   1  -7 2501.86   40.55
  -1  -2   6    5.33    1.39
   1   2  -6    4.29    1.21
   1   2  -6    4.06    1.69
   1   3  -5  785.61   19.50
  -1  -4   4  876.75   20.44
  -1  -4   4  890.04   15.32
   1   5  -3  249.52    9.51
  -1  -5   3  257.02    9.33
  -1  -5   3  253.78   11.46
  -1  -6   2  113.73    7.04
  -1  -7   1  219.19   10.86
  -1  -8   0  353.01   15.57
  -1  -9  -1   46.77    6.40
   1  10   2 1237.30   32.74
  -1 -10  -2 1554.82   41.99
   1  11   3   82.86    9.71
   1  11   3   91.65    9.36
   1  12   4    1.00    1.48
   1  12   4    5.03    2.84
   1  13   5   29.38    6.14
   1  14   6    0.59    1.82
   1  15   7    1.38    0.87
  -1 -15  -7   -1.02    1.36
   1  -6 -15   46.12    7.66
   1  -5 -14    1.28    0.75
   1  -4 -13   12.45    4.64
   1  -4 -13   15.43    4.50
   1  -3 -12  148.87   15.20
   1  -3 -12  142.80   13.89
   1  -3 -12  142.54   13.24
   1  -3 -12  147.58   12.32
   1  -2 -11   63.86    9.26
   1  -2 -11   48.90    6.91
   1  -2 -11   50.89    7.74
   1  -2 -11   74.44    9.86
   1  -1 -10    2.62    1.50
   1  -1 -10    3.25    2.27
  -1   1  10    1.99    1.21
   1  -1 -10    4.50    3.02
  -1   0   9  608.21   19.31
   1   0  -9  617.90   22.93
   1   0  -9  649.48   25.12
   1   0  -9  580.34   26.73
   1   0  -9  658.06   24.32
   1   1  -8  301.21   15.39
  -1  -1   8  277.27   11.71
   1   1  -8  302.09   18.04
   1   2  -7    3.42    1.32
   1   2  -7    4.05    1.90
   1   3  -6    4.24    1.47
   1   3  -6    7.36    2.45
   1   4  -5  269.65   11.84
  -1  -4   5  255.26   12.31
  -1  -5   4 1826.98   33.24
   1   5  -4 1883.09   29.05
  -1  -6   3  137.51    9.24
  -1  -6   3  168.29    8.39
  -1  -7   2   94.19    7.04
  -1  -8   1   17.10    3.36
  -1  -9   0  141.45   10.94
   1  10   1   41.11    6.09
  -1 -10  -1   49.27    7.47
   1  11   2   41.15    6.40
   1  12   3  320.79   19.96
   1  12   3  334.70   18.86
   1  13   4  324.19   18.39
   1  13   4  331.77   20.68
   1  14   5   79.23    9.75
  -1 -15  -6    6.64    3.47
   1  15   6    6.79    2.51
   1  -5 -15   76.50    9.96
   1  -4 -14   36.94    6.33
   1  -4 -14   38.03    7.95
   1  -3 -13  110.75   11.63
   1  -3 -13  107.27   12.88
   1  -3 -13  116.92   11.01
   1  -2 -12    3.13    1.81
   1  -2 -12    5.71    3.22
   1  -2 -12    2.15    0.39
   1  -1 -11   25.38    4.94
   1  -1 -11   19.82    4.53
   1  -1 -11   23.00    5.54
   1   0 -10   93.08    9.33
   1   0 -10   87.55   11.22
   1   0 -10   92.46    9.37
   1   0 -10   94.21   10.41
   1   1  -9  258.59   15.02
   1   1  -9  272.88   15.79
   1   1  -9  228.68   16.98
   1   1  -9  245.81   15.38
   1   1  -9  238.64   14.42
   1   2  -8  264.88   14.61
   1   2  -8  266.00   17.13
   1   3  -7  300.90   14.77
   1   3  -7  332.50   18.49
  -1  -4   6   39.67    5.31
   1   4  -6   36.19    4.72
   1   4  -6   41.48    6.18
  -1  -5   5  447.27   17.88
   1   5  -5  429.70   15.45
  -1  -6   4  731.93   23.23
  -1  -6   4  820.56   19.30
  -1  -7   3   30.60    4.06
  -1  -8   2  842.23   23.66
   1   9  -1  192.56   12.50
  -1  -9   1  210.20   13.09
   1   9  -1  202.54   12.81
  -1 -10   0  166.75   12.87
   1  10   0  133.60   11.06
   1  11   1  144.54   12.11
   1  12   2   20.40    4.73
   1  12   2   19.31    4.94
   1  13   3  641.54   26.81
   1  13   3  647.61   28.98
   1  14   4   84.14   10.22
   1  14   4   89.23    9.39
   1  15   5    1.11    0.44
   1  16   6   91.57    8.45
   1  -4 -15    3.21    2.04
   1  -3 -14   16.51    5.00
   1  -3 -14   14.34    3.72
   1  -3 -14   11.27    3.65
   1  -2 -13  533.88   25.03
   1  -2 -13  548.72   28.69
   1  -2 -13  525.90   23.75
   1  -1 -12   72.92    8.92
   1  -1 -12   74.29    9.33
   1  -1 -12   74.26   10.11
   1   0 -11    8.73    3.47
   1   0 -11    8.80    2.94
   1   0 -11    5.37    2.33
   1   1 -10  242.82   15.28
   1   1 -10  240.10   16.27
   1   1 -10  218.27   17.64
   1   1 -10  229.98   15.03
   1   2  -9  577.38   23.14
   1   2  -9  519.16   21.69
   1   2  -9  508.08   21.43
   1   2  -9  525.46   26.19
   1   2  -9  577.57   23.33
   1   3  -8   26.97    4.74
   1   3  -8   34.71    5.25
   1   3  -8   44.97    7.20
   1   3  -8   36.82    5.49
   1   4  -7   96.62   10.27
  -1  -4   7   89.37    8.50
   1   4  -7   88.26    8.09
  -1  -5   6  295.29   15.69
   1   5  -6  293.75   13.97
  -1  -6   5   84.80    8.63
  -1  -7   4  529.81   21.67
  -1  -7   4  660.83   18.85
  -1  -8   3 1042.23   26.27
   1   9  -2  634.26   23.17
   1   9  -2  638.32   21.48
   1   9  -2  636.56   23.28
  -1  -9   2  701.39   23.53
   1  10  -1  238.47   14.74
  -1 -10   1  287.43   16.57
   1  10  -1  251.90   15.62
   1  11   0   65.74    8.33
   1  12   1    4.35    2.10
   1  13   2  572.40   25.85
   1  13   2  551.80   27.01
   1  14   3    9.34    2.83
   1  14   3   14.55    3.90
   1  15   4   37.97    6.50
   1  16   5    9.92    2.79
  -1 -16  -5    8.00    3.58
   1  -3 -15   20.41    4.31
   1  -3 -15   24.34    5.50
   1  -2 -14   96.84   10.01
   1  -2 -14  100.15   11.91
   1  -2 -14  100.05   10.39
   1  -1 -13   70.33    8.98
   1  -1 -13   67.68    9.63
   1  -1 -13   69.94    8.81
   1   0 -12    5.68    2.43
   1   0 -12    2.69    2.13
   1   0 -12    5.24    2.57
   1   1 -11    8.50    3.20
   1   1 -11    6.17    2.40
   1   1 -11   12.12    3.54
   1   2 -10   33.37    5.77
   1   2 -10   33.12    5.86
   1   2 -10   35.90    6.08
   1   3  -9  543.72   22.52
   1   3  -9  553.48   23.20
   1   3  -9  536.02   26.64
   1   3  -9  472.53   19.70
   1   3  -9  527.69   22.08
   1   4  -8    2.96    1.52
   1   4  -8    2.21    0.69
   1   4  -8    1.19    0.40
  -1  -4   8    3.89    1.86
   1   4  -8    6.21    1.98
   1   4  -8   -0.01    1.00
   1   5  -7    5.27    1.97
   1   5  -7    7.08    2.37
   1   5  -7    3.95    1.97
   1   5  -7    7.54    2.36
   1   5  -7    7.62    2.52
  -1  -5   7    4.42    2.01
  -1  -6   6  273.12   16.59
   1   6  -6  253.17   14.09
   1   6  -6  252.08   14.53
   1   7  -5  581.98   22.10
   1   7  -5  548.65   20.98
   1   7  -5  575.22   22.40
  -1  -7   5  544.85   23.57
   1   8  -4  595.99   21.86
   1   8  -4  539.35   22.19
   1   8  -4  611.33   22.33
   1   8  -4  606.31   23.00
   1   9  -3    1.72    1.41
   1   9  -3    1.30    0.67
   1   9  -3    0.89    1.08
  -1  -9   3   -0.60    0.48
   1  10  -2   23.31    4.63
   1  10  -2   21.29    4.12
  -1 -10   2   19.63    3.71
   1  10  -2   22.35    4.65
  -1 -10   2   32.26    5.82
   1  11  -1    1.51    1.18
   1  12   0   38.49    6.74
   1  13   1    5.29    3.05
   1  13   1    5.26    3.14
   1  14   2   52.29    7.87
   1  14   2   54.27    8.27
   1  15   3   27.58    5.48
   1  16   4    0.91    0.52
   1  -2 -15   38.33    5.93
   1  -2 -15   45.92    6.43
   1  -2 -15   48.43    7.75
   1  -1 -14    8.65    2.82
   1  -1 -14    7.58    3.18
   1  -1 -14    5.54    2.38
   1   0 -13   22.99    4.98
   1   0 -13   21.88    4.84
   1   0 -13   27.19    5.67
   1   1 -12   38.83    6.82
   1   1 -12   47.57    7.32
   1   1 -12   34.23    6.38
   1   2 -11    5.60    2.08
   1   2 -11    8.98    3.23
   1   2 -11   11.15    3.53
   1   3 -10   68.76    8.30
   1   3 -10   71.63    8.56
   1   4  -9   97.31    9.37
   1   4  -9  104.45   10.12
   1   4  -9  106.29   10.05
   1   5  -8  405.55   19.07
   1   5  -8  370.98   18.00
   1   5  -8  419.88   19.43
   1   5  -8  408.78   19.81
   1   5  -8  426.87   23.71
   1   6  -7   15.79    4.63
   1   6  -7   15.39    3.64
   1   6  -7   17.61    3.90
   1   6  -7   21.05    4.46
   1   6  -7   17.87    3.84
   1   7  -6   -0.27    0.60
   1   7  -6   -0.74    1.59
   1   7  -6    1.59    0.96
   1   7  -6   -0.05    0.76
   1   8  -5  330.43   17.71
   1   8  -5  306.58   17.46
   1   8  -5  317.78   16.23
   1   8  -5  324.44   17.31
   1   9  -4   54.00    7.27
   1   9  -4   52.82    7.03
   1   9  -4   45.93    6.42
   1  10  -3    1.77    1.35
   1  10  -3    1.33    1.31
   1  10  -3    1.68    1.34
   1  11  -2    2.36    1.06
   1  11  -2    3.85    2.18
   1  12  -1   52.03    7.91
   1  13   0   71.42    9.47
   1  13   0   65.25    9.25
   1  14   1  481.70   24.16
   1  14   1  465.07   24.57
   1  15   2   16.87    4.34
   1  15   2   15.86    4.02
   1  16   3   28.90    5.16
   1  -1 -15    2.29    0.91
   1  -1 -15    2.04    1.57
   1   0 -14   32.76    5.78
   1   0 -14   31.97    5.66
   1   0 -14   34.66    6.32
   1   1 -13    7.83    2.66
   1   1 -13    4.13    1.86
   1   1 -13    7.00    2.67
   1   2 -12   72.42    8.88
   1   2 -12   80.68    9.57
   1   3 -11   23.58    4.94
   1   3 -11   23.66    5.52
   1   4 -10  251.61   16.35
   1   4 -10  212.89   14.30
   1   4 -10  256.58   16.52
   1   5  -9   82.79    8.94
   1   5  -9   53.71    7.38
   1   6  -8   23.40    4.92
   1   6  -8   17.70    4.04
   1   6  -8   20.72    4.39
   1   6  -8   25.75    4.86
   1   7  -7    1.82    0.64
   1   7  -7    2.63    1.67
   1   8  -6   14.52    3.82
   1   8  -6   14.08    3.78
   1   8  -6   12.01    3.51
   1   9  -5  990.25   32.26
   1   9  -5  998.43   31.88
   1   9  -5  986.44   30.52
   1  10  -4   73.12    8.85
   1  10  -4   66.52    8.19
   1  10  -4   61.98    8.21
   1  11  -3   52.57    7.46
   1  11  -3   44.44    7.14
   1  12  -2    7.93    3.00
   1  12  -2    9.08    3.27
   1  13  -1 1106.08   37.67
   1  14   0  554.71   26.16
   1  14   0  572.92   26.92
   1  15   1   40.28    6.66
   1  15   1   37.44    6.59
   1  16   2  192.00   13.62
   1  -1 -16    8.63    2.45
   1   0 -15   41.11    6.14
   1   1 -14    0.15    1.25
   1   2 -13   -1.34    0.73
   1   3 -12  225.73   16.18
   1   3 -12  235.03   15.68
   1   4 -11  159.22   13.35
   1   4 -11  159.36   13.12
   1   5 -10   45.92    7.13
   1   5 -10   48.97    7.15
   1   5 -10   34.56    5.80
   1   6  -9   28.08    5.41
   1   6  -9   19.39    4.22
   1   6  -9   26.72    5.19
   1   6  -9   22.05    4.93
   1   7  -8    6.74    2.31
   1   7  -8    1.84    0.97
   1   7  -8    9.14    2.89
   1   7  -8    7.75    3.02
   1   8  -7  482.41   23.07
   1   8  -7  463.01   22.27
   1   8  -7  492.25   23.51
   1   9  -6   25.45    5.39
   1   9  -6   20.33    4.63
   1   9  -6   22.41    4.83
   1   9  -6   22.30    4.65
   1  10  -5  185.51   14.22
   1  10  -5  184.37   14.31
   1  10  -5  189.58   14.63
   1  11  -4  362.87   20.30
   1  11  -4  393.03   21.48
   1  12  -3    9.61    3.39
   1  12  -3   10.42    3.96
   1  13  -2  587.93   25.72
   1  13  -2  586.73   27.68
   1  14  -1   26.05    5.80
   1  14  -1   29.90    6.44
   1  15   0   55.80    7.92
   1  15   0   54.94    7.94
   1  16   1  130.03   11.11
   1   0 -16   17.10    3.52
   1   1 -15   14.70    3.68
   1   2 -14    1.43    1.21
   1   3 -13  101.04    9.87
   1   3 -13   96.82   10.36
   1   4 -12   83.96    9.51
   1   4 -12   87.69    9.89
   1   5 -11  387.99   20.79
   1   5 -11  383.39   20.85
   1   6 -10  265.27   17.00
   1   6 -10  264.90   17.67
   1   6 -10  268.24   17.00
   1   7  -9   31.80    6.00
   1   7  -9   36.36    6.35
   1   7  -9   28.82    5.59
   1   7  -9   35.16    5.97
   1   8  -8   45.05    7.28
   1   8  -8   36.60    6.38
   1   8  -8   46.50    7.14
   1   9  -7  165.06   13.99
   1   9  -7  165.80   13.78
   1   9  -7  147.20   13.16
   1  10  -6   30.98    5.91
   1  10  -6   29.23    5.60
   1  10  -6   28.24    5.84
   1  11  -5  253.38   17.17
   1  11  -5  237.19   16.76
   1  12  -4  160.35   13.60
   1  12  -4  191.16   15.42
   1  13  -3  257.17   18.02
   1  13  -3  257.45   17.52
   1  14  -2  126.94   12.48
   1  14  -2  137.60   12.86
   1  15  -1   10.90    3.60
   1  15  -1   17.63    4.44
   1  16   0   -0.55    1.25
   1  16   0    0.16    0.91
   1   1 -16    6.46    2.22
   1   2 -15  108.13    9.82
   1   3 -14   10.18    3.10
   1   4 -13  196.92   13.95
   1   4 -13  185.14   14.05
   1   5 -12    9.45    3.28
   1   5 -12    9.40    3.24
   1   5 -12   12.11    3.60
   1   6 -11  429.67   21.19
   1   6 -11  432.27   21.60
   1   6 -11  425.56   22.10
   1   7 -10  191.34   14.35
   1   7 -10  194.06   15.14
   1   7 -10  193.65   14.12
   1   8  -9    1.72    1.21
   1   8  -9   -1.23    1.82
   1   8  -9    2.84    1.49
   1   8  -9    4.36    1.74
   1   9  -8   36.99    6.62
   1   9  -8   34.81    6.39
   1   9  -8   34.70    6.21
   1  10  -7    0.21    0.51
   1  10  -7    1.82    1.26
   1  11  -6  106.04   10.70
   1  11  -6  107.82   11.38
   1  12  -5   37.14    6.57
   1  12  -5   34.99    6.48
   1  13  -4    0.44    0.77
   1  13  -4   -0.13    0.60
   1  14  -3   36.88    6.43
   1  14  -3   39.81    6.76
   1  14  -3   40.03    6.47
   1  15  -2   76.72    9.12
   1  15  -2   60.98    7.94
   1  16  -1   25.06    4.65
   1  16  -1   23.82    4.50
   1   3 -15    0.43    0.54
   1   4 -14    4.15    2.03
   1   4 -14    2.64    1.31
   1   5 -13  162.41   12.69
   1   5 -13  163.50   12.79
   1   5 -13  166.11   12.18
   1   6 -12   45.76    6.96
   1   6 -12   45.86    6.59
   1   6 -12   41.92    6.68
   1   7 -11    1.90    1.27
   1   7 -11    2.24    1.10
   1   8 -10  339.57   18.03
   1   8 -10  300.08   18.00
   1   8 -10  326.68   19.74
   1   9  -9   19.36    4.39
   1   9  -9   23.88    5.33
   1  10  -8  159.26   13.98
   1  11  -7    4.40    2.03
   1  12  -6   15.86    4.26
   1  12  -6   15.47    3.85
   1  13  -5   10.49    3.59
   1  13  -5   11.71    3.56
   1  14  -4   26.86    5.33
   1  14  -4   33.40    5.87
   1  14  -4   31.22    5.76
   1  15  -3    3.19    1.22
   1  15  -3    5.86    2.61
   1  16  -2    0.70    0.97
   1  16  -2    1.32    1.01
   1   4 -15   10.77    2.84
   1   5 -14    5.99    2.25
   1   5 -14    6.70    2.33
   1   6 -13    0.17    0.82
   1   6 -13    1.95    1.40
   1   7 -12  177.49   13.60
   1   7 -12  175.69   12.73
   1   8 -11   59.57    7.50
   1   8 -11   62.67    8.29
   1   8 -11   59.63    7.30
   1   9 -10  146.39   12.96
   1   9 -10  120.45   10.99
   1  10  -9   23.67    5.28
   1  11  -8   16.85    4.29
   1  12  -7   37.22    6.40
   1  12  -7   35.25    6.56
   1  12  -7   35.13    6.28
   1  13  -6   25.81    5.45
   1  13  -6   24.56    4.83
   1  14  -5    1.09    1.45
   1  14  -5    1.35    1.68
   1  15  -4    4.42    1.84
   1   6 -14    2.73    1.40
   1   6 -14    2.35    1.41
   1   7 -13    0.90    0.46
   1   7 -13    1.08    1.04
   1   8 -12    6.08    2.28
   1   8 -12    4.71    2.19
   1   8 -12    4.14    2.13
   1   9 -11   58.43    7.78
   1   9 -11   56.29    7.64
   1  10 -10   82.77    9.36
   1  10 -10   87.49    9.91
   1  11  -9   17.82    4.30
   1  11  -9   17.57    4.35
   1  12  -8    1.34    1.00
   1  12  -8    1.24    0.71
   1  13  -7    6.53    2.73
   1  14  -6   44.76    6.37
   1  14  -6   55.71    7.24
   1  14  -6   53.51    6.59
   1  15  -5  115.91    9.75
   1  15  -5  118.72    9.56
   1   8 -13   21.07    3.99
   1   9 -12   38.83    5.79
   1   9 -12   35.66    5.47
   1  10 -11    2.58    1.52
   1  10 -11    2.74    1.60
   1  11 -10   -0.76    1.21
   1  11 -10    0.83    1.46
   1  12  -9   12.90    3.40
   1  12  -9   14.35    3.69
   1  13  -8   14.48    3.65
   1  14  -7   -0.16    0.68
   1  10 -12   14.36    3.03
   1  11 -11   43.53    5.81
   1  11 -11   37.39    5.29
   1  12 -10    6.39    2.14
   1  12 -10    7.18    2.19
  -2  12  -9   -0.53    0.61
  -2  11 -10   40.56    5.54
  -2  10 -11    1.87    1.19
  -2  10 -11    0.25    0.23
  -2   9 -12   23.87    4.31
  -2   9 -12   20.44    4.10
  -2   8 -13    0.50    0.63
  -2   8 -13   -0.95    0.86
  -2   7 -14   10.22    2.67
  -2  13  -7   29.64    4.79
  -2  12  -8   -0.07    0.70
  -2  12  -8    0.21    1.05
  -2  11  -9    6.00    2.12
  -2  11  -9    6.75    2.53
  -2  10 -10   96.11    9.39
  -2  10 -10  100.12    9.46
  -2   9 -11    8.40    2.89
  -2   9 -11    7.16    2.27
  -2   8 -12    5.50    2.28
  -2   8 -12    6.38    2.32
  -2   7 -13    0.79    0.89
  -2   7 -13    5.31    2.23
  -2   6 -14   44.48    6.10
  -2   6 -14   40.27    5.65
  -2   5 -15   52.21    6.33
  -2  14  -5    0.86    1.10
  -2  13  -6  127.90   10.62
  -2  12  -7   51.66    6.82
  -2  12  -7   47.27    6.30
  -2  11  -8    7.50    2.75
  -2  11  -8    6.86    2.45
  -2  10  -9   37.60    6.02
  -2  10  -9   26.55    4.74
  -2  10  -9   30.54    5.52
  -2   9 -10   20.43    4.48
  -2   9 -10   17.24    4.10
  -2   8 -11  129.76   11.54
  -2   8 -11  144.18   12.12
  -2   7 -12    9.75    3.10
  -2   7 -12   12.88    3.64
  -2   6 -13    2.04    1.07
  -2   6 -13    4.00    1.69
  -2   5 -14    8.17    2.57
  -2   4 -15   18.52    3.95
  -2   4 -15   19.08    3.66
  -2   3 -16    7.19    2.29
  -2  14  -4    0.64    0.59
  -2  13  -5   20.05    4.31
  -2  12  -6   21.05    4.31
  -2  12  -6   20.35    4.38
  -2  11  -7   11.70    3.26
  -2  11  -7   14.58    3.74
  -2  10  -8   53.73    7.49
  -2  10  -8   62.24    8.00
  -2  10  -8   57.51    7.42
  -2   9  -9    4.86    2.25
  -2   9  -9    6.98    2.68
  -2   9  -9    5.04    2.07
  -2   8 -10   16.82    4.11
  -2   8 -10   14.35    3.85
  -2   7 -11   -0.73    1.40
  -2   7 -11   -0.14    1.47
  -2   6 -12  166.52   13.33
  -2   6 -12  181.97   13.79
  -2   5 -13   97.75    9.86
  -2   5 -13   94.38   10.02
  -2   4 -14    7.51    2.80
  -2   4 -14    7.80    2.57
  -2   3 -15  226.25   14.56
  -2   3 -15  232.21   13.88
  -2   2 -16   45.42    6.07
  -2   2 -16   47.66    6.04
  -2  15  -2   34.19    5.19
  -2  15  -2   30.58    5.18
  -2  14  -3   -0.72    0.25
  -2  13  -4  112.57   10.71
  -2  12  -5  151.68   12.77
  -2  11  -6   89.94    9.75
  -2  11  -6   85.71    9.17
  -2  10  -7   15.76    4.00
  -2  10  -7   19.06    4.40
  -2   9  -8    6.24    2.27
  -2   9  -8    8.05    2.87
  -2   9  -8   12.06    3.52
  -2   8  -9  286.46   17.80
  -2   8  -9  299.90   18.22
  -2   7 -10   54.36    7.74
  -2   7 -10   54.04    7.73
  -2   6 -11  277.59   17.45
  -2   6 -11  268.67   17.38
   2  -6  11  242.83   18.66
  -2   5 -12    3.67    2.01
  -2   4 -13   58.40    7.64
  -2   4 -13   51.44    6.92
  -2   3 -14   17.92    4.09
  -2   2 -15  113.70   10.23
  -2   1 -16   91.54    8.89
  -2  15  -1   52.97    6.44
  -2  15  -1   45.38    6.31
  -2  14  -2    5.39    2.06
  -2  13  -3   52.86    7.58
  -2  12  -4   19.95    4.68
  -2  11  -5    9.15    3.04
  -2  11  -5   13.61    3.66
  -2  10  -6   11.34    3.31
  -2  10  -6    5.76    2.33
  -2   9  -7   -0.21    0.63
  -2   9  -7    0.81    0.80
  -2   8  -8   28.19    5.06
  -2   8  -8   28.34    5.34
  -2   8  -8   28.03    5.32
  -2   7  -9   36.67    6.29
  -2   7  -9   34.76    6.23
   2  -7   9   31.10    7.10
  -2   6 -10   21.28    5.03
  -2   6 -10   26.20    5.41
   2  -6  10   22.36    5.88
   2  -5  11  124.48   13.25
  -2   5 -11  149.99   12.54
  -2   4 -12   60.45    7.55
  -2   4 -12   60.47    7.92
  -2   3 -13  231.24   15.17
  -2   2 -14    5.90    2.53
  -2   1 -15  268.81   16.48
  -2   0 -16   31.35    5.34
  -2  -1 -17   17.09    3.60
  -2  15   0   67.75    7.20
  -2  15   0   65.44    7.62
  -2  14  -1   -0.59    1.33
  -2  13  -2    3.08    1.35
  -2  12  -3  163.32   13.61
  -2  11  -4  172.47   13.99
  -2  10  -5   88.71    9.77
  -2  10  -5   95.17    9.75
  -2   9  -6  119.51   11.09
  -2   9  -6  103.62   10.55
  -2   8  -7   38.99    6.38
  -2   8  -7   35.74    5.95
  -2   8  -7   31.23    5.42
  -2   7  -8  410.32   20.84
  -2   7  -8  408.42   18.82
   2  -7   8  366.69   25.66
   2  -6   9  457.11   27.27
  -2   5 -10  777.84   28.53
   2  -5  10  748.04   33.05
  -2   4 -11   34.84    5.64
   2  -4  11   34.53    6.84
  -2   4 -11   33.07    5.75
  -2   3 -12   13.22    3.52
  -2   3 -12   11.27    2.85
  -2   2 -13  179.44   13.84
  -2   1 -14   15.09    3.75
  -2   0 -15   15.89    4.01
  -2  -1 -16   15.90    3.82
  -2  -2 -17   32.45    5.10
  -2  15   1    0.20    0.46
  -2  14   0   33.96    5.70
  -2  14   0   35.02    6.27
  -2  13  -1   68.32    8.72
  -2  12  -2   17.61    4.17
  -2  11  -3    1.55    1.07
  -2  10  -4  246.34   15.39
  -2  10  -4  200.58   14.83
  -2   9  -5  130.40   11.46
  -2   9  -5  160.92   12.66
  -2   8  -6    8.40    2.80
  -2   8  -6   11.05    3.01
  -2   7  -7   40.63    6.31
  -2   7  -7   38.52    5.79
   2  -7   7   40.84    8.51
  -2   6  -8    7.15    2.33
   2  -6   8    4.19    1.68
   2  -5   9  508.59   27.44
  -2   4 -10    1.32    0.81
   2  -4  10    2.87    1.90
  -2   3 -11   31.86    5.52
  -2   3 -11   30.72    5.29
   2  -3  11   29.31    5.97
  -2   2 -12  290.39   17.63
  -2   1 -13   92.85   10.19
  -2   0 -14   24.38    5.35
  -2  -1 -15  303.15   18.47
  -2  -2 -16  129.64   11.36
  -2  15   2    1.73    1.60
  -2  14   1   37.58    6.48
  -2  14   1   40.31    6.05
  -2  13   0  160.34   13.09
  -2  12  -1   11.41    3.63
  -2  11  -2   22.92    5.02
  -2  10  -3  517.44   23.50
  -2   9  -4   35.47    5.81
  -2   8  -5   17.51    3.91
   2  -7   6   49.78    8.34
  -2   7  -6   54.59    6.86
   2  -7   6   56.95    9.72
  -2   7  -6   45.76    6.41
   2  -6   7  250.30   18.73
  -2   6  -7  217.03   13.17
   2  -6   7  237.89   19.60
   2  -5   8   45.84    7.43
   2  -5   8   20.97    5.12
   2  -5   8   44.03    8.10
  -2   4  -9   19.60    3.85
   2  -4   9   16.74    4.59
   2  -3  10  308.54   19.49
  -2   2 -11  298.32   16.59
   2  -2  11  270.73   17.63
  -2   1 -12    8.96    3.43
  -2   0 -13  271.26   17.93
  -2   0 -13  279.32   18.30
  -2  -1 -14   -0.17    1.51
  -2  -1 -14   -0.13    1.26
  -2  -2 -15   52.32    7.83
  -2  -2 -15   52.78    7.86
  -2  -3 -16   29.28    5.35
  -2  14   2    2.99    1.87
  -2  13   1   16.89    4.14
  -2  12   0   10.83    3.34
  -2  11  -1    3.82    1.96
  -2  10  -2   28.48    5.26
  -2   9  -3  109.13   10.30
  -2   8  -4  301.10   16.59
   2  -7   5    4.45    2.38
  -2   7  -5    4.42    1.79
  -2   7  -5    7.27    2.45
   2  -6   6  106.90   11.66
  -2   6  -6   95.25    8.68
   2  -6   6   95.60   12.17
   2  -5   7  447.00   23.01
   2  -5   7  408.23   19.61
   2  -5   7  440.30   24.77
  -2   5  -7  389.79   16.85
   2  -4   8    7.18    2.67
   2  -4   8   15.69    4.60
   2  -3   9 1503.43   39.81
   2  -3   9 1506.14   42.18
  -2   2 -10    9.51    3.16
   2  -2  10   10.66    3.02
   2  -2  10    8.90    3.14
  -2   1 -11   57.90    7.81
   2  -1  11   63.73    8.29
  -2   0 -12  111.68   11.28
  -2  -1 -13    7.24    2.89
  -2  -2 -14   36.11    6.93
  -2  -2 -14   26.36    5.54
  -2  -3 -15   41.04    6.96
  -2  -3 -15   36.15    6.65
  -2  -4 -16    0.56    0.55
  -2  -4 -16    1.36    0.48
  -2  14   3  167.07   12.70
  -2  13   2    8.43    3.49
  -2  12   1    4.87    2.07
   2 -12  -1    0.12    0.59
  -2  11   0   35.47    6.11
  -2  10  -1   69.31    8.28
  -2   9  -2  438.33   20.33
  -2   8  -3  137.92   11.07
   2  -7   4  127.19   13.73
  -2   7  -4  105.79    9.32
   2  -6   5  824.80   30.66
   2  -6   5  869.14   35.41
   2  -5   6 1488.24   37.17
   2  -5   6 1532.20   41.15
   2  -4   7 1851.86   42.84
   2  -3   8  157.99   12.29
   2  -2   9   18.31    3.96
   2  -2   9   16.72    4.21
  -2   2  -9   13.82    3.61
   2  -1  10   57.38    7.04
  -2   1 -10   56.37    7.41
   2  -1  10   66.34    8.09
   2   0  11   13.40    3.57
  -2   0 -11   15.72    4.03
  -2  -1 -12  125.60   13.65
  -2  -1 -12  111.51   11.43
  -2  -2 -13   12.66    3.37
  -2  -2 -13    6.53    2.69
  -2  -3 -14  168.48   16.06
  -2  -3 -14  176.24   15.27
  -2  -4 -15    0.62    1.12
  -2  -4 -15    0.03    1.09
  -2  -5 -16    7.51    2.65
  -2  -5 -16    5.05    2.20
   2 -14  -4   -0.44    0.86
  -2  13   3  107.56   10.98
   2 -12  -2   86.85   13.77
  -2  11   1   47.18    6.80
   2 -11  -1   47.60   10.04
  -2  10   0  943.96   30.21
  -2   9  -1  877.07   27.99
   2  -9   1  667.78   32.31
   2  -8   2  121.62    9.16
  -2   8  -2  112.50    9.83
   2  -8   2  110.50   11.54
  -2   7  -3    5.90    2.02
   2  -7   3    5.98    2.01
   2  -6   4   32.79    5.70
   2  -6   4   28.08    4.50
   2  -5   5   70.08    8.29
   2  -5   5   74.43    7.54
   2  -4   6  926.91   28.98
   2  -3   7  446.51   19.50
   2  -2   8    8.50    2.67
   2  -1   9  823.07   24.98
  -2   1  -9  805.54   26.80
  -2   0 -10   71.56    9.45
  -2   0 -10   60.25    7.66
   2   0  10   57.61    6.88
   2   0  10   66.08    7.73
   2   1  11    4.43    1.85
  -2  -1 -11    9.75    3.14
  -2  -1 -11    5.63    2.33
  -2  -2 -12   45.41    8.23
  -2  -2 -12   37.56    6.71
  -2  -3 -13   26.79    5.91
  -2  -3 -13   29.78    6.70
  -2  -4 -14  111.61   12.39
  -2  -4 -14  106.39   12.99
  -2  -5 -15    5.70    2.67
  -2  -5 -15    5.17    2.29
  -2  -5 -15    8.06    3.50
  -2  -6 -16    1.95    1.28
  -2  -6 -16    2.11    1.63
   2 -14  -5   59.89    9.39
   2 -13  -4   42.48    8.71
  -2  13   4   61.40    7.89
   2 -12  -3   33.17    8.77
  -2  12   3   38.81    6.83
   2 -11  -2   96.24   14.28
  -2  10   1  106.22    9.95
   2  -9   0   62.96   10.32
  -2   9   0   74.32    7.99
  -2   8  -1 1063.58   29.48
   2  -8   1 1080.81   27.85
   2  -7   2  194.78   10.84
   2  -6   3  182.50   10.81
   2  -6   3  187.69    9.86
   2  -6   3  169.08   12.43
   2  -5   4  505.28   18.43
   2  -5   4  524.66   21.33
   2  -4   5   84.75    8.28
   2  -4   5   85.81    8.08
   2  -3   6 9999.00   88.16
   2  -2   7 1974.33   37.79
   2  -1   8    0.95    1.02
  -2   0  -9   24.49    4.55
  -2   0  -9   34.76    6.18
   2   0   9   20.53    3.79
  -2  -1 -10   23.78    4.86
  -2  -1 -10   28.71    5.88
   2   1  10   23.26    4.11
   2   1  10   28.55    4.87
  -2  -2 -11   56.68    8.91
  -2  -2 -11   41.46    6.90
   2   2  11   44.94    6.23
  -2  -3 -12   43.36    8.14
  -2  -3 -12   44.74    7.73
   2   3  12   47.66    6.58
  -2  -4 -13  200.72   17.02
  -2  -4 -13  197.49   17.85
  -2  -5 -14  142.88   15.17
  -2  -5 -14  182.02   16.27
  -2  -6 -15   34.82    6.84
  -2  -6 -15   34.61    6.98
  -2  -6 -15   29.46    5.72
  -2  -7 -16   27.99    5.30
   2 -14  -6   14.44    4.42
   2 -14  -6    9.05    3.94
   2 -13  -5   59.37   10.21
  -2  12   4   73.63    9.12
   2 -12  -4   76.61   13.33
   2 -11  -3   10.51    4.34
  -2  11   3   11.22    3.97
  -2  10   2   27.33    4.89
   2 -10  -2   21.55    6.52
   2  -9  -1  168.89   17.36
  -2   9   1  216.33   13.31
   2  -8   0  226.66   13.07
   2  -8   0  202.61   17.26
  -2   8   0  246.55   13.69
   2  -7   1  799.88   22.29
   2  -6   2 2815.77   41.18
   2  -6   2 2861.01   38.77
   2  -5   3 4301.72   57.68
   2  -5   3 4392.35   51.00
   2  -4   4  178.45   11.45
   2  -4   4  173.80   10.18
   2  -3   5 1267.60   29.34
   2  -2   6   30.91    4.33
   2  -1   7 1393.55   29.06
   2   0   8   20.46    3.67
   2   1   9  201.62   11.48
  -2  -2 -10  299.55   19.20
  -2  -2 -10  237.88   15.71
   2   2  10  272.43   14.79
   2   2  10  228.49   12.89
  -2  -3 -11   60.01    8.95
   2   3  11   54.98    6.78
  -2  -3 -11   54.92    8.06
  -2  -4 -12  435.15   24.76
  -2  -4 -12  441.22   25.94
   2   4  12  429.65   19.97
  -2  -5 -13  547.97   28.96
  -2  -5 -13  516.21   28.79
  -2  -6 -14  207.45   17.79
  -2  -6 -14  269.90   20.32
  -2  -7 -15   95.35   11.23
  -2  -7 -15   72.23    9.72
   2 -14  -7   27.02    6.61
   2 -13  -6   59.80    9.97
   2 -12  -5    1.89    1.62
   2 -11  -4  694.93   40.13
  -2  11   4  740.56   29.07
   2 -10  -3   32.49    8.13
   2  -9  -2  960.01   41.88
   2  -8  -1 1391.53   33.06
  -2   8   1 1426.13   32.09
   2  -8  -1 1328.87   44.92
   2  -7   0  139.04    9.47
   2  -6   1  365.39   14.17
   2  -6   1  347.47   13.76
   2  -5   2  642.52   17.15
   2  -5   2  603.66   17.99
   2  -4   3 6968.48   61.08
   2  -4   3 6828.72   66.74
   2  -3   4 1218.38   26.73
   2  -3   4 1232.60   25.77
   2  -2   5   51.17    5.72
   2  -2   5   62.56    6.10
   2  -1   6   47.73    5.07
   2   0   7 1121.61   24.98
   2   1   8 3165.36   42.58
   2   2   9   69.30    6.67
   2   3  10    1.09    1.21
  -2  -3 -10    2.30    1.28
  -2  -4 -11  296.70   21.16
  -2  -4 -11  233.19   17.41
  -2  -4 -11  268.98   19.49
   2   4  11  295.42   16.04
  -2  -5 -12  135.94   14.55
  -2  -5 -12  134.44   14.16
  -2  -5 -12  149.24   15.79
   2   5  12  136.61   11.37
  -2  -6 -13   11.35    4.89
  -2  -6 -13   17.89    4.87
  -2  -7 -14    3.50    1.95
  -2  -7 -14    2.92    2.09
  -2  -8 -15   38.58    6.89
  -2  -8 -15   58.36    8.64
   2 -13  -7   -1.21    1.37
   2 -13  -7    1.90    1.94
   2 -12  -6    5.02    3.03
   2 -11  -5   31.82    8.77
   2 -11  -5    7.61    3.98
  -2  10   4   -0.77    1.03
   2 -10  -4    1.85    0.78
   2  -9  -3  524.05   31.93
   2  -8  -2  152.14   11.15
   2  -8  -2  149.88   15.20
   2  -7  -1  228.73   12.46
   2  -6   0 1164.98   25.63
   2  -6   0 1141.49   24.99
   2  -5   1  886.50   20.32
   2  -5   1  889.81   21.27
   2  -4   2   10.41    2.43
   2  -4   2    7.65    1.62
   2  -4   2    9.15    2.00
   2  -3   3   28.42    3.80
   2  -3   3   23.45    3.35
   2  -2   4 7571.13   60.61
   2  -1   5   57.87    5.34
   2   0   6  219.08   10.28
   2   1   7  781.40   19.92
   2   2   8   26.41    3.83
   2   3   9   29.23    4.30
   2   4  10   20.17    3.79
  -2  -4 -10   27.13    5.97
   2   4  10   29.10    4.77
  -2  -4 -10   24.54    5.76
  -2  -5 -11   58.96    9.24
   2   5  11   57.67    7.14
  -2  -5 -11   65.91   10.40
  -2  -6 -12  614.18   30.99
   2   6  12  664.59   25.44
  -2  -6 -12  670.54   34.45
  -2  -7 -13   -0.33    2.18
  -2  -7 -13    3.32    2.40
  -2  -7 -13    4.27    3.01
  -2  -8 -14   22.47    5.80
  -2  -8 -14   18.27    5.26
  -2  -9 -15    7.28    2.78
  -2  -9 -15    7.16    2.92
   2 -13  -8   34.12    7.77
   2 -13  -8   30.33    6.60
   2 -12  -7  114.65   15.53
   2 -12  -7  117.15   14.32
   2 -11  -6  100.38   13.83
   2 -10  -5   38.82    9.41
   2  -9  -4  560.27   34.01
   2  -8  -3  445.72   26.53
   2  -8  -3  413.17   18.65
   2  -8  -3  418.18   26.95
   2  -7  -2  583.03   20.29
   2  -6  -1  225.77   11.37
   2  -6  -1  214.36   10.90
   2  -5   0  222.20   10.48
   2  -5   0  229.00   10.41
   2  -4   1 1446.99   25.97
   2  -4   1 1463.03   24.24
   2  -3   2    3.62    1.39
   2  -3   2    6.27    1.65
   2  -2   3  788.31   18.01
   2  -2   3  863.54   19.13
   2  -1   4 4065.52   42.84
   2   0   5  116.39    7.14
   2   1   6 1350.92   25.11
   2   2   7  236.37   10.77
   2   3   8 1072.72   24.62
   2   4   9   24.29    3.96
  -2  -4  -9   17.27    4.72
  -2  -4  -9   23.43    5.31
  -2  -5 -10   32.45    6.82
  -2  -5 -10   30.90    6.36
   2   5  10   35.08    5.30
   2   5  10   38.65    5.65
  -2  -6 -11   24.06    5.99
  -2  -6 -11   23.87    6.44
   2   6  11   29.31    5.13
  -2  -7 -12   43.31    8.25
  -2  -7 -12   61.69   10.76
   2   7  12   54.79    7.37
  -2  -8 -13   53.43    9.21
  -2  -8 -13   65.90   10.83
  -2  -9 -14   -5.46    2.65
  -2  -9 -14   -0.34    2.51
   2 -12  -8   15.09    4.93
   2 -12  -8   19.21    6.03
   2 -11  -7    2.94    1.76
   2 -11  -7    1.68    1.62
   2 -11  -7   -0.76    2.14
   2 -10  -6   20.81    6.42
   2 -10  -6   11.58    4.72
   2  -9  -5  214.97   18.51
   2  -9  -5  232.01   22.56
   2  -8  -4   41.18    7.17
   2  -8  -4   40.40    5.89
   2  -8  -4   44.85    8.46
   2  -8  -4   48.80    9.65
   2  -7  -3  152.34   15.31
   2  -7  -3  131.43    9.76
   2  -7  -3  143.67   13.73
   2  -6  -2  968.32   24.20
   2  -6  -2  993.45   24.47
   2  -5  -1   72.24    5.99
   2  -5  -1   68.68    5.86
   2  -4   0 1143.78   22.69
   2  -4   0 1116.74   21.36
   2  -3   1  102.31    6.72
   2  -3   1   99.39    6.32
   2  -2   2  699.81   16.21
   2  -2   2  622.45   15.31
   2   0   4  568.55   14.54
   2   1   5    1.12    0.67
  -2  -2  -6    5.25    1.46
  -2  -2  -6    6.18    2.24
   2   2   6    5.82    1.54
   2   3   7  193.22    9.78
   2   4   8  356.52   14.39
   2   5   9  221.32   12.46
  -2  -5  -9  223.12   17.47
   2   5   9  246.20   13.60
   2   6  10    6.31    2.32
  -2  -6 -10    2.76    1.91
  -2  -6 -10    4.26    2.57
  -2  -7 -11   74.36   10.64
  -2  -7 -11   76.07   11.89
   2   7  11   89.61    9.46
   2   8  12    7.17    2.81
  -2  -8 -12    7.31    3.52
  -2  -8 -12    9.56    3.76
  -2  -9 -13   22.96    6.45
  -2  -9 -13   20.43    5.59
  -2 -10 -14    1.64    1.27
   2 -12  -9   15.47    4.75
   2 -12  -9   14.31    5.08
   2 -11  -8    1.49    1.02
   2 -11  -8   -0.20    0.65
   2 -10  -7   56.02   10.57
   2 -10  -7   50.38    9.83
   2  -9  -6   26.60    7.91
   2  -9  -6   32.67    7.38
   2  -9  -6   28.31    7.00
   2  -8  -5  218.86   17.68
   2  -8  -5  224.00   21.32
   2  -7  -4   48.26    7.26
   2  -7  -4   54.66    9.45
   2  -7  -4   42.77    7.38
   2  -7  -4   46.67    5.90
   2  -6  -3   19.16    3.43
   2  -6  -3   19.05    3.57
   2  -5  -2   41.18    4.54
   2  -5  -2   39.41    4.58
   2  -4  -1   14.56    2.57
   2  -4  -1    8.69    1.88
   2  -3   0    7.38    1.68
   2  -3   0    9.50    1.85
   2  -2   1  332.74   10.73
   2  -2   1  314.74   10.12
   2  -1   2  102.24    5.39
   2  -1   2  111.07    6.02
   2   0   3   12.66    2.08
   2   1   4  244.70    9.03
   2   2   5  108.40    6.40
  -2  -2  -5  110.89    6.77
  -2  -3  -6   26.69    3.42
   2   3   6   15.58    2.53
   2   4   7  161.17    9.10
   2   5   8   62.06    6.20
  -2  -6  -9  544.01   25.57
  -2  -6  -9  541.75   28.59
   2   6   9  547.81   20.30
   2   6   9  618.28   22.35
  -2  -7 -10  388.16   23.40
  -2  -7 -10  415.96   26.96
   2   7  10  435.09   20.27
  -2  -8 -11  145.40   15.27
  -2  -8 -11  151.09   17.08
   2   8  11  168.85   13.27
  -2  -9 -12    3.62    2.18
   2   9  12    4.84    2.11
  -2  -9 -12    7.53    3.73
  -2 -10 -13   13.37    4.97
  -2 -11 -14   18.12    4.77
   2 -12 -10   79.55   11.15
   2 -11  -9    2.24    1.96
   2 -11  -9    3.50    2.19
   2 -10  -8  140.60   16.41
   2 -10  -8  108.84   15.67
   2 -10  -8  141.85   16.71
   2  -9  -7   43.61    8.95
   2  -9  -7   26.04    6.57
   2  -8  -6    3.57    1.81
   2  -8  -6    0.15    2.13
   2  -8  -6    3.00    0.71
   2  -7  -5   73.74    9.45
   2  -7  -5   77.89   10.23
   2  -7  -5   67.58   11.25
   2  -7  -5   76.48    7.54
   2  -6  -4  306.09   13.93
   2  -6  -4  288.62   14.26
   2  -5  -3  162.12    9.93
   2  -5  -3  156.72    9.07
   2  -4  -2  776.34   19.49
   2  -4  -2  700.17   17.62
   2  -3  -1   87.10    6.05
   2  -3  -1   67.67    4.98
   2  -2   0 1297.87   21.68
   2  -1   1  120.62    5.40
   2  -1   1   42.02    3.60
   2   0   2 1550.92   20.91
   2   1   3  865.37   15.73
   2   2   4  672.81   14.69
  -2  -3  -5   60.89    5.25
   2   3   5   42.77    3.96
   2   4   6  118.61    7.24
  -2  -4  -6  105.96    7.41
   2   5   7  622.64   18.50
   2   6   8    0.56    0.33
   2   6   8    0.83    0.65
   2   7   9  168.57   11.61
  -2  -7  -9  164.97   14.72
   2   7   9  184.65   12.85
  -2  -7  -9  166.59   16.43
  -2  -8 -10   27.67    7.28
  -2  -8 -10   26.84    6.34
   2   8  10   33.06    5.83
  -2  -9 -11   77.83   11.31
   2   9  11   96.80   10.18
  -2  -9 -11   84.20   12.86
  -2 -10 -12    6.17    2.70
   2  10  12    7.15    2.85
  -2 -11 -13  541.08   28.82
   2 -11 -10    2.08    2.52
   2 -10  -9   30.18    8.00
   2 -10  -9   30.13    8.00
   2 -10  -9   31.62    7.63
   2  -9  -8    7.22    4.78
   2  -9  -8    9.40    4.03
   2  -9  -8    5.91    3.12
   2  -8  -7   35.78    7.58
   2  -8  -7   28.32    6.71
  -2   7   6   28.44    6.32
   2  -7  -6   41.98    7.33
   2  -7  -6   31.44    6.50
   2  -7  -6   39.22    8.82
   2  -6  -5  492.72   20.34
   2  -6  -5  532.93   29.61
   2  -5  -4   20.63    3.71
   2  -5  -4   22.41    3.45
   2  -4  -3    5.28    1.49
   2  -4  -3    0.48    0.64
   2  -3  -2  720.99   17.93
   2  -2  -1 1039.87   19.73
   2  -1   0   33.02    3.22
   2   0   1  604.94   12.75
   2   0   1  582.91    9.32
   2   1   2   17.74    2.08
   2   1   2    9.28    1.69
   2   2   3   17.33    2.11
   2   3   4   14.91    2.16
  -2  -3  -4    8.54    1.96
  -2  -4  -5   53.49    5.23
   2   4   5   49.91    4.38
  -2  -5  -6  198.83   10.69
   2   5   6  188.27    9.55
   2   6   7 1201.19   26.83
   2   7   8   21.25    4.20
  -2  -7  -8   15.73    4.74
   2   7   8   20.81    3.81
   2   8   9  400.01   19.73
  -2  -8  -9  343.04   24.34
   2   9  10  493.24   23.15
  -2  -9 -10  453.10   29.84
  -2 -10 -11  256.64   22.84
   2  10  11  277.89   17.34
  -2 -11 -12   48.03    9.30
   2  11  12   42.06    6.31
  -2 -12 -13  231.65   17.33
   2 -11 -11   -3.55    2.31
   2 -10 -10   38.56    8.70
   2  -9  -9  237.81   23.12
   2  -9  -9  243.91   21.24
   2  -9  -9  226.02   21.17
   2  -8  -8   75.94   12.70
   2  -8  -8   87.48   12.12
   2  -8  -8   82.69   12.51
   2  -7  -7    1.64    1.81
   2  -7  -7    6.55    2.68
   2  -6  -6   50.29    8.03
  -2   6   6   50.54    7.78
   2  -6  -6   59.17    8.23
   2  -6  -6   57.26   10.18
   2  -6  -6   57.75    8.07
   2  -5  -5   15.01    3.39
   2  -4  -4   77.56    6.87
   2  -4  -4    5.46    1.36
   2  -3  -3    0.71    0.66
   2  -3  -3    0.51    0.33
   2  -2  -2  174.63    8.48
   2  -1  -1   19.73    2.60
   2   0   0 1131.76   17.89
   2   1   1 4331.74   31.66
   2   2   2  525.57   10.33
   2   2   2  541.59   10.91
  -2  -3  -3  381.55   12.83
   2   3   3  397.44   10.12
  -2  -4  -4   23.67    3.48
   2   4   4   24.05    2.81
   2   5   5  553.81   15.26
  -2  -5  -5  496.67   17.17
  -2  -6  -6  152.92   10.34
   2   6   6  140.24    8.54
   2   7   7  587.33   19.45
   2   7   7  562.91   21.04
  -2  -8  -8  300.26   21.96
   2   8   8  332.81   16.16
   2   8   8  326.90   17.49
   2   9   9   21.28    4.80
  -2  -9  -9   14.66    5.41
  -2 -10 -10  524.60   33.01
   2  10  10  616.12   26.26
   2  11  11   52.54    7.47
  -2 -11 -11   44.47    9.41
   2  12  12   -1.49    1.12
  -2 -12 -12    1.14    1.37
   2 -10 -11   44.03    8.61
   2  -9 -10   18.64    5.73
   2  -9 -10   16.70    6.01
   2  -8  -9  610.98   34.77
   2  -8  -9  649.91   33.56
   2  -8  -9  660.94   37.91
   2  -7  -8   16.14    4.76
   2  -7  -8   13.58    5.20
   2  -7  -8   14.17    5.02
   2  -6  -7 1538.91   50.04
  -2   6   7 1632.66   42.98
   2  -6  -7 1553.26   48.27
   2  -5  -6   17.73    4.45
   2  -5  -6   24.98    6.49
  -2   5   6   19.68    4.45
   2  -5  -6   35.17    5.87
   2  -4  -5   13.13    3.04
   2  -4  -5    9.23    2.03
   2  -3  -4 1124.60   25.63
   2  -3  -4 1155.31   20.73
   2  -2  -3  573.12   16.36
   2  -2  -3  600.35   13.71
   2  -1  -2  470.59   11.38
   2  -1  -2  450.11   13.00
   2   0  -1 1781.60   23.03
   2   2   1 2659.96   22.74
   2   2   1 2548.64   21.38
   2   3   2 3959.87   27.62
   2   4   3 2882.35   27.61
  -2  -4  -3 2636.95   36.16
   2   5   4   63.33    4.71
  -2  -5  -4   61.59    5.99
   2   6   5 1068.10   21.80
  -2  -6  -5 1062.20   27.25
   2   7   6  103.89    7.68
  -2  -7  -6  100.18    9.20
   2   8   7  412.01   17.15
   2   8   7  395.54   18.74
  -2  -9  -8   17.36    5.56
   2   9   8   15.83    3.98
  -2 -10  -9  510.28   32.08
   2  10   9  607.79   26.24
   2  11  10   46.41    7.27
  -2 -11 -10   40.44    9.08
   2  12  11   44.83    6.64
  -2 -12 -11   37.48    8.12
  -2 -13 -12    2.39    1.78
   2 -10 -12   10.98    3.83
   2  -9 -11    0.33    2.64
   2  -8 -10  175.06   17.59
   2  -8 -10  199.15   20.41
   2  -7  -9  176.71   16.82
   2  -7  -9  167.41   18.05
   2  -7  -9  201.74   20.48
   2  -6  -8  386.14   22.76
   2  -6  -8  322.03   23.94
   2  -6  -8  342.26   23.80
  -2   5   7  245.95   15.94
   2  -5  -7  302.91   18.24
   2  -5  -7  255.13   19.08
   2  -5  -7  257.09   18.64
   2  -4  -6   40.74    6.02
  -2   4   6   51.74    6.40
   2  -4  -6   50.87    5.30
   2  -3  -5  164.49   10.58
   2  -3  -5  175.06    8.84
   2  -2  -4  158.05    9.18
   2  -2  -4  160.88    7.82
   2  -1  -3  834.36   19.03
   2  -1  -3  830.26   16.45
   2   0  -2  344.60   10.70
   2   0  -2  351.53   10.14
   2   4   2 1933.72   16.93
  -2  -4  -2 1876.84   29.70
   2   5   3   78.81    4.75
  -2  -5  -3   66.24    6.09
   2   6   4    8.38    1.84
  -2  -6  -4   11.38    2.67
   2   7   5 1374.44   25.96
  -2  -7  -5 1426.85   34.56
   2   8   6  274.21   13.03
  -2  -8  -6  295.77   17.21
   2   8   6  256.87   14.74
  -2  -9  -7  101.42   12.76
   2   9   7  135.84   11.45
   2  10   8   71.48    8.70
  -2 -10  -8   46.75    9.40
  -2 -11  -9   46.50    9.86
   2  11   9   50.61    7.71
   2  12  10    7.00    2.76
  -2 -12 -10    1.73    0.57
   2  13  11   12.99    3.39
  -2 -13 -11   12.00    3.90
   2  -9 -12   39.19    7.67
   2  -8 -11   82.02   11.71
   2  -8 -11  101.49   14.05
   2  -7 -10  450.03   27.59
   2  -7 -10  539.87   32.96
   2  -6  -9  510.08   27.30
   2  -6  -9  512.77   31.06
   2  -6  -9  493.81   30.28
   2  -5  -8   71.67   10.51
   2  -5  -8   83.39    9.90
   2  -5  -8   71.18   10.56
   2  -4  -7   16.16    3.90
  -2   4   7   15.29    3.69
   2  -4  -7   19.83    4.86
  -2   3   6  647.42   21.76
   2  -3  -6  641.21   18.98
   2  -2  -5  505.90   17.87
   2  -2  -5  519.15   15.50
  -2   2   5  534.30   17.63
   2  -1  -4 2789.72   37.50
   2  -1  -4 2915.29   33.83
   2   0  -3 1147.69   21.39
   2   0  -3 1165.40   20.00
   2   1  -2 2462.84   27.45
   2   1  -2 2497.42   29.77
   2   4   1  686.08    8.56
   2   4   1  679.60    8.96
  -2  -4  -1  657.31   16.99
  -2  -5  -2 1140.48   24.63
   2   5   2 1264.85   16.60
   2   6   3  147.72    6.75
  -2  -6  -3  141.04    9.59
  -2  -7  -4  226.82   13.51
   2   7   4  239.71   10.21
   2   8   5    5.07    1.67
  -2  -8  -5    3.24    1.75
   2   9   6   14.94    3.75
  -2  -9  -6   22.05    4.98
  -2 -10  -7   59.29   10.17
   2  10   7   81.58    9.38
   2  11   8   -0.55    2.08
  -2 -11  -8    1.81    1.94
  -2 -12  -9   41.77    9.23
   2  12   9   54.51    7.80
   2  13  10    4.93    2.24
  -2 -13 -10    8.27    3.72
   2  -9 -13   10.94    3.93
   2  -8 -12   88.84   12.05
   2  -7 -11  383.00   25.28
   2  -7 -11  501.15   31.06
   2  -6 -10  116.26   13.38
   2  -6 -10  150.86   16.90
   2  -5  -9  289.24   19.25
   2  -5  -9  279.67   22.13
   2  -5  -9  296.18   22.04
  -2   4   8  911.96   30.42
   2  -4  -8 1050.47   33.72
   2  -4  -8  948.00   36.78
   2  -4  -8 1003.69   37.34
   2  -3  -7  239.55   12.83
  -2   3   7  231.48   13.59
  -2   2   6  633.01   19.87
   2  -2  -6  639.56   19.26
   2  -1  -5  328.47   12.67
   2  -1  -5  325.60   14.02
  -2   1   5  332.82   12.42
   2   0  -4   49.09    4.52
  -2   0   4   45.28    3.83
   2   0  -4   42.77    4.46
   2   0  -4   44.74    5.16
   2   1  -3    6.51    1.48
   2   1  -3    4.79    1.41
   2   1  -3    6.12    1.70
  -2  -2   2 3755.14   20.87
   2   2  -2 3762.26   32.34
   2   3  -1 1473.07   16.92
   2   3  -1 1487.84   20.55
  -2  -4   0 4963.95   45.33
  -2  -5  -1 4115.78   45.50
   2   5   1 3878.88   27.11
  -2  -6  -2  366.92   14.95
   2   6   2  402.52    9.76
  -2  -7  -3   16.63    3.59
  -2  -8  -4   90.71    9.19
  -2  -9  -5   12.35    3.47
   2   9   5   28.56    5.08
   2  10   6 1020.79   32.96
   2  11   7  294.72   18.61
  -2 -11  -7  211.22   19.82
  -2 -12  -8  148.03   17.42
   2  12   8  174.55   14.44
  -2 -13  -9   26.35    7.00
   2  13   9   29.97    5.70
  -2 -14 -10   79.91   10.99
   2  14  10   81.33    8.18
   2  -8 -13    2.03    0.37
   2  -8 -13    7.73    3.47
   2  -7 -12    3.24    2.10
   2  -7 -12    5.39    3.10
   2  -6 -11   40.93    8.05
   2  -6 -11   47.55    9.24
   2  -5 -10    5.22    2.63
   2  -5 -10    6.78    3.54
   2  -4  -9    1.32    1.70
   2  -4  -9    2.86    0.84
  -2   3   8   36.85    5.74
   2  -3  -8   32.46    6.54
   2  -3  -8   31.93    5.46
   2  -3  -8   30.60    6.17
   2  -3  -8   29.26    4.99
  -2   2   7  290.43   14.34
   2  -2  -7  293.47   14.40
  -2   1   6 1478.29   27.92
   2  -1  -6 1520.49   30.12
   2   0  -5    2.83    1.33
  -2   0   5    2.45    1.01
   2   0  -5    3.91    1.53
   2   0  -5    3.26    1.55
  -2  -1   4   44.55    3.47
   2   1  -4   42.39    4.28
   2   1  -4   44.83    4.49
  -2  -1   4   46.73    3.16
   2   1  -4   45.90    5.10
   2   2  -3  215.03    8.56
   2   2  -3  222.42    9.44
   2   2  -3  209.96    9.93
  -2  -3   2 3046.72   30.79
   2   3  -2 2980.40   33.97
   2   4  -1 4978.20   41.38
  -2  -4   1 5236.40   44.66
  -2  -5   0  294.80   11.91
   2   5   0  210.08    8.05
  -2  -6  -1 2837.15   40.76
  -2  -7  -2  823.74   24.54
  -2  -8  -3  688.14   25.12
   2   9   4    1.39    1.02
  -2  -9  -4   34.53    6.04
   2  10   5  192.87   14.03
   2  11   6  796.87   30.35
  -2 -12  -7   14.01    5.29
   2  12   7   21.02    4.76
   2  13   8   33.18    6.13
  -2 -13  -8   22.50    6.65
   2  14   9   52.38    6.94
  -2 -14  -9   49.09    9.17
   2  -7 -13   50.99    9.04
   2  -7 -13   83.64   10.84
   2  -6 -12    5.93    3.13
   2  -6 -12    5.64    2.93
   2  -5 -11   23.60    6.20
   2  -5 -11   35.58    7.59
   2  -4 -10   90.13   10.83
   2  -4 -10  108.40   13.01
  -2   3   9   48.28    6.92
   2  -3  -9   45.66    6.80
   2  -3  -9   52.07    8.30
  -2   2   8  286.50   15.19
   2  -2  -8  314.57   16.81
   2  -2  -8  277.77   15.17
   2  -2  -8  301.67   18.09
  -2   1   7  553.11   18.48
   2  -1  -7  594.01   20.51
  -2   0   6  234.98   10.44
   2   0  -6  235.83   14.47
   2   0  -6  241.88   12.22
  -2  -1   5  918.19   17.65
   2   1  -5  980.21   22.76
   2   1  -5  966.63   26.10
   2   2  -4  428.77   14.20
   2   2  -4  437.86   16.11
  -2  -2   4  433.26   10.02
  -2  -2   4  435.09   10.09
  -2  -3   3  435.64   10.34
  -2  -3   3  432.77   11.25
   2   3  -3  428.29   13.45
   2   3  -3  425.73   14.65
  -2  -4   2  262.43    8.08
  -2  -4   2  280.15   10.03
  -2  -5   1    0.50    0.63
  -2  -6   0 1716.96   30.82
  -2  -7  -1    3.63    1.72
  -2  -8  -2  102.83    9.43
   2   9   3    0.76    1.02
  -2  -9  -3   -1.33    2.19
   2  10   4  418.11   18.84
   2  10   4  411.75   20.24
   2  11   5    7.88    2.99
   2  12   6  301.45   19.19
   2  13   7   94.48   10.43
  -2 -13  -7   73.38   12.09
  -2 -14  -8   14.07    5.10
   2  14   8   15.40    3.91
   2  15   9    1.37    1.29
   2  -7 -14   29.77    6.00
   2  -6 -13   14.40    4.30
   2  -5 -12   29.40    6.76
   2  -5 -12   21.87    6.01
   2  -4 -11   85.49   10.97
   2  -4 -11  100.22   12.49
   2  -3 -10  103.78   11.14
   2  -3 -10  117.32   12.69
   2  -2  -9   71.38    8.31
   2  -2  -9   61.78    7.06
   2  -2  -9   90.80   10.34
  -2   2   9   63.28    7.34
   2  -2  -9   76.51    8.63
  -2   1   8   20.07    3.64
   2  -1  -8   18.99    4.01
  -2   0   7   13.20    2.64
   2   0  -7   17.74    3.64
   2   0  -7   13.63    3.84
  -2  -1   6   25.82    3.17
   2   1  -6   30.79    4.45
   2   2  -5    2.85    1.33
   2   2  -5    1.55    0.90
  -2  -3   4  190.65    8.20
  -2  -3   4  214.30    7.50
   2   3  -4  193.42    9.94
   2   3  -4  200.04   11.21
  -2  -4   3 1689.89   23.71
  -2  -4   3 1742.94   24.49
  -2  -5   2 3063.72   35.67
   2   5  -2 2854.06   39.67
  -2  -6   1  447.79   15.32
  -2  -7   0   44.80    5.46
  -2  -8  -1  521.53   20.63
  -2  -9  -2  316.55   17.83
  -2 -10  -3  145.42   13.23
   2  10   3  126.85   10.44
   2  10   3  138.22   11.52
   2  11   4  310.92   17.26
   2  11   4  318.22   18.87
   2  12   5   57.91    8.34
  -2 -13  -6  370.46   26.81
   2  13   6  511.50   25.18
   2  14   7    5.64    2.40
  -2 -14  -7    6.71    3.57
   2  15   8    1.77    1.37
   2  -6 -14    2.04    1.51
   2  -6 -14   -0.42    1.90
   2  -5 -13    2.78    1.66
   2  -5 -13    0.38    1.53
   2  -5 -13    0.80    0.64
   2  -4 -12   -1.95    3.42
   2  -4 -12    1.87    2.74
   2  -4 -12    1.66    1.58
   2  -3 -11   48.09    7.78
   2  -3 -11   59.58    9.29
   2  -2 -10  423.41   21.75
   2  -2 -10  459.89   24.21
   2  -1  -9  104.12    9.45
   2  -1  -9  112.26   10.00
   2  -1  -9  118.26   10.83
   2  -1  -9  129.65   11.75
   2   0  -8  143.59   11.20
   2   0  -8  125.68    9.81
   2   1  -7  129.93    9.96
   2   1  -7  133.26   11.76
   2   2  -6 1863.84   40.70
   2   2  -6 1896.89   35.82
   2   3  -5 3147.34   43.39
   2   3  -5 3100.27   48.70
   2   4  -4   25.93    4.26
  -2  -4   4   27.77    3.03
   2   4  -4   26.25    3.80
  -2  -5   3  315.22   11.51
  -2  -5   3  343.04   11.79
  -2  -6   2 2720.78   37.50
  -2  -7   1  513.73   17.98
  -2  -8   0 2380.97   42.51
  -2  -9  -1  627.09   24.29
  -2 -10  -2  173.13   14.05
   2  10   2  167.82   12.16
   2  10   2  159.87   12.27
   2  11   3   78.48    8.78
   2  11   3   74.61    9.04
   2  12   4   19.33    4.85
   2  12   4   20.09    4.45
   2  13   5   36.07    6.44
   2  14   6   82.31    9.68
   2  15   7    0.93    1.11
   2  -5 -14   12.80    3.48
   2  -5 -14   14.45    4.48
   2  -4 -13    1.98    1.33
   2  -4 -13   -0.89    1.55
   2  -3 -12   58.19    8.91
   2  -3 -12   52.28    8.77
   2  -2 -11   66.78    9.63
   2  -2 -11   59.76    8.43
   2  -2 -11   55.67    7.44
   2  -1 -10    0.91    0.25
   2   0  -9    4.94    2.03
   2   1  -8   16.51    3.87
   2   1  -8   14.20    3.33
   2   1  -8   12.01    3.89
   2   2  -7  392.93   17.76
   2   2  -7  387.38   20.06
   2   3  -6   62.13    7.53
   2   3  -6   56.28    6.36
   2   4  -5  265.51   13.08
   2   4  -5  281.35   15.03
  -2  -5   4 2330.36   30.67
   2   5  -4 2419.87   43.31
  -2  -6   3   31.22    3.91
   2   6  -3   19.50    4.30
  -2  -7   2  288.99   13.21
  -2  -8   1   32.31    4.90
   2   9   0  206.50   13.07
  -2  -9   0  231.28   14.12
  -2 -10  -1    7.10    2.85
   2  10   1    3.27    1.78
   2  10   1    7.53    2.67
   2  10   1    5.40    2.10
   2  11   2   82.79    9.08
   2  11   2   99.33   10.31
   2  12   3  599.65   25.44
   2  12   3  586.05   26.52
   2  13   4    1.06    1.51
   2  14   5    4.37    1.93
   2  15   6    1.38    0.90
   2  16   7   -0.70    0.36
   2  -4 -14   70.07    8.64
   2  -4 -14   71.01    9.82
   2  -3 -13  145.31   14.72
   2  -3 -13  137.86   13.05
   2  -2 -12   19.77    4.99
   2  -2 -12   23.01    5.70
   2  -2 -12   18.60    4.48
   2  -1 -11  296.06   18.71
   2  -1 -11  344.76   21.23
   2  -1 -11  309.79   17.84
   2   0 -10  154.56   12.83
   2   0 -10  164.48   13.77
   2   0 -10  156.06   12.41
   2   1  -9  196.24   13.47
   2   1  -9  195.41   13.57
   2   1  -9  195.41   16.80
   2   2  -8   15.30    3.55
   2   2  -8   17.39    4.68
   2   2  -8   18.09    3.87
   2   2  -8   18.76    4.03
   2   3  -7  389.69   18.13
   2   3  -7  380.15   20.33
   2   4  -6 1122.36   29.20
   2   4  -6 1117.36   32.57
   2   5  -5   36.41    4.95
   2   5  -5   43.17    6.08
   2   6  -4  115.37    9.87
  -2  -7   3 1446.42   28.88
  -2  -8   2  499.72   18.73
   2   9  -1  539.20   21.52
  -2  -9   1  568.93   21.60
   2   9  -1  512.35   20.98
   2   9  -1  516.37   20.91
   2  10   0    2.15    1.22
   2  10   0    0.48    0.72
  -2 -10   0    4.01    1.90
   2  11   1    2.70    1.22
   2  11   1    4.36    1.81
   2  12   2    1.72    1.09
   2  12   2    1.67    1.06
   2  13   3  488.13   23.40
   2  13   3  484.82   24.51
   2  14   4  118.84   11.97
   2  15   5   79.30    9.16
   2  16   6   -0.34    0.58
   2  -4 -15   -4.62    2.19
   2  -3 -14    6.21    2.74
   2  -3 -14    5.55    2.25
   2  -2 -13  450.26   24.95
   2  -2 -13  387.91   21.89
   2  -2 -13  390.26   19.73
   2  -1 -12    2.81    2.00
   2  -1 -12    0.36    0.52
   2  -1 -12    0.64    1.78
   2   0 -11   24.37    5.01
   2   0 -11   23.14    5.08
   2   0 -11   20.86    4.81
   2   1 -10   20.86    4.56
   2   1 -10   17.38    4.10
   2   2  -9  390.52   19.33
   2   2  -9  397.03   19.55
   2   2  -9  399.02   23.88
   2   3  -8  254.64   15.01
   2   3  -8  272.15   16.38
   2   3  -8  259.17   17.96
   2   3  -8  260.15   15.39
   2   4  -7  609.93   22.33
   2   4  -7  589.33   22.99
   2   4  -7  588.97   22.18
   2   4  -7  581.09   25.58
   2   5  -6  138.47   10.45
   2   5  -6  148.57   12.26
   2   6  -5  142.81   11.67
   2   7  -4 2163.45   45.35
   2   8  -3    2.80    1.83
   2   8  -3    0.03    1.54
  -2  -8   3    6.02    1.74
   2   9  -2  296.13   16.22
   2   9  -2  284.97   15.87
  -2  -9   2  329.90   16.15
   2  10  -1  184.70   13.47
   2  10  -1  185.28   13.08
   2  10  -1  186.45   13.51
  -2 -10   1  208.85   14.14
   2  11   0   36.00    6.30
   2  11   0   40.86    6.30
   2  12   1    2.67    1.96
   2  12   1    1.54    1.58
   2  13   2   74.57    9.57
   2  13   2   74.32    9.29
   2  14   3   19.14    4.47
   2  15   4    5.54    1.88
   2  16   5    5.43    2.20
   2  -3 -15   17.64    4.02
   2  -3 -15   20.08    4.12
   2  -2 -14    3.20    1.94
   2  -2 -14    1.66    1.44
   2  -1 -13  478.80   23.95
   2  -1 -13  496.23   22.72
   2   0 -12    9.96    3.35
   2   0 -12   11.19    3.56
   2   0 -12    9.45    3.13
   2   1 -11   44.16    7.10
   2   1 -11   48.62    7.39
   2   2 -10  231.75   15.67
   2   2 -10  238.74   16.03
   2   3  -9  539.07   22.88
   2   3  -9  519.04   23.05
   2   4  -8   49.40    6.61
   2   4  -8   44.11    6.14
   2   4  -8   49.92    6.90
   2   4  -8   47.51    6.88
   2   4  -8   45.83    7.53
   2   5  -7  410.43   18.95
   2   5  -7  421.75   19.17
   2   5  -7  424.05   19.69
   2   5  -7  396.58   18.96
   2   5  -7  442.90   22.66
   2   6  -6    0.51    0.63
   2   6  -6    0.64    0.84
   2   7  -5   12.91    3.70
   2   7  -5    5.22    1.79
   2   7  -5   10.24    3.18
   2   7  -5   15.57    3.37
   2   8  -4  346.15   18.08
   2   8  -4  353.87   17.87
   2   8  -4  334.14   16.60
   2   8  -4  341.87   15.72
   2   8  -4  355.76   19.34
   2   9  -3   69.33    8.33
   2   9  -3   72.59    8.23
   2   9  -3   77.36    8.46
  -2  -9   3   87.16    8.33
   2  10  -2  161.82   12.57
   2  10  -2  162.99   13.19
   2  10  -2  170.61   13.19
   2  11  -1   28.52    5.45
   2  11  -1    7.63    2.96
   2  12   0   26.42    5.48
   2  12   0   37.24    6.54
   2  12   0   30.22    5.52
   2  13   1  201.87   15.66
   2  13   1  191.97   15.35
   2  14   2   28.38    5.85
   2  14   2   25.16    5.42
   2  15   3    1.69    1.19
   2  16   4   15.48    3.74
   2  -2 -15   54.58    6.93
   2  -2 -15   69.83    8.17
   2  -1 -14   79.65    9.09
   2  -1 -14   86.80    9.72
   2  -1 -14   77.98    8.60
   2   0 -13   -1.76    1.84
   2   0 -13    3.87    2.10
   2   1 -12   32.92    6.03
   2   1 -12   45.48    7.20
   2   2 -11   25.25    5.28
   2   2 -11   29.88    5.83
   2   3 -10  129.06   11.61
   2   3 -10  117.58   11.49
   2   4  -9   44.59    6.67
   2   4  -9   44.55    6.49
   2   4  -9   46.39    7.02
   2   5  -8   11.36    3.35
   2   5  -8    9.97    3.09
   2   5  -8   12.87    3.67
   2   6  -7   91.24    9.40
   2   6  -7   95.86   10.81
   2   6  -7   99.80    9.71
   2   7  -6    4.17    2.01
   2   7  -6    5.25    2.22
   2   7  -6    5.90    2.37
   2   7  -6    6.18    2.37
   2   7  -6    3.69    1.90
   2   8  -5   20.72    4.93
   2   8  -5   15.98    3.94
   2   8  -5   19.94    4.28
   2   8  -5   18.83    3.92
   2   9  -4  377.14   20.18
   2   9  -4  433.22   20.91
   2   9  -4  403.75   19.58
   2  10  -3   82.81    9.29
   2  10  -3   82.69    9.31
   2  11  -2  108.92   11.03
   2  11  -2  113.53   11.41
   2  12  -1  325.13   19.94
   2  12  -1  328.79   19.27
   2  12  -1  329.33   19.62
   2  13   0   74.19    9.50
   2  13   0   78.85    9.89
   2  14   1  111.19   11.60
   2  14   1  106.50   11.30
   2  15   2   -1.58    2.24
   2  16   3   -2.89    2.32
   2  -1 -15   27.36    4.91
   2  -1 -15   33.62    4.99
   2   0 -14  103.11   10.26
   2   0 -14  115.28   10.56
   2   1 -13  160.66   13.22
   2   1 -13  146.55   12.80
   2   2 -12   19.12    4.63
   2   2 -12   28.33    5.65
   2   3 -11   37.26    6.52
   2   3 -11   41.81    6.89
   2   4 -10   34.32    6.16
   2   4 -10   34.98    5.93
   2   4 -10   36.57    6.53
   2   5  -9  115.92   10.99
   2   5  -9  145.99   12.21
   2   5  -9  148.20   12.74
   2   6  -8   10.49    3.42
   2   6  -8    8.89    3.03
   2   7  -7    8.21    2.69
   2   7  -7    9.47    3.16
   2   7  -7   10.39    3.06
   2   8  -6  147.11   12.56
   2   8  -6  157.29   11.95
   2   8  -6  160.45   13.21
   2   8  -6  143.41   12.68
   2   9  -5  395.64   20.76
   2   9  -5  374.66   18.95
   2   9  -5  364.35   20.30
   2  10  -4  290.53   18.01
   2  10  -4  287.47   17.36
   2  11  -3    2.82    1.74
   2  11  -3    2.10    1.46
   2  12  -2  348.10   20.85
   2  12  -2  364.19   20.93
   2  13  -1  107.42   11.63
   2  13  -1  113.22   11.25
   2  13  -1  116.73   11.90
   2  14   0   21.98    5.22
   2  14   0   19.33    4.85
   2  15   1   71.64    8.89
   2  16   2    1.13    0.73
   2   0 -15   24.72    4.47
   2   1 -14   20.59    4.44
   2   1 -14   21.60    4.54
   2   2 -13   79.34    9.15
   2   2 -13   91.37    9.95
   2   3 -12    1.68    1.50
   2   3 -12   -0.34    1.27
   2   4 -11    2.88    2.15
   2   4 -11    1.79    0.87
   2   5 -10  266.85   16.97
   2   5 -10  252.95   17.08
   2   6  -9   69.50    8.80
   2   6  -9   75.61    9.21
   2   7  -8    8.28    3.03
   2   7  -8    5.00    2.49
   2   7  -8    8.85    2.91
   2   8  -7  125.40   12.02
   2   8  -7  129.70   12.23
   2   8  -7  128.97   11.28
   2   9  -6   30.24    5.81
   2   9  -6   32.86    6.06
   2  10  -5  157.18   13.71
   2  10  -5  149.41   12.40
   2  11  -4  368.63   22.31
   2  11  -4  339.08   19.67
   2  11  -4  339.27   20.25
   2  12  -3  180.93   14.92
   2  12  -3  197.12   15.97
   2  13  -2   13.70    4.09
   2  13  -2    8.54    3.02
   2  13  -2   13.10    4.14
   2  14  -1  495.72   25.04
   2  14  -1  506.18   24.27
   2  15   0   -1.87    1.82
   2  15   0    2.70    2.05
   2  16   1  125.62   10.75
   2   1 -15  122.55    9.87
   2   2 -14   28.10    5.28
   2   3 -13   -5.10    2.32
   2   4 -12    0.86    1.62
   2   5 -11  105.60   10.56
   2   5 -11  111.50   11.34
   2   6 -10    8.25    3.02
   2   6 -10    8.23    2.97
   2   6 -10    8.85    3.38
   2   7  -9    2.86    1.58
   2   7  -9    4.98    2.45
   2   7  -9    4.41    2.20
   2   8  -8   12.43    3.44
   2   8  -8    8.18    2.46
   2   8  -8   11.18    3.58
   2   9  -7   14.32    3.95
   2   9  -7   16.21    4.20
   2   9  -7   19.33    4.25
   2   9  -7   17.38    4.61
   2  10  -6   23.35    5.30
   2  10  -6   26.06    5.58
   2  10  -6   26.01    5.55
   2  11  -5   14.76    4.06
   2  11  -5   21.35    5.12
   2  11  -5   27.72    6.38
   2  12  -4   61.12    9.00
   2  12  -4   46.98    7.62
   2  12  -4   46.93    7.41
   2  13  -3    6.05    2.47
   2  13  -3    3.83    1.85
   2  14  -2  163.03   14.18
   2  14  -2  151.70   12.80
   2  14  -2  155.43   13.13
   2  15  -1    3.78    1.93
   2  15  -1    1.39    0.98
   2  16   0   11.72    3.15
   2   2 -15   14.22    3.33
   2   3 -14    6.39    2.24
   2   4 -13   24.50    5.11
   2   5 -12   12.01    3.03
   2   6 -11   17.93    4.52
   2   6 -11   15.18    4.06
   2   6 -11   16.63    4.30
   2   7 -10   35.18    6.23
   2   7 -10   35.60    6.33
   2   7 -10   28.24    5.41
   2   7 -10   30.01    5.76
   2   8  -9   38.44    6.79
   2   8  -9   36.50    6.46
   2   8  -9   39.39    6.98
   2   8  -9   42.87    6.56
   2   9  -8    5.08    2.03
   2   9  -8    1.65    1.30
   2   9  -8    4.23    1.64
   2   9  -8    1.68    1.16
   2  10  -7  298.34   19.31
   2  10  -7  329.96   21.32
   2  10  -7  283.78   18.66
   2  10  -7  273.66   17.74
   2  11  -6  134.12   12.97
   2  11  -6  127.44   12.47
   2  11  -6  148.15   12.38
   2  11  -6  157.61   14.79
   2  12  -5   17.76    4.43
   2  12  -5   20.07    4.65
   2  12  -5   23.69    5.68
   2  13  -4   33.45    6.55
   2  13  -4   27.40    5.53
   2  14  -3   66.28    8.83
   2  14  -3   55.70    7.86
   2  15  -2   21.61    4.53
   2  15  -2   18.40    4.40
   2  16  -1   52.21    7.21
   2  16  -1   49.83    6.41
   2   3 -15    1.79    1.08
   2   4 -14    0.75    0.79
   2   4 -14    1.70    1.11
   2   5 -13   54.88    7.17
   2   5 -13   54.14    7.31
   2   6 -12    6.26    2.12
   2   6 -12    9.38    3.27
   2   6 -12    5.80    2.14
   2   7 -11    8.45    2.94
   2   7 -11    8.42    3.00
   2   7 -11    7.58    2.59
   2   8 -10   63.04    8.34
   2   8 -10   66.25    8.66
   2   8 -10   60.40    7.90
   2   8 -10   57.97    8.11
   2   9  -9   27.28    5.51
   2   9  -9   29.64    5.32
   2   9  -9   26.54    5.70
   2   9  -9   21.61    4.98
   2  10  -8   85.08   10.03
   2  10  -8   96.52   10.95
   2  10  -8   96.05   11.16
   2  11  -7   -0.66    1.44
   2  11  -7   -0.67    1.34
   2  11  -7    0.66    1.07
   2  12  -6    5.59    2.49
   2  12  -6    5.87    2.48
   2  12  -6    5.37    2.28
   2  12  -6    4.24    2.28
   2  13  -5    0.03    1.26
   2  13  -5   -0.99    1.50
   2  13  -5    1.63    1.57
   2  14  -4  117.04   11.17
   2  14  -4  113.65   11.27
   2  14  -4  109.57   11.27
   2  15  -3    0.23    0.31
   2  15  -3    0.99    1.29
   2  16  -2    0.16    1.10
   2   5 -14   13.60    3.11
   2   5 -14   11.62    3.04
   2   6 -13   -0.38    0.81
   2   6 -13    0.35    0.89
   2   7 -12   21.08    4.26
   2   7 -12   18.05    4.01
   2   7 -12   21.85    4.51
   2   8 -11   23.84    4.84
   2   8 -11   26.66    5.19
   2   8 -11   23.58    4.81
   2   8 -11   28.62    5.10
   2   9 -10   73.89    8.82
   2   9 -10   72.37    8.97
   2   9 -10   80.75    9.44
   2   9 -10   76.87    8.33
   2  10  -9    1.17    0.93
   2  10  -9    0.92    0.87
   2  11  -8    6.78    2.45
   2  11  -8   11.19    3.58
   2  12  -7   20.57    4.71
   2  12  -7   22.85    4.73
   2  12  -7   21.78    5.13
   2  13  -6    3.18    1.87
   2  13  -6    1.14    0.68
   2  14  -5    6.42    2.55
   2  14  -5    4.79    2.18
   2  15  -4    3.53    1.62
   2  15  -4    0.79    0.67
   2  16  -3   10.19    2.87
   2   6 -14    1.69    0.94
   2   7 -13   11.64    2.80
   2   7 -13   18.27    3.71
   2   8 -12    0.56    0.21
   2   8 -12    1.71    0.99
   2   8 -12    0.83    0.63
   2   9 -11   17.94    3.62
   2   9 -11   16.15    3.66
   2   9 -11   15.41    3.78
   2   9 -11   20.54    4.23
   2  10 -10    1.00    1.47
   2  10 -10    2.17    1.65
   2  11  -9    8.10    2.89
   2  11  -9    9.21    3.20
   2  12  -8   19.15    4.41
   2  12  -8   20.21    4.70
   2  13  -7    3.97    1.84
   2  13  -7    4.01    2.04
   2  14  -6   25.39    4.89
   2  14  -6   16.42    3.70
   2  15  -5    1.74    1.06
   2  15  -5   -0.02    0.23
   2   9 -12   66.08    6.96
   2  10 -11    0.14    0.63
   2  10 -11    2.20    1.55
   2  11 -10   87.22    8.65
   2  11 -10   88.21    8.85
   2  12  -9   56.27    6.85
   2  12  -9   58.64    7.38
   2  13  -8    3.27    1.89
   2  14  -7    0.76    0.81
  -3  10 -11  100.17    8.33
  -3   9 -12    4.53    1.87
  -3  12  -8   11.65    2.76
  -3  11  -9   15.48    3.33
  -3  11  -9   19.02    3.76
  -3  10 -10    1.67    1.05
  -3   9 -11   23.01    4.35
  -3   8 -12   10.73    2.89
  -3   8 -12   13.12    3.39
  -3   7 -13   42.42    5.72
  -3   7 -13   38.84    5.63
  -3   6 -14    8.41    2.38
  -3   6 -14   10.71    2.82
  -3   5 -15    1.97    1.16
  -3  13  -6    2.67    1.47
  -3  12  -7    1.38    0.99
  -3  12  -7    1.57    0.85
  -3  11  -8    8.69    2.67
  -3  11  -8    9.08    2.67
  -3  10  -9   13.14    3.36
  -3  10  -9   14.40    3.48
  -3   9 -10   31.66    5.45
  -3   8 -11    1.21    1.24
  -3   8 -11    0.52    0.70
  -3   7 -12   27.55    5.00
  -3   7 -12   32.79    5.66
  -3   6 -13  208.06   13.62
  -3   6 -13  210.25   13.90
  -3   5 -14   97.05    9.09
  -3   5 -14  101.05    9.08
  -3   4 -15  115.48    9.62
  -3  13  -5   12.51    3.11
  -3  12  -6   14.49    3.46
  -3  11  -7    4.40    1.97
  -3  11  -7    3.61    1.61
  -3  10  -8  100.67    9.76
  -3  10  -8   91.43    9.09
  -3   9  -9  130.96   11.65
  -3   9  -9  132.89   10.80
  -3   8 -10    1.37    1.17
  -3   8 -10    2.71    2.05
  -3   7 -11  115.33   10.96
  -3   7 -11  114.82   10.75
  -3   6 -12  141.92   11.93
  -3   6 -12  148.46   12.33
   3  -6  12  120.52   12.64
  -3   5 -13   57.54    7.62
  -3   5 -13   61.97    7.82
   3  -5  13   50.97    7.75
  -3   3 -15    6.71    2.12
  -3   2 -16   12.67    3.00
  -3  14  -3    1.73    1.26
  -3  13  -4   10.44    3.04
  -3  12  -5   30.80    5.51
  -3  11  -6   98.36    9.34
  -3  11  -6   97.03    9.86
  -3  10  -7   10.32    3.14
  -3  10  -7   10.11    3.10
  -3   9  -8   -3.88    1.90
  -3   9  -8    0.68    0.72
  -3   8  -9   41.03    6.47
  -3   8  -9   44.21    6.96
  -3   8  -9   41.08    6.03
  -3   7 -10   48.68    7.19
  -3   7 -10   46.31    7.13
  -3   6 -11   20.21    4.75
  -3   6 -11   18.56    4.53
   3  -6  11   14.76    4.77
  -3   5 -12   27.72    5.40
   3  -5  12   24.67    5.92
  -3   4 -13   18.15    4.08
   3  -4  13   19.87    4.91
  -3   3 -14    1.23    0.42
  -3   2 -15   -0.05    0.54
  -3   1 -16   17.72    3.69
  -3  14  -2    1.00    0.90
  -3  13  -3   60.98    7.59
  -3  12  -4   27.96    5.38
  -3  11  -5   97.33   10.25
  -3  10  -6    1.35    1.28
  -3  10  -6    2.41    1.20
  -3   9  -7  136.97   12.08
  -3   9  -7  135.65   11.75
  -3   8  -8    7.20    2.73
  -3   7  -9  230.67   15.57
  -3   7  -9  230.49   14.36
   3  -7   9  211.09   19.45
  -3   6 -10   63.28    8.32
   3  -6  10   55.34    9.49
  -3   5 -11  192.51   14.63
   3  -5  11  178.54   16.43
  -3   4 -12    4.51    2.33
   3  -4  12    0.36    0.95
  -3   3 -13   30.02    5.36
  -3   3 -13   33.05    5.57
   3  -3  13   22.41    5.25
  -3   2 -14    5.12    2.08
  -3   1 -15    5.47    2.32
  -3   0 -16   33.30    5.40
  -3  14  -1   23.26    4.28
  -3  14  -1   29.90    5.28
  -3  13  -2    3.89    1.74
  -3  12  -3  507.89   23.17
  -3  11  -4   12.71    3.86
  -3  10  -5   48.83    6.87
  -3  10  -5   43.07    6.80
  -3   9  -6   47.91    7.07
  -3   8  -7    2.83    1.58
   3  -7   8   -0.20    0.66
  -3   7  -8    1.08    1.01
  -3   7  -8   -0.06    1.25
   3  -6   9  466.52   28.51
  -3   6  -9  465.04   20.21
   3  -5  10  851.96   36.57
   3  -4  11    6.28    2.98
  -3   3 -12   11.31    3.26
  -3   3 -12   13.99    3.89
   3  -3  12   10.00    3.71
  -3   2 -13   54.00    7.46
   3  -2  13   50.69    7.81
  -3   1 -14  162.21   13.16
   3  -1  14  129.82   11.81
  -3   0 -15   93.08    9.89
  -3  -1 -16    1.19    1.06
  -3  14   0    2.07    1.35
  -3  13  -1    7.17    2.36
  -3  12  -2   35.73    6.09
  -3  11  -3  185.04   14.28
  -3  10  -4  325.01   18.98
  -3   9  -5  623.86   25.55
  -3   8  -6  335.93   18.29
  -3   7  -7    2.06    1.21
   3  -7   7   -1.18    3.08
  -3   6  -8   29.32    5.14
   3  -6   8   30.40    7.16
  -3   5  -9 1102.08   30.44
   3  -5   9 1097.16   41.95
   3  -4  10   54.27    8.87
   3  -3  11   46.13    7.79
  -3   3 -11   49.36    6.91
   3  -2  12    0.19    1.13
   3  -1  13    2.53    1.37
  -3   0 -14  145.17   12.99
   3   0  14  114.04   11.12
  -3  -1 -15   27.03    5.65
  -3  -2 -16   -2.24    1.50
  -3  14   1   66.67    7.47
   3 -13   0   12.58    4.98
  -3  13   0   12.89    3.46
  -3  12  -1  191.94   14.19
   3 -12   1  156.33   18.76
  -3  11  -2  191.26   14.52
  -3  10  -3    2.94    1.67
  -3   9  -4   23.13    4.92
  -3   8  -5    9.17    2.85
  -3   7  -6    4.75    2.15
   3  -7   6    1.04    1.83
  -3   6  -7   43.55    6.23
   3  -6   7   39.92    8.41
  -3   5  -8   14.94    3.68
   3  -5   8   22.29    5.95
   3  -4   9   27.41    6.25
   3  -3  10   51.08    8.30
   3  -2  11  331.93   20.48
   3  -1  12 1170.60   37.53
  -3   0 -13    0.00    0.57
   3   0  13    1.26    1.20
  -3  -1 -14  245.10   17.25
   3   1  14  233.23   15.86
  -3  -2 -15   13.55    3.65
  -3  -2 -15    9.12    3.26
  -3  -3 -16   17.80    4.19
   3 -14  -2    5.34    2.82
   3 -13  -1  106.83   14.75
  -3  13   1  118.56   11.09
  -3  12   0   41.94    6.55
   3 -12   0   34.56    8.60
  -3  11  -1  414.14   21.17
  -3  10  -2   50.67    7.38
  -3   9  -3 1100.02   33.91
  -3   8  -4  273.54   16.57
  -3   7  -5  184.97   13.34
   3  -7   5  201.61   18.64
  -3   6  -6  183.26   12.89
   3  -6   6  199.63   18.22
   3  -6   6  195.95   16.54
   3  -5   7   35.34    6.65
   3  -5   7   40.43    6.64
  -3   5  -7   25.32    4.69
   3  -5   7   34.46    7.07
   3  -4   8 1901.35   48.49
   3  -4   8 1972.19   48.01
   3  -4   8 1827.29   50.55
   3  -3   9    7.79    3.25
   3  -2  10   17.24    4.68
  -3   1 -11   98.69   10.60
   3  -1  11   72.34    9.08
  -3   0 -12  650.40   28.09
   3   0  12  638.89   27.03
   3   1  13  185.14   14.31
  -3  -1 -13  204.54   16.07
  -3  -2 -14  180.62   15.15
   3   2  14  142.95   12.26
  -3  -3 -15    6.16    2.47
  -3  -4 -16    1.63    1.16
  -3  -4 -16    1.80    1.61
   3 -14  -3   28.62    6.47
   3 -13  -2  140.07   17.22
   3 -12  -1  167.73   19.49
  -3  11   0   67.84    8.36
  -3  10  -1   14.05    3.70
   3  -9   2 1439.16   47.13
  -3   9  -2 1563.74   40.03
  -3   8  -3  275.90   16.55
  -3   7  -4  301.21   16.77
   3  -6   5  225.49   17.07
  -3   6  -5  220.86   14.13
   3  -6   5  261.24   20.08
   3  -5   6  225.81   16.81
   3  -5   6  244.15   15.89
  -3   5  -6  205.46   13.26
   3  -5   6  240.62   18.50
   3  -4   7   25.33    5.24
   3  -4   7   34.35    6.17
  -3   4  -7   24.38    4.53
   3  -4   7   25.72    5.88
   3  -3   8   76.92    9.07
   3  -3   8   66.36    8.60
  -3   3  -8   77.73    7.62
   3  -3   8   77.84    9.90
   3  -2   9  466.20   22.17
   3  -2   9  448.99   23.02
  -3   1 -10  369.21   19.89
   3  -1  10  407.67   21.43
  -3   0 -11   59.60    8.24
   3   0  11   58.58    8.00
  -3  -1 -12  821.26   31.73
   3   1  12  834.38   30.23
  -3  -2 -13   27.06    5.85
   3   2  13   17.89    4.25
  -3  -3 -14   16.70    4.44
   3   3  14    9.81    2.77
  -3  -4 -15    1.54    0.67
  -3  -5 -16   14.73    3.98
  -3  -5 -16   16.80    4.06
   3 -14  -4    2.73    1.94
   3 -13  -3   20.07    6.27
   3 -13  -3   20.01    5.96
   3 -12  -2   47.18   10.28
  -3  12   2   64.27    8.47
  -3  11   1    7.31    2.65
   3 -11  -1    2.80    2.55
  -3  10   0   82.38    9.14
   3  -9   1   21.74    6.36
  -3   9  -1   24.95    4.95
  -3   8  -2  812.30   27.75
   3  -8   2  725.79   32.19
  -3   7  -3  468.38   20.60
  -3   6  -4    7.01    2.50
   3  -6   4   13.27    3.57
   3  -6   4    8.57    3.48
   3  -5   5   23.14    4.88
   3  -5   5   23.02    4.60
  -3   5  -5   26.10    4.57
   3  -5   5   31.73    6.35
   3  -4   6 1498.79   37.55
   3  -4   6 1388.69   38.14
   3  -4   6 1479.59   43.20
   3  -3   7   81.27    8.85
   3  -3   7   68.00    8.80
   3  -2   8   39.58    6.13
   3  -2   8   39.30    6.50
  -3   1  -9   92.12    9.51
   3  -1   9  106.87   10.02
   3  -1   9  107.75   10.66
  -3   0 -10  960.24   32.14
   3   0  10 1042.39   31.40
   3   0  10 1036.58   32.77
  -3  -1 -11  304.92   18.84
   3   1  11  321.02   18.22
  -3  -2 -12  126.56   12.68
   3   2  12  116.42   10.97
   3   3  13   19.46    4.38
  -3  -3 -13   21.53    5.28
  -3  -4 -14  259.19   19.03
   3   4  14  225.41   15.40
  -3  -5 -15    2.43    1.56
  -3  -6 -16  100.21   10.45
  -3  -6 -16  104.22   10.00
   3 -13  -4    3.59    2.43
   3 -12  -3   12.42    5.07
   3 -11  -2   40.57    9.81
  -3  10   1   14.53    3.64
   3  -9   0  355.61   25.55
  -3   9   0  446.87   20.36
  -3   8  -1   71.94    8.06
   3  -8   1   61.31    9.63
   3  -7   2   14.01    4.02
  -3   7  -2   17.29    3.98
   3  -6   3  618.62   23.32
  -3   6  -3  668.78   23.64
   3  -6   3  674.19   29.86
   3  -5   4  860.94   29.24
   3  -5   4  916.57   27.79
   3  -4   5   44.78    6.55
   3  -4   5   48.04    6.31
   3  -3   6   -0.73    0.96
   3  -3   6    1.42    1.59
   3  -2   7   99.47    9.10
   3  -1   8    1.53    0.97
   3   0   9  753.31   25.32
   3   0   9  808.76   27.66
  -3  -1 -10  209.31   14.96
   3   1  10  232.74   14.02
   3   1  10  231.13   14.80
   3   2  11    1.89    0.61
  -3  -2 -11    0.09    0.79
  -3  -3 -12   35.71    7.12
  -3  -3 -12   37.46    6.73
   3   3  12   33.33    5.80
  -3  -4 -13   26.26    6.11
   3   4  13   26.97    5.27
  -3  -5 -14  117.38   12.92
   3   5  14   99.84   10.17
  -3  -6 -15   40.76    7.35
  -3  -7 -16  161.15   13.10
   3 -13  -5    8.15    3.56
   3 -12  -4   75.14   11.83
   3 -12  -4   90.66   14.64
   3 -11  -3   71.70   13.22
   3 -10  -2  982.20   48.05
  -3   9   1   32.76    5.39
   3  -9  -1   25.55    6.99
  -3   8   0   15.66    3.51
   3  -8   0   13.04    4.44
  -3   7  -1   45.27    6.15
   3  -7   1   32.02    6.48
   3  -6   2   42.16    5.90
   3  -5   3  423.63   18.21
   3  -4   4  103.96    8.94
   3  -4   4   91.99    8.78
   3  -3   5   77.11    7.76
   3  -3   5  100.34    8.64
   3  -2   6 2072.69   39.72
   3  -2   6 2195.04   41.23
   3  -1   7  164.76   11.54
   3   0   8   55.76    6.64
   3   1   9   18.87    3.93
  -3  -1  -9    6.13    2.29
   3   1   9   14.37    3.46
  -3  -2 -10  478.87   25.11
  -3  -2 -10  448.43   22.39
   3   2  10  458.05   19.38
   3   2  10  510.35   21.47
   3   3  11   11.14    3.22
  -3  -3 -11    8.30    3.23
  -3  -3 -11    7.43    2.71
  -3  -4 -12  122.33   13.62
  -3  -4 -12  129.89   13.41
   3   4  12  140.56   11.96
  -3  -5 -13  150.22   15.18
  -3  -5 -13  148.63   15.19
   3   5  13  132.98   12.01
   3   6  14    0.75    1.33
  -3  -6 -14    3.89    3.24
  -3  -7 -15   10.33    4.08
   3 -13  -6   17.68    5.14
   3 -13  -6   12.76    4.54
   3 -12  -5   36.51    8.15
   3 -11  -4   21.46    7.11
   3 -11  -4   25.59    7.22
   3 -10  -3  187.68   21.05
   3  -9  -2   -1.86    1.91
   3  -9  -2    1.24    1.66
  -3   8   1  181.13   12.10
   3  -8  -1  179.52   17.10
  -3   7   0   34.20    5.09
   3  -7   0   21.97    5.39
   3  -6   1  333.37   16.05
   3  -5   2 1869.01   37.64
   3  -4   3   11.74    2.99
   3  -4   3   19.52    3.67
   3  -3   4  251.33   13.69
   3  -3   4  289.27   14.20
   3  -2   5    0.33    1.05
   3  -2   5    1.82    1.60
   3  -1   6 1730.36   36.22
   3   0   7  591.49   20.86
   3   1   8  179.98   11.35
  -3  -2  -9  565.31   25.76
  -3  -2  -9  511.80   22.57
   3   2   9  590.61   22.11
   3   2   9  561.25   20.16
  -3  -3 -10  116.53   12.40
  -3  -3 -10   99.83   10.71
   3   3  10   96.30    8.69
   3   3  10  120.56   10.28
   3   4  11   17.74    3.97
  -3  -4 -11   14.41    4.49
  -3  -4 -11   11.51    3.75
  -3  -5 -12   68.40    9.96
  -3  -5 -12   66.20    9.96
   3   5  12   75.88    8.74
  -3  -6 -13  171.07   16.45
  -3  -6 -13  174.42   16.86
   3   6  13  176.50   13.75
  -3  -7 -14   67.99    9.93
  -3  -7 -14   81.83   11.33
   3   7  14   60.42    7.76
  -3  -8 -15    5.24    2.52
   3 -12  -6   71.39   11.46
   3 -12  -6   68.67   10.85
   3 -11  -5   95.48   15.53
   3 -11  -5   84.11   12.72
   3 -10  -4  379.70   30.45
   3  -9  -3  178.93   18.70
   3  -9  -3  156.26   18.80
   3  -8  -2  307.93   23.05
   3  -7  -1  152.26   14.68
  -3   7   1  152.85   10.68
   3  -6   0   32.36    4.86
   3  -5   1   31.00    4.64
   3  -4   2  126.54    9.27
   3  -3   3   11.82    2.86
   3  -3   3   10.31    2.41
   3  -2   4  165.30    9.91
   3  -2   4  167.61   10.35
   3  -1   5   95.81    7.52
   3  -1   5   90.59    8.41
   3   0   6  372.52   15.61
   3   1   7   83.31    7.30
   3   2   8  541.57   18.96
  -3  -3  -9  110.52   11.27
   3   3   9  109.55    8.73
   3   3   9  114.21    9.52
  -3  -4 -10   62.93    9.13
   3   4  10   71.89    7.91
   3   4  10   57.92    6.68
  -3  -5 -11  197.68   16.81
   3   5  11  203.46   14.08
  -3  -6 -12  100.93   12.66
   3   6  12   98.83   10.19
  -3  -7 -13  289.54   21.18
  -3  -7 -13  300.00   22.39
   3   7  13  294.49   17.88
  -3  -8 -14    4.01    2.29
  -3  -8 -14    8.74    3.35
   3   8  14    9.79    3.11
  -3  -9 -15    0.48    1.48
   3 -12  -7   23.45    6.13
   3 -12  -7   29.02    7.09
   3 -11  -6   30.07    7.47
   3 -10  -5  100.02   13.72
   3 -10  -5  114.93   16.97
   3  -9  -4   49.94   10.67
   3  -8  -3  154.48   16.38
   3  -8  -3  128.83   16.35
   3  -7  -2  247.45   18.93
   3  -6  -1  404.42   17.66
   3  -5   0  117.57    9.18
   3  -4   1  263.11   13.14
   3  -3   2   13.44    2.77
   3  -3   2   12.88    2.66
   3  -2   3   14.88    2.89
   3  -2   3   10.35    2.33
   3  -1   4  685.81   18.68
   3  -1   4  786.64   20.91
   3   0   5   14.76    3.04
   3   1   6   43.78    5.00
   3   2   7  997.13   24.32
   3   3   8    8.06    2.12
  -3  -4  -9   60.14    8.48
  -3  -4  -9   63.03    8.49
   3   4   9   61.42    7.02
   3   4   9   54.76    6.23
  -3  -5 -10   22.92    5.58
   3   5  10   25.71    4.87
  -3  -5 -10   22.05    5.43
  -3  -6 -11   61.21    9.47
   3   6  11   69.84    8.44
  -3  -6 -11   66.04   10.22
  -3  -7 -12  317.34   22.26
  -3  -7 -12  389.38   25.57
   3   7  12  378.91   20.41
  -3  -8 -13  184.95   16.50
  -3  -8 -13  205.71   18.68
   3   8  13  188.84   14.30
   3   9  14    7.47    2.52
  -3  -9 -14    7.76    3.05
  -3 -10 -15  160.44   13.27
   3 -12  -8    2.86    2.03
   3 -12  -8    1.74    0.31
   3 -11  -7    5.85    3.53
   3 -11  -7    0.80    1.22
   3 -10  -6   18.97    5.77
   3 -10  -6   11.53    4.83
   3  -9  -5  131.02   14.32
   3  -9  -5  142.98   16.20
   3  -9  -5  134.25   18.27
   3  -8  -4   59.92    8.89
   3  -8  -4   69.52   10.82
   3  -8  -4   71.81   12.58
   3  -7  -3   31.66    7.69
   3  -7  -3   25.56    5.37
   3  -7  -3   30.98    6.83
   3  -6  -2   27.62    4.76
   3  -6  -2   29.75    5.95
   3  -5  -1  264.44   13.84
   3  -4   0  996.66   25.36
   3  -3   1   71.30    6.48
   3  -2   2   14.49    2.53
   3  -2   2   19.23    3.00
   3  -1   3   13.71    2.40
   3  -1   3  111.10    7.42
   3   0   4 1160.33   24.18
   3   1   5    0.17    0.58
   3   2   6   13.88    2.69
   3   3   7 2219.26   34.97
   3   4   8  135.37    9.12
  -3  -5  -9  103.06   11.06
   3   5   9   96.22    8.21
  -3  -5  -9  114.69   11.97
   3   5   9  117.65    9.87
  -3  -6 -10   20.79    5.21
  -3  -6 -10   31.63    6.84
   3   6  10   28.32    5.18
  -3  -7 -11 1867.86   52.58
  -3  -7 -11 1866.47   55.78
   3   7  11 2037.15   46.47
  -3  -8 -12  228.65   19.73
   3   8  12  215.68   15.52
   3   9  13   18.60    4.33
   3  10  14    9.97    2.89
  -3 -10 -14    9.84    3.76
   3 -11  -8    2.97    1.74
   3 -11  -8    1.42    1.57
   3 -10  -7   18.56    5.88
   3 -10  -7   15.94    5.23
   3 -10  -7   14.88    5.18
   3  -9  -6   99.06   12.71
   3  -9  -6  115.21   17.32
   3  -9  -6  103.70   14.01
   3  -8  -5   81.55   10.89
   3  -8  -5   90.72   12.28
   3  -8  -5   88.96   14.42
   3  -8  -5   79.76   11.71
   3  -7  -4   10.48    3.79
   3  -7  -4    9.51    3.54
   3  -7  -4   10.16    4.21
   3  -6  -3  321.97   23.41
   3  -6  -3  286.91   15.83
   3  -6  -3  342.85   18.79
   3  -6  -3  380.30   21.95
   3  -5  -2  298.64   15.08
   3  -4  -1 1959.69   36.08
   3  -3   0 3533.55   45.48
   3  -2   1  120.38    7.99
   3  -1   2   80.09    5.34
   3  -1   2   66.89    5.64
   3   0   3 2486.25   29.53
   3   0   3 2585.54   34.09
   3   1   4  769.79   19.21
   3   1   4  728.80   19.24
   3   2   5  675.90   18.15
  -3  -3  -6  262.97   13.17
   3   3   6  269.43   11.41
  -3  -4  -7 1062.10   27.36
   3   4   7 1004.15   23.40
   3   5   8    3.94    1.41
   3   5   8   12.91    3.15
  -3  -6  -9   19.16    5.05
   3   6   9   21.89    4.01
  -3  -7 -10  306.52   21.82
   3   7  10  313.90   17.63
  -3  -8 -11   40.32    8.35
   3   8  11   53.99    7.84
   3   9  12   -0.11    0.75
  -3  -9 -12    1.30    2.26
  -3 -10 -13   62.63    9.76
   3  10  13   59.70    7.68
  -3 -11 -14   98.50   11.11
   3 -11  -9   35.53    7.38
   3 -10  -8   31.51    7.44
   3 -10  -8   32.35    7.95
   3 -10  -8   27.07    7.27
   3  -9  -7   75.89   11.27
   3  -9  -7   88.10   13.24
   3  -9  -7   78.38   12.66
   3  -8  -6  301.19   21.52
   3  -8  -6  280.85   26.51
   3  -8  -6  258.69   21.81
   3  -7  -5  185.35   15.69
   3  -7  -5  169.34   16.06
   3  -7  -5  171.19   19.19
   3  -7  -5  149.51   15.22
   3  -6  -4  317.70   17.37
   3  -6  -4  416.06   21.64
   3  -6  -4  343.56   25.02
   3  -6  -4  424.78   23.19
   3  -5  -3  289.11   15.45
   3  -4  -2 1652.98   33.99
   3  -3  -1  312.87   13.82
   3  -2   0 3964.05   46.31
   3  -1   1  150.43    8.46
   3   0   2  933.35   15.86
   3   0   2  943.81   20.03
   3   1   3  507.71   14.25
   3   2   4  420.29   13.68
   3   2   4  407.16   12.93
  -3  -3  -5   49.25    5.74
   3   3   5   52.40    4.76
  -3  -4  -6  855.48   24.75
   3   4   6  817.31   19.92
   3   5   7    4.08    1.27
  -3  -5  -7    6.85    2.13
   3   6   8    1.98    1.44
   3   6   8   -0.14    0.15
   3   7   9    1.96    1.25
   3   7   9    4.31    1.78
  -3  -7  -9    2.94    1.71
   3   8  10  123.93   11.56
  -3  -8 -10  105.19   13.08
  -3  -9 -11  118.17   14.38
   3   9  11  126.24   12.23
   3  10  12   34.23    5.97
  -3 -10 -12   29.38    7.00
   3  11  13   19.69    4.18
   3 -10  -9   10.15    3.92
   3 -10  -9   14.23    4.86
   3 -10  -9   11.50    4.35
   3  -9  -8   20.25    6.11
   3  -9  -8   13.92    4.74
   3  -9  -8   13.06    5.14
   3  -8  -7   53.02    9.15
   3  -8  -7   57.38   10.42
   3  -8  -7   58.02   10.62
   3  -7  -6  423.47   24.29
   3  -7  -6  369.28   25.07
   3  -7  -6  432.35   25.61
   3  -7  -6  416.90   31.15
   3  -6  -5    9.62    3.34
   3  -6  -5   12.87    4.20
   3  -6  -5    4.00    1.79
   3  -6  -5    5.17    2.90
   3  -6  -5   14.26    4.33
   3  -5  -4   78.94    8.41
   3  -5  -4  107.53   10.29
   3  -5  -4   90.51   11.93
   3  -4  -3 1571.57   34.66
   3  -3  -2  156.93   10.04
   3  -2  -1   38.31    4.60
   3  -1   0  274.73   11.62
   3   0   1  118.53    4.94
   3   0   1  111.41    6.81
   3   1   2  235.40    6.76
   3   1   2  217.37    9.05
   3   2   3  117.42    6.55
   3   2   3  115.68    6.56
   3   3   4   14.08    2.34
   3   3   4   14.19    2.50
   3   4   5  884.68   19.10
  -3  -4  -5  856.64   24.64
   3   5   6  516.71   15.80
  -3  -5  -6  535.48   20.49
   3   6   7   93.89    7.34
  -3  -6  -7  114.35    9.88
   3   7   8  330.85   15.80
   3   7   8  321.47   16.44
   3   7   8  320.34   14.77
  -3  -8  -9  486.57   27.58
   3   8   9  542.01   23.08
  -3  -9 -10 1523.39   51.42
   3   9  10 1629.08   42.58
  -3 -10 -11   99.02   13.27
   3  10  11  122.43   11.74
  -3 -11 -12   33.51    7.22
   3  11  12   37.71    6.19
   3  12  13   38.20    5.45
   3 -10 -10    8.08    3.41
   3  -9  -9   34.04    7.71
   3  -9  -9   37.32    8.15
   3  -9  -9   34.90    8.05
   3  -8  -8    9.83    4.59
   3  -8  -8   12.98    4.24
   3  -8  -8   13.12    4.85
   3  -7  -7   47.87    8.29
   3  -7  -7   48.19    9.29
   3  -7  -7   42.55    8.74
   3  -6  -6  237.00   17.42
   3  -6  -6  227.75   18.84
   3  -6  -6  252.42   18.52
   3  -6  -6  219.06   21.77
   3  -5  -5 1287.33   40.40
   3  -5  -5 1364.54   48.84
   3  -5  -5 1428.02   39.40
   3  -5  -5 1132.19   33.67
   3  -5  -5 1533.69   41.33
   3  -4  -4   56.90    6.90
   3  -3  -3  483.44   18.46
   3  -2  -2  526.21   17.70
   3  -1  -1  265.52   11.65
   3   0   0  900.95   19.84
   3   1   1    0.90    0.33
   3   1   1   10.29    1.88
   3   2   2  409.03   11.75
   3   3   3   35.42    3.45
   3   3   3   33.13    3.25
  -3  -4  -4 3676.65   50.74
   3   4   4 3721.46   36.28
   3   5   5   95.15    6.31
  -3  -5  -5   95.35    8.61
  -3  -6  -6   82.63    8.56
   3   6   6   79.18    6.28
   3   7   7  194.67   11.82
  -3  -7  -7  200.42   14.53
   3   7   7  177.99   11.83
   3   7   7  187.78   10.64
   3   8   8  108.70    9.50
   3   8   8  103.21    9.67
   3   8   8  102.35    8.50
  -3  -9  -9  155.56   16.16
   3   9   9  166.42   13.37
  -3 -10 -10  769.41   37.35
   3  10  10  827.87   30.74
   3  11  11   12.22    3.27
  -3 -11 -11   12.63    5.12
   3  12  12   92.60    9.30
   3  -9 -10   55.48    9.17
   3  -9 -10   79.93   11.30
   3  -8  -9  149.06   15.72
   3  -8  -9  141.16   16.77
   3  -8  -9  167.88   17.64
   3  -7  -8    2.35    2.15
   3  -7  -8    5.29    3.21
   3  -6  -7    9.51    2.54
   3  -6  -7    9.97    3.97
   3  -6  -7   15.28    5.01
   3  -5  -6   70.27    8.92
  -3   5   6   53.30    7.63
   3  -5  -6   85.52    9.80
   3  -5  -6   86.54    9.93
   3  -5  -6   80.51   12.69
   3  -5  -6   83.68   10.52
   3  -5  -6   76.53   10.42
   3  -4  -5   58.01    9.44
   3  -4  -5   50.75    6.89
   3  -4  -5   71.48    8.32
   3  -4  -5   56.57    7.93
   3  -3  -4    5.97    2.08
   3  -2  -3  392.92   16.02
   3  -1  -2  595.88   17.99
   3   0  -1  394.37   13.45
   3   1   0 1651.47   25.51
   3   2   1 3152.61   32.73
   3   3   2  325.25    9.75
   3   3   2  321.74    9.52
  -3  -4  -3 1616.01   32.90
   3   4   3 1667.04   22.20
   3   5   4  626.19   13.70
  -3  -5  -4  598.17   21.63
   3   5   4  636.88   14.78
  -3  -6  -5  109.65    9.81
   3   6   5  103.41    6.69
  -3  -7  -6  315.92   17.96
   3   7   6  293.22   12.49
   3   8   7    3.27    1.68
   3   9   8  154.98   11.81
   3   9   8  135.87   11.78
   3  10   9  106.55   11.06
   3  11  10    5.79    2.64
   3  12  11   18.38    4.27
   3  13  12    1.04    0.97
   3  -9 -11    1.01    0.49
   3  -9 -11    6.91    3.08
   3  -8 -10   16.58    5.09
   3  -8 -10   18.96    5.61
   3  -7  -9  121.09   13.68
   3  -7  -9  128.98   16.22
   3  -7  -9  160.30   17.08
   3  -6  -8   91.96   13.18
   3  -6  -8   83.35   10.69
   3  -6  -8   95.43   12.86
   3  -5  -7  124.91   12.49
   3  -5  -7  130.23   13.81
   3  -5  -7  110.64   13.21
   3  -4  -6  149.70   12.57
  -3   4   6  161.28   12.59
   3  -4  -6  202.99   14.41
   3  -4  -6  186.97   18.17
   3  -4  -6  168.97   14.83
   3  -3  -5   66.81    7.53
   3  -2  -4 1651.85   35.00
   3  -1  -3  911.36   23.66
   3   0  -2   64.90    5.66
   3   1  -1   35.75    3.88
   3   3   1  133.58    6.26
   3   4   2 1604.34   20.18
   3   4   2 1585.18   19.77
  -3  -5  -3  169.98   11.13
   3   5   3  161.27    6.69
   3   6   4  843.96   17.15
  -3  -6  -4  751.06   25.38
  -3  -7  -5  121.95   10.99
  -3  -8  -6   58.71    8.21
   3   8   6   61.50    7.02
   3   9   7  141.42   11.62
   3  10   8  632.34   24.79
   3  10   8  581.55   25.29
   3  11   9  224.31   16.08
   3  12  10   30.95    5.81
   3  13  11   10.28    3.05
   3  -8 -11    7.65    3.60
   3  -8 -11    3.43    2.29
   3  -7 -10   46.36    8.52
   3  -7 -10   62.08   10.18
   3  -6  -9   84.32   11.07
   3  -6  -9   93.21   13.84
   3  -6  -9  116.76   14.15
   3  -5  -8  156.29   14.19
   3  -5  -8  180.80   16.85
   3  -5  -8  154.86   16.79
  -3   4   7  359.20   19.85
   3  -4  -7  401.49   21.40
   3  -4  -7  390.61   24.18
   3  -3  -6  466.66   22.07
  -3   3   6  497.13   20.81
   3  -3  -6  584.67   26.32
   3  -3  -6  586.03   23.52
   3  -2  -5  100.07    9.01
   3  -2  -5  110.48    8.08
   3  -1  -4   10.43    2.76
   3   0  -3 1682.41   30.61
   3   1  -2   15.84    2.62
   3   2  -1   23.88    2.95
   3   3   0 1103.76   18.27
   3   4   1  112.80    5.24
  -3  -4  -1  130.56    8.85
  -3  -5  -2  475.62   18.19
  -3  -6  -3   43.91    6.10
  -3  -7  -4 1037.33   31.69
   3   8   5    5.44    2.07
  -3  -8  -5    9.41    3.35
  -3  -9  -6  123.93   12.84
   3   9   6   89.17    8.94
   3  10   7  241.80   15.79
   3  11   8  211.84   14.72
   3  11   8  216.15   15.63
   3  12   9  145.70   12.80
   3  13  10   51.01    7.14
   3  14  11    0.81    0.91
   3  -7 -11   27.70    6.89
   3  -6 -10   56.19    9.08
   3  -6 -10   74.33   10.98
   3  -5  -9  294.20   20.07
   3  -5  -9  325.18   22.52
   3  -4  -8   43.64    7.18
   3  -4  -8   38.60    8.09
   3  -3  -7    4.36    2.32
  -3   3   7   -0.50    0.70
   3  -3  -7    5.20    2.61
   3  -2  -6  324.22   19.16
   3  -2  -6  268.55   16.23
  -3   2   6  290.53   15.24
   3  -2  -6  315.63   14.88
   3  -1  -5   80.32    7.86
  -3   1   5   81.41    6.88
   3  -1  -5   87.61    7.37
   3   0  -4    1.33    1.00
   3   1  -3   31.03    4.05
   3   2  -2 4872.21   44.79
   3   3  -1   41.94    3.70
  -3  -3   1   48.83    4.80
   3   4   0  393.79    9.89
  -3  -4   0  387.33   14.81
   3   4   0  374.15   10.94
  -3  -5  -1 1071.20   26.41
  -3  -6  -2  505.67   19.70
  -3  -7  -3  521.08   21.87
  -3  -8  -4    2.09    1.92
  -3  -9  -5    7.48    3.42
   3   9   5   24.54    4.52
   3  10   6   15.79    3.76
   3  11   7   92.86   10.25
   3  12   8   11.97    3.14
   3  12   8   14.50    3.90
   3  13   9   55.40    7.65
   3  14  10   31.72    5.34
   3  -7 -12    6.85    3.15
   3  -6 -11   16.44    4.91
   3  -5 -10   12.97    3.97
   3  -4  -9  213.78   16.64
   3  -3  -8  571.53   25.28
  -3   2   7   94.07    8.89
   3  -2  -7  108.54   10.19
   3  -2  -7  107.55    9.42
   3  -2  -7  100.66   11.31
   3  -1  -6  133.75   11.02
  -3   1   6  129.29    9.23
   3  -1  -6  141.23   10.19
  -3   0   5   29.70    3.79
   3   0  -5   34.79    4.63
   3   1  -4  120.74    8.40
  -3  -1   4  109.46    6.25
   3   2  -3    2.03    1.10
   3   2  -3   29.01    4.16
   3   3  -2  754.65   16.99
   3   3  -2  725.16   18.88
   3   4  -1 1382.39   19.89
  -3  -4   1 1356.77   26.45
   3   4  -1 1326.49   22.60
   3   5   0  382.01   11.03
  -3  -5   0  413.48   15.94
  -3  -6  -1  637.09   21.49
  -3  -7  -2 3115.31   51.73
  -3  -8  -3  829.59   29.53
   3   9   4   73.06    7.84
  -3  -9  -4   90.78   10.88
   3  10   5   69.71    8.14
   3  11   6  619.13   25.84
   3  12   7   14.35    3.70
   3  13   8    2.91    1.61
   3  13   8   -0.70    1.96
   3  14   9    5.69    2.41
   3  -7 -13    7.66    3.18
   3  -6 -12    6.25    3.71
   3  -5 -11   22.31    5.69
   3  -4 -10    0.47    1.65
   3  -3  -9  449.91   23.45
   3  -2  -8   43.53    6.70
   3  -1  -7   17.49    3.84
   3  -1  -7   14.53    3.39
   3   0  -6    9.68    2.88
   3   0  -6   10.60    2.66
   3   1  -5  819.77   24.00
   3   1  -5  850.13   24.01
   3   2  -4  159.70    9.49
   3   2  -4   93.27    8.26
   3   3  -3   10.06    2.15
  -3  -3   3   12.32    2.24
   3   3  -3   12.84    2.80
   3   4  -2  195.35    8.05
  -3  -4   2  198.34    9.73
   3   4  -2  177.82    9.43
  -3  -5   1  260.57   12.24
   3   5  -1  264.25   10.30
  -3  -6   0 2391.12   40.20
  -3  -7  -1  543.07   20.96
  -3  -8  -2  398.91   19.78
  -3  -9  -3   56.51    8.30
   3   9   3   54.88    6.65
   3  10   4  423.80   19.86
   3  11   5   24.23    4.99
   3  12   6   18.34    4.56
   3  13   7  120.00   11.62
   3  14   8   27.44    4.81
   3  14   8   34.15    5.88
   3  15   9   30.90    4.94
   3  -6 -13   15.05    3.74
   3  -6 -13   15.28    4.27
   3  -5 -12   99.47   12.17
   3  -5 -12   98.72   11.76
   3  -4 -11  126.71   13.27
   3  -3 -10  147.23   13.75
   3  -2  -9   78.73    9.46
   3  -1  -8  208.36   14.22
   3  -1  -8  185.92   12.18
   3   0  -7   22.15    4.32
   3   0  -7   18.10    3.99
   3   0  -7   24.17    4.12
   3   1  -6  211.62   12.89
   3   2  -5 1114.39   28.05
   3   2  -5 1148.88   31.53
   3   3  -4  599.53   18.02
   3   3  -4  630.16   21.31
   3   4  -3    2.47    0.88
  -3  -4   3    1.69    1.02
   3   4  -3    1.14    1.08
  -3  -5   2 4007.19   46.29
   3   5  -2 3926.76   44.83
  -3  -6   1    4.62    1.81
   3   6  -1    3.74    1.08
  -3  -7   0  396.33   17.34
  -3  -8  -1  588.05   23.43
   3   9   2  364.04   17.11
   3   9   2  382.14   17.27
   3   9   2  393.97   17.59
   3  10   3    5.22    2.19
   3  11   4  255.39   16.42
   3  12   5   24.11    5.25
   3  13   6  117.28   11.59
   3  14   7  124.87   10.92
   3  14   7  124.59   11.51
   3  15   8   89.97    8.80
   3  -5 -13   39.43    6.39
   3  -5 -13   44.72    7.52
   3  -5 -13   26.54    5.70
   3  -4 -12    4.31    1.73
   3  -4 -12    4.55    3.10
   3  -3 -11  128.35   13.25
   3  -2 -10  348.38   20.60
   3  -1  -9   47.80    7.18
   3  -1  -9   45.84    6.45
   3   0  -8  284.06   16.13
   3   0  -8  275.70   15.25
   3   1  -7  707.88   25.57
   3   1  -7  605.74   21.95
   3   2  -6  365.31   17.41
   3   2  -6  387.02   20.17
   3   3  -5  309.94   16.53
   3   4  -4  301.93   14.95
  -3  -5   3  282.82   12.11
   3   5  -3  276.09   13.40
  -3  -6   2 1408.60   29.13
   3   6  -2 1405.14   28.08
  -3  -7   1    7.43    2.40
  -3  -8   0   14.61    3.53
   3   9   1  253.06   14.50
   3   9   1  263.09   14.69
  -3  -9  -1  277.58   17.31
   3  10   2   54.25    7.02
   3  10   2   49.91    6.53
   3  10   2   47.75    6.50
   3  11   3   77.69    8.83
   3  12   4  132.96   12.31
   3  13   5   49.95    7.51
   3  14   6   -0.94    1.05
   3  15   7    8.86    2.85
   3  15   7    7.81    2.19
   3  -4 -13   11.83    3.16
   3  -4 -13   14.90    4.26
   3  -4 -13    9.85    3.34
   3  -3 -12    8.11    3.72
   3  -3 -12    3.10    1.11
   3  -2 -11  556.53   27.25
   3  -2 -11  522.70   25.65
   3  -1 -10  366.42   20.23
   3  -1 -10  344.13   18.34
   3   0  -9   25.59    4.92
   3   1  -8  105.52    9.66
   3   2  -7  345.84   18.27
   3   2  -7  352.99   20.98
   3   2  -7  345.28   17.01
   3   3  -6   33.49    5.10
   3   3  -6   36.02    6.08
   3   4  -5    2.41    1.50
   3   5  -4  204.02   12.66
  -3  -6   3  400.55   15.16
   3   6  -3  369.99   16.13
  -3  -7   2  353.20   15.71
  -3  -8   1  213.43   13.49
   3   8  -1  207.71   12.94
   3   9   0  670.15   24.04
   3   9   0  705.72   24.68
   3  10   1  148.01   11.79
   3  10   1  146.78   11.71
   3  10   1  138.78   11.11
   3  11   2   18.26    4.25
   3  11   2   21.03    4.78
   3  11   2   20.17    4.35
   3  12   3    0.90    0.75
   3  13   4  269.82   17.65
   3  14   5   10.54    2.57
   3  15   6   31.28    5.55
   3  16   7    0.73    0.42
   3  -4 -14   12.83    3.16
   3  -3 -13    2.86    0.68
   3  -3 -13    6.24    2.89
   3  -2 -12  124.21   12.62
   3  -2 -12  133.32   13.05
   3  -1 -11    6.40    3.50
   3  -1 -11    5.00    2.29
   3   0 -10   64.54    8.55
   3   0 -10   65.83    8.29
   3   1  -9   63.05    8.05
   3   1  -9   69.90    8.24
   3   2  -8  473.03   21.04
   3   2  -8  441.83   20.52
   3   3  -7  190.11   12.80
   3   3  -7  188.59   13.80
   3   3  -7  188.38   12.98
   3   3  -7  215.36   16.29
   3   4  -6  416.95   18.26
   3   4  -6  386.86   17.97
   3   4  -6  384.65   20.17
   3   5  -5   -0.15    1.31
   3   5  -5    4.23    2.25
   3   6  -4  166.10   11.86
   3   7  -3  114.83    9.72
  -3  -7   3  111.11    8.68
   3   7  -3  103.74    9.26
   3   7  -3   99.49    8.61
   3   8  -2    3.20    1.39
   3   8  -2    3.07    1.33
   3   8  -2    5.33    2.00
  -3  -8   2    5.60    2.13
   3   8  -2    3.41    1.93
   3   8  -2    5.50    2.07
   3   9  -1    2.04    1.48
  -3  -9   1    2.64    1.82
   3   9  -1    2.04    1.47
   3  10   0    4.43    1.78
   3  10   0    8.04    2.77
   3  10   0    8.33    2.82
   3  11   1   11.01    3.26
   3  11   1   10.43    3.22
   3  12   2  325.86   19.02
   3  13   3   20.89    4.73
   3  14   4    4.01    1.99
   3  15   5    3.50    1.16
   3  16   6    0.67    0.79
   3  16   6   -2.43    1.33
   3  -3 -14    6.51    2.26
   3  -2 -13   30.18    5.79
   3  -1 -12    9.54    3.24
   3  -1 -12    4.07    1.93
   3   0 -11   33.96    6.59
   3   0 -11   31.96    5.70
   3   1 -10   93.83   10.31
   3   1 -10   96.74   10.18
   3   2  -9  198.14   14.32
   3   2  -9  207.50   14.77
   3   3  -8   -0.44    0.54
   3   3  -8   10.16    3.28
   3   4  -7  326.64   17.07
   3   4  -7  344.43   18.03
   3   4  -7  345.43   20.65
   3   5  -6  141.48   10.78
   3   5  -6  125.37    9.86
   3   5  -6  119.10   10.18
   3   5  -6  107.98   10.24
   3   5  -6  120.69   10.37
   3   5  -6  126.20   11.74
   3   6  -5   31.53    4.90
   3   6  -5   33.41    5.27
   3   6  -5   31.54    5.72
   3   6  -5   31.66    5.24
   3   6  -5   31.88    5.21
   3   6  -5   31.90    5.71
   3   7  -4  644.98   24.16
   3   7  -4  601.99   22.28
   3   7  -4  582.63   23.16
   3   7  -4  589.74   24.50
   3   7  -4  593.92   21.94
   3   7  -4  603.33   23.26
   3   8  -3   23.32    4.52
   3   8  -3   22.03    4.31
   3   8  -3   24.60    4.79
   3   8  -3   28.87    4.80
   3   8  -3   24.91    4.43
   3   9  -2  295.81   17.14
   3   9  -2  324.07   17.19
   3   9  -2  315.38   17.02
  -3  -9   2  341.22   17.54
   3   9  -2  333.88   18.18
   3   9  -2  300.83   15.08
   3  10  -1   30.24    5.50
   3  10  -1   30.96    5.65
   3  11   0    5.33    2.18
   3  11   0    3.84    2.01
   3  11   0    7.30    2.81
   3  12   1    8.44    2.76
   3  12   1    4.82    2.17
   3  12   1    8.62    3.07
   3  13   2   26.39    5.53
   3  14   3    9.87    3.17
   3  15   4   62.28    8.07
   3  16   5    6.32    2.30
   3  -2 -14   44.05    6.46
   3  -1 -13  184.76   14.39
   3   0 -12    2.07    1.75
   3   0 -12    1.93    1.08
   3   1 -11   13.71    4.00
   3   1 -11   10.54    3.25
   3   2 -10   17.07    4.54
   3   2 -10   15.46    4.23
   3   3  -9    3.51    2.10
   3   3  -9    2.49    1.53
   3   4  -8   12.07    3.40
   3   4  -8   12.87    3.83
   3   5  -7   -0.04    0.71
   3   5  -7    1.53    1.10
   3   5  -7    1.93    1.48
   3   6  -6    1.88    1.25
   3   6  -6    0.43    0.55
   3   6  -6    2.27    1.31
   3   6  -6    3.61    1.55
   3   6  -6    0.73    0.51
   3   7  -5    0.49    0.85
   3   7  -5    0.81    0.97
   3   7  -5    0.59    0.79
   3   7  -5   -0.31    0.98
   3   7  -5    1.48    0.67
   3   7  -5    2.68    1.83
   3   8  -4   16.27    3.93
   3   8  -4   16.78    3.93
   3   8  -4   16.11    3.74
   3   8  -4   18.62    4.50
   3   8  -4   18.30    4.39
   3   8  -4   14.20    3.31
   3   9  -3  105.06   10.14
   3   9  -3  114.25   11.02
   3   9  -3  100.03    9.69
   3   9  -3  106.13   10.76
   3   9  -3  116.25    9.73
   3  10  -2  119.15   11.08
   3  10  -2  122.58   11.73
   3  11  -1    1.50    0.37
   3  11  -1   -1.10    1.72
   3  12   0   49.64    7.57
   3  12   0   54.08    7.65
   3  12   0   56.35    7.80
   3  13   1    0.35    0.83
   3  14   2    1.12    1.35
   3  15   3    5.09    2.39
   3  15   3   10.91    3.44
   3  16   4   14.38    3.45
   3  -1 -14   20.02    4.28
   3   0 -13    4.13    2.39
   3   0 -13    2.43    1.21
   3   1 -12   14.65    3.87
   3   1 -12   18.56    4.44
   3   2 -11    4.93    2.68
   3   2 -11    2.99    1.94
   3   3 -10   24.58    5.39
   3   3 -10   28.78    5.82
   3   4  -9   97.56   10.05
   3   4  -9  113.41   11.43
   3   5  -8    6.33    2.56
   3   5  -8    4.29    1.45
   3   6  -7   72.75    8.33
   3   6  -7   58.88    7.78
   3   7  -6   96.10    9.73
   3   7  -6   97.63   10.38
   3   7  -6   81.73    9.49
   3   7  -6   95.71    9.68
   3   7  -6   89.34    9.84
   3   8  -5   -0.63    1.92
   3   8  -5    1.37    0.44
   3   8  -5   -0.34    0.58
   3   8  -5    0.11    0.34
   3   8  -5    1.01    1.30
   3   9  -4  492.64   23.49
   3   9  -4  516.28   23.29
   3   9  -4  543.95   25.07
   3   9  -4  501.54   24.51
   3   9  -4  489.42   21.56
   3   9  -4  501.50   21.28
   3  10  -3   73.94    8.88
   3  10  -3   58.52    7.77
   3  10  -3   63.82    8.80
   3  11  -2   76.39    9.30
   3  11  -2   71.64    9.23
   3  12  -1   -0.76    1.40
   3  12  -1   -2.06    2.37
   3  13   0    5.24    2.33
   3  13   0   -0.03    0.71
   3  14   1    8.28    2.74
   3  15   2   80.76    9.85
   3  15   2   72.86    8.67
   3  16   3    0.53    0.62
   3  16   3    1.74    1.25
   3   0 -14   19.21    4.22
   3   0 -14   24.54    4.40
   3   1 -13   57.20    7.81
   3   1 -13   56.79    7.43
   3   2 -12    6.14    2.10
   3   2 -12    6.72    2.46
   3   3 -11    3.37    1.30
   3   3 -11    3.32    1.41
   3   4 -10   74.10    8.95
   3   4 -10   74.46    9.36
   3   5  -9    2.42    1.63
   3   5  -9    4.11    2.05
   3   6  -8   13.01    3.54
   3   6  -8   20.02    4.68
   3   6  -8    9.38    2.75
   3   7  -7   15.97    4.16
   3   7  -7   16.93    4.15
   3   7  -7   15.91    4.09
   3   7  -7   24.02    5.09
   3   8  -6   59.36    8.29
   3   8  -6   65.33    8.42
   3   8  -6   51.01    7.58
   3   8  -6   57.67    8.33
   3   8  -6   64.91    8.17
   3   9  -5  259.92   17.55
   3   9  -5  274.14   17.57
   3   9  -5  282.41   18.72
   3   9  -5  253.32   17.44
   3   9  -5  274.88   16.21
   3  10  -4   49.70    7.70
   3  10  -4   52.97    7.72
   3  10  -4   50.47    7.95
   3  10  -4   53.75    7.45
   3  10  -4   53.81    8.28
   3  11  -3    9.57    3.54
   3  11  -3    1.23    0.79
   3  12  -2   47.50    7.39
   3  12  -2   51.55    8.06
   3  13  -1  104.20   11.31
   3  13  -1  110.00   11.42
   3  14   0    5.34    2.26
   3  15   1    2.58    1.51
   3  15   1    6.40    2.73
   3  16   2    1.00    0.56
   3  16   2   -0.20    0.42
   3   1 -14   22.99    4.53
   3   1 -14   25.44    4.55
   3   2 -13  133.34   11.42
   3   2 -13  126.17   11.17
   3   3 -12    6.85    2.78
   3   3 -12    7.95    2.83
   3   4 -11   18.00    4.50
   3   4 -11   22.12    5.09
   3   5 -10    1.79    0.64
   3   6  -9  153.67   12.66
   3   6  -9  139.49   12.93
   3   7  -8   99.32   10.93
   3   7  -8  100.88   10.56
   3   7  -8  101.59   10.88
   3   7  -8   98.22   10.60
   3   8  -7   68.66    9.29
   3   8  -7   71.06    8.99
   3   8  -7   58.21    8.10
   3   8  -7   64.66    8.83
   3   8  -7   76.38    9.08
   3   9  -6   27.47    6.03
   3   9  -6   37.70    6.62
   3   9  -6   25.99    5.51
   3   9  -6   22.45    5.19
   3   9  -6   34.00    5.82
   3  10  -5   20.33    4.94
   3  10  -5   26.96    5.63
   3  10  -5   20.07    4.33
   3  10  -5   21.92    5.33
   3  10  -5   19.65    4.89
   3  11  -4   13.89    3.87
   3  11  -4   18.87    4.39
   3  11  -4   20.13    4.95
   3  11  -4   21.54    5.33
   3  12  -3   21.99    4.92
   3  12  -3   22.66    5.46
   3  12  -3   26.92    5.91
   3  13  -2   -0.23    0.52
   3  14  -1   -0.17    0.36
   3  14  -1   -0.81    0.55
   3  15   0   11.71    3.35
   3  15   0    9.97    3.48
   3  16   1   16.11    3.70
   3  16   1   16.51    4.03
   3   2 -14   -0.79    0.82
   3   3 -13   35.33    5.84
   3   4 -12   47.27    7.30
   3   5 -11  182.84   14.79
   3   5 -11  165.74   13.88
   3   6 -10    9.28    3.61
   3   6 -10    5.78    2.60
   3   7  -9   41.00    6.90
   3   7  -9   40.27    6.68
   3   7  -9   44.59    7.05
   3   7  -9   42.95    6.96
   3   8  -8   69.14    8.84
   3   8  -8   61.35    8.65
   3   8  -8   63.44    8.75
   3   8  -8   66.68    8.61
   3   9  -7  184.04   14.88
   3   9  -7  173.33   13.58
   3   9  -7  167.07   14.33
   3   9  -7  155.97   13.42
   3   9  -7  165.56   14.65
   3  10  -6   16.29    4.36
   3  10  -6   26.90    5.75
   3  10  -6   24.72    4.91
   3  10  -6   19.70    4.87
   3  10  -6   23.58    5.36
   3  11  -5   74.10    9.41
   3  11  -5   66.44    9.10
   3  11  -5   87.00   10.92
   3  12  -4   13.37    4.16
   3  12  -4   19.94    5.38
   3  13  -3   16.83    4.82
   3  13  -3   22.08    5.23
   3  14  -2   48.47    7.88
   3  14  -2   44.59    7.03
   3  15  -1    5.53    2.56
   3  16   0  108.41   10.30
   3   3 -14   20.03    3.89
   3   4 -13   55.97    7.19
   3   5 -12   64.62    8.08
   3   5 -12   68.34    8.42
   3   6 -11  305.59   18.25
   3   6 -11  308.48   18.61
   3   7 -10   14.64    4.01
   3   7 -10   18.75    4.35
   3   7 -10   19.09    4.71
   3   8  -9   11.14    3.33
   3   8  -9   13.90    3.95
   3   8  -9   12.13    3.67
   3   8  -9   13.73    3.74
   3   9  -8   39.39    6.81
   3   9  -8   47.31    7.53
   3   9  -8   43.68    7.35
   3   9  -8   41.56    6.64
   3  10  -7   98.57   10.99
   3  10  -7  118.96   11.96
   3  10  -7   97.81   10.60
   3  10  -7  121.33   12.52
   3  10  -7  116.36   10.76
   3  11  -6  120.48   12.11
   3  11  -6  107.84   11.31
   3  11  -6  133.91   13.34
   3  12  -5   -1.73    2.39
   3  12  -5    0.61    1.38
   3  13  -4   -0.87    1.05
   3  13  -4   -0.33    1.22
   3  14  -3   55.18    8.19
   3  14  -3   61.67    8.33
   3  15  -2   74.59    9.10
   3  15  -2   68.78    7.95
   3  16  -1    5.81    2.16
   3   4 -14   14.78    3.32
   3   4 -14   11.63    2.79
   3   5 -13    5.94    2.23
   3   5 -13    6.94    2.59
   3   6 -12   43.09    6.22
   3   6 -12   42.35    6.41
   3   7 -11   34.11    5.82
   3   7 -11   35.33    5.90
   3   8 -10   -0.15    1.16
   3   8 -10    0.15    0.74
   3   9  -9   -0.67    0.85
   3   9  -9   -0.69    1.49
   3   9  -9   -1.10    1.62
   3   9  -9   -4.41    2.21
   3  10  -8   46.59    7.26
   3  10  -8   40.37    6.26
   3  10  -8   43.21    7.21
   3  10  -8   41.94    7.00
   3  11  -7   37.39    6.60
   3  11  -7   32.24    5.85
   3  11  -7   40.58    7.17
   3  12  -6   16.13    4.15
   3  12  -6   22.86    5.38
   3  13  -5   -0.60    1.16
   3  13  -5   -0.79    1.35
   3  14  -4   29.94    5.64
   3  14  -4   36.60    6.31
   3  15  -3    3.00    1.36
   3  15  -3    1.59    1.31
   3  16  -2   80.66    8.37
   3   6 -13    4.59    1.83
   3   6 -13    4.90    1.94
   3   7 -12    5.47    2.02
   3   7 -12    4.53    1.60
   3   7 -12    3.52    1.70
   3   8 -11    3.53    1.76
   3   8 -11    2.56    1.38
   3   9 -10   68.05    8.19
   3   9 -10   73.37    8.32
   3   9 -10   74.90    8.49
   3   9 -10   78.03    8.47
   3  10  -9   12.73    3.72
   3  10  -9    9.90    2.96
   3  10  -9   12.94    3.34
   3  10  -9   11.59    3.51
   3  11  -8    2.13    1.45
   3  11  -8    2.20    1.11
   3  12  -7   52.79    7.09
   3  12  -7   63.93    8.63
   3  13  -6   42.12    6.50
   3  13  -6   58.81    8.05
   3  14  -5    1.04    1.50
   3  14  -5    0.73    0.45
   3  15  -4    0.69    0.78
   3  15  -4    0.24    0.50
   3   8 -12    0.50    0.68
   3   8 -12    1.39    0.89
   3   8 -12   -0.87    0.85
   3   9 -11   36.39    5.58
   3   9 -11   43.07    5.71
   3   9 -11   41.33    6.27
   3   9 -11   38.34    5.38
   3  10 -10    9.78    2.81
   3  10 -10    9.82    2.63
   3  10 -10   15.34    3.72
   3  11  -9   78.94    8.68
   3  12  -8    0.52    0.83
   3  13  -7    4.90    2.29
   3  13  -7    4.75    1.82
   3  14  -6   10.54    3.17
   3  14  -6    6.50    2.33
   3  14  -6   10.56    2.95
   3  10 -11    3.92    1.81
   3  11 -10  163.28   11.87
   3  12  -9   20.78    4.13
   3  13  -8   57.24    6.84
   3  13  -8   56.96    6.88
  -4   9 -11   59.88    6.52
  -4   8 -12    6.69    2.18
  -4   7 -13  160.10   10.74
  -4  11  -8   44.48    5.40
  -4  11  -8   40.51    5.29
  -4  10  -9   12.48    2.98
  -4  10  -9   10.78    2.89
  -4   9 -10   32.94    5.19
  -4   9 -10   27.03    4.33
  -4   8 -11   18.43    3.91
  -4   7 -12   46.47    6.34
  -4   6 -13   74.01    7.42
  -4   6 -13   83.23    8.33
  -4   5 -14    9.71    2.53
  -4   5 -14    8.67    2.53
  -4  12  -6    5.87    2.09
  -4  11  -7   61.07    6.63
  -4  11  -7   64.86    7.19
  -4  10  -8    3.99    1.79
  -4  10  -8    3.64    1.70
  -4   9  -9   62.99    7.46
  -4   9  -9   57.00    6.80
  -4   8 -10   12.84    3.08
  -4   8 -10   14.67    3.66
  -4   7 -11  106.14   10.09
  -4   6 -12   -0.06    0.30
  -4   6 -12    1.27    0.76
  -4   5 -13  276.77   15.53
  -4   5 -13  305.11   16.71
   4  -5  13  257.84   17.31
  -4   4 -14    1.89    0.69
  -4   4 -14    1.36    1.06
   4  -4  14    1.18    1.23
  -4   3 -15    4.74    1.79
   4  -3  15    5.39    2.12
  -4  12  -5   99.64    9.15
  -4  11  -6  148.39   11.63
  -4  10  -7    0.55    1.04
  -4  10  -7    0.03    0.72
  -4   9  -8   76.86    8.56
  -4   9  -8   67.74    7.87
  -4   8  -9   17.43    3.89
  -4   8  -9   21.06    4.50
  -4   7 -10   21.13    4.23
   4  -6  11   37.38    7.60
  -4   6 -11   33.39    5.75
  -4   6 -11   36.93    6.37
  -4   5 -12  103.03   10.04
  -4   5 -12  107.65   10.61
   4  -5  12   94.49   11.35
  -4   4 -13   35.61    5.78
   4  -4  13   25.63    5.57
   4  -3  14   30.34    5.78
  -4   2 -15   55.68    6.30
   4  -2  15   45.23    6.45
  -4  13  -3   57.20    6.63
  -4  12  -4   38.18    5.82
  -4  11  -5    1.35    1.51
  -4  10  -6   53.64    6.92
  -4  10  -6   47.95    7.00
  -4   9  -7    5.64    2.26
  -4   8  -8    0.30    1.03
  -4   7  -9  647.93   24.64
   4  -7   9  599.80   32.75
  -4   6 -10   17.50    4.00
   4  -6  10   15.65    5.01
   4  -5  11   87.52   11.69
   4  -4  12   56.30    8.84
  -4   3 -13   51.12    7.22
   4  -3  13   41.57    7.32
  -4   2 -14   -0.30    0.87
   4  -2  14    0.86    0.41
  -4   1 -15   12.62    3.23
   4  -1  15    8.03    2.74
  -4   0 -16    2.74    1.67
  -4  13  -2   -0.69    0.73
  -4  12  -3  103.15    9.79
  -4  11  -4  143.07   12.00
  -4  10  -5  123.16   11.31
  -4   9  -6   64.92    8.23
  -4   8  -7   34.01    5.90
  -4   7  -8   92.16    9.59
   4  -7   8   84.33   12.75
  -4   6  -9    7.20    2.86
   4  -6   9    8.92    4.02
  -4   5 -10  187.34   12.92
   4  -5  10  174.85   16.88
   4  -4  11  346.44   22.82
   4  -3  12   23.11    5.73
  -4   2 -13   23.19    4.71
   4  -2  13   23.13    5.29
  -4   1 -14   53.91    7.36
   4  -1  14   45.53    7.23
  -4   0 -15   24.03    4.80
   4   0  15   21.43    4.59
  -4  -1 -16   54.10    6.93
  -4  13  -1  124.94    9.74
   4 -13   1  122.25   14.46
  -4  13  -1  119.72   10.07
  -4  12  -2   66.34    7.86
   4 -12   2   59.18   11.10
  -4  11  -3   55.15    7.49
  -4  10  -4   22.17    4.70
  -4   9  -5  202.54   14.84
  -4   8  -6  341.57   18.98
  -4   7  -7   11.64    3.28
   4  -7   7    7.87    2.97
  -4   6  -8    2.01    1.16
   4  -6   8   -0.56    2.26
  -4   5  -9  255.33   15.64
   4  -5   9  260.57   21.08
   4  -4  10   17.89    5.00
   4  -3  11   57.26    9.11
   4  -2  12  197.69   16.43
   4  -1  13   27.14    5.81
   4   0  14  176.23   14.29
  -4  -1 -15    0.57    1.00
   4   1  15    0.72    0.86
  -4  -2 -16    1.20    0.82
   4 -13   0    8.34    3.82
  -4  12  -1    4.33    1.73
   4 -12   1    2.59    2.33
  -4  11  -2    1.88    0.49
  -4  10  -3   82.67    9.48
  -4   9  -4   31.91    5.99
  -4   8  -5   96.19   10.17
  -4   7  -6   40.11    6.37
   4  -7   6    8.84    3.73
  -4   6  -7  113.94   10.76
   4  -6   7  117.99   14.64
  -4   5  -8  736.42   26.82
   4  -5   8  799.57   36.72
  -4   4  -9  362.33   18.51
   4  -4   9  396.30   25.08
   4  -3  10  240.18   18.75
   4  -2  11   35.21    7.04
   4  -1  12  194.64   15.95
   4   0  13   20.07    4.81
   4   1  14    9.17    3.19
   4   2  15    3.48    2.23
  -4  -3 -16    7.12    2.74
   4 -13  -1   23.64    6.72
   4 -13  -1   14.25    4.36
   4 -12   0   46.02   10.17
  -4  11  -1    0.76    0.89
  -4  10  -2    5.75    2.43
  -4   9  -3  201.03   14.82
  -4   8  -4  505.88   23.59
  -4   7  -5   14.44    4.24
  -4   6  -6   13.56    3.48
   4  -6   6   11.96    4.43
  -4   5  -7    0.82    0.73
   4  -5   7    1.95    2.05
   4  -4   8   89.56   11.81
  -4   4  -8   94.58    9.53
  -4   3  -9   73.71    8.22
   4  -3   9   69.28   10.00
   4  -2  10  133.58   13.48
   4  -1  11   42.56    7.38
   4   0  12  146.55   13.44
  -4  -1 -13   24.70    5.39
   4   1  13   26.50    5.35
  -4  -2 -14   24.28    5.39
   4   2  14   24.79    5.19
  -4  -3 -15   13.52    3.50
   4   3  15   15.58    3.76
  -4  -4 -16    2.54    1.64
  -4  -4 -16    1.81    1.57
   4 -13  -2    7.72    3.73
   4 -13  -2    6.00    2.03
   4 -12  -1    4.41    3.16
  -4  11   0    8.03    2.75
   4 -11   0    0.56    1.21
  -4  10  -1    8.29    2.85
   4  -9   2   82.36   11.45
  -4   9  -2  103.50   10.46
  -4   8  -3   -0.47    1.39
   4  -8   3   -0.83    0.88
  -4   7  -4   91.01    9.83
  -4   6  -5    3.54    1.88
   4  -6   5    0.46    1.04
  -4   5  -6  412.38   20.08
   4  -5   6  435.26   26.51
   4  -4   7   15.46    4.67
  -4   4  -7   14.16    3.96
   4  -4   7   15.76    4.85
  -4   3  -8  297.13   16.70
   4  -3   8  303.32   20.66
  -4   2  -9   21.62    4.29
   4  -2   9   22.35    5.48
   4  -1  10  176.17   14.87
  -4   0 -11  223.35   16.33
   4   0  11  227.89   16.76
  -4  -1 -12  185.17   15.24
   4   1  12  184.61   15.07
  -4  -2 -13  150.10   13.87
   4   2  13  158.67   13.62
  -4  -3 -14   53.56    8.12
   4   3  14   45.60    7.07
  -4  -4 -15   13.45    3.63
   4   4  15   10.57    3.12
  -4  -5 -16   52.46    7.28
  -4  -5 -16   54.48    7.64
   4 -13  -3    0.98    1.21
   4 -12  -2   66.16   11.92
   4 -12  -2   61.86   10.28
   4 -11  -1   22.47    6.84
  -4  10   0   13.11    3.55
   4 -10   0    7.59    3.27
  -4   9  -1    2.24    1.30
   4  -9   1   -3.63    2.53
   4  -8   2  285.66   21.32
  -4   8  -2  286.39   17.32
  -4   7  -3   23.64    5.00
   4  -7   3   27.97    6.05
   4  -6   4    9.41    3.32
  -4   6  -4    9.04    2.86
   4  -6   4   13.60    4.70
   4  -5   5  142.13   13.13
   4  -5   5  145.70   13.16
  -4   5  -5  139.83   11.57
   4  -5   5  131.14   14.13
   4  -4   6   15.98    4.21
   4  -4   6   13.84    3.94
  -4   4  -6   14.27    4.07
   4  -4   6   11.24    3.89
   4  -3   7   65.71    8.65
   4  -3   7   59.60    8.07
  -4   3  -7   39.18    6.32
   4  -3   7   54.40    8.58
   4  -2   8  223.49   15.30
   4  -2   8  251.62   16.65
   4  -2   8  213.10   16.35
   4  -1   9    9.35    3.05
   4  -1   9    9.74    3.30
  -4   0 -10   54.70    7.86
   4   0  10   57.29    8.15
   4   1  11    6.79    2.47
  -4  -1 -11    7.43    2.70
  -4  -2 -12   85.97   10.46
   4   2  12   75.65    9.35
  -4  -3 -13  166.46   14.95
   4   3  13  162.00   13.64
  -4  -4 -14   90.80   10.86
   4   4  14   70.31    8.95
  -4  -5 -15  271.69   18.28
   4   5  15  240.09   15.55
  -4  -6 -16   99.04   10.01
  -4  -6 -16   93.83    9.70
   4 -12  -3   31.41    8.24
   4 -12  -3   36.49    7.81
   4 -11  -2   11.34    4.98
   4 -10  -1   -4.36    3.24
  -4   9   0    2.39    1.17
   4  -9   0   -1.41    2.95
   4  -8   1   35.39    7.59
  -4   8  -1   46.55    6.83
  -4   7  -2    8.60    2.83
   4  -7   2    8.04    3.35
   4  -6   3   95.12   10.52
   4  -6   3  124.03   12.53
  -4   6  -3  125.79   11.12
   4  -6   3  114.85   13.08
   4  -5   4  121.80   11.58
   4  -5   4  118.05   11.33
  -4   5  -4  123.71   10.95
   4  -5   4  133.01   13.68
   4  -4   5  163.90   13.49
   4  -4   5  171.25   13.34
  -4   4  -5  144.15   11.66
   4  -4   5  168.51   15.01
   4  -3   6    4.59    1.73
   4  -3   6    6.70    2.54
   4  -3   6    7.03    3.00
   4  -3   6    4.12    2.01
   4  -2   7  238.51   15.62
   4  -2   7  244.15   15.97
   4  -2   7  255.78   17.41
   4  -2   7  227.67   16.55
   4  -1   8  495.12   21.60
   4  -1   8  492.02   23.20
   4  -1   8  448.09   22.51
   4   0   9  404.58   19.24
  -4   0  -9  382.21   20.18
   4   0   9  407.15   21.01
  -4  -1 -10  186.51   14.60
   4   1  10  195.56   14.60
  -4  -2 -11   68.09    9.12
   4   2  11   66.97    8.65
  -4  -3 -12   29.33    6.03
   4   3  12   28.65    5.68
  -4  -4 -13  127.13   13.18
   4   4  13  111.09   11.29
   4   5  14    0.28    0.57
  -4  -5 -14   -1.04    2.61
   4   6  15    3.18    2.16
  -4  -6 -15    1.85    0.48
  -4  -7 -16    9.34    2.99
   4 -12  -4    6.79    3.26
   4 -11  -3    7.34    4.33
   4 -11  -3    9.88    3.99
   4 -10  -2   21.40    7.38
   4  -9  -1   40.07    8.67
   4  -8   0   96.09   13.03
  -4   8   0  108.00   10.15
  -4   7  -1  385.68   19.32
   4  -7   1  389.05   24.43
   4  -6   2   81.36    9.34
   4  -6   2   81.79   10.65
  -4   6  -2   91.33    9.38
   4  -5   3   21.84    4.71
  -4   5  -3    7.70    2.66
   4  -5   3    9.88    3.37
   4  -5   3   16.88    4.70
   4  -4   4  175.99   13.01
   4  -4   4  167.33   12.86
   4  -4   4  180.46   15.02
   4  -3   5  132.17   11.04
   4  -3   5  132.62   11.23
   4  -2   6   35.52    5.57
   4  -2   6   41.64    6.38
   4  -1   7   23.03    5.12
   4  -1   7   22.76    4.77
   4   0   8   18.89    4.28
   4   0   8   13.67    3.28
   4   0   8   12.61    3.51
  -4  -1  -9   62.75    8.17
   4   1   9   59.57    7.71
   4   1   9   74.93    8.68
   4   2  10    2.58    0.99
  -4  -2 -10    1.22    0.80
  -4  -3 -11   51.64    8.06
   4   3  11   60.07    7.99
  -4  -4 -12  174.41   15.62
   4   4  12  170.80   13.89
  -4  -5 -13  147.54   14.63
   4   5  13  134.44   12.33
   4   6  14   18.38    4.48
  -4  -6 -14    1.01    1.53
  -4  -7 -15  196.47   15.53
   4   7  15  159.38   12.22
   4 -12  -5   25.94    6.17
   4 -12  -5   26.80    6.48
   4 -11  -4  105.39   13.90
   4 -11  -4   82.64   13.91
   4 -10  -3    2.92    2.66
   4 -10  -3    0.20    0.72
   4  -9  -2   27.35    7.25
   4  -9  -2   23.41    7.71
   4  -8  -1  282.41   22.49
  -4   7   0   16.52    3.94
   4  -7   0   11.03    3.83
   4  -6   1   26.93    5.28
   4  -6   1   35.86    7.08
  -4   6  -1   38.38    5.98
   4  -5   2  247.66   17.44
   4  -5   2  212.25   14.67
  -4   5  -2  199.70   13.54
   4  -4   3  120.06   10.62
  -4   4  -3   61.35    8.11
   4  -3   4  411.78   18.21
   4  -3   4  385.40   18.30
   4  -2   5  192.87   12.27
   4  -2   5  181.82   12.45
   4  -1   6    1.15    0.81
   4  -1   6    0.78    1.34
   4   0   7  776.72   23.98
   4   0   7  804.32   26.56
  -4  -1  -8   33.79    5.56
   4   1   8   25.32    4.87
   4   1   8   31.14    5.50
   4   1   8   31.60    5.40
   4   2   9    6.69    2.87
  -4  -2  -9    9.93    3.21
   4   2   9    7.43    2.72
  -4  -3 -10  515.05   24.94
   4   3  10  536.02   23.10
   4   4  11    2.35    0.62
  -4  -4 -11    3.64    1.86
  -4  -5 -12   34.47    6.98
   4   5  12   36.10    6.11
  -4  -6 -13   48.34    8.49
   4   6  13   46.76    7.33
   4   7  14    9.36    3.17
  -4  -7 -14   11.49    4.10
  -4  -8 -15   45.86    7.38
   4   8  15   34.58    5.45
   4 -12  -6   64.29    9.53
   4 -11  -5   29.39    6.57
   4 -11  -5   36.76    8.05
   4 -10  -4  223.76   23.59
   4 -10  -4  251.54   21.79
   4  -9  -3  199.06   19.90
   4  -9  -3  202.09   22.38
   4  -8  -2    4.21    2.64
   4  -8  -2    8.02    4.51
   4  -7  -1   -2.05    1.82
   4  -6   0   18.77    4.33
  -4   6   0   28.03    4.85
   4  -6   0   27.34    6.18
   4  -5   1    5.89    2.35
  -4   5  -1    9.18    2.65
   4  -5   1   11.32    3.63
   4  -4   2   87.85    8.82
   4  -3   3  463.64   18.30
   4  -3   3  447.34   19.32
   4  -2   4 1042.13   27.20
   4  -2   4  959.01   27.55
   4  -1   5  378.32   15.93
   4  -1   5  383.06   17.24
   4   0   6 1068.75   26.90
   4   0   6 1060.24   28.60
   4   1   7  355.11   17.17
   4   1   7  331.89   16.65
   4   2   8   83.89    8.33
   4   2   8   79.59    8.27
   4   3   9    8.19    2.68
   4   3   9    9.05    2.74
   4   4  10    3.55    1.85
  -4  -4 -10   -3.41    2.06
   4   5  11    2.51    1.45
  -4  -5 -11    9.43    4.11
  -4  -6 -12   64.35    9.81
   4   6  12   73.74    9.07
   4   7  13   11.19    3.55
  -4  -7 -13   12.33    4.12
   4   8  14   22.12    4.94
  -4  -8 -14   18.39    4.93
   4   9  15    5.29    2.13
  -4  -9 -15   15.05    4.05
   4 -11  -6   78.56   11.03
   4 -11  -6   66.68   10.55
   4 -10  -5   17.91    6.65
   4 -10  -5   21.03    5.91
   4  -9  -4    6.54    2.83
   4  -9  -4    6.66    4.32
   4  -8  -3  109.24   15.81
   4  -8  -3  128.23   15.45
   4  -7  -2   85.65   11.82
   4  -6  -1  218.02   15.02
   4  -6  -1  274.31   20.11
   4  -5   0  230.91   14.91
  -4   5   0  252.49   14.57
   4  -4   1  576.18   22.48
   4  -3   2   13.41    3.29
   4  -2   3  915.52   23.23
   4  -2   3  864.54   25.32
   4  -1   4   62.64    6.05
   4  -1   4   61.85    6.69
   4   0   5 1263.68   26.92
   4   0   5 1294.25   30.40
   4   1   6   86.14    7.95
   4   2   7  230.73   13.65
   4   2   7  274.18   14.33
  -4  -3  -8  275.51   16.69
   4   3   8  304.93   15.29
   4   3   8  326.34   16.37
   4   4   9  242.71   14.00
   4   4   9  268.81   15.39
   4   5  10   61.40    7.73
   4   6  11  438.04   21.68
  -4  -7 -12   33.33    7.28
   4   7  12   32.63    5.81
  -4  -8 -13  634.30   31.51
   4   8  13  612.18   26.18
  -4  -9 -14   34.53    6.72
   4   9  14   26.08    5.10
   4 -11  -7    0.11    1.34
   4 -10  -6    9.01    4.20
   4 -10  -6   10.04    3.65
   4  -9  -5    1.48    1.04
   4  -9  -5   -0.41    2.57
   4  -9  -5    3.03    1.02
   4  -8  -4  259.57   19.22
   4  -8  -4  284.33   22.85
   4  -8  -4  275.41   25.89
   4  -8  -4  279.95   22.23
   4  -7  -3  146.40   13.68
   4  -7  -3  165.62   16.61
   4  -7  -3  125.05   16.38
   4  -6  -2   22.99    4.94
   4  -6  -2   34.64    6.19
   4  -6  -2   30.74    6.79
   4  -5  -1  217.36   14.56
   4  -5  -1  286.06   19.42
   4  -4   0  577.06   22.59
   4  -3   1   43.52    5.95
   4  -2   2 1374.22   31.90
   4  -1   3 1749.54   29.08
   4  -1   3 1626.46   32.92
   4   0   4 2772.69   36.01
   4   0   4 2533.70   40.54
   4   1   5  396.28   16.04
   4   2   6   14.20    3.21
   4   2   6   13.76    2.86
   4   3   7 3369.76   48.17
  -4  -3  -7 3308.08   54.43
   4   4   8    1.87    1.09
   4   4   8    6.57    2.20
   4   4   8    4.05    1.91
   4   4   8    2.40    1.55
   4   5   9    1.63    1.19
   4   5   9    2.58    1.50
   4   5   9    3.09    1.55
   4   6  10   69.19    8.38
   4   7  11   38.35    6.46
   4   8  12  346.19   19.89
  -4  -9 -13  318.75   22.22
   4   9  13  310.58   18.30
   4  10  14   15.94    3.74
  -4 -10 -14   21.13    5.05
   4 -10  -7   41.74    7.71
   4 -10  -7   42.53    8.57
   4  -9  -6   -0.52    1.00
   4  -9  -6    0.82    1.61
   4  -9  -6   -0.24    0.69
   4  -8  -5   -0.36    3.11
   4  -8  -5    3.29    2.86
   4  -8  -5    0.19    2.72
   4  -8  -5    3.83    2.09
   4  -7  -4 1394.23   43.70
   4  -7  -4 1495.88   49.89
   4  -7  -4 1338.96   55.47
   4  -7  -4 1358.05   47.32
   4  -6  -3   48.76    7.69
   4  -6  -3   57.13    9.17
   4  -6  -3   53.23   10.30
   4  -5  -2   19.27    4.46
   4  -5  -2   33.03    5.87
   4  -5  -2   23.77    5.49
   4  -4  -1  609.39   23.37
   4  -3   0  575.94   21.52
   4  -2   1 1957.24   37.89
   4  -1   2  718.30   21.82
   4   0   3  333.12   14.12
   4   1   4    9.56    1.89
   4   1   4    9.97    2.45
   4   2   5    9.65    2.45
   4   2   5    7.81    2.16
   4   3   6 1369.43   29.09
   4   3   6 1278.80   28.23
  -4  -4  -7  568.00   23.26
   4   4   7  573.70   19.37
   4   5   8   75.15    7.54
   4   5   8   67.98    6.95
   4   5   8   69.22    7.47
   4   6   9   17.33    4.00
   4   6   9   22.95    4.38
   4   7  10    6.69    2.75
   4   8  11  196.78   14.84
   4   9  12   17.80    4.56
   4  10  13   18.24    4.36
  -4 -10 -13   19.43    4.91
  -4 -11 -14    1.21    0.31
   4 -10  -8   40.53    7.47
   4 -10  -8   47.94    8.77
   4  -9  -7    5.62    2.94
   4  -9  -7    4.94    3.50
   4  -8  -6    4.88    3.03
   4  -8  -6    3.12    1.59
   4  -7  -5  649.28   30.60
   4  -7  -5  709.58   34.28
   4  -7  -5  588.54   37.80
   4  -7  -5  625.47   33.00
   4  -6  -4   18.44    4.88
   4  -6  -4   15.14    4.26
   4  -6  -4   12.35    4.81
   4  -6  -4   11.07    3.23
   4  -5  -3   37.42    8.19
   4  -5  -3   36.49    6.27
   4  -5  -3   36.27    6.33
   4  -5  -3   37.45    7.04
   4  -5  -3   40.58    7.20
   4  -4  -2    5.06    1.90
   4  -4  -2    4.45    2.27
   4  -3  -1    7.54    2.44
   4  -2   0 1548.53   33.86
   4  -1   1  165.41   10.49
   4   0   2 1471.52   29.81
   4   1   3  486.08   16.22
   4   2   4 1099.35   24.48
   4   3   5   97.66    7.33
   4   3   5   86.34    7.07
   4   4   6   56.69    5.89
   4   4   6   55.36    5.72
  -4  -4  -6   51.68    7.03
   4   5   7   78.42    7.42
   4   5   7   73.50    6.80
   4   5   7   75.24    7.41
  -4  -5  -7   84.00    9.27
   4   6   8  249.95   14.15
   4   6   8  243.19   14.21
   4   6   8  254.91   13.23
   4   7   9   25.09    4.75
   4   7   9   24.74    4.95
   4   8  10    1.67    1.98
   4   9  11    6.34    3.07
   4  10  12   26.38    5.10
   4  11  13    1.73    1.42
  -4 -11 -13   -1.84    2.22
   4 -10  -9    2.01    1.86
   4  -9  -8    4.62    3.35
   4  -9  -8    1.35    0.59
   4  -8  -7   -8.91    3.66
   4  -8  -7   -0.02    0.41
   4  -7  -6  391.84   24.17
   4  -7  -6  405.85   25.69
   4  -7  -6  396.28   31.88
   4  -7  -6  409.49   27.62
   4  -6  -5  202.47   16.44
   4  -6  -5  198.95   21.06
   4  -6  -5  213.32   17.79
   4  -6  -5  223.29   18.88
   4  -5  -4   45.90    7.22
   4  -5  -4   61.92    8.58
   4  -5  -4   45.14    7.69
   4  -5  -4   49.59    8.13
   4  -5  -4   50.47    9.82
   4  -4  -3   34.32    5.84
   4  -4  -3   39.43    8.06
   4  -4  -3   46.84    7.45
   4  -4  -3   37.83    6.52
   4  -3  -2  644.56   23.72
   4  -2  -1   29.35    4.79
   4  -1   0    7.90    2.35
   4   0   1  130.80    8.79
   4   1   2   44.42    4.86
   4   2   3   32.92    3.95
   4   3   4  207.51   10.20
   4   3   4  211.20   10.38
   4   4   5    5.10    1.80
   4   4   5    4.60    1.72
  -4  -5  -6  292.35   17.28
   4   5   6  304.70   13.14
   4   6   7    4.85    1.96
   4   6   7    7.01    2.26
   4   6   7    7.24    1.99
   4   7   8  426.51   19.00
   4   7   8  413.25   18.97
   4   8   9  412.55   19.71
   4   8   9  380.47   19.50
   4   9  10  146.71   12.88
   4  10  11   47.63    7.53
   4  11  12    9.43    3.16
   4  12  13    2.48    1.55
  -4 -12 -13    2.80    1.91
   4  -9  -9   22.91    5.87
   4  -8  -8    3.35    0.81
   4  -8  -8    9.58    4.49
   4  -7  -7   -2.31    3.40
   4  -7  -7    1.54    1.03
   4  -6  -6   35.50    7.52
   4  -6  -6   40.73    7.57
   4  -6  -6   43.44    7.88
   4  -6  -6   31.94    8.75
   4  -5  -5  281.02   18.67
   4  -5  -5  316.58   20.37
   4  -5  -5  245.32   22.60
   4  -5  -5  258.61   19.63
   4  -4  -4  330.67   19.22
   4  -4  -4  413.22   21.11
   4  -4  -4  358.90   21.13
   4  -4  -4  434.78   22.77
   4  -4  -4  378.39   25.48
   4  -3  -3   24.46    4.87
   4  -2  -2   90.38    8.60
   4  -1  -1  897.68   25.13
   4   0   0  912.69   23.84
   4   1   1 1767.23   31.18
   4   2   2  125.19    7.81
   4   3   3   84.64    6.20
   4   4   4 3029.89   37.52
  -4  -4  -4 2866.64   52.26
  -4  -5  -5  580.17   24.22
   4   5   5  620.95   17.37
   4   6   6  100.08    8.38
  -4  -6  -6  116.31   11.33
   4   6   6  117.17    8.08
   4   7   7    2.73    1.24
   4   7   7    2.17    1.05
  -4  -7  -7   -0.32    0.65
   4   8   8   46.62    6.51
   4   8   8   44.15    6.40
   4   9   9   35.37    6.06
   4   9   9   38.06    6.23
   4  10  10   15.97    4.66
   4  11  11    0.59    0.38
   4  12  12   17.21    3.97
   4  -9 -10   -1.75    1.30
   4  -8  -9   18.47    5.15
   4  -7  -8    8.93    3.10
   4  -7  -8   14.57    5.06
   4  -6  -7  171.74   15.71
   4  -6  -7  185.31   16.41
   4  -6  -7  175.00   17.99
   4  -5  -6   22.91    5.61
   4  -5  -6   24.78    5.52
   4  -5  -6   18.30    6.29
   4  -5  -6   14.25    4.20
   4  -4  -5  619.32   26.77
   4  -4  -5  675.44   28.34
   4  -4  -5  617.94   33.95
   4  -4  -5  600.89   28.90
   4  -3  -4  126.87   11.55
   4  -3  -4  150.68   13.08
   4  -3  -4  143.64   12.65
   4  -3  -4  162.25   13.11
   4  -3  -4  163.37   15.63
   4  -2  -3   62.21    7.39
   4  -1  -2 1349.28   32.09
   4   0  -1  645.71   20.50
   4   1   0  819.91   21.45
   4   2   1  249.03   11.15
   4   3   2 2138.11   31.01
   4   4   3  232.56    9.75
  -4  -4  -3  210.88   13.92
  -4  -5  -4   96.95    9.70
  -4  -6  -5   14.40    4.05
   4   7   6  256.13   13.89
  -4  -7  -6  285.64   18.75
   4   7   6  252.13   13.71
   4   8   7    1.02    0.97
   4   8   7   -0.75    0.90
   4   9   8    1.93    1.18
   4   9   8    3.30    2.50
   4  10   9  120.28   11.07
   4  10   9  110.05   11.05
   4  11  10  182.95   14.38
   4  12  11    6.11    2.40
   4  13  12   24.62    4.44
   4  -8 -10   28.54    6.09
   4  -7  -9    2.27    2.06
   4  -6  -8   -2.40    4.02
   4  -6  -8    2.34    2.75
   4  -5  -7 1169.47   40.06
   4  -5  -7 1230.36   46.43
   4  -4  -6  518.04   25.04
   4  -4  -6  524.91   24.98
   4  -4  -6  496.71   31.85
   4  -4  -6  509.04   27.73
   4  -3  -5   23.96    5.29
   4  -3  -5   33.85    5.87
   4  -3  -5   22.61    5.20
   4  -3  -5   29.09    5.55
   4  -3  -5   26.76    6.71
   4  -3  -5   24.07    5.44
   4  -2  -4   20.09    4.34
   4  -1  -3  120.29    9.98
   4   0  -2 1019.92   26.82
   4   1  -1 1395.75   28.82
   4   2   0 1029.60   22.90
   4   3   1  100.23    6.63
   4   4   2 1040.87   20.36
  -4  -4  -2  958.88   28.96
  -4  -5  -3  109.17   10.12
  -4  -6  -4 1354.45   38.31
   4   7   5   71.59    7.13
  -4  -7  -5   72.68    9.33
   4   8   6  462.00   19.46
   4   8   6  451.40   18.96
   4   9   7    0.57    0.95
   4   9   7    0.59    1.27
   4  10   8   56.42    7.66
   4  10   8   56.10    7.57
   4  11   9    8.55    3.22
   4  11   9    8.21    2.95
   4  12  10   20.34    4.64
   4  13  11    9.56    2.92
   4  -8 -11    4.93    2.97
   4  -7 -10  135.33   13.72
   4  -6  -9   12.80    4.17
   4  -5  -8   19.45    4.60
   4  -5  -8   32.57    7.78
   4  -4  -7 1064.92   37.00
   4  -4  -7 1107.27   43.09
   4  -3  -6  106.95   11.02
   4  -3  -6  111.67   12.47
   4  -2  -5    4.26    1.90
   4  -2  -5   42.41    7.01
   4  -2  -5   56.11    7.72
   4  -2  -5    4.10    1.62
   4  -2  -5    3.52    2.09
   4  -1  -4   67.95    7.80
   4   0  -3   43.91    5.75
   4   1  -2  822.81   23.06
   4   2  -1 1157.40   25.01
   4   3   0 1830.50   29.17
   4   4   1  829.30   18.08
  -4  -4  -1  842.71   26.27
  -4  -5  -2    3.54    1.82
  -4  -6  -3    6.11    2.53
  -4  -7  -4   12.93    4.16
   4   8   5    9.10    2.56
  -4  -8  -5    8.58    3.57
   4   9   6    5.03    2.06
   4   9   6    3.11    1.06
   4  10   7   43.64    6.49
   4  10   7   41.34    6.39
   4  11   8   55.55    7.50
   4  11   8   57.01    7.83
   4  12   9   60.80    7.71
   4  12   9   51.93    7.44
   4  13  10   49.33    6.92
   4  14  11    8.41    2.62
   4  -7 -11    5.18    3.03
   4  -6 -10   28.79    6.24
   4  -5  -9  140.18   13.89
   4  -4  -8  448.09   24.49
   4  -3  -7  302.48   19.08
   4  -3  -7  305.86   22.06
   4  -2  -6  114.27   11.68
   4  -2  -6  128.14   11.72
   4  -2  -6  148.95   14.10
   4  -1  -5  189.47   13.72
   4  -1  -5  203.93   14.51
   4   0  -4   92.66    8.89
   4   1  -3  414.75   17.21
   4   2  -2    5.57    1.74
   4   3  -1   80.44    6.29
   4   4   0  651.65   16.33
  -4  -4   0  703.44   23.02
  -4  -5  -1 1494.59   35.59
  -4  -6  -2  575.74   23.82
  -4  -7  -3  398.53   21.10
   4   8   4  176.58   11.37
  -4  -8  -4  194.09   16.01
   4   9   5   56.69    6.81
   4  10   6    9.21    2.86
   4  11   7   33.78    5.88
   4  11   7   35.64    6.05
   4  12   8   81.89    9.17
   4  12   8   88.51    9.83
   4  13   9   10.98    3.38
   4  13   9    9.53    2.85
   4  14  10   -0.07    0.86
   4  -6 -11   19.62    5.38
   4  -5 -10  359.96   22.33
   4  -4  -9   23.22    5.63
   4  -3  -8  257.68   18.16
   4  -2  -7   41.02    6.68
   4  -1  -6   20.56    4.86
   4  -1  -6   20.99    4.69
   4   0  -5  112.98   10.30
   4   1  -4   25.71    4.47
   4   2  -3   79.70    7.30
   4   3  -2   81.13    6.69
  -4  -3   2   79.97    7.18
   4   4  -1 3516.44   39.33
  -4  -4   1 3601.63   50.59
  -4  -5   0  205.15   12.71
  -4  -6  -1  608.03   23.77
  -4  -7  -2  779.20   28.66
  -4  -8  -3   77.34    9.76
   4   9   4  285.41   15.17
   4  10   5   33.81    5.50
   4  11   6    2.60    1.79
   4  12   7   96.34   10.17
   4  12   7   88.88    9.84
   4  13   8   36.43    5.88
   4  13   8   33.31    5.98
   4  14   9   61.65    6.93
   4  14   9   67.46    7.83
   4  -6 -12   48.49    7.44
   4  -6 -12   36.76    6.48
   4  -5 -11   32.15    6.53
   4  -4 -10  118.79   12.70
   4  -3  -9 1164.66   39.54
   4  -2  -8    1.61    1.64
   4  -1  -7  257.26   16.74
   4   0  -6   16.55    4.36
   4   0  -6   15.12    3.66
   4   0  -6   21.07    4.49
   4   1  -5   91.42    9.02
   4   2  -4    4.01    1.63
   4   3  -3  267.14   12.60
  -4  -3   3  265.37   12.68
   4   4  -2  810.96   20.00
  -4  -4   2  818.08   23.27
  -4  -5   1   53.47    6.35
  -4  -6   0  195.50   12.87
  -4  -7  -1  915.79   30.07
   4   8   2  709.81   24.35
  -4  -8  -2  636.14   27.23
   4   9   3   87.01    8.61
  -4  -9  -3   74.70   10.25
   4   9   3   74.55    7.57
   4  10   4   43.21    6.20
   4  11   5  209.47   14.46
   4  12   6   47.10    7.07
   4  13   7  110.92   10.75
   4  13   7  116.05   11.02
   4  14   8   -0.19    0.77
   4  14   8    1.14    0.70
   4  15   9    4.47    1.65
   4  -5 -12    0.80    0.97
   4  -5 -12    3.25    2.40
   4  -4 -11   72.15    9.76
   4  -3 -10   16.90    4.54
   4  -2  -9    9.06    3.34
   4  -1  -8   18.11    4.40
   4   0  -7   64.95    8.08
   4   0  -7   64.38    7.19
   4   1  -6  307.21   17.92
   4   1  -6  347.70   16.41
   4   1  -6  349.33   18.53
   4   2  -5   31.92    5.17
   4   2  -5   24.99    4.75
   4   2  -5   25.11    4.19
   4   3  -4   74.13    7.09
   4   4  -3   59.81    5.72
  -4  -4   3   65.66    6.28
  -4  -5   2  551.57   19.78
  -4  -6   1  361.34   16.96
  -4  -7   0    1.11    1.31
   4   8   1   60.19    7.34
  -4  -8  -1   62.45    8.21
   4   8   1   53.85    6.68
   4   9   2  393.59   19.17
  -4  -9  -2  400.33   22.70
   4   9   2  351.05   16.25
   4  10   3   31.22    5.52
   4  10   3   27.11    4.78
   4  11   4  196.76   13.83
   4  12   5   72.68    8.66
   4  13   6   83.19    9.45
   4  14   7   71.26    8.20
   4  14   7   65.90    8.06
   4  15   8   -0.77    0.92
   4  15   8   -0.01    0.77
   4  -4 -12  185.58   14.21
   4  -4 -12  193.89   14.68
   4  -4 -12  152.64   13.74
   4  -3 -11    3.08    1.99
   4  -3 -11    1.27    0.88
   4  -2 -10   89.44   10.58
   4  -1  -9  159.09   13.79
   4   0  -8   15.03    3.86
   4   0  -8   26.52    4.86
   4   1  -7    4.42    1.80
   4   1  -7    4.51    2.00
   4   2  -6    2.52    1.21
   4   2  -6    1.95    1.42
   4   2  -6    6.01    2.38
   4   3  -5   30.29    4.72
   4   3  -5   22.20    4.69
   4   3  -5   26.09    4.48
   4   3  -5   27.61    5.11
   4   4  -4   58.99    6.64
   4   4  -4   68.60    7.74
   4   5  -3  795.10   25.09
  -4  -6   2  215.32   12.76
   4   7  -1  172.11   11.32
   4   7  -1  177.13   13.00
   4   7  -1  168.03   11.65
  -4  -7   1  180.59   12.70
   4   8   0  593.52   24.05
  -4  -8   0  550.63   23.84
   4   8   0  533.75   21.47
   4   8   0  551.98   21.00
   4   9   1  192.84   13.93
   4   9   1  167.29   12.45
  -4  -9  -1  176.02   14.62
   4  10   2  482.27   22.55
   4  10   2  434.42   19.15
   4  11   3  196.04   14.44
   4  11   3  174.88   12.84
   4  12   4    1.79    1.46
   4  13   5    0.45    0.74
   4  14   6   23.35    4.83
   4  14   6   20.38    4.81
   4  15   7   87.57    8.60
   4  15   7   89.87    8.86
   4  -4 -13   31.62    5.33
   4  -3 -12  157.11   13.16
   4  -3 -12  138.95   12.78
   4  -2 -11   68.63    9.20
   4  -1 -10   -2.92    3.21
   4   0  -9  187.70   14.44
   4   0  -9  183.08   13.28
   4   1  -8   87.53    9.34
   4   1  -8   84.01    8.90
   4   2  -7  129.19   10.88
   4   2  -7  130.62   12.04
   4   3  -6  349.76   17.34
   4   3  -6  287.62   17.48
   4   3  -6  332.46   17.18
   4   3  -6  337.16   18.83
   4   4  -5   22.09    4.12
   4   4  -5   18.36    3.90
   4   4  -5   16.80    4.16
   4   4  -5   17.22    4.10
   4   5  -4  224.52   15.28
   4   5  -4  239.43   13.93
   4   5  -4  221.64   13.47
   4   5  -4  225.71   14.51
   4   6  -3   43.90    6.09
   4   6  -3   35.87    6.10
   4   6  -3   40.67    5.86
   4   7  -2   14.67    3.49
  -4  -7   2   10.42    2.95
   4   7  -2   13.94    3.76
   4   7  -2   12.69    3.39
   4   7  -2   24.72    4.37
   4   8  -1    2.61    1.69
  -4  -8   1    4.34    2.11
   4   8  -1    5.17    2.14
   4   8  -1    1.36    0.42
   4   9   0   54.52    7.44
   4   9   0   42.14    6.39
   4   9   0   51.71    6.66
   4  10   1   62.68    8.39
   4  10   1   57.46    7.58
   4  11   2  158.20   13.38
   4  11   2  142.78   11.52
   4  12   3   38.30    6.61
   4  12   3   29.47    5.52
   4  13   4    3.92    1.73
   4  14   5   11.12    3.40
   4  15   6    2.93    1.55
   4  15   6    1.76    0.64
   4  16   7   21.25    3.75
   4  -3 -13    2.46    1.77
   4  -2 -12  192.70   14.56
   4  -1 -11   25.72    5.51
   4   0 -10    7.36    3.29
   4   0 -10    5.92    2.38
   4   1  -9   11.44    3.59
   4   1  -9   11.50    3.27
   4   2  -8    5.81    2.14
   4   2  -8    4.98    2.25
   4   3  -7    0.79    0.94
   4   3  -7    0.86    0.54
   4   4  -6   -1.10    1.25
   4   4  -6   -0.78    0.93
   4   4  -6    0.10    0.57
   4   5  -5  277.24   14.91
   4   5  -5  245.63   16.49
   4   5  -5  266.02   15.45
   4   5  -5  269.10   15.41
   4   5  -5  260.17   17.01
   4   6  -4  312.98   16.97
   4   6  -4  261.58   16.95
   4   6  -4  280.29   15.68
   4   6  -4  247.60   15.05
   4   6  -4  273.72   15.99
   4   7  -3  185.96   13.01
   4   7  -3  168.80   11.54
   4   7  -3  179.28   14.06
   4   7  -3  164.71   12.45
   4   7  -3  178.44   12.48
   4   8  -2  257.85   15.65
   4   8  -2  276.71   17.48
   4   8  -2  260.56   15.97
  -4  -8   2  271.95   15.89
   4   8  -2  259.74   14.90
   4   9  -1  235.32   16.31
   4   9  -1  254.87   16.05
   4  10   0  114.47   11.60
   4  10   0   90.78    9.80
   4  11   1  301.16   19.07
   4  11   1  286.02   17.55
   4  12   2    9.83    2.97
   4  12   2   11.90    3.60
   4  13   3    3.77    1.17
   4  13   3    4.24    2.09
   4  14   4   12.96    3.54
   4  15   5   22.85    4.73
   4  15   5   25.13    4.72
   4  16   6   50.63    6.05
   4  16   6   48.25    5.89
   4  -2 -13   10.67    3.10
   4  -1 -12    0.35    1.14
   4   0 -11    5.36    2.91
   4   1 -10    0.30    0.64
   4   1 -10    2.29    1.25
   4   2  -9   -1.09    1.75
   4   2  -9    1.42    1.31
   4   3  -8    3.45    1.66
   4   3  -8    3.44    2.02
   4   3  -8    8.58    2.99
   4   4  -7    0.97    0.88
   4   4  -7    1.58    1.18
   4   4  -7    1.93    0.59
   4   5  -6   14.37    3.61
   4   5  -6   14.93    4.10
   4   5  -6   10.95    3.47
   4   6  -5  244.93   16.71
   4   6  -5  262.35   16.08
   4   6  -5  282.44   16.45
   4   6  -5  259.14   17.28
   4   7  -4   15.12    3.72
   4   7  -4   12.57    3.33
   4   7  -4   14.48    4.02
   4   7  -4   13.58    3.64
   4   8  -3   63.10    7.94
   4   8  -3   58.49    7.26
   4   8  -3   68.76    7.96
   4   8  -3   63.09    8.51
   4   8  -3   68.10    8.41
   4   9  -2   60.39    7.94
   4   9  -2   67.33    8.80
   4   9  -2   66.74    7.71
   4   9  -2   56.72    7.77
   4  10  -1    2.95    1.73
   4  10  -1    3.28    1.84
   4  11   0   69.53    9.29
   4  11   0   67.74    8.74
   4  12   1    6.91    2.87
   4  13   2   13.76    3.72
   4  13   2   17.30    4.23
   4  14   3   34.86    6.11
   4  14   3   27.29    5.26
   4  15   4   20.54    4.36
   4  16   5    3.85    1.62
   4  16   5    3.26    0.75
   4  -1 -13    8.76    2.97
   4   0 -12   52.71    7.50
   4   1 -11   17.70    4.60
   4   1 -11   13.93    3.47
   4   2 -10   14.83    4.03
   4   2 -10   13.25    4.24
   4   3  -9    4.62    2.41
   4   3  -9    2.09    1.39
   4   4  -8  137.35   11.78
   4   4  -8  148.50   12.99
   4   4  -8  138.98   13.11
   4   5  -7  283.30   16.47
   4   5  -7  275.62   17.48
   4   6  -6   58.28    7.24
   4   6  -6   59.36    8.26
   4   6  -6   60.71    7.95
   4   6  -6   68.08    8.37
   4   7  -5    0.86    1.31
   4   7  -5    2.36    1.69
   4   7  -5   -0.17    0.82
   4   7  -5   -0.55    0.84
   4   7  -5    1.53    1.20
   4   8  -4  263.40   16.91
   4   8  -4  269.06   15.90
   4   8  -4  256.47   16.86
   4   8  -4  257.38   17.62
   4   8  -4  269.43   16.27
   4   9  -3  111.22   11.10
   4   9  -3  115.66   11.96
   4   9  -3  114.12   11.41
   4   9  -3  118.85   10.61
   4  10  -2    0.30    1.01
   4  10  -2    0.52    1.34
   4  11  -1   -0.31    1.45
   4  11  -1   -1.46    1.38
   4  11  -1   -0.89    0.98
   4  12   0    2.35    1.89
   4  12   0    4.33    2.16
   4  13   1   -0.84    1.83
   4  14   2    7.51    2.71
   4  14   2    9.49    3.35
   4  15   3    1.06    1.13
   4  15   3    0.66    1.24
   4  16   4   40.33    5.95
   4  16   4   44.25    5.77
   4   0 -13   59.41    7.19
   4   1 -12   28.44    5.31
   4   1 -12   28.57    5.08
   4   2 -11   16.62    4.26
   4   2 -11   12.74    3.67
   4   3 -10   38.47    6.46
   4   3 -10   41.19    6.87
   4   4  -9   46.32    6.95
   4   4  -9   58.54    8.29
   4   4  -9   52.21    8.09
   4   5  -8    1.99    1.33
   4   5  -8    3.17    2.10
   4   5  -8    1.03    0.38
   4   6  -7   59.99    8.29
   4   6  -7   77.66    9.38
   4   6  -7   70.36    8.67
   4   7  -6  113.19   11.49
   4   7  -6   88.86   10.33
   4   7  -6  113.82   11.26
   4   7  -6  107.36   10.85
   4   8  -5   36.10    6.34
   4   8  -5   36.14    6.05
   4   8  -5   38.77    6.81
   4   8  -5   42.28    6.71
   4   8  -5   38.89    6.61
   4   9  -4  475.08   23.80
   4   9  -4  479.82   22.29
   4   9  -4  454.94   24.03
   4   9  -4  467.32   21.74
   4   9  -4  441.16   23.20
   4  10  -3   30.29    6.04
   4  10  -3   26.61    5.90
   4  11  -2    2.80    1.98
   4  11  -2    1.91    1.12
   4  12  -1   21.26    5.05
   4  12  -1   23.96    5.60
   4  13   0    0.25    0.57
   4  13   0   -1.80    1.74
   4  14   1   16.99    4.70
   4  15   2   47.36    7.15
   4  15   2   37.76    5.72
   4  16   3    0.33    0.87
   4  16   3   -0.74    1.35
   4   1 -13    3.83    1.92
   4   1 -13    1.87    1.01
   4   2 -12   48.10    6.83
   4   2 -12   44.54    6.48
   4   3 -11    0.53    0.98
   4   3 -11   -0.77    0.94
   4   4 -10   16.72    4.12
   4   4 -10   25.61    5.56
   4   5  -9  152.96   12.53
   4   5  -9  140.14   13.33
   4   5  -9  162.84   14.04
   4   6  -8    1.67    1.97
   4   6  -8    3.54    1.76
   4   7  -7    3.46    1.32
   4   7  -7    3.16    1.69
   4   7  -7    1.50    0.91
   4   7  -7    3.03    1.71
   4   8  -6   64.73    8.83
   4   8  -6   64.95    8.15
   4   8  -6   59.45    8.39
   4   8  -6   58.56    8.24
   4   8  -6   72.44    8.99
   4   9  -5   37.44    6.83
   4   9  -5   31.36    5.79
   4   9  -5   41.63    7.08
   4   9  -5   39.66    7.03
   4   9  -5   31.20    5.75
   4  10  -4    6.70    2.81
   4  10  -4    4.36    1.75
   4  10  -4    7.36    2.69
   4  10  -4    4.27    2.13
   4  11  -3   13.86    3.91
   4  11  -3   12.47    4.12
   4  12  -2    0.67    1.38
   4  12  -2    1.53    1.39
   4  12  -2    1.36    1.36
   4  13  -1    1.26    0.93
   4  13  -1    1.02    1.49
   4  14   0    6.89    2.85
   4  15   1   61.33    8.31
   4  16   2   10.75    2.97
   4   2 -13   14.60    3.39
   4   2 -13   15.62    3.49
   4   3 -12    6.60    2.22
   4   3 -12    5.93    2.32
   4   4 -11   33.83    5.73
   4   4 -11   35.56    6.21
   4   5 -10   28.63    5.73
   4   5 -10   33.61    6.39
   4   6  -9   75.02    9.41
   4   6  -9   67.10    8.91
   4   6  -9   59.94    8.79
   4   7  -8    4.95    1.84
   4   7  -8    6.67    2.62
   4   8  -7   70.98    9.32
   4   8  -7   81.35    9.18
   4   8  -7   56.90    8.15
   4   8  -7   72.13    9.03
   4   8  -7   67.67    8.97
   4   9  -6    2.32    1.57
   4   9  -6    1.14    0.61
   4   9  -6    1.94    1.52
   4   9  -6    0.29    0.58
   4   9  -6    0.84    0.39
   4  10  -5  118.10   12.28
   4  10  -5  113.50   11.90
   4  10  -5  114.42   12.34
   4  10  -5  130.75   11.64
   4  11  -4    8.09    2.92
   4  11  -4    5.56    2.86
   4  12  -3   19.48    4.67
   4  12  -3   21.38    5.05
   4  12  -3   18.04    4.52
   4  13  -2   57.65    8.66
   4  13  -2   58.70    8.48
   4  14  -1    7.04    2.83
   4  15   0  199.75   14.95
   4  16   1    7.13    2.48
   4   3 -13    5.80    2.11
   4   4 -12    3.49    1.63
   4   5 -11   23.99    4.96
   4   5 -11   21.41    4.79
   4   6 -10  112.80   11.18
   4   6 -10  102.87   11.14
   4   6 -10  109.02   11.24
   4   7  -9    7.45    2.50
   4   7  -9    7.57    2.98
   4   7  -9    9.41    3.62
   4   8  -8   35.81    6.44
   4   8  -8   42.15    7.01
   4   8  -8   41.97    6.75
   4   9  -7   22.05    5.16
   4   9  -7   25.73    5.32
   4   9  -7   21.85    5.08
   4   9  -7   22.10    4.80
   4   9  -7   24.83    5.51
   4  10  -6   29.76    6.28
   4  10  -6   21.84    5.05
   4  10  -6   23.91    5.03
   4  10  -6   25.52    5.87
   4  11  -5  107.94   11.45
   4  11  -5  124.61   12.76
   4  12  -4   90.46   10.56
   4  12  -4   94.15   11.01
   4  13  -3   61.56    8.79
   4  13  -3   61.40    8.80
   4  13  -3   70.04    8.64
   4  14  -2   35.86    6.50
   4  14  -2   39.47    6.62
   4  15  -1  137.74   12.30
   4  16   0   20.28    4.17
   4   4 -13    0.36    0.51
   4   4 -13    1.46    0.91
   4   5 -12    7.06    2.51
   4   5 -12    6.01    2.29
   4   6 -11  155.94   12.56
   4   6 -11  162.22   12.83
   4   6 -11  134.51   11.63
   4   7 -10    7.45    2.68
   4   7 -10    3.79    2.03
   4   7 -10    2.97    1.43
   4   8  -9   37.48    6.45
   4   8  -9   32.60    5.82
   4   8  -9   29.44    5.98
   4   9  -8  133.19   12.50
   4   9  -8  153.31   12.31
   4   9  -8  147.10   12.60
   4   9  -8  138.01   12.42
   4  10  -7  170.22   14.40
   4  10  -7  170.32   13.55
   4  10  -7  198.60   15.39
   4  10  -7  200.83   14.28
   4  11  -6   37.91    6.72
   4  11  -6   49.77    7.87
   4  12  -5    0.37    1.11
   4  12  -5    1.82    1.34
   4  12  -5    1.76    1.26
   4  13  -4  166.58   13.80
   4  13  -4  197.34   15.33
   4  13  -4  195.35   14.59
   4  14  -3   10.49    3.78
   4  14  -3    7.89    2.97
   4  15  -2   98.08   10.04
   4  16  -1   36.37    5.51
   4   6 -12    1.34    0.87
   4   6 -12    1.39    1.34
   4   7 -11   14.07    3.55
   4   7 -11   14.96    3.75
   4   7 -11   12.81    3.44
   4   8 -10    6.00    2.38
   4   8 -10   11.91    3.43
   4   8 -10    7.99    2.93
   4   9  -9   -1.31    1.84
   4   9  -9    0.02    0.54
   4   9  -9    0.58    0.54
   4  10  -8    2.47    2.13
   4  10  -8    2.61    1.91
   4  10  -8   -0.35    0.84
   4  10  -8    1.33    1.59
   4  11  -7  155.27   12.33
   4  11  -7  191.03   14.74
   4  11  -7  185.38   15.08
   4  12  -6   37.80    6.25
   4  12  -6   51.73    7.79
   4  12  -6   48.08    7.45
   4  13  -5   15.93    4.03
   4  13  -5   14.93    3.99
   4  13  -5   15.17    3.94
   4  14  -4   47.25    6.86
   4  14  -4   52.23    7.29
   4  15  -3   83.29    8.61
   4   7 -12   24.21    4.18
   4   7 -12   24.91    4.23
   4   8 -11   23.16    4.35
   4   8 -11   31.76    5.05
   4   8 -11   28.26    4.89
   4   9 -10    3.12    1.43
   4   9 -10    4.90    1.97
   4   9 -10    4.49    1.85
   4  10  -9    3.07    1.62
   4  10  -9    2.58    1.43
   4  10  -9    1.22    1.17
   4  10  -9    2.62    1.51
   4  11  -8    9.51    3.02
   4  11  -8    9.64    3.27
   4  12  -7  163.84   11.76
   4  12  -7  203.58   14.35
   4  12  -7  212.95   14.92
   4  13  -6    8.41    2.87
   4  13  -6   10.96    3.31
   4  13  -6   14.43    3.68
   4  14  -5   16.72    3.86
   4  14  -5   20.45    4.26
   4  14  -5   15.99    3.61
   4  10 -10   10.07    3.05
   4  11  -9    1.37    1.05
   4  11  -9    3.55    2.16
   4  12  -8   24.39    4.66
   4  12  -8   26.33    4.69
   4  13  -7    5.23    1.69
   4  13  -7    4.11    1.87
  -5   8 -11  137.66    9.77
  -5   7 -12    1.76    0.93
  -5  10  -8    4.35    1.66
  -5   9  -9   23.85    4.22
  -5   9  -9   22.73    4.00
  -5   8 -10    8.79    2.58
  -5   8 -10   11.33    3.01
  -5   7 -11    7.90    2.70
  -5   6 -12    6.16    2.15
  -5   5 -13    5.13    2.14
   5  -5  13    1.64    1.07
   5  -4  14    3.44    1.61
  -5  11  -6    2.96    1.59
  -5  10  -7   13.76    3.18
  -5  10  -7   15.60    3.30
  -5   9  -8    0.84    0.48
  -5   9  -8    1.47    1.10
  -5   8  -9    5.40    2.15
  -5   7 -10   -0.73    0.76
   5  -6  11   40.76    7.52
   5  -5  12    0.08    1.29
  -5   4 -13    3.92    1.51
   5  -4  13    5.48    2.48
   5  -3  14   74.66    8.73
   5  -2  15   22.07    4.36
  -5  11  -5   21.12    4.18
  -5  10  -6   73.34    8.01
  -5   9  -7    7.92    2.81
  -5   8  -8    5.38    2.04
  -5   7  -9   12.98    3.38
  -5   6 -10   91.22    8.87
   5  -6  10   74.13   10.81
   5  -5  11   46.87    8.24
   5  -4  12   25.00    5.64
   5  -3  13   45.16    7.30
   5  -2  14   40.05    6.57
   5  -1  15   44.04    6.36
  -5  11  -4   42.53    6.03
  -5  10  -5   17.38    3.96
  -5   9  -6    5.99    2.60
  -5   8  -7   -1.14    1.36
  -5   7  -8    3.51    2.13
  -5   6  -9   64.88    7.90
   5  -6   9   63.84   10.60
  -5   5 -10   76.44    8.36
   5  -5  10   72.06   10.86
   5  -4  11   38.07    7.55
   5  -3  12   60.07    9.03
   5  -2  13   15.34    4.43
   5  -1  14    9.95    3.28
  -5   0 -15    4.88    1.94
   5   0  15    4.30    1.53
   5 -12   2    1.46    1.57
  -5  11  -3    0.75    0.55
  -5  10  -4   -0.75    0.56
  -5   9  -5    9.68    3.23
  -5   8  -6   74.27    8.79
  -5   7  -7    4.13    1.86
  -5   6  -8  147.29   12.37
   5  -6   8  123.99   14.95
  -5   5  -9  119.94   10.95
   5  -5   9  115.14   14.18
  -5   4 -10   64.90    7.90
   5  -4  10   67.93   10.54
   5  -3  11   33.51    7.05
   5  -2  12   61.99    9.21
   5  -1  13   76.53    9.74
   5   0  14    4.72    2.30
  -5  -1 -15   12.54    3.55
   5   1  15   11.44    3.45
  -5  -2 -16    7.39    2.43
   5 -12   1   23.84    6.38
   5 -12   1   15.69    4.36
  -5  11  -2  128.23   10.57
   5 -11   2  105.57   14.89
  -5  10  -3   55.90    7.44
  -5   9  -4   14.43    3.88
  -5   8  -5   13.11    3.67
  -5   7  -6    5.89    2.39
  -5   6  -7    9.50    2.80
   5  -6   7   11.91    4.66
  -5   5  -8    7.88    2.27
   5  -5   8    3.62    2.54
  -5   4  -9   21.95    4.86
   5  -4   9   19.50    5.71
  -5   3 -10  171.37   13.12
   5  -3  10  154.37   15.47
   5  -2  11   34.08    7.16
   5  -1  12   28.83    6.18
   5   0  13    7.83    3.00
   5   1  14    4.67    2.28
   5   2  15   22.18    4.63
  -5  -3 -16    2.51    1.86
   5 -12   0    3.21    2.38
   5 -12   0    4.07    2.23
  -5  11  -1    2.07    1.37
   5 -11   1    3.92    2.98
  -5  10  -2   73.16    8.47
   5  -9   3   78.00   10.53
  -5   9  -3   77.90    9.08
  -5   8  -4   80.25    9.46
  -5   7  -5  152.99   13.18
  -5   6  -6    0.88    0.46
   5  -6   6    1.43    1.76
  -5   5  -7  295.98   18.24
   5  -5   7  291.75   22.67
  -5   4  -8    3.88    2.14
   5  -4   8    3.28    2.81
  -5   3  -9   43.98    7.05
   5  -3   9   47.92    8.52
  -5   2 -10   17.70    4.19
   5  -2  10   12.56    4.53
   5  -1  11    3.45    2.89
   5   0  12    1.76    1.42
   5   1  13  144.54   13.32
   5   2  14    7.07    2.85
   5   3  15   21.42    4.62
   5 -12  -1    2.29    2.03
   5 -12  -1    0.99    1.16
   5 -11   0   21.30    6.78
   5 -11   0   27.73    6.39
  -5  10  -1   67.03    8.00
  -5   9  -2   15.51    4.09
   5  -9   2   13.03    4.99
   5  -8   3   91.46   11.66
  -5   8  -3  104.32   10.78
   5  -7   4  222.26   17.24
  -5   7  -4  209.19   15.41
  -5   6  -5  184.22   14.55
   5  -6   5  164.80   17.22
  -5   5  -6   58.27    7.99
   5  -5   6   58.13   10.11
  -5   4  -7  521.36   23.92
   5  -4   7  510.82   29.29
  -5   3  -8   17.79    5.18
   5  -3   8   43.39    8.25
  -5   2  -9  228.74   15.54
   5  -2   9  200.43   17.13
   5  -1  10  348.30   22.16
  -5   1 -10  363.92   20.17
   5   0  11    2.42    1.32
   5   1  12   47.27    7.58
  -5  -2 -13   48.73    7.60
   5   2  13   44.15    7.27
  -5  -3 -14  109.39   11.09
   5   3  14  100.13   10.56
  -5  -4 -15    5.10    1.96
   5   4  15    4.71    1.66
   5 -12  -2    3.07    2.32
   5 -12  -2    5.88    2.33
   5 -11  -1    0.32    0.88
   5 -11  -1   -0.42    2.37
   5 -10   0    6.12    3.96
   5  -9   1   35.46    7.88
  -5   9  -1   36.85    6.11
   5  -8   2  357.06   24.15
  -5   8  -2  332.76   19.25
   5  -7   3  388.40   24.04
  -5   7  -3  438.61   22.37
   5  -6   4   60.38    8.86
  -5   6  -4   67.62    8.88
  -5   5  -5    2.69    1.59
   5  -5   5    0.42    1.12
  -5   4  -6   27.35    5.87
   5  -4   6   26.85    6.64
  -5   3  -7  148.86   12.78
   5  -3   7  163.59   15.85
   5  -2   8  383.11   23.09
   5  -2   8  323.30   21.68
   5  -1   9   95.67   11.35
   5   0  10   -0.07    1.70
  -5  -1 -11  984.50   34.83
   5   1  11  977.03   35.23
  -5  -2 -12  259.28   17.91
   5   2  12  238.86   17.11
  -5  -3 -13   28.12    5.81
   5   3  13   20.59    4.54
  -5  -4 -14   15.15    4.16
   5   4  14   14.81    3.73
  -5  -5 -15  343.77   18.79
   5   5  15  284.89   16.81
   5 -11  -2   31.90    8.06
   5 -11  -2   40.18    7.67
   5 -10  -1   90.30   14.55
   5 -10  -1   98.99   12.77
   5  -9   0   39.50    8.30
   5  -8   1  815.92   37.70
  -5   8  -1  790.64   28.89
   5  -7   2   85.54   11.52
  -5   7  -2   84.74    9.81
   5  -6   3 1275.05   43.34
  -5   6  -3 1437.67   40.30
   5  -5   4 1031.92   36.89
  -5   5  -4 1063.12   34.63
   5  -5   4  965.41   38.93
   5  -4   5   68.91    8.83
  -5   4  -5   54.16    8.01
   5  -4   5   59.36    9.45
   5  -3   6   98.85   12.41
   5  -3   6   86.64   11.16
   5  -2   7  691.34   31.70
   5  -2   7  644.61   29.99
   5  -1   8   44.63    7.34
   5  -1   8   34.41    6.68
   5   0   9    3.09    1.37
  -5  -1 -10   92.78   10.34
   5   1  10  102.44   11.21
  -5  -2 -11   72.11    9.42
   5   2  11   76.19    9.45
  -5  -3 -12  133.20   13.08
   5   3  12  119.61   12.00
  -5  -4 -13  262.56   18.31
   5   4  13  256.15   17.39
  -5  -5 -14   46.53    7.36
   5   5  14   43.13    6.85
  -5  -6 -15   38.68    6.27
   5   6  15   33.00    5.57
   5 -11  -3  395.39   24.30
   5 -11  -3  333.54   26.21
   5 -10  -2   -3.88    2.97
   5 -10  -2   -1.49    2.50
   5  -9  -1   80.07   12.19
   5  -9  -1   88.83   14.81
   5  -8   0  432.25   28.33
  -5   7  -1   95.68   10.13
   5  -7   1   86.45   12.07
   5  -6   2  334.40   22.86
  -5   6  -2  357.20   19.98
  -5   5  -3   11.52    3.52
   5  -5   3   12.19    4.41
   5  -5   3   13.48    4.34
  -5   4  -4    9.18    3.27
   5  -4   4   11.99    3.81
   5  -4   4   12.28    4.16
   5  -3   5  369.50   20.87
   5  -3   5  354.30   24.41
   5  -3   5  344.19   21.88
   5  -2   6  465.22   22.83
   5  -2   6  438.99   25.90
   5  -2   6  430.35   23.91
   5  -1   7    7.29    2.93
   5  -1   7    8.67    3.36
   5  -1   7   11.86    3.94
   5   0   8  504.52   25.31
   5   0   8  461.80   23.75
   5   1   9  156.05   13.60
  -5  -2 -10  123.53   12.13
   5   2  10  105.10   11.04
  -5  -3 -11   68.00    9.26
   5   3  11   54.35    7.88
  -5  -4 -12  114.09   12.23
   5   4  12  107.29   11.37
   5   5  13    1.17    0.89
  -5  -5 -13   -1.06    2.09
   5   6  14   18.01    4.54
  -5  -6 -14   16.27    4.27
   5   7  15   18.88    4.21
  -5  -7 -15   25.86    5.14
   5 -11  -4   74.49   10.38
   5 -10  -3   50.52   10.88
   5 -10  -3   69.09   10.67
   5  -9  -2  142.82   16.57
   5  -9  -2  144.03   18.86
   5  -8  -1   19.72    6.02
   5  -8  -1   16.99    6.96
  -5   7   0   80.56    8.91
   5  -7   0   61.48   10.45
   5  -6   1   45.03    8.46
  -5   6  -1   38.62    6.46
   5  -5   2   63.76    9.70
  -5   5  -2   68.74    8.89
   5  -4   3  378.56   21.23
  -5   4  -3  349.18   20.13
   5  -4   3  405.51   23.28
   5  -3   4   60.18    8.29
   5  -3   4   38.96    6.98
   5  -2   5  726.55   27.78
   5  -2   5  747.88   33.94
   5  -2   5  643.14   28.70
   5  -1   6   63.25    8.06
   5  -1   6   57.88    9.06
   5  -1   6   60.09    8.52
   5   0   7   87.45    9.44
   5   0   7   85.90   10.55
   5   0   7   67.60    8.76
   5   1   8   62.31    8.05
   5   1   8   54.52    7.78
   5   1   8   59.48    8.39
   5   2   9   12.94    3.75
  -5  -3 -10  156.85   13.83
   5   3  10  155.54   13.11
   5   4  11   -1.43    2.14
  -5  -4 -11    0.74    1.06
   5   5  12    0.00    1.80
  -5  -5 -12    3.61    1.45
  -5  -6 -13  281.72   19.35
   5   6  13  237.50   16.43
   5   7  14    0.94    0.73
  -5  -7 -14    2.59    1.85
  -5  -8 -15  119.27   10.67
   5   8  15   98.12    9.22
   5 -11  -5   58.14    8.89
   5 -10  -4    2.94    2.56
   5 -10  -4    2.92    2.16
   5  -9  -3  241.45   24.06
   5  -9  -3  225.34   20.70
   5  -9  -3  291.63   22.50
   5  -8  -2   76.78   11.25
   5  -8  -2   76.76   12.27
   5  -8  -2   93.70   15.34
   5  -7  -1 1413.92   50.16
   5  -6   0  480.38   28.33
  -5   6   0  504.94   22.55
  -5   5  -1   28.32    5.44
   5  -5   1   24.40    6.12
   5  -4   2    0.73    0.88
  -5   4  -2    1.67    1.06
   5  -3   3  914.58   31.68
   5  -3   3  879.70   39.62
   5  -2   4  845.02   29.43
   5  -2   4  884.98   37.14
   5  -1   5   51.88    7.02
   5  -1   5   55.18    8.80
   5  -1   5   47.54    7.31
   5   0   6  261.61   15.79
   5   0   6  274.13   18.63
   5   0   6  217.98   15.63
   5   1   7   68.97    8.19
   5   1   7   79.12    9.50
   5   1   7   58.24    7.83
   5   2   8  127.39   11.27
   5   2   8  132.16   12.14
   5   2   8  103.28   10.34
   5   3   9   16.08    4.05
   5   4  10   -0.62    0.96
  -5  -4 -10    1.74    1.48
   5   5  11    2.98    0.94
  -5  -5 -11    1.99    1.45
   5   6  12    7.07    2.54
  -5  -6 -12   10.92    3.98
   5   7  13    7.10    2.87
  -5  -7 -13    6.60    2.88
  -5  -8 -14   82.21    9.84
   5   8  14   74.88    8.62
   5 -10  -5   17.84    5.11
   5  -9  -4  115.34   16.54
   5  -9  -4  141.34   15.52
   5  -8  -3  341.56   25.35
   5  -8  -3  352.25   29.24
   5  -8  -3  368.16   25.53
   5  -7  -2    5.51    2.99
   5  -7  -2    9.83    5.39
   5  -7  -2    0.93    2.20
   5  -6  -1    7.88    3.96
   5  -5   0  316.62   22.35
  -5   5   0  290.90   17.00
   5  -4   1   59.85    8.25
  -5   4  -1   56.35    7.76
   5  -4   1   72.26   10.33
   5  -3   2   -0.26    1.24
   5  -3   2    1.39    1.37
   5  -2   3   33.45    5.65
   5  -2   3   34.12    5.25
   5  -2   3   31.70    7.01
   5  -1   4  314.68   16.95
   5  -1   4  337.34   21.73
   5   0   5   69.92    7.76
   5   0   5   80.27    9.97
   5   1   6  151.93   11.57
   5   1   6  164.14   13.67
   5   1   6  138.24   11.77
   5   2   7  329.07   17.36
   5   2   7  333.47   19.24
   5   2   7  301.00   17.00
   5   3   8  161.85   12.44
   5   3   8  171.56   13.60
   5   3   8  149.59   11.99
   5   4   9   35.54    5.91
   5   4   9   37.21    6.66
  -5  -5 -10   65.61    9.22
   5   5  10   61.21    8.08
  -5  -6 -11   42.38    7.67
   5   6  11   39.56    6.73
   5   7  12   20.82    4.67
  -5  -7 -12   22.61    5.72
   5   8  13   12.37    3.75
  -5  -8 -13   10.28    3.80
   5   9  14   18.34    4.10
  -5  -9 -14   21.24    4.86
   5 -10  -6  106.46   12.55
   5  -9  -5    5.35    2.77
   5  -8  -4    8.71    2.79
   5  -8  -4    8.20    4.28
   5  -8  -4   17.25    5.38
   5  -8  -4   11.60    4.23
   5  -7  -3  110.20   12.28
   5  -7  -3  113.11   14.35
   5  -7  -3  108.43   15.77
   5  -7  -3  107.87   13.43
   5  -6  -2  118.74   12.27
   5  -6  -2  120.27   16.05
   5  -6  -2  125.37   14.73
   5  -6  -2  125.50   13.67
   5  -5  -1  118.61   11.86
   5  -5  -1  111.60   13.25
   5  -4   0   83.19    9.68
   5  -4   0  106.60   12.41
  -5   4   0   94.97    9.56
   5  -3   1   57.91    7.89
   5  -3   1   65.06    7.98
   5  -3   1   59.29   10.37
   5  -2   2  874.76   29.14
   5  -2   2  932.07   27.88
   5  -1   3  134.95   11.02
   5  -1   3  169.33   15.65
   5   0   4    0.38    0.22
   5   1   5    8.89    3.06
   5   1   5    4.74    1.83
   5   2   6  134.77   10.58
   5   2   6  134.54   11.03
   5   2   6  148.81   12.72
   5   2   6  121.04   10.48
   5   3   7  104.75    9.42
  -5  -3  -7   91.81   10.39
   5   3   7  112.63   10.27
   5   3   7   74.02    9.86
   5   3   7  102.51    9.50
   5   4   8  651.82   24.37
   5   4   8  590.58   24.82
   5   4   8  617.56   23.46
   5   4   8  589.49   23.46
   5   5   9   21.70    4.64
  -5  -5  -9   20.12    4.70
   5   6  10   24.71    5.13
  -5  -6 -10   27.38    6.23
   5   7  11    6.79    2.84
  -5  -7 -11    6.26    1.68
  -5  -8 -12  200.32   16.98
   5   8  12  190.74   14.52
  -5  -9 -13   30.41    6.29
   5   9  13   26.95    5.27
   5  10  14   15.08    3.60
  -5 -10 -14   17.94    4.12
   5 -10  -7    7.49    3.31
   5  -9  -6   34.26    6.56
   5  -9  -6   49.93    9.06
   5  -8  -5    8.99    3.25
   5  -8  -5   13.06    4.58
   5  -8  -5   10.04    3.82
   5  -8  -5   10.85    4.31
   5  -7  -4  182.29   16.06
   5  -7  -4  207.27   19.01
   5  -7  -4  206.56   22.18
   5  -7  -4  226.21   19.67
   5  -6  -3  438.87   24.32
   5  -6  -3  466.33   27.98
   5  -6  -3  461.11   31.77
   5  -6  -3  453.09   26.75
   5  -5  -2   37.30    6.70
   5  -5  -2   36.16    7.54
   5  -5  -2   36.90    8.51
   5  -5  -2   26.44    5.93
   5  -4  -1   69.47   10.01
   5  -4  -1   57.20    8.20
   5  -3   0  136.38   11.95
   5  -3   0  162.17   13.20
   5  -3   0  170.40   15.19
   5  -3   0  152.57   15.96
   5  -2   1   75.44    8.42
   5  -2   1   76.28    8.21
   5  -2   1   72.62   10.84
   5  -1   2  120.26   10.34
   5   0   3   11.72    2.97
   5   1   4   96.14    8.57
   5   2   5    8.10    2.39
   5   2   5   10.63    3.14
   5   3   6  364.70   16.72
   5   3   6  337.18   17.20
   5   3   6  345.92   17.19
   5   4   7  100.85    8.98
   5   4   7   99.33    9.16
  -5  -4  -7   81.43   10.09
   5   4   7  114.80   10.38
   5   4   7  110.18    9.56
   5   4   7  104.18    9.40
   5   5   8  106.58    9.77
   5   5   8   94.78   10.05
   5   5   8  120.96   10.08
   5   5   8  129.83   10.80
   5   6   9    3.38    1.76
   5   6   9    5.65    2.36
   5   7  10   17.30    4.26
   5   7  10   22.66    4.75
   5   8  11    0.10    1.26
   5   9  12    2.60    1.78
  -5  -9 -12    1.77    0.71
   5  10  13    1.21    1.07
  -5 -10 -13    2.45    1.75
   5  -9  -7   17.62    4.84
   5  -9  -7   20.19    5.58
   5  -8  -6   32.80    6.38
   5  -8  -6   55.06    9.72
   5  -7  -5   57.48    9.07
   5  -7  -5   68.52   10.75
   5  -7  -5   61.73   12.04
   5  -7  -5   65.52   10.70
   5  -6  -4  627.18   29.86
   5  -6  -4  697.04   39.75
   5  -6  -4  677.89   33.22
   5  -6  -4  717.15   34.39
   5  -5  -3   11.52    3.47
   5  -5  -3   20.62    5.87
   5  -5  -3   15.12    5.28
   5  -5  -3   15.16    4.09
   5  -4  -2  254.42   19.30
   5  -4  -2  246.50   17.60
   5  -3  -1  105.21   10.73
   5  -3  -1  133.65   12.42
   5  -3  -1  139.14   13.63
   5  -3  -1  116.05   11.05
   5  -2   0   19.39    4.35
   5  -2   0   28.96    5.20
   5  -2   0   22.72    5.68
   5  -1   1   11.07    2.82
   5   0   2  417.68   18.31
   5   1   3  139.46   10.20
   5   2   4   -0.12    0.66
   5   3   5  186.61   11.33
   5   3   5  181.94   11.98
   5   3   5  162.02   11.94
   5   4   6   17.39    3.66
   5   4   6   23.48    3.96
   5   4   6   20.51    4.11
  -5  -4  -6   29.19    5.90
   5   4   6   18.69    4.28
  -5  -5  -7    1.04    1.90
   5   5   7    0.69    2.21
   5   6   8  205.75   13.78
   5   6   8  207.76   13.82
   5   7   9    2.63    1.53
   5   7   9   13.01    3.48
   5   8  10    6.22    2.48
   5   8  10    5.28    2.22
   5   9  11  363.86   20.07
  -5 -10 -12   77.21   10.40
   5  10  12   81.50    9.17
   5  11  13   -0.98    1.03
  -5 -11 -13    0.34    1.53
   5  -8  -7    2.13    1.66
   5  -8  -7    2.65    2.16
   5  -7  -6   17.59    4.69
   5  -7  -6   20.89    5.75
   5  -7  -6   31.13    7.51
   5  -6  -5   17.67    4.99
   5  -6  -5   14.50    4.95
   5  -6  -5   10.17    4.17
   5  -6  -5    9.99    3.97
   5  -5  -4  522.79   26.76
   5  -5  -4  570.70   29.44
   5  -5  -4  569.09   34.50
   5  -5  -4  587.12   30.14
   5  -4  -3   75.52    9.66
   5  -4  -3  103.86   12.13
   5  -4  -3   85.49   12.42
   5  -4  -3   97.74   11.49
   5  -3  -2  243.15   17.30
   5  -3  -2  273.51   19.21
   5  -3  -2  278.75   20.97
   5  -3  -2  254.41   17.10
   5  -2  -1   26.19    5.08
   5  -2  -1   31.73    5.61
   5  -1   0   11.24    3.11
   5  -1   0   13.37    3.33
   5   0   1    5.98    2.33
   5   1   2  474.54   18.63
   5   2   3  425.07   17.27
   5   3   4    1.10    0.61
   5   4   5  381.32   15.60
   5   4   5  356.41   16.66
  -5  -4  -5  334.49   20.56
   5   4   5  359.74   17.30
   5   5   6   84.46    8.34
  -5  -5  -6   86.02   10.61
   5   5   6   97.54    9.51
   5   5   6   87.64    8.32
   5   6   7 1149.88   31.64
  -5  -6  -7 1250.78   41.18
   5   6   7 1173.21   31.47
   5   7   8  149.12   11.90
   5   7   8  133.11   11.20
   5   8   9    3.64    1.80
   5   8   9    1.51    1.04
   5   9  10   87.52    9.39
   5   9  10   68.77    8.73
   5  10  11   18.76    4.60
   5  11  12   20.01    4.41
  -5 -11 -12   21.57    5.21
   5  -8  -8    1.51    1.51
   5  -7  -7   -1.03    3.15
   5  -7  -7    1.92    2.22
   5  -6  -6   12.58    4.28
   5  -6  -6    7.75    3.13
   5  -6  -6    7.44    3.36
   5  -5  -5    5.95    3.10
   5  -5  -5    7.50    4.43
   5  -5  -5    3.09    1.47
   5  -4  -4  720.18   30.77
   5  -4  -4  789.38   33.39
   5  -4  -4  838.18   40.22
   5  -4  -4  794.18   34.03
   5  -3  -3    5.66    2.80
   5  -3  -3    3.14    2.26
   5  -3  -3    8.14    3.72
   5  -3  -3    3.62    1.96
   5  -2  -2  148.00   13.64
   5  -2  -2  107.15   10.72
   5  -2  -2  137.90   12.51
   5  -2  -2  149.66   14.31
   5  -2  -2  129.12   11.62
   5  -1  -1 1889.38   42.08
   5  -1  -1 2339.67   47.87
   5   0   0  466.17   19.65
   5   1   1   42.89    5.66
   5   2   2  279.16   14.00
   5   3   3  442.63   16.81
   5   4   4   57.51    5.87
  -5  -4  -4   51.36    8.09
   5   5   5  186.77   12.10
  -5  -5  -5  184.11   15.47
   5   5   5  197.48   12.88
   5   6   6  171.23   11.94
  -5  -6  -6  188.99   16.22
   5   6   6  193.92   13.41
   5   6   6  172.60   11.66
   5   7   7  112.70   10.17
   5   7   7  109.62   10.94
   5   7   7  115.35   10.01
   5   8   8    6.59    2.39
   5   8   8    6.97    2.42
   5   9   9  125.05   11.27
   5   9   9  113.63   11.00
   5  10  10   10.82    3.59
   5  10  10    4.53    2.63
   5  11  11    3.59    2.06
   5  12  12   13.61    3.35
  -5 -12 -12   17.69    4.53
   5  -8  -9   46.25    7.26
   5  -7  -8   91.47   10.95
   5  -6  -7   50.92    8.31
   5  -6  -7   84.11   12.29
   5  -5  -6   13.74    4.44
   5  -5  -6   15.11    4.61
   5  -5  -6    9.59    3.35
   5  -4  -5    1.80    2.02
   5  -4  -5    1.11    1.55
   5  -4  -5    0.00    1.56
   5  -4  -5    3.31    1.92
   5  -3  -4   20.73    5.37
   5  -3  -4   19.58    4.71
   5  -3  -4   28.79    6.08
   5  -3  -4   30.47    7.16
   5  -3  -4   22.89    5.36
   5  -2  -3    2.32    1.88
   5  -2  -3    7.53    2.96
   5  -2  -3    8.27    3.19
   5  -2  -3    7.32    2.63
   5  -1  -2   42.50    6.41
   5  -1  -2   52.67    7.50
   5  -1  -2   55.67    7.31
   5   0  -1   10.66    2.96
   5   0  -1   13.48    3.26
   5   1   0    5.28    1.91
   5   2   1  209.75   12.07
   5   3   2  349.85   14.71
   5   4   3   47.75    5.16
  -5  -4  -3   42.68    7.21
   5   5   4  140.87   10.28
  -5  -5  -4  141.01   13.41
   5   6   5  115.64    9.65
  -5  -6  -5  127.52   13.28
   5   6   5  115.97    9.24
   5   7   6   22.15    4.41
   5   7   6   26.30    4.88
   5   7   6   26.16    4.59
   5   8   7  110.79   10.30
   5   8   7  116.39   10.23
   5   9   8  299.23   17.44
   5   9   8  302.88   17.34
   5  10   9    5.84    2.99
   5  10   9    1.24    1.88
   5  11  10  817.43   28.13
   5  11  10  764.40   28.11
   5  12  11   55.84    7.25
   5  -7  -9   -1.69    1.42
   5  -6  -8   29.88    6.18
   5  -5  -7   24.02    5.87
   5  -5  -7   15.16    5.28
   5  -4  -6   12.01    4.01
   5  -4  -6   12.49    4.03
   5  -3  -5  248.63   17.64
   5  -3  -5  226.47   17.78
   5  -3  -5  288.95   19.13
   5  -3  -5  297.86   23.54
   5  -3  -5  295.59   20.95
   5  -2  -4   23.25    5.45
   5  -2  -4   23.64    5.41
   5  -2  -4   18.93    5.00
   5  -1  -3   25.56    5.02
   5  -1  -3   18.68    4.67
   5  -1  -3   23.45    4.91
   5  -1  -3   20.02    4.51
   5  -1  -3   25.28    5.12
   5   0  -2  287.48   16.35
   5   0  -2  285.75   16.05
   5   1  -1  714.23   23.89
   5   2   0  177.82   11.25
   5   3   1  743.98   21.51
   5   4   2   17.96    3.02
  -5  -4  -2    5.27    2.35
  -5  -5  -3   11.49    3.68
   5   6   4 1111.42   29.60
  -5  -6  -4 1085.62   38.57
   5   7   5   29.09    4.99
  -5  -7  -5   24.08    5.84
   5   7   5   24.35    4.33
   5   8   6   57.04    7.22
   5   8   6   57.98    6.92
   5   9   7  114.63   10.68
   5   9   7  108.84   10.05
   5  10   8  384.93   20.06
   5  10   8  383.26   19.87
   5  11   9   25.78    5.34
   5  11   9   25.81    5.21
   5  12  10   51.44    6.77
   5  12  10   48.14    6.86
   5  13  11   32.63    5.16
   5  -7 -10    4.00    2.50
   5  -6  -9    5.45    1.99
   5  -5  -8    2.88    1.90
   5  -4  -7   92.08   11.36
   5  -3  -6  436.26   23.98
   5  -3  -6  511.73   28.83
   5  -2  -5    2.17    1.46
   5  -2  -5   -0.13    2.12
   5  -2  -5   -1.58    2.04
   5  -1  -4    5.86    2.67
   5  -1  -4    6.02    2.48
   5  -1  -4    9.06    3.32
   5  -1  -4    6.27    2.41
   5   0  -3  112.41   10.65
   5   0  -3  112.74   11.24
   5   0  -3  106.98   10.14
   5   1  -2   16.79    3.92
   5   1  -2   23.01    4.83
   5   1  -2   23.31    4.45
   5   2  -1  142.70   10.30
   5   3   0  683.80   20.85
  -5  -4  -1  177.22   13.99
  -5  -5  -2  606.05   26.87
   5   6   3  233.26   13.39
  -5  -6  -3  251.51   18.19
   5   7   4  108.09    9.53
  -5  -7  -4  119.50   13.11
   5   8   5   38.11    5.74
   5   8   5   26.85    4.52
   5   9   6    2.93    1.29
   5   9   6    5.03    2.25
   5  10   7    1.38    1.52
   5  10   7    6.46    2.69
   5  11   8   89.17    9.67
   5  11   8   85.26    9.40
   5  12   9  130.82   11.40
   5  12   9  122.99   11.08
   5  13  10   32.71    5.02
   5  13  10   28.03    4.98
   5  -6 -10   14.35    4.07
   5  -5  -9   -2.26    2.91
   5  -4  -8  115.81   12.66
   5  -3  -7  316.50   20.62
   5  -2  -6  130.50   12.67
   5  -2  -6  106.83   11.80
   5  -1  -5   19.36    4.90
   5   0  -4    1.66    1.01
   5   0  -4   -0.23    1.19
   5   1  -3   55.51    7.23
   5   1  -3   68.27    8.83
   5   1  -3   55.63    7.27
   5   2  -2  123.28    9.93
   5   2  -2  138.71   11.85
   5   2  -2  125.49   10.48
   5   3  -1 1066.87   26.96
  -5  -4   0  687.51   26.71
  -5  -5  -1  751.80   28.93
   5   6   2   54.96    6.44
   5   6   2   64.05    7.21
  -5  -6  -2   73.62    9.53
   5   6   2   65.70    7.17
   5   7   3   24.50    4.40
   5   7   3   25.59    4.56
  -5  -7  -3   23.51    5.63
   5   8   4  108.67    9.71
   5   8   4  106.54    8.94
   5   9   5    0.10    0.60
   5   9   5   -1.08    1.87
   5  10   6   67.13    8.35
   5  10   6   66.81    7.86
   5  11   7    2.01    1.23
   5  11   7    2.48    1.26
   5  12   8   19.32    4.46
   5  12   8   17.22    4.21
   5  13   9    1.97    1.32
   5  13   9    2.99    1.58
   5  14  10    1.48    0.90
   5  -5 -10   -0.39    0.88
   5  -4  -9   -8.89    3.38
   5  -3  -8   76.28   10.18
   5  -2  -7    0.81    1.82
   5  -1  -6  324.06   19.87
   5  -1  -6  265.99   18.65
   5   0  -5   15.37    4.27
   5   0  -5   22.60    4.92
   5   1  -4   82.97    9.16
   5   1  -4   81.63    9.12
   5   2  -3   11.28    3.09
   5   2  -3   10.59    3.19
   5   2  -3   14.33    3.06
   5   2  -3   13.46    3.75
   5   3  -2    5.62    2.02
   5   3  -2    6.31    2.17
  -5  -3   2    5.93    1.91
   5   4  -1   10.06    2.84
  -5  -4   1    7.24    2.46
   5   4  -1   17.10    3.48
   5   4  -1    8.85    2.73
   5   5   0  236.54   14.75
  -5  -5   0  231.62   15.39
   5   5   0  226.95   13.46
   5   6   1    2.59    1.42
  -5  -6  -1    3.47    1.99
   5   6   1    3.45    1.92
   5   7   2   33.97    5.22
   5   7   2   36.60    5.52
  -5  -7  -2   36.52    6.88
   5   7   2   42.59    5.87
   5   8   3    2.84    1.53
   5   8   3    2.90    1.74
   5   9   4   78.08    8.49
   5   9   4   72.30    7.60
   5  10   5   13.83    3.51
   5  10   5   14.80    3.81
   5  11   6   38.88    6.44
   5  11   6   42.33    6.47
   5  12   7   44.01    6.71
   5  12   7   50.10    7.04
   5  13   8   70.01    8.32
   5  13   8   64.83    7.84
   5  14   9   49.65    6.15
   5  14   9   44.90    5.95
   5  -5 -11   14.20    4.02
   5  -4 -10   -2.27    2.91
   5  -3  -9   -0.73    2.78
   5  -2  -8   65.40    9.37
   5  -1  -7   21.73    4.89
   5   0  -6    1.62    1.04
   5   0  -6   11.74    3.64
   5   1  -5  180.81   15.00
   5   1  -5  198.76   12.29
   5   1  -5  203.87   15.18
   5   2  -4    9.67    2.98
   5   2  -4    8.42    2.79
   5   2  -4   14.71    3.34
   5   2  -4    9.73    3.17
   5   3  -3  481.85   19.45
   5   3  -3  508.81   23.78
   5   3  -3  466.28   18.80
   5   3  -3  486.65   21.53
   5   4  -2  757.45   28.23
   5   4  -2  692.96   22.88
   5   4  -2  716.34   25.45
  -5  -4   2  698.23   24.64
   5   5  -1  367.37   19.23
  -5  -5   1  350.19   18.38
   5   5  -1  343.43   16.22
   5   5  -1  339.86   17.07
   5   6   0  621.53   24.44
  -5  -6   0  570.49   25.02
   5   6   0  572.12   22.03
  -5  -7  -1    4.90    1.69
   5   7   1    3.89    1.43
   5   7   1    5.06    2.11
   5   7   1    5.79    2.39
   5   8   2  313.39   16.46
   5   8   2  340.31   17.81
   5   9   3    2.11    1.69
   5   9   3   -0.78    1.36
   5  10   4   40.48    6.34
   5  10   4   37.81    5.66
   5  11   5   -0.36    0.70
   5  11   5    3.49    1.68
   5  12   6    7.10    2.56
   5  12   6    9.25    2.95
   5  13   7    1.79    0.48
   5  13   7    0.98    1.23
   5  14   8   -0.51    1.51
   5  14   8    0.26    0.75
   5  -4 -11  172.17   12.74
   5  -4 -11  140.39   12.50
   5  -3 -10   21.05    4.66
   5  -2  -9   64.99    9.04
   5  -1  -8  294.95   19.25
   5   0  -7  291.97   18.68
   5   1  -6  509.38   23.73
   5   1  -6  470.37   19.94
   5   1  -6  513.98   24.65
   5   2  -5  120.77   12.33
   5   2  -5  132.93   10.51
   5   2  -5  152.52   13.05
   5   3  -4    0.16    0.90
   5   3  -4   -0.61    0.20
   5   4  -3    4.60    2.59
   5   4  -3    3.54    1.80
   5   4  -3    5.18    2.33
   5   5  -2  151.90   12.89
  -5  -5   2  131.71   10.89
   5   5  -2  142.60   10.75
   5   5  -2  150.65   11.90
   5   6  -1  461.41   22.01
  -5  -6   1  436.49   20.97
   5   6  -1  433.06   19.92
   5   7   0   20.71    3.90
   5   7   0   25.91    5.20
  -5  -7   0   23.20    5.01
   5   7   0   23.78    4.68
   5   8   1   36.93    5.61
   5   8   1   41.60    6.32
   5   8   1   36.34    5.67
   5   9   2  313.56   17.73
   5  10   3   16.07    4.28
   5  11   4  237.49   15.83
   5  11   4  234.42   14.60
   5  12   5   18.10    4.15
   5  12   5   15.91    4.10
   5  13   6   48.80    7.06
   5  13   6   44.73    6.46
   5  14   7   12.46    3.20
   5  14   7   14.67    3.68
   5  15   8   -0.14    0.83
   5  15   8    1.59    0.94
   5  -3 -11   85.48    9.23
   5  -3 -11   73.17    8.92
   5  -2 -10    4.49    2.19
   5  -1  -9   63.54    8.85
   5   0  -8  439.72   23.11
   5   1  -7   76.07    9.38
   5   1  -7   87.81    8.89
   5   2  -6   98.57   10.99
   5   2  -6   84.48    8.73
   5   2  -6   97.65   10.76
   5   3  -5  512.76   25.30
   5   3  -5  556.69   22.15
   5   3  -5  565.37   25.41
   5   4  -4  175.10   14.46
   5   4  -4  169.43   12.15
   5   4  -4  158.08   13.06
   5   5  -3  253.20   17.11
   5   5  -3  234.50   14.30
   5   5  -3  232.29   15.38
   5   6  -2  247.43   14.23
   5   6  -2  241.40   16.30
  -5  -6   2  225.14   14.36
   5   6  -2  229.74   14.99
   5   6  -2  218.38   13.78
   5   7  -1   21.05    4.05
   5   7  -1   24.06    5.10
   5   7  -1   23.54    4.79
   5   8   0  301.90   15.85
   5   8   0  326.36   18.84
   5   8   0  352.78   18.37
   5   9   1  114.22   11.12
   5   9   1  113.27   10.21
   5  10   2  250.86   16.51
   5  11   3   14.05    3.83
   5  12   4   22.11    4.51
   5  12   4   27.23    5.54
   5  13   5   14.75    3.74
   5  13   5   16.63    4.26
   5  14   6    1.77    1.37
   5  14   6    2.59    1.75
   5  15   7    3.04    1.57
   5  15   7    2.60    1.30
   5  -3 -12   20.81    4.10
   5  -2 -11   78.33    8.77
   5  -2 -11   74.16    8.86
   5  -1 -10  118.23   11.48
   5  -1 -10  114.91   11.44
   5   0  -9  890.60   31.63
   5   0  -9  825.34   31.06
   5   1  -8   24.56    5.29
   5   1  -8   21.54    4.43
   5   1  -8   21.14    4.82
   5   2  -7    6.75    2.79
   5   2  -7    6.62    2.76
   5   2  -7    9.59    3.01
   5   2  -7    7.64    3.32
   5   3  -6  259.19   15.66
   5   3  -6  224.69   14.80
   5   3  -6  232.34   16.78
   5   4  -5  160.72   14.15
   5   4  -5  172.76   12.80
   5   4  -5  188.27   14.77
   5   5  -4   11.05    3.72
   5   5  -4   12.00    3.25
   5   5  -4   13.44    3.78
   5   6  -3  413.89   22.22
   5   6  -3  407.63   19.58
   5   6  -3  413.69   20.91
   5   7  -2   44.36    6.34
   5   7  -2   44.40    7.06
   5   7  -2   38.99    6.00
   5   7  -2   44.03    6.60
   5   7  -2   41.73    6.50
   5   8  -1   11.49    3.38
   5   8  -1   19.80    4.78
   5   8  -1   15.05    3.76
   5   9   0   13.61    3.75
   5   9   0   14.33    3.73
   5  10   1    9.40    3.25
   5  11   2    0.24    0.70
   5  12   3   13.87    3.78
   5  13   4   40.58    6.47
   5  13   4   39.81    6.07
   5  14   5    2.22    1.86
   5  14   5   -1.75    1.96
   5  15   6   29.02    4.88
   5  15   6   26.27    4.55
   5  -2 -12   28.68    4.83
   5  -1 -11   13.88    3.78
   5   0 -10    4.40    2.78
   5   1  -9  435.39   21.83
   5   2  -8   27.58    5.45
   5   2  -8   24.29    4.94
   5   3  -7    5.80    2.34
   5   3  -7    1.69    1.13
   5   3  -7    2.89    1.21
   5   3  -7    2.37    1.52
   5   4  -6   52.87    8.18
   5   4  -6   53.84    8.17
   5   4  -6   53.78    7.35
   5   5  -5   13.21    4.10
   5   5  -5   18.86    4.41
   5   5  -5   15.64    4.33
   5   6  -4    0.91    1.55
   5   6  -4    1.28    2.04
   5   6  -4    3.25    2.14
   5   6  -4    1.12    1.60
   5   6  -4    0.39    0.66
   5   7  -3  342.89   18.54
   5   7  -3  306.76   19.44
   5   7  -3  309.84   17.60
   5   7  -3  318.78   18.18
   5   7  -3  318.20   18.89
   5   8  -2   22.13    4.56
   5   8  -2   20.36    4.87
   5   8  -2   22.99    4.98
   5   8  -2   15.50    3.56
   5   9  -1   83.52   10.07
   5   9  -1   86.42    9.82
   5   9  -1   78.17    9.05
   5  10   0    0.80    0.84
   5  10   0    4.75    1.97
   5  11   1    4.74    2.24
   5  12   2   10.81    3.48
   5  13   3    5.08    2.46
   5  13   3    4.20    1.83
   5  14   4   -1.21    1.01
   5  14   4   -0.02    1.30
   5  15   5    1.12    0.92
   5  15   5    2.42    1.61
   5  -1 -12   33.18    5.25
   5   0 -11    1.61    1.28
   5   1 -10   20.97    4.62
   5   2  -9   41.17    6.62
   5   2  -9   39.33    6.29
   5   3  -8   14.99    3.78
   5   3  -8    8.57    2.89
   5   3  -8   13.66    4.24
   5   4  -7   17.54    4.05
   5   4  -7   15.20    4.09
   5   4  -7    9.83    3.33
   5   4  -7   15.44    4.25
   5   5  -6    6.17    2.85
   5   5  -6    8.89    2.76
   5   5  -6   11.44    3.58
   5   6  -5  259.31   17.07
   5   6  -5  217.04   16.57
   5   6  -5  239.53   16.02
   5   6  -5  228.79   16.90
   5   7  -4  306.51   18.22
   5   7  -4  273.25   18.68
   5   7  -4  292.93   17.56
   5   7  -4  257.72   16.83
   5   7  -4  269.06   17.93
   5   8  -3    8.33    2.89
   5   8  -3    7.68    3.26
   5   8  -3    8.46    3.11
   5   8  -3    4.14    2.14
   5   8  -3   -0.37    2.54
   5   9  -2   50.22    7.30
   5   9  -2   58.96    8.57
   5   9  -2   56.28    8.16
   5   9  -2   56.69    7.95
   5  10  -1   10.63    3.34
   5  10  -1    8.65    2.95
   5  11   0   -1.46    1.91
   5  12   1  119.48   12.07
   5  13   2   12.68    3.76
   5  14   3    7.55    2.58
   5  14   3    8.22    3.19
   5  15   4   60.16    7.37
   5  16   5    0.72    0.55
   5   0 -12   10.14    2.73
   5   1 -11  182.92   13.07
   5   2 -10    2.72    1.88
   5   2 -10    3.79    1.93
   5   3  -9    0.28    1.38
   5   3  -9    0.61    0.59
   5   4  -8   24.17    4.81
   5   4  -8   31.08    5.86
   5   4  -8   28.11    5.90
   5   5  -7   37.59    5.94
   5   5  -7   29.15    5.97
   5   5  -7   34.46    6.19
   5   5  -7   36.34    7.00
   5   6  -6   32.26    6.23
   5   6  -6   32.27    6.20
   5   6  -6   32.60    5.95
   5   6  -6   27.24    5.98
   5   7  -5    2.13    1.42
   5   7  -5    1.46    1.26
   5   7  -5    2.62    1.94
   5   7  -5    3.81    2.26
   5   7  -5    0.54    2.30
   5   8  -4   37.77    6.59
   5   8  -4   31.66    6.35
   5   8  -4   36.32    6.31
   5   8  -4   31.17    6.00
   5   8  -4   26.52    5.31
   5   9  -3   17.67    4.49
   5   9  -3   14.44    4.58
   5   9  -3   16.27    4.66
   5   9  -3   13.20    3.92
   5  10  -2    3.99    2.38
   5  10  -2    2.49    1.61
   5  10  -2    3.74    1.64
   5  11  -1    0.89    0.39
   5  11  -1   -2.22    1.56
   5  12   0   13.50    3.87
   5  13   1   24.41    5.50
   5  14   2    8.42    2.77
   5  14   2    5.92    2.54
   5  15   3   -0.50    1.31
   5  16   4    1.80    0.68
   5   1 -12    2.21    1.56
   5   2 -11   -0.10    0.40
   5   2 -11    2.20    1.08
   5   3 -10   16.26    3.80
   5   3 -10   17.64    4.18
   5   4  -9   35.37    5.70
   5   4  -9   33.45    6.13
   5   4  -9   30.42    6.05
   5   5  -8   65.03    7.78
   5   5  -8   68.70    8.85
   5   5  -8   61.47    8.86
   5   6  -7   54.03    8.02
   5   6  -7   36.09    6.66
   5   6  -7   49.30    7.64
   5   6  -7   45.03    7.64
   5   7  -6   -0.53    1.31
   5   7  -6   -0.55    0.55
   5   7  -6    0.13    0.45
   5   7  -6   -0.61    0.56
   5   7  -6   -1.07    1.47
   5   8  -5    0.10    0.48
   5   8  -5    0.41    0.87
   5   8  -5   -0.27    1.00
   5   8  -5   -0.91    1.48
   5   9  -4  143.15   13.16
   5   9  -4  148.34   12.67
   5   9  -4  136.63   13.30
   5   9  -4  140.93   13.14
   5   9  -4  142.14   13.59
   5  10  -3   32.82    6.67
   5  10  -3   31.83    6.28
   5  10  -3   28.17    5.94
   5  11  -2    2.90    2.17
   5  11  -2    3.69    2.53
   5  11  -2    2.79    1.61
   5  12  -1   23.44    5.43
   5  13   0    1.65    1.85
   5  14   1    3.09    1.17
   5  14   1    6.64    2.69
   5  15   2    6.41    2.23
   5  15   2   11.98    3.31
   5  16   3    6.97    2.25
   5   2 -12    0.74    0.54
   5   3 -11   12.15    3.08
   5   3 -11   12.64    3.21
   5   4 -10   17.99    3.96
   5   4 -10   22.79    4.79
   5   5  -9   20.81    4.92
   5   5  -9   18.89    4.58
   5   5  -9   16.77    4.52
   5   6  -8    9.24    2.96
   5   6  -8    9.54    3.12
   5   6  -8    7.35    3.16
   5   7  -7   -0.13    1.75
   5   7  -7    1.11    1.06
   5   7  -7    0.08    1.04
   5   7  -7    1.75    1.72
   5   8  -6   32.27    6.17
   5   8  -6   28.21    5.78
   5   8  -6   39.01    6.86
   5   8  -6   35.49    6.47
   5   8  -6   34.98    6.73
   5   9  -5   77.23    9.69
   5   9  -5   62.28    9.03
   5   9  -5   69.55    8.85
   5   9  -5   73.46    9.41
   5   9  -5   65.52    9.11
   5  10  -4  291.79   19.55
   5  10  -4  299.41   19.35
   5  10  -4  316.12   20.07
   5  11  -3   40.60    7.25
   5  11  -3   44.29    7.52
   5  11  -3   47.31    7.56
   5  12  -2    8.34    3.00
   5  12  -2    8.67    3.10
   5  13  -1    2.30    1.89
   5  14   0    5.61    2.02
   5  14   0    3.25    1.57
   5  15   1   12.00    3.06
   5  15   1   13.85    3.76
   5   3 -12   25.28    4.55
   5   3 -12   17.24    3.45
   5   4 -11   23.73    4.76
   5   4 -11   20.59    4.18
   5   5 -10    5.93    2.79
   5   5 -10    2.72    1.58
   5   6  -9   -0.71    1.26
   5   6  -9    0.04    1.07
   5   6  -9    2.29    1.11
   5   7  -8    1.12    1.18
   5   7  -8   -1.07    1.10
   5   7  -8    1.31    1.62
   5   8  -7    5.03    2.62
   5   8  -7    1.31    1.31
   5   8  -7    3.26    1.76
   5   8  -7    3.14    1.96
   5   9  -6   18.84    4.86
   5   9  -6   14.66    3.95
   5   9  -6   13.91    4.10
   5   9  -6   15.48    4.08
   5   9  -6   14.65    4.26
   5  10  -5   17.29    4.52
   5  10  -5   13.61    4.11
   5  10  -5   14.94    4.38
   5  10  -5   15.47    4.55
   5  11  -4   99.97   11.18
   5  11  -4  120.87   12.21
   5  11  -4  126.35   12.46
   5  12  -3    0.28    1.00
   5  12  -3    2.28    1.46
   5  13  -2   -0.28    0.85
   5  14  -1   -1.53    1.32
   5  15   0    0.57    0.30
   5  15   0   -0.15    1.10
   5   4 -12    0.29    0.68
   5   5 -11   16.08    3.75
   5   5 -11   14.75    3.57
   5   6 -10   21.24    4.56
   5   6 -10   17.81    4.16
   5   6 -10   16.49    4.01
   5   7  -9   10.84    3.33
   5   7  -9    9.25    3.04
   5   7  -9    5.34    2.36
   5   8  -8    5.70    2.32
   5   8  -8    5.36    2.12
   5   8  -8    8.13    2.92
   5   9  -7   98.90   10.62
   5   9  -7   75.80    8.96
   5   9  -7   90.20    9.84
   5   9  -7   97.68   11.07
   5  10  -6    6.98    3.14
   5  10  -6    5.72    2.62
   5  10  -6    6.16    2.68
   5  10  -6   12.75    3.91
   5  11  -5   56.79    8.07
   5  11  -5   60.81    8.48
   5  11  -5   61.06    8.68
   5  12  -4   15.57    4.32
   5  12  -4   21.97    4.91
   5  13  -3   -0.22    1.17
   5  13  -3   -0.98    1.05
   5  14  -2    9.65    2.94
   5  15  -1   24.14    4.69
   5   6 -11    2.35    1.58
   5   6 -11    2.86    1.38
   5   7 -10   21.96    4.38
   5   7 -10   18.63    4.04
   5   7 -10   17.83    4.18
   5   8  -9   17.32    3.99
   5   8  -9   15.44    3.81
   5   8  -9   12.92    3.71
   5   9  -8    0.98    1.12
   5   9  -8    1.12    0.47
   5   9  -8    1.36    1.48
   5  10  -7   16.34    4.05
   5  10  -7   13.45    3.57
   5  10  -7   13.72    4.10
   5  11  -6    1.62    1.25
   5  11  -6    1.67    1.59
   5  12  -5    5.85    2.69
   5  12  -5    6.35    2.63
   5  13  -4   16.20    4.30
   5  13  -4   13.79    3.62
   5  14  -3    8.05    2.76
   5  15  -2    3.46    1.52
   5   7 -11    0.95    0.50
   5   7 -11   -1.13    1.13
   5   8 -10   -0.02    0.52
   5   8 -10    1.69    1.21
   5   8 -10    2.01    1.50
   5   9  -9    3.81    1.73
   5   9  -9    5.16    2.13
   5   9  -9    6.95    2.56
   5  10  -8    1.55    0.89
   5  11  -7    8.72    2.64
   5  11  -7    9.41    3.09
   5  12  -6    2.40    1.56
   5  12  -6    0.82    1.04
   5  13  -5   -0.20    0.44
   5  13  -5    0.66    0.94
   5  14  -4    7.37    2.48
   5  10  -9    0.83    0.85
   5  11  -8   18.46    3.90
   5  12  -7   20.58    4.18
  -6   8  -9    5.30    1.70
  -6   8  -9    8.01    2.33
  -6   7 -10   13.34    3.00
  -6   6 -11   13.88    2.91
  -6   5 -12   -0.13    1.15
   6  -4  13   -0.48    0.69
  -6   9  -7    5.00    2.04
  -6   8  -8    0.22    0.28
  -6   7  -9   27.95    4.71
  -6   6 -10    2.40    1.49
  -6   5 -11   60.37    6.64
   6  -5  11   48.51    7.66
   6  -4  12    0.41    1.03
   6  -3  13    9.27    3.03
   6  -2  14   16.57    3.84
  -6  10  -5   77.22    7.61
  -6   9  -6    8.60    2.63
  -6   8  -7   87.95    8.81
  -6   7  -8   97.26    9.34
  -6   6  -9   80.48    8.48
  -6   5 -10   78.24    8.28
   6  -5  10   63.59    9.61
  -6   4 -11    6.67    2.30
   6  -4  11    7.98    3.18
   6  -3  12   33.99    6.28
   6  -2  13   78.19    9.23
   6  -1  14   24.77    4.88
  -6  10  -4   81.05    8.00
  -6   9  -5   72.91    8.01
  -6   8  -6   27.74    5.14
  -6   7  -7    7.07    2.72
  -6   6  -8    1.47    0.68
  -6   5  -9   45.63    6.66
   6  -5   9   44.87    8.59
  -6   4 -10   42.52    6.48
   6  -4  10   33.63    7.14
  -6   3 -11   17.31    3.86
   6  -3  11   17.60    4.98
   6  -2  12   10.02    3.31
   6  -1  13   34.83    6.38
   6   0  14   53.63    7.35
   6   1  15   21.06    4.32
  -6  10  -3   28.09    4.71
   6 -10   3   34.75    8.17
  -6   9  -4    1.50    1.50
  -6   8  -5   36.46    6.06
  -6   7  -6    6.21    2.12
  -6   6  -7    3.54    2.11
  -6   5  -8   -0.17    0.56
   6  -5   8    0.26    1.00
  -6   4  -9  161.01   13.09
   6  -4   9  135.27   14.81
  -6   3 -10    0.36    0.38
   6  -3  10    1.40    1.17
  -6   2 -11   35.27    5.76
   6  -2  11   41.01    7.55
   6  -1  12   72.41    9.65
   6   0  13   62.85    8.57
   6   1  14   59.75    7.84
   6   2  15    0.96    0.73
  -6  10  -2    1.28    1.00
   6 -10   2    0.39    0.44
   6  -9   3  189.56   15.25
  -6   9  -3  203.38   13.82
  -6   8  -4    0.48    0.74
  -6   7  -5   56.76    7.94
  -6   6  -6   -0.87    1.28
  -6   5  -7   33.79    6.33
   6  -5   7   31.28    7.17
  -6   4  -8   51.55    7.83
   6  -4   8   45.70    8.80
  -6   3  -9  528.95   24.74
   6  -3   9  506.77   28.58
  -6   2 -10  124.24   11.84
   6  -2  10  118.09   13.19
  -6   1 -11   51.82    7.42
   6  -1  11   43.66    7.71
   6   0  12    1.68    0.97
   6   1  13  128.61   12.31
   6   2  14   19.17    4.48
   6   3  15   26.05    4.86
   6 -10   1   73.02   11.73
   6 -10   1   80.82    9.63
   6  -9   2  152.20   14.53
  -6   9  -2  169.52   12.44
   6  -8   3   39.06    7.48
  -6   8  -3   34.42    5.98
  -6   7  -4   26.19    5.36
   6  -7   4   19.06    4.75
  -6   6  -5    0.82    1.17
  -6   5  -6    7.55    2.87
   6  -5   6    4.91    2.52
  -6   4  -7   36.04    6.47
   6  -4   7   26.80    6.24
  -6   3  -8  552.83   25.46
   6  -3   8  471.76   27.69
  -6   2  -9  279.49   17.97
   6  -2   9  251.22   19.57
  -6   1 -10   25.27    5.41
   6  -1  10   20.22    5.31
   6   0  11   10.64    3.99
   6   1  12  196.31   15.84
   6   2  13   46.67    7.33
   6   3  14    9.92    3.25
   6   4  15    5.59    2.24
   6 -10   0    9.24    3.93
   6 -10   0    3.87    2.17
   6  -9   1    7.83    3.64
   6  -9   1    5.39    2.71
   6  -9   1    3.70    1.78
   6  -8   2   50.85    8.85
  -6   8  -2   66.29    8.27
   6  -7   3  131.67   13.94
  -6   7  -3  159.63   13.53
   6  -6   4  319.63   21.28
  -6   6  -4  323.49   19.91
   6  -5   5  176.18   15.20
  -6   5  -5  165.15   14.50
   6  -5   5  152.14   15.89
  -6   4  -6   67.64    9.46
   6  -4   6   53.13    9.20
  -6   3  -7  108.78   11.63
   6  -3   7   96.58   12.34
  -6   2  -8   47.19    8.00
   6  -2   8   62.73    9.82
   6  -1   9  270.53   19.88
   6  -1   9  266.82   19.77
   6   0  10   19.07    5.29
   6   1  11   15.55    4.14
   6   2  12    6.29    2.07
   6   3  13   79.32    9.42
   6   4  14    3.40    1.49
   6   5  15    0.21    0.60
   6 -10  -1   11.45    4.12
   6 -10  -1   12.70    4.07
   6  -9   0  233.16   19.35
   6  -9   0  247.06   23.09
   6  -9   0  276.25   19.53
   6  -8   1   84.78   11.86
  -6   8  -1   98.78    9.71
   6  -8   1  104.97   12.19
   6  -7   2   75.82   10.96
  -6   7  -2   79.33    9.44
  -6   6  -3   19.09    4.86
   6  -6   3   17.08    5.06
   6  -5   4  322.83   21.67
  -6   5  -4  353.14   21.18
   6  -4   5  386.73   22.70
  -6   4  -5  407.34   22.78
   6  -4   5  349.02   23.66
   6  -3   6  347.85   20.79
  -6   3  -6  344.61   21.54
   6  -3   6  313.57   22.17
   6  -2   7  647.59   33.11
   6  -2   7  770.07   34.34
   6  -1   8  149.74   15.66
   6  -1   8  168.80   15.85
   6   0   9    6.66    3.13
   6   0   9    8.06    3.58
   6   1  10  629.76   29.11
   6   2  11  249.79   17.72
   6   3  12  115.06   11.72
   6   4  13   44.62    7.07
   6   5  14    2.81    1.70
   6   6  15   -0.84    0.93
   6 -10  -2   -0.97    1.37
   6 -10  -2    1.50    1.37
   6  -9  -1   11.47    4.17
   6  -9  -1   15.56    5.49
   6  -9  -1    8.79    3.26
   6  -8   0    1.90    0.91
   6  -8   0    0.23    2.76
   6  -7   1  177.33   17.41
  -6   7  -1  205.95   14.74
   6  -6   2  154.20   15.96
  -6   6  -2  171.59   14.35
   6  -5   3  350.82   23.52
  -6   5  -3  407.68   22.71
   6  -4   4  434.67   25.27
  -6   4  -4  466.72   24.63
   6  -3   5  205.74   16.62
   6  -3   5  208.14   17.61
   6  -2   6  828.33   38.44
   6  -2   6  964.56   37.73
   6  -1   7  578.61   30.74
   6  -1   7  660.38   30.72
   6   0   8   10.67    3.76
   6   0   8   14.50    4.49
   6   1   9   80.41   10.84
   6   1   9   85.74   10.54
   6   2  10   58.58    8.51
   6   3  11   28.37    5.57
   6   4  12   76.63    9.41
   6   5  13    1.33    1.07
   6   6  14   13.00    3.49
   6  -9  -2    1.74    1.28
   6  -9  -2    4.66    3.40
   6  -9  -2    1.36    1.94
   6  -8  -1  302.52   23.05
   6  -8  -1  378.35   29.07
   6  -8  -1  381.16   23.91
   6  -7   0  646.94   38.53
   6  -7   0  622.42   30.16
   6  -6   1  298.33   22.73
  -6   6  -1  329.71   19.34
  -6   5  -2   24.31    5.62
   6  -5   2   20.23    6.00
   6  -4   3  553.05   29.44
  -6   4  -3  632.70   28.82
   6  -3   4  356.56   26.54
   6  -2   5   -0.75    2.40
   6  -1   6   18.17    5.05
   6  -1   6   22.32    5.27
   6   0   7  334.86   22.97
   6   0   7  397.00   22.95
   6   1   8   62.26    9.37
   6   1   8   55.12    8.30
   6   2   9  213.38   17.11
   6   2   9  214.44   16.21
   6   3  10   -1.54    1.96
   6   4  11  117.71   11.73
   6   5  12   48.87    7.42
   6   6  13    7.72    2.84
   6   7  14    5.79    2.23
   6  -9  -3   11.96    4.56
   6  -9  -3   17.23    4.81
   6  -8  -2   54.12    9.59
   6  -8  -2   77.14   12.90
   6  -8  -2   62.42    9.65
   6  -7  -1    1.43    2.12
   6  -7  -1    0.74    1.91
   6  -7  -1    3.30    2.21
   6  -6   0   99.22   13.40
   6  -5   1  207.52   18.82
  -6   5  -1  212.76   15.78
  -6   4  -2    4.54    2.56
   6  -4   2    8.08    3.94
   6  -3   3  783.31   34.71
   6  -3   3  625.19   35.84
   6  -2   4   17.50    5.80
   6  -1   5    0.87    2.60
   6   0   6  600.33   30.79
   6   0   6  742.04   30.90
   6   1   7  340.61   22.47
   6   1   7  373.14   21.50
   6   2   8    5.83    2.19
   6   2   8    6.08    2.65
   6   3   9   13.70    3.65
   6   3   9   18.32    4.73
   6   4  10   -0.36    1.96
   6   5  11   26.39    5.36
   6   6  12   10.41    3.24
   6   7  13    2.57    1.51
   6   8  14    2.60    1.68
   6  -9  -4   12.12    4.32
   6  -8  -3   41.71    8.25
   6  -8  -3   60.56   11.32
   6  -8  -3   63.75    9.66
   6  -7  -2    2.12    2.35
   6  -7  -2    4.06    2.97
   6  -7  -2    0.37    1.40
   6  -6  -1  108.33   14.02
   6  -6  -1  125.07   16.47
   6  -6  -1  124.84   13.51
   6  -5   0  169.97   17.31
   6  -4   1   70.08   10.70
  -6   4  -1   75.91    9.61
   6  -3   2  311.36   22.34
   6  -2   3  219.44   20.91
   6  -1   4   -0.12    0.95
   6  -1   4    1.40    1.99
   6   0   5   40.14    8.04
   6   1   6   14.27    4.61
   6   1   6   18.17    4.54
   6   2   7  154.18   14.52
   6   2   7  155.76   13.34
   6   3   8  109.82   12.08
   6   3   8  120.85   11.65
   6   4   9  165.86   14.89
   6   4   9  158.83   13.25
   6   5  10   94.23   11.06
   6   5  10   81.30    9.49
   6   6  11   10.99    3.23
   6   7  12    1.04    0.64
   6   8  13   18.11    4.27
   6   9  14    5.27    2.15
   6  -9  -5    1.39    1.34
   6  -8  -4    1.03    0.92
   6  -8  -4   -0.91    2.64
   6  -8  -4    0.64    0.97
   6  -7  -3  139.85   13.31
   6  -7  -3  153.24   16.25
   6  -7  -3  196.45   20.53
   6  -7  -3  181.48   16.77
   6  -6  -2   27.06    5.87
   6  -6  -2   31.57    7.30
   6  -6  -2   28.56    7.87
   6  -6  -2   26.37    6.45
   6  -5  -1   35.00    6.71
   6  -5  -1   39.81    8.41
   6  -5  -1   57.26   10.71
   6  -5  -1   54.62    8.63
   6  -4   0   36.56    7.70
   6  -3   1   10.86    4.26
   6  -2   2    8.99    3.36
   6  -2   2    5.91    3.75
   6  -1   3  254.44   15.40
   6  -1   3  252.34   21.52
   6   0   4   30.11    5.58
   6   0   4   29.36    4.76
   6   0   4   25.69    6.66
   6   1   5  112.76   10.73
   6   1   5  112.11   10.88
   6   1   5  109.99   12.93
   6   2   6   56.42    7.77
   6   2   6   62.98    9.19
   6   2   6   55.94    7.72
   6   3   7   -0.67    1.11
   6   3   7    0.35    2.78
   6   3   7    1.03    0.88
   6   4   8   38.47    7.03
   6   4   8   32.55    5.85
   6   5   9    8.28    2.81
   6   5   9   10.68    3.52
   6   6  10    0.31    0.46
   6   6  10    0.48    0.37
   6   7  11    1.94    0.60
   6   8  12    0.39    0.38
   6   9  13   18.79    4.25
   6  -8  -5   -0.31    0.62
   6  -8  -5    4.46    2.32
   6  -7  -4   20.40    5.01
   6  -7  -4   12.78    4.55
   6  -7  -4   16.64    5.67
   6  -7  -4   23.50    6.21
   6  -6  -3  261.63   18.93
   6  -6  -3  282.03   21.85
   6  -6  -3  346.55   27.32
   6  -6  -3  357.97   23.68
   6  -5  -2   24.33    5.69
   6  -5  -2   31.63    7.42
   6  -5  -2   32.94    8.24
   6  -5  -2   34.34    7.17
   6  -4  -1   36.07    7.92
   6  -4  -1   38.65    8.36
   6  -3   0    2.13    0.59
   6  -2   1   74.47    9.12
   6  -2   1   64.42   10.96
   6  -1   2  209.99   14.46
   6  -1   2  200.39   19.24
   6   0   3    6.22    2.39
   6   0   3    6.22    2.24
   6   0   3    5.20    2.56
   6   0   3    3.75    1.78
   6   1   4  179.20   13.38
   6   1   4  162.93   11.28
   6   1   4  168.47   13.08
   6   1   4  170.62   16.14
   6   2   5  179.20   13.10
   6   2   5  170.32   13.33
   6   2   5  186.32   16.42
   6   3   6  217.67   14.28
   6   3   6  196.31   14.75
   6   3   6  212.67   16.96
   6   3   6  220.01   14.97
   6   4   7  183.26   14.68
   6   4   7  183.71   15.67
   6   4   7  190.69   13.85
   6   5   8   21.04    4.67
   6   5   8    8.90    4.53
   6   5   8   16.57    4.55
   6   6   9   14.90    3.85
   6   6   9   18.15    4.77
   6   7  10    1.56    0.52
   6   7  10    1.46    1.68
   6   8  11   23.11    4.76
   6   9  12   38.77    6.17
   6  10  13   13.54    3.39
   6  -8  -6    2.70    1.70
   6  -7  -5   35.03    6.56
   6  -7  -5   42.40    8.06
   6  -6  -4    1.61    1.77
   6  -6  -4    6.30    3.32
   6  -6  -4    1.25    2.09
   6  -6  -4    0.69    1.13
   6  -5  -3   30.17    6.73
   6  -5  -3   41.96    8.34
   6  -5  -3   41.15    8.92
   6  -5  -3   42.69    8.22
   6  -4  -2   -2.29    3.63
   6  -4  -2    4.05    2.32
   6  -4  -2    1.46    1.86
   6  -4  -2    2.83    1.92
   6  -3  -1    0.79    0.81
   6  -3  -1    1.08    1.29
   6  -2   0   13.26    4.11
   6  -2   0    8.26    4.11
   6  -1   1  173.63   13.56
   6  -1   1  152.81   16.82
   6   0   2  125.86   11.48
   6   0   2  132.04   11.16
   6   0   2  130.27   11.52
   6   0   2  147.04   16.04
   6   1   3    4.84    1.97
   6   1   3    5.12    1.96
   6   1   3   11.87    3.50
   6   1   3    6.95    3.29
   6   2   4  142.18   11.46
   6   2   4  137.83   11.86
   6   2   4  146.36   14.89
   6   3   5   57.75    7.18
   6   3   5   63.73    7.96
   6   3   5   67.04    9.46
   6   4   6   28.15    5.91
   6   4   6   28.99    5.99
   6   5   7   29.92    6.22
   6   5   7   56.10    7.35
   6   6   8   51.75    8.05
   6   6   8   49.90    7.13
   6   7   9    0.67    0.98
   6   8  10   43.73    6.72
   6   9  11    0.21    1.69
   6  10  12    1.88    1.20
   6  -7  -6   43.22    7.10
   6  -6  -5    2.87    1.76
   6  -6  -5    0.07    1.77
   6  -6  -5   -0.49    1.34
   6  -5  -4   28.50    6.35
   6  -5  -4   42.28    8.04
   6  -5  -4   38.32    8.76
   6  -5  -4   42.03    8.10
   6  -4  -3   -1.29    2.42
   6  -4  -3    1.72    0.84
   6  -4  -3    0.59    1.37
   6  -4  -3    0.29    1.32
   6  -3  -2   50.95    9.05
   6  -3  -2   67.06   10.59
   6  -2  -1  260.41   18.51
   6  -2  -1  257.69   19.87
   6  -1   0   49.50    7.48
   6  -1   0   42.00    8.97
   6   0   1  228.34   15.43
   6   0   1  248.12   15.77
   6   0   1  270.13   16.42
   6   0   1  226.26   19.81
   6   1   2    4.77    2.11
   6   1   2    1.36    0.72
   6   1   2    1.09    0.53
   6   1   2    5.41    0.62
   6   2   3  130.52   10.93
   6   2   3  145.50   11.01
   6   2   3  154.60   12.00
   6   2   3  162.08   15.45
   6   3   4  128.03   10.52
   6   3   4  134.74   11.41
   6   3   4  140.72   13.94
   6   4   5    0.18    0.71
   6   5   6  272.26   16.27
   6   5   6  241.53   16.22
   6   5   6  245.18   15.05
   6   6   7   30.00    5.52
   6   6   7   28.89    5.92
   6   6   7   23.47    4.72
   6   7   8   33.19    5.91
   6   7   8   47.18    7.62
   6   7   8   33.25    5.74
   6   8   9   25.91    5.05
   6   8   9   26.03    5.13
   6   9  10   50.60    7.19
   6  10  11  172.13   12.86
   6  11  12    4.84    2.05
   6  -7  -7    0.17    0.49
   6  -6  -6   -8.14    3.21
   6  -6  -6   -1.69    1.52
   6  -5  -5  132.01   13.56
   6  -5  -5  138.86   14.37
   6  -4  -4   23.54    5.57
   6  -4  -4   26.28    6.24
   6  -4  -4   32.28    7.86
   6  -4  -4   28.32    6.51
   6  -3  -3   17.12    4.38
   6  -3  -3   20.77    5.41
   6  -3  -3   20.62    5.41
   6  -2  -2   30.09    6.36
   6  -2  -2   24.76    5.97
   6  -1  -1   12.77    3.86
   6  -1  -1    2.85    2.19
   6   0   0   60.31    8.03
   6   0   0   64.23    8.45
   6   0   0   57.30   10.04
   6   1   1    3.25    1.88
   6   1   1    0.89    1.01
   6   1   1    0.27    0.88
   6   1   1    0.42    1.79
   6   2   2   35.57    7.03
   6   2   2   24.17    4.64
   6   2   2   23.04    4.49
   6   2   2   23.08    4.62
   6   3   3   33.44    5.30
   6   3   3   38.27    5.62
   6   3   3   42.27    6.24
   6   3   3   46.13    8.07
   6   4   4   50.30    7.37
   6   5   5   38.53    6.06
   6   5   5   34.55    6.05
   6   6   6   72.80    9.19
   6   6   6   81.32    8.51
   6   7   7   76.93    8.84
   6   7   7   75.30    9.72
   6   7   7   74.87    8.40
   6   8   8    8.54    2.71
   6   8   8    8.32    3.06
   6   8   8   11.08    3.91
   6   9   9    2.99    1.84
   6   9   9    5.79    2.32
   6  10  10    3.22    1.48
   6  10  10    5.24    2.18
   6  11  11   30.95    5.21
   6  12  12   10.58    2.75
   6  -6  -7   -1.00    1.93
   6  -5  -6  148.35   14.23
   6  -4  -5   62.59    9.43
   6  -4  -5   67.55    9.70
   6  -4  -5   88.98   11.97
   6  -3  -4  210.34   17.47
   6  -3  -4  248.13   19.34
   6  -2  -3   54.57    9.10
   6  -2  -3   67.66    9.82
   6  -1  -2  115.58   12.38
   6  -1  -2  110.77   12.43
   6   0  -1   60.17    8.33
   6   0  -1   76.41   10.82
   6   1   0   14.34    3.70
   6   1   0   20.85    4.59
   6   1   0   18.81    4.19
   6   1   0   17.74    4.34
   6   1   0   19.16    5.46
   6   2   1    1.40    0.67
   6   2   1    3.70    1.90
   6   2   1    2.98    1.81
   6   2   1    1.31    0.45
   6   2   1    3.36    2.46
   6   3   2  164.14   11.66
   6   3   2  190.82   13.01
   6   3   2  164.62   12.46
   6   3   2  184.97   13.44
   6   4   3   11.14    3.24
   6   4   3    8.67    2.68
   6   4   3    4.00    2.41
   6   4   3   10.73    3.21
   6   5   4   48.70    6.71
   6   5   4   35.07    6.25
   6   6   5    8.50    3.00
   6   6   5    4.14    2.05
   6   7   6   51.37    7.19
   6   7   6   60.91    8.24
   6   7   6   61.83    7.45
   6   8   7   28.01    5.42
   6   8   7   36.04    6.52
   6   8   7   25.60    4.92
   6   9   8    1.27    0.96
   6   9   8    2.91    1.33
   6  10   9    1.40    1.03
   6  10   9    1.59    1.16
   6  11  10   25.70    4.87
   6  11  10   25.67    4.93
   6  12  11   40.60    5.68
   6  -6  -8   -2.53    2.34
   6  -5  -7   -4.40    2.35
   6  -4  -6   43.04    7.73
   6  -3  -5   27.72    6.08
   6  -3  -5   23.97    5.59
   6  -2  -4   28.99    6.80
   6  -2  -4   18.79    3.98
   6  -1  -3    9.17    3.53
   6  -1  -3    0.04    0.46
   6   0  -2   -0.78    1.06
   6   1  -1  103.83   10.39
   6   1  -1  126.57   12.23
   6   1  -1  123.32   11.62
   6   2   0   27.79    5.06
   6   2   0   40.71    6.51
   6   2   0   35.55    5.77
   6   2   0   32.36    5.78
   6   2   0   29.72    6.54
   6   3   1   27.63    4.82
   6   3   1   37.93    6.07
   6   3   1   36.96    6.10
   6   3   1   35.88    7.30
   6   4   2  250.32   15.29
   6   4   2  208.92   13.73
  -6  -4  -2  188.61   17.52
   6   4   2  208.43   14.21
   6   5   3    2.37    1.66
   6   5   3    2.65    1.52
   6   5   3    2.75    1.36
   6   6   4   51.31    7.02
   6   6   4   67.70    8.08
   6   7   5   60.69    7.73
   6   7   5   52.11    7.86
   6   8   6   19.71    4.19
   6   8   6   22.39    4.83
   6   8   6   12.99    4.18
   6   9   7    4.95    2.05
   6   9   7    6.55    2.53
   6   9   7    6.41    3.09
   6  10   8    6.77    2.33
   6  10   8    5.61    2.84
   6  11   9    5.94    2.41
   6  11   9    9.72    2.96
   6  12  10   29.77    4.99
   6  12  10   27.73    4.81
   6  -5  -8   -1.28    2.50
   6  -4  -7   43.42    7.60
   6  -3  -6  217.50   17.32
   6  -2  -5  138.47   13.72
   6  -2  -5  139.82   14.48
   6  -1  -4   14.89    4.68
   6  -1  -4   20.34    4.73
   6   0  -3   -0.22    0.78
   6   0  -3   -1.66    1.47
   6   0  -3   -2.56    1.75
   6   1  -2   -0.70    0.76
   6   1  -2    0.38    0.86
   6   2  -1   23.73    4.82
   6   2  -1   27.66    5.50
   6   2  -1   23.12    4.90
   6   3   0  150.65   11.39
   6   3   0  179.38   13.76
   6   3   0  162.03   12.67
   6   3   0  194.83   16.55
   6   4   1   23.97    6.08
   6   4   1   15.14    3.89
   6   4   1   11.77    3.31
   6   5   2  189.43   13.14
   6   5   2  170.86   12.56
   6   5   2  169.79   12.78
   6   6   3  359.84   18.44
   6   6   3  349.44   17.43
   6   6   3  366.02   18.76
   6   7   4   16.06    3.91
   6   8   5   -0.90    1.64
   6   9   6    3.28    1.47
   6   9   6    5.14    2.43
   6   9   6    5.12    2.63
   6  10   7   55.53    7.79
   6  10   7   56.04    7.23
   6  11   8   92.68    9.75
   6  11   8   88.49    9.22
   6  12   9   43.83    6.31
   6  12   9   41.81    6.01
   6  13  10    5.75    2.00
   6  13  10    7.00    2.19
   6  -5  -9    9.65    3.04
   6  -4  -8    0.10    2.18
   6  -3  -7   17.60    4.76
   6  -2  -6   78.55   10.25
   6  -1  -5   25.89    5.97
   6  -1  -5   20.50    4.40
   6   0  -4    0.95    0.97
   6   0  -4    2.33    1.39
   6   1  -3    5.07    2.63
   6   1  -3    8.67    3.18
   6   2  -2   59.98    8.61
   6   2  -2   64.48    8.37
   6   3  -1   79.23    9.60
   6   3  -1  108.25   10.61
   6   4   0   12.29    4.55
   6   4   0   15.19    3.77
   6   4   0   10.64    3.39
   6   5   1   15.61    3.79
   6   5   1   18.31    4.30
   6   6   2  117.15   10.36
   6   6   2  106.96   10.00
   6   6   2  108.34   10.24
   6   7   3  136.22   11.43
   6   7   3  131.97   10.87
   6   7   3  137.98   11.48
   6   8   4   32.43    5.66
   6   9   5   74.97    8.81
   6  10   6   33.40    5.95
   6  10   6   37.85    6.55
   6  10   6   38.04    5.90
   6  11   7   56.51    7.74
   6  11   7   51.24    6.94
   6  12   8    7.49    2.60
   6  12   8    6.54    2.76
   6  13   9   11.24    3.06
   6  13   9   11.87    3.15
   6  -4  -9   13.01    3.39
   6  -3  -8    3.67    2.31
   6  -2  -7    3.07    2.27
   6  -1  -6   -3.85    2.29
   6  -1  -6    0.05    1.78
   6   0  -5   15.88    4.47
   6   1  -4   -0.04    0.67
   6   1  -4   -0.10    1.68
   6   2  -3   20.12    5.22
   6   2  -3   20.63    4.89
   6   3  -2   66.52    9.17
   6   3  -2   72.85    8.96
   6   4  -1    4.43    1.42
   6   4  -1    5.15    2.19
   6   5   0  217.62   15.31
   6   5   0  197.34   14.16
   6   6   1   68.01    7.73
   6   6   1   63.11    8.06
   6   6   1   62.26    7.88
   6   7   2   15.76    3.74
   6   7   2   14.43    3.70
   6   7   2   21.05    4.63
   6   8   3    0.29    0.87
   6   8   3   -0.54    1.19
   6   9   4    2.47    1.50
   6  10   5    5.15    2.53
   6  11   6   16.41    3.85
   6  11   6   19.84    4.55
   6  11   6   16.35    4.17
   6  12   7   12.29    3.34
   6  12   7   17.49    4.31
   6  13   8    2.31    1.58
   6  13   8    2.98    1.74
   6  -3  -9   -1.50    2.41
   6  -2  -8  249.64   17.46
   6  -1  -7   95.38   11.15
   6   0  -6   42.95    7.38
   6   0  -6   40.86    7.51
   6   1  -5   35.18    6.87
   6   1  -5   42.30    7.32
   6   2  -4   29.67    6.45
   6   2  -4   31.21    4.89
   6   2  -4   36.45    6.64
   6   3  -3   57.63    8.65
   6   3  -3   64.53    8.53
   6   4  -2   15.33    4.51
   6   4  -2   17.55    4.40
   6   5  -1  594.50   26.47
   6   5  -1  551.15   24.19
   6   6   0  135.25   12.25
   6   6   0  118.75   11.06
   6   7   1  145.01   11.41
   6   7   1  165.29   13.15
   6   7   1  147.43   12.21
   6   8   2   21.76    4.65
   6   8   2   24.83    4.75
   6   8   2   24.20    4.85
   6   9   3   29.37    5.45
   6   9   3   32.04    5.47
   6  10   4   19.55    4.37
   6  11   5    3.37    2.16
   6  12   6    0.89    0.55
   6  12   6    1.52    1.29
   6  13   7    3.68    1.87
   6  13   7    3.03    1.75
   6  14   8    4.16    1.70
   6  14   8    3.54    1.73
   6  -3 -10    1.74    1.09
   6  -3 -10    2.15    1.03
   6  -2  -9   59.34    7.47
   6  -2  -9   43.00    6.78
   6  -1  -8  118.83   12.03
   6   0  -7    1.36    1.84
   6   1  -6   44.47    7.17
   6   1  -6   40.92    7.36
   6   2  -5    1.67    1.48
   6   2  -5    4.15    1.56
   6   2  -5    5.03    2.48
   6   3  -4   29.90    6.42
   6   3  -4   21.61    4.37
   6   3  -4   26.20    5.74
   6   4  -3    2.23    1.45
   6   4  -3    1.78    1.32
   6   5  -2  142.83   13.30
   6   5  -2  128.54   12.05
   6   6  -1  118.33   11.88
   6   6  -1  109.72   11.04
   6   7   0  517.21   24.24
   6   7   0  494.10   22.79
   6   8   1   12.89    3.49
   6   8   1    6.95    2.37
   6   8   1    7.75    2.84
   6   9   2   13.65    3.70
   6   9   2   11.90    3.21
   6  10   3  230.53   15.44
   6  10   3  248.30   15.86
   6  11   4  115.91   11.05
   6  12   5  201.29   14.55
   6  13   6   -0.57    0.70
   6  13   6    3.04    1.77
   6  14   7   82.36    8.20
   6  14   7   88.38    7.98
   6  -2 -10   65.85    7.27
   6  -2 -10   53.92    7.06
   6  -1  -9   14.29    3.54
   6  -1  -9   10.39    3.52
   6   0  -8  204.54   14.28
   6   0  -8  181.67   14.52
   6   1  -7   79.06    8.85
   6   1  -7   59.55    8.42
   6   1  -7   57.58    8.47
   6   2  -6    7.06    2.70
   6   2  -6    4.59    2.06
   6   2  -6    5.77    2.02
   6   2  -6    6.31    2.95
   6   3  -5  264.90   19.27
   6   3  -5  276.34   16.00
   6   3  -5  288.46   19.29
   6   4  -4  198.27   16.50
   6   4  -4  185.01   15.11
   6   4  -4  183.71   13.15
   6   5  -3   95.51   11.19
   6   5  -3   92.49   10.56
   6   6  -2  993.17   35.42
   6   6  -2  914.00   32.54
   6   7  -1  842.99   32.05
   6   7  -1  782.60   29.58
   6   8   0  255.13   17.30
   6   8   0  254.60   16.51
   6   9   1  144.78   11.69
   6   9   1  133.21   12.26
   6   9   1  146.96   12.26
   6  10   2  333.06   18.55
   6  10   2  352.52   19.61
   6  11   3   38.94    6.50
   6  11   3   36.40    6.34
   6  12   4  134.11   11.82
   6  13   5    0.12    0.58
   6  14   6    0.35    0.97
   6  -1 -10   18.38    3.99
   6  -1 -10    8.86    2.96
   6   0  -9   17.43    4.24
   6   0  -9   13.86    3.79
   6   1  -8   67.55    8.13
   6   1  -8   54.65    7.74
   6   2  -7  263.26   17.06
   6   2  -7  234.73   17.06
   6   3  -6   74.52    9.00
   6   3  -6   68.26    9.55
   6   3  -6   86.84    9.12
   6   3  -6   83.12   10.52
   6   4  -5  426.63   24.40
   6   4  -5  454.08   21.15
   6   4  -5  480.25   24.96
   6   5  -4  264.93   19.05
   6   5  -4  254.21   15.90
   6   5  -4  266.22   18.35
   6   6  -3    7.45    3.82
   6   6  -3    8.57    3.81
   6   7  -2  530.27   26.03
   6   7  -2  510.63   24.37
   6   8  -1    2.86    1.39
   6   8  -1    3.87    2.31
   6   9   0   12.14    3.89
   6   9   0   17.53    4.49
   6  10   1  204.90   14.18
   6  10   1  215.10   15.99
   6  10   1  223.50   15.18
   6  11   2  306.14   17.79
   6  11   2  296.83   18.21
   6  12   3   89.20    9.57
   6  12   3   98.20    9.93
   6  13   4   80.10    8.86
   6  14   5    0.58    1.00
   6  15   6    0.12    0.62
   6   0 -10   40.86    5.80
   6   1  -9    8.62    2.84
   6   2  -8  294.83   16.75
   6   3  -7    1.77    1.60
   6   3  -7    2.50    1.58
   6   3  -7    5.35    2.85
   6   4  -6  251.49   18.16
   6   4  -6  262.91   16.40
   6   4  -6  282.20   19.27
   6   5  -5   40.60    6.55
   6   5  -5   32.66    6.70
   6   5  -5   36.34    6.12
   6   5  -5   31.44    6.64
   6   6  -4   -1.26    2.36
   6   6  -4    3.10    2.49
   6   6  -4    0.82    0.90
   6   7  -3   73.35    9.90
   6   7  -3   80.06   10.02
   6   8  -2  100.64   11.46
   6   8  -2  116.47   11.75
   6   9  -1  287.17   19.15
   6   9  -1  304.44   18.85
   6  10   0   23.99    5.56
   6  10   0   24.81    5.38
   6  11   1  194.13   13.83
   6  11   1  184.01   14.73
   6  12   2   58.26    7.66
   6  12   2   66.86    8.53
   6  13   3   25.32    4.85
   6  13   3   27.52    5.06
   6  14   4    4.53    2.07
   6  15   5   19.86    3.85
   6   1 -10    0.03    0.72
   6   2  -9   92.97    8.95
   6   3  -8    1.41    0.63
   6   4  -7    0.69    0.96
   6   4  -7    2.50    1.93
   6   4  -7    2.65    0.77
   6   5  -6    8.54    2.63
   6   5  -6    9.79    3.23
   6   5  -6   13.61    3.80
   6   5  -6    8.90    3.42
   6   6  -5   45.81    6.92
   6   6  -5   40.27    7.22
   6   6  -5   47.04    7.16
   6   6  -5   41.89    7.42
   6   7  -4  247.97   16.26
   6   7  -4  213.81   16.84
   6   7  -4  235.09   17.45
   6   8  -3  102.09   10.31
   6   8  -3   90.97   11.07
   6   8  -3   93.45   10.72
   6   9  -2    6.42    2.75
   6   9  -2   11.44    3.90
   6  10  -1   28.97    6.01
   6  10  -1   32.81    6.15
   6  11   0  135.60   12.88
   6  11   0  126.58   11.51
   6  12   1    3.52    1.84
   6  12   1    3.90    2.08
   6  13   2    0.51    0.73
   6  13   2   -0.71    1.31
   6  14   3   25.71    4.80
   6  15   4    2.37    1.64
   6   2 -10   15.50    3.32
   6   3  -9    3.76    1.76
   6   3  -9    4.51    1.76
   6   4  -8    6.29    2.93
   6   4  -8    4.10    1.93
   6   4  -8    1.76    1.91
   6   5  -7    0.99    1.09
   6   5  -7    1.05    0.40
   6   5  -7    1.39    0.96
   6   5  -7    2.03    1.67
   6   6  -6   20.37    4.81
   6   6  -6   17.49    4.63
   6   6  -6   19.86    4.54
   6   6  -6   19.31    5.07
   6   7  -5   98.83   10.48
   6   7  -5   86.09   10.46
   6   7  -5   94.06   10.35
   6   7  -5   97.33   11.21
   6   8  -4  159.10   13.21
   6   8  -4  140.20   13.55
   6   8  -4  146.51   13.82
   6   9  -3   20.43    5.30
   6   9  -3   28.89    5.94
   6  10  -2   26.91    5.85
   6  10  -2   27.03    5.46
   6  11  -1   48.51    7.74
   6  11  -1   64.42    8.46
   6  12   0   20.19    5.07
   6  13   1    2.64    1.82
   6  13   1    1.50    1.67
   6  14   2   15.84    3.58
   6  14   2   19.22    4.08
   6  15   3    3.27    1.56
   6   3 -10    9.05    2.84
   6   3 -10    4.81    1.86
   6   3 -10    7.87    2.36
   6   4  -9    2.80    1.98
   6   4  -9    3.21    1.44
   6   5  -8    0.92    1.02
   6   5  -8   -0.09    0.40
   6   6  -7    2.30    1.48
   6   6  -7    0.91    0.45
   6   6  -7   -0.20    0.82
   6   6  -7    1.53    1.73
   6   7  -6   12.33    3.50
   6   7  -6    9.41    3.21
   6   7  -6   11.79    3.82
   6   7  -6   11.84    4.09
   6   8  -5    4.22    2.40
   6   8  -5    6.24    3.11
   6   8  -5    4.58    2.54
   6   9  -4   62.41    8.30
   6   9  -4   55.09    8.35
   6   9  -4   67.82    9.23
   6  10  -3   63.01    8.82
   6  10  -3   65.91    8.97
   6  11  -2    0.91    0.44
   6  11  -2    1.38    1.78
   6  12  -1    2.38    1.84
   6  12  -1    0.85    1.54
   6  13   0   19.53    4.64
   6  14   1    4.04    1.79
   6  14   1    7.20    2.78
   6  15   2    1.20    1.06
   6   4 -10   17.53    3.70
   6   4 -10   15.86    3.39
   6   5  -9   23.77    4.67
   6   5  -9   23.23    4.47
   6   5  -9   19.81    4.35
   6   6  -8    4.42    1.65
   6   6  -8    2.73    1.21
   6   6  -8    5.53    2.68
   6   7  -7    1.28    1.28
   6   7  -7    0.11    0.91
   6   7  -7    0.64    0.43
   6   7  -7    0.10    0.89
   6   8  -6    7.43    2.70
   6   8  -6    6.31    2.88
   6   8  -6    7.76    2.86
   6   9  -5    1.75    1.38
   6   9  -5    1.74    1.80
   6   9  -5    2.87    2.19
   6  10  -4    8.57    2.92
   6  10  -4    5.52    2.54
   6  11  -3   15.63    4.21
   6  11  -3   17.91    4.45
   6  12  -2   -0.74    1.72
   6  12  -2   -1.22    1.27
   6  13  -1   32.85    5.96
   6  14   0   13.13    3.42
   6   5 -10    8.07    2.71
   6   5 -10    5.16    1.96
   6   6  -9    0.85    0.77
   6   6  -9    2.30    1.48
   6   6  -9    1.29    1.60
   6   7  -8    8.49    3.10
   6   7  -8    4.84    2.21
   6   7  -8    5.82    2.55
   6   8  -7   10.83    3.55
   6   8  -7    6.04    2.36
   6   8  -7   11.04    3.69
   6   9  -6  101.70   10.33
   6   9  -6   69.41    8.60
   6   9  -6   93.53   10.55
   6  10  -5    5.84    2.21
   6  10  -5    3.38    2.22
   6  11  -4   51.84    7.39
   6  11  -4   57.35    7.97
   6  12  -3    8.59    2.92
   6  12  -3   11.21    3.22
   6  13  -2    2.45    1.76
   6  14  -1    5.20    2.13
   6   7  -9   47.63    6.23
   6   7  -9   41.98    6.05
   6   8  -8    6.86    2.52
   6   8  -8    7.54    2.84
   6   9  -7   16.91    3.92
   6   9  -7    9.00    2.72
   6   9  -7   15.39    4.15
   6  10  -6   -0.37    0.43
   6  10  -6    1.18    1.09
   6  11  -5    3.56    1.43
   6  11  -5    3.63    2.02
   6  12  -4   -0.92    0.95
   6  12  -4    1.33    1.23
   6  13  -3    0.33    0.45
   6  13  -3   -2.44    1.43
   6  14  -2   -0.06    0.68
   6   9  -8   -0.57    1.06
   6  10  -7    1.34    1.00
   6  10  -7    2.36    1.25
   6  11  -6    6.18    2.25
   6  11  -6    6.23    2.35
   6  12  -5   -0.05    0.93
   6  12  -5    0.21    0.60
   6  13  -4   -0.92    1.15
  -7   7  -8   38.40    5.15
  -7   6  -9   14.82    3.26
  -7   5 -10    1.67    1.09
  -7   4 -11   12.75    2.87
   7  -4  11   12.18    3.44
   7  -3  12    2.47    1.52
  -7   7  -7    2.64    1.66
  -7   6  -8   27.49    4.86
  -7   5  -9    6.60    2.32
  -7   4 -10    2.37    1.66
   7  -4  10    1.55    0.43
  -7   3 -11   -0.95    1.78
   7  -3  11   -3.27    1.90
   7  -2  12   -0.50    1.46
   7  -1  13    7.60    2.81
  -7   8  -5    0.25    0.72
  -7   7  -6   14.15    3.48
  -7   6  -7    0.43    0.70
  -7   5  -8   32.58    5.61
  -7   4  -9    0.43    0.67
   7  -4   9    1.22    1.61
  -7   3 -10   31.18    5.40
   7  -3  10   28.82    5.91
  -7   2 -11    2.75    1.48
   7  -2  11    2.59    1.24
   7  -1  12   43.39    6.82
   7   0  13    1.59    1.12
   7   1  14    0.17    0.46
  -7   8  -4   29.87    4.96
  -7   7  -5    4.96    1.96
  -7   6  -6    1.19    1.00
  -7   5  -7   71.70    8.81
  -7   4  -8  111.90   10.95
   7  -4   8   85.50   10.94
  -7   3  -9    0.31    0.81
   7  -3   9   -1.08    2.47
  -7   2 -10    2.86    1.53
   7  -2  10   -0.18    1.38
  -7   1 -11    1.74    1.07
   7  -1  11    1.32    1.40
   7   0  12    1.37    0.52
   7   1  13    5.60    2.34
   7   2  14    1.51    0.79
   7  -8   3   62.64    8.18
  -7   8  -3   65.33    7.31
   7  -8   3   86.07   12.12
   7  -7   4   32.44    5.92
  -7   7  -4   39.48    6.17
  -7   6  -5   31.73    5.89
  -7   5  -6   16.04    4.14
  -7   4  -7    8.06    3.34
   7  -4   7    5.87    2.89
  -7   3  -8    2.47    2.10
   7  -3   8   -1.01    2.96
  -7   2  -9  118.62   11.62
   7  -2   9  103.04   12.02
  -7   1 -10    2.00    1.38
   7  -1  10    0.91    0.86
  -7   0 -11    4.73    2.09
   7   0  11    2.85    2.01
   7   1  12   -1.40    1.24
   7   2  13    2.90    2.08
   7   3  14   18.21    3.96
   7  -8   2    0.96    1.10
   7  -8   2    0.73    1.66
   7  -7   3   53.51    8.23
  -7   7  -3   57.09    7.43
  -7   6  -4   13.15    3.78
   7  -6   4    7.49    3.05
  -7   5  -5   10.81    3.34
   7  -5   5   13.77    4.06
   7  -4   6   51.07    7.61
  -7   4  -6   54.58    8.43
  -7   3  -7    5.12    2.42
   7  -3   7    7.60    3.26
  -7   2  -8   -0.09    0.68
   7  -2   8   -0.84    1.02
  -7   1  -9    0.51    1.23
   7  -1   9    0.69    1.39
  -7   0 -10   73.07    9.21
   7   0  10   49.17    7.91
  -7  -1 -11    8.42    3.38
   7   1  11    6.56    2.82
   7   2  12   20.22    4.73
   7   3  13   78.34    8.84
   7   4  14  109.89    9.67
   7  -8   1   18.79    4.99
   7  -8   1   35.85    7.77
   7  -7   2   50.69    8.45
  -7   7  -2   41.45    6.11
   7  -7   2   60.74   10.76
  -7   6  -3    4.86    3.34
   7  -6   3   -0.37    1.47
   7  -5   4  122.69   13.07
  -7   5  -4  136.01   13.13
   7  -4   5  150.67   14.23
  -7   4  -5  181.33   15.62
  -7   3  -6   21.66    5.93
   7  -3   6   24.00    5.52
   7  -2   7  104.44   11.08
  -7   2  -7  135.65   13.72
   7  -2   7  109.30   12.64
   7  -1   8   95.34   12.19
   7  -1   8  126.47   13.41
   7   0   9   14.60    4.95
   7   0   9   39.26    7.36
   7   1  10  259.26   18.82
   7   1  10  321.32   20.30
   7   2  11  231.42   16.64
   7   3  12   13.95    3.86
   7   4  13   51.81    7.04
   7   5  14   43.83    6.03
   7  -8   0   64.06    9.32
   7  -8   0   86.51   12.16
   7  -7   1   37.97    7.49
   7  -7   1   55.11   10.13
   7  -6   2   54.55    9.03
  -7   6  -2   72.06    8.76
   7  -5   3  117.14   13.33
  -7   5  -3  143.98   13.32
  -7   4  -4   29.15    6.44
   7  -4   4   22.30    5.69
  -7   3  -5    6.69    3.09
   7  -3   5    5.70    3.36
   7  -2   6    6.60    3.40
   7  -1   7  363.85   25.64
   7  -1   7  567.77   28.48
   7   0   8  110.33   13.87
   7   0   8  148.18   14.30
   7   1   9   -0.07    0.47
   7   1   9    1.73    1.82
   7   2  10  315.12   20.95
   7   2  10  381.37   21.79
   7   3  11    3.37    2.13
   7   4  12   45.81    6.95
   7   5  13    8.12    2.69
   7   6  14   57.81    6.80
   7  -8  -1    2.81    1.95
   7  -8  -1    3.65    2.45
   7  -7   0   18.66    5.32
   7  -7   0   24.25    6.65
   7  -6   1    3.94    1.91
   7  -6   1    5.35    3.57
   7  -5   2  173.26   16.83
  -7   5  -2  230.70   16.64
   7  -4   3  117.95   13.74
  -7   4  -3  135.99   13.58
   7  -3   4  130.16   14.12
  -7   3  -4  145.87   14.91
   7  -2   5  105.49   14.56
   7  -1   6  107.88   13.99
   7   0   7   10.56    4.52
   7   1   8   16.44    4.87
   7   1   8   19.66    4.96
   7   2   9   67.11    9.97
   7   2   9   65.22    8.90
   7   3  10  375.02   22.72
   7   3  10  404.02   21.97
   7   4  11    2.34    1.74
   7   5  12   42.91    6.65
   7   6  13  255.05   15.26
   7  -8  -2    9.70    3.55
   7  -8  -2   13.84    4.70
   7  -7  -1    0.69    0.56
   7  -7  -1    3.86    2.96
   7  -6   0   33.24    7.14
   7  -6   0   43.26    8.89
   7  -5   1   31.25    7.09
  -7   4  -2   29.97    6.16
   7  -4   2   25.58    6.50
   7  -3   3  148.42   15.63
  -7   3  -3  180.93   16.28
   7  -2   4  340.89   26.96
   7  -1   5   13.13    4.69
   7   0   6  849.21   39.75
   7   1   7   74.62   11.27
   7   2   8   46.29    8.66
   7   2   8   60.82    8.74
   7   3   9   35.66    7.37
   7   3   9   35.00    6.50
   7   4  10  269.70   19.10
   7   4  10  273.69   17.71
   7   5  11  248.39   16.33
   7   6  12   10.26    3.13
   7   7  13   92.35    8.86
   7  -7  -2   -1.62    1.55
   7  -7  -2   -2.43    2.04
   7  -6  -1    0.68    0.45
   7  -6  -1    7.25    3.62
   7  -5   0    8.31    3.72
   7  -5   0    8.97    4.05
   7  -4   1    1.58    0.67
  -7   3  -2   -1.65    1.91
   7  -3   2    1.61    0.66
   7  -2   3   88.39   13.45
   7  -1   4   11.94    5.17
   7   0   5    3.61    0.92
   7   1   6  115.61   14.35
   7   2   7  149.68   15.66
   7   3   8    3.06    2.51
   7   3   8    3.01    1.54
   7   4   9   21.53    4.88
   7   4   9   26.71    6.15
   7   5  10    8.14    2.21
   7   5  10    8.32    2.80
   7   6  11   22.12    4.73
   7   7  12   21.86    4.48
   7   8  13    2.75    1.34
   7  -7  -3   -4.50    2.47
   7  -6  -2   26.82    5.33
   7  -6  -2   25.52    6.29
   7  -6  -2   39.32    8.35
   7  -5  -1   43.77    7.44
   7  -5  -1   44.93    8.75
   7  -5  -1   65.12   10.88
   7  -4   0   68.97    9.43
   7  -4   0   67.31   10.76
  -7   3  -1   24.10    5.47
   7  -3   1   17.83    5.60
   7  -2   2   48.83    9.17
   7  -2   2   25.73    7.42
   7  -1   3   16.28    5.45
   7   0   4  306.31   17.11
   7   0   4  240.72   21.76
   7   1   5   23.89    6.44
   7   2   6  505.33   29.06
   7   3   7   51.61    9.12
   7   4   8   10.71    3.41
   7   4   8    9.66    3.55
   7   5   9    8.05    2.87
   7   5   9   13.55    4.05
   7   6  10    0.30    0.94
   7   6  10   -1.30    1.30
   7   7  11   26.89    5.16
   7   8  12   37.53    5.80
   7   9  13    9.27    2.51
   7  -6  -3   59.07    8.10
   7  -6  -3   69.42   10.09
   7  -5  -2    0.81    0.85
   7  -5  -2   -1.05    1.39
   7  -4  -1   48.02    7.94
   7  -4  -1   43.96    8.55
   7  -3   0  155.98   16.54
   7  -2   1    8.40    4.15
   7  -1   2   26.45    5.53
   7  -1   2   15.28    4.90
   7   0   3   53.25    7.41
   7   0   3   39.06    8.98
   7   1   4   37.10    5.73
   7   1   4   38.82    8.35
   7   2   5   60.68    8.51
   7   2   5   63.31   10.35
   7   3   6    3.80    2.14
   7   3   6   -0.06    2.50
   7   4   7   29.89    6.53
   7   4   7   23.69    5.62
   7   5   8   13.13    3.53
   7   5   8   12.78    4.00
   7   6   9    0.82    0.74
   7   6   9   -0.45    1.45
   7   7  10   31.34    6.35
   7   7  10   35.15    5.93
   7   8  11   15.66    3.76
   7   9  12   40.30    5.73
   7  -6  -4   25.02    5.18
   7  -6  -4   29.84    6.28
   7  -5  -3    6.44    2.92
   7  -5  -3    6.75    3.18
   7  -5  -3    4.26    2.69
   7  -4  -2    2.89    1.80
   7  -4  -2    2.02    1.01
   7  -3  -1    0.22    2.52
   7  -2   0    4.76    2.88
   7  -1   1  128.44   12.73
   7  -1   1   98.08   14.19
   7   0   2   21.39    4.87
   7   0   2   13.84    5.73
   7   1   3   11.20    3.22
   7   1   3   13.10    4.10
   7   1   3    9.92    2.60
   7   2   4  381.44   18.45
   7   2   4  366.46   20.99
   7   2   4  347.86   24.72
   7   3   5  107.24   11.61
   7   3   5  129.46   14.71
   7   4   6   29.60    6.66
   7   4   6   27.62    6.30
   7   5   7   22.80    5.72
   7   5   7   27.84    5.94
   7   6   8   15.73    4.04
   7   6   8    8.41    4.01
   7   6   8   16.04    4.44
   7   7   9   20.06    4.40
   7   7   9   16.63    4.52
   7   8  10   79.19   10.58
   7   8  10   79.69    8.76
   7   9  11    3.83    1.86
   7  10  12    3.65    1.73
   7  -6  -5   23.38    4.74
   7  -5  -4    2.38    1.90
   7  -5  -4    6.97    2.97
   7  -4  -3   88.50   10.94
   7  -4  -3   96.25   11.99
   7  -3  -2  170.19   15.51
   7  -3  -2  207.53   18.36
   7  -2  -1    0.51    1.41
   7  -2  -1    3.01    2.13
   7  -1   0   35.42    6.76
   7  -1   0   19.28    5.66
   7   0   1   44.30    7.33
   7   0   1   31.89    7.83
   7   1   2    2.91    1.75
   7   1   2    1.70    0.63
   7   1   2    4.20    2.08
   7   2   3   -1.28    2.14
   7   2   3   -0.13    0.86
   7   3   4   52.73    7.63
   7   3   4   51.71    8.96
   7   4   5    4.43    2.51
   7   4   5    1.41    1.13
   7   5   6  158.58   13.76
   7   5   6  167.62   16.23
   7   6   7    8.01    2.89
   7   6   7    7.63    3.16
   7   7   8   83.09   10.43
   7   7   8   79.27   11.63
   7   7   8  106.80   10.26
   7   8   9    9.66    3.21
   7   8   9    6.13    3.37
   7   9  10    1.59    1.25
   7   9  10    1.99    1.83
   7  10  11   29.84    4.90
   7  -5  -5   53.54    7.88
   7  -5  -5   56.14    8.17
   7  -4  -4   20.07    5.11
   7  -4  -4   26.47    6.10
   7  -3  -3   45.14    7.83
   7  -3  -3   54.27    9.01
   7  -2  -2    3.60    1.79
   7  -2  -2    0.44    1.89
   7  -1  -1   14.46    4.62
   7  -1  -1   15.76    4.93
   7   0   0   43.72    7.48
   7   0   0   28.68    6.98
   7   1   1   21.13    5.09
   7   1   1   24.30    5.43
   7   1   1   20.48    6.37
   7   2   2   -0.01    1.13
   7   2   2    0.02    1.05
   7   2   2   -1.52    3.14
   7   3   3   33.26    5.59
   7   3   3   27.33    5.36
   7   3   3   33.05    7.28
   7   4   4   31.66    7.18
   7   4   4   27.29    5.63
   7   5   5   10.52    3.84
   7   5   5   12.73    3.85
   7   6   6   11.06    3.93
   7   6   6    9.29    3.83
   7   7   7   45.86    7.53
   7   8   8   -0.62    1.14
   7   8   8    2.33    1.70
   7   9   9   10.89    3.10
   7   9   9    9.55    4.68
   7  10  10   30.88    6.29
   7  10  10   25.32    4.70
   7  11  11    6.43    2.21
   7  -5  -6   -3.63    1.94
   7  -4  -5   60.22    8.73
   7  -4  -5   73.83    9.46
   7  -3  -4    6.63    2.98
   7  -3  -4   11.61    4.01
   7  -2  -3   76.32   10.36
   7  -2  -3   88.12   11.44
   7  -1  -2   32.58    7.05
   7  -1  -2   33.71    7.16
   7   0  -1    6.76    2.48
   7   1   0   11.49    3.78
   7   1   0    4.93    3.12
   7   2   1    4.46    1.68
   7   2   1    3.61    2.29
   7   2   1    4.41    1.15
   7   3   2    1.12    1.27
   7   3   2    0.40    0.45
   7   3   2    2.46    1.33
   7   4   3  330.16   17.83
   7   4   3  297.17   18.26
   7   4   3  324.75   23.19
   7   5   4   21.58    5.72
   7   5   4   13.35    4.06
   7   6   5   56.95    8.14
   7   6   5   73.32   10.89
   7   7   6   64.68    8.86
   7   8   7    4.76    2.44
   7   8   7    2.80    2.23
   7   9   8  109.69   11.62
   7   9   8   96.56    9.37
   7  10   9   20.83    4.28
   7  11  10    4.84    1.94
   7  11  10    6.89    3.18
   7  -4  -6   28.46    5.77
   7  -3  -5   16.93    4.72
   7  -2  -4    3.11    1.96
   7  -2  -4    3.80    2.63
   7  -1  -3    8.12    3.66
   7  -1  -3   13.06    4.26
   7   0  -2  237.07   18.72
   7   0  -2  256.61   19.49
   7   1  -1  126.74   13.04
   7   2   0   98.36   11.09
   7   2   0  107.28   10.91
   7   2   0   78.17   11.36
   7   3   1  110.40   11.17
   7   3   1   95.99   10.37
   7   3   1   99.97   12.91
   7   4   2  282.67   17.09
   7   4   2  255.96   16.70
   7   4   2  276.97   21.21
   7   5   3  302.45   17.05
   7   5   3  268.41   17.48
   7   5   3  320.10   22.67
   7   6   4    7.51    3.94
   7   6   4    4.40    2.64
   7   7   5   21.90    4.73
   7   7   5   23.86    5.29
   7   8   6   44.41    6.94
   7   8   6   45.99    7.77
   7   9   7    7.82    2.79
   7   9   7   12.68    4.04
   7  10   8   27.39    5.21
   7  10   8   32.49    6.23
   7  10   8   25.83    4.72
   7  11   9   95.45    8.77
   7  12  10    0.44    0.64
   7  -4  -7   -2.81    1.67
   7  -3  -6   10.61    3.55
   7  -2  -5    7.75    2.69
   7  -1  -4   63.38    9.13
   7  -1  -4   70.51   10.38
   7   0  -3   28.07    6.48
   7   0  -3   36.35    7.10
   7   1  -2    5.13    1.92
   7   2  -1   32.21    6.40
   7   3   0    0.57    0.97
   7   3   0    2.92    1.84
   7   3   0   -0.62    1.56
   7   4   1   78.76    9.45
   7   4   1   77.51    9.22
   7   4   1   66.13    8.58
   7   4   1   81.40   11.25
   7   5   2  141.57   12.17
   7   5   2  112.84   11.43
   7   5   2  133.04   12.33
   7   5   2  136.04   14.61
   7   6   3   52.93    7.17
   7   6   3   45.36    7.26
   7   6   3   59.75    9.71
   7   7   4    6.79    2.72
   7   7   4    6.82    2.89
   7   8   5   24.62    5.17
   7   8   5   16.26    4.39
   7   9   6    3.54    2.02
   7   9   6    2.37    2.11
   7  10   7   30.79    5.46
   7  10   7   36.77    6.70
   7  11   8   59.88    7.40
   7  12   9    2.51    1.42
   7  -3  -7   11.44    3.30
   7  -2  -6   25.52    5.60
   7  -1  -5    4.87    2.38
   7  -1  -5    6.33    2.65
   7   0  -4   50.14    8.73
   7   1  -3   -0.66    1.87
   7   1  -3    0.66    1.62
   7   2  -2    6.40    2.17
   7   2  -2    7.29    2.94
   7   3  -1   61.19    8.95
   7   3  -1   64.65    8.99
   7   4   0  185.64   14.96
   7   4   0  171.79   13.69
   7   4   0  167.23   14.03
   7   4   0  172.28   16.33
   7   5   1  110.37   11.06
   7   5   1   96.76   10.49
   7   5   1  120.32   13.51
   7   6   2  480.17   22.52
   7   6   2  506.89   23.91
   7   6   2  561.56   29.32
   7   7   3   24.46    5.16
   7   7   3   25.28    4.98
   7   7   3   26.24    5.37
   7   8   4   55.26    7.66
   7   8   4   45.33    7.48
   7   9   5   -0.20    1.39
   7   9   5    0.93    0.78
   7  10   6   -0.26    1.60
   7  10   6    0.81    1.07
   7  11   7   24.91    4.91
   7  11   7   31.38    5.56
   7  12   8   22.45    4.35
   7  -3  -8    9.78    2.59
   7  -2  -7    3.00    2.26
   7  -1  -6  102.00   11.03
   7   0  -5   28.76    6.25
   7   0  -5   29.60    6.12
   7   1  -4    3.08    1.76
   7   2  -3   25.68    6.11
   7   2  -3   25.84    5.81
   7   3  -2   10.54    3.86
   7   3  -2   13.48    4.08
   7   4  -1  145.74   13.67
   7   4  -1  122.37   11.54
   7   4  -1  125.56   12.46
   7   5   0   49.54    7.50
   7   5   0   51.34    7.79
   7   5   0   51.80    8.89
   7   6   1  121.28   11.79
   7   6   1  103.32   10.95
   7   6   1  127.38   13.98
   7   7   2  340.53   18.53
   7   7   2  295.20   17.73
   7   7   2  316.84   18.72
   7   8   3   27.26    5.25
   7   8   3   31.43    5.56
   7   8   3   35.33    6.10
   7   9   4    8.37    2.83
   7  10   5   -0.80    1.46
   7  10   5   -0.12    1.36
   7  11   6   31.10    5.58
   7  11   6   33.85    6.05
   7  12   7    2.54    1.39
   7  13   8    7.73    2.46
   7  -2  -8   -0.07    0.86
   7  -1  -7    2.07    1.58
   7   0  -6    2.24    1.63
   7   0  -6    0.82    1.37
   7   1  -5   13.24    4.08
   7   1  -5   11.61    3.95
   7   2  -4   27.32    6.30
   7   2  -4   23.47    5.52
   7   3  -3    1.84    1.47
   7   3  -3    7.83    3.28
   7   4  -2   10.72    3.63
   7   4  -2    7.99    3.05
   7   5  -1   58.18    8.45
   7   5  -1   50.77    7.87
   7   6   0   65.15    8.75
   7   6   0   56.44    8.01
   7   6   0   64.96    9.80
   7   7   1  328.02   19.40
   7   7   1  340.74   19.78
   7   7   1  369.38   23.94
   7   8   2  120.16   10.99
   7   8   2  107.59   10.66
   7   8   2  121.43   11.53
   7   9   3    4.85    1.63
   7   9   3    5.34    1.95
   7  10   4   20.16    4.56
   7  11   5   96.91    9.81
   7  11   5   91.51    9.95
   7  12   6  114.28   10.17
   7  12   6  126.59   10.88
   7  13   7   18.53    3.87
   7  -1  -8   68.04    8.04
   7   0  -7   16.04    4.10
   7   1  -6   85.45    9.90
   7   1  -6   86.94   10.68
   7   2  -5  112.84   11.55
   7   2  -5  113.26   12.54
   7   2  -5  142.10   13.65
   7   3  -4   -2.24    1.77
   7   3  -4    0.09    0.64
   7   4  -3    1.48    0.46
   7   4  -3    3.06    2.69
   7   5  -2   -2.04    2.84
   7   5  -2   -0.19    0.47
   7   6  -1  462.34   24.46
   7   6  -1  458.42   23.59
   7   7   0   36.71    6.69
   7   7   0   26.49    5.69
   7   8   1   82.45    9.82
   7   8   1   84.01    9.76
   7   9   2   98.20    9.81
   7   9   2   85.15    9.51
   7   9   2  100.18   10.25
   7  10   3   15.56    3.88
   7  10   3   20.18    4.48
   7  11   4   20.62    4.57
   7  12   5    4.79    2.23
   7  12   5    8.99    3.03
   7  13   6   51.84    6.46
   7   0  -8    3.12    1.90
   7   1  -7   42.52    6.51
   7   1  -7   35.29    6.11
   7   2  -6    1.38    1.78
   7   2  -6   -1.96    2.12
   7   3  -5   23.64    5.60
   7   3  -5   24.99    5.03
   7   3  -5   37.41    7.07
   7   4  -4    1.37    1.49
   7   4  -4   -0.39    0.67
   7   5  -3    2.94    2.12
   7   5  -3    2.10    1.54
   7   6  -2   46.82    7.88
   7   6  -2   41.55    7.21
   7   7  -1   37.31    6.74
   7   7  -1   39.38    6.90
   7   8   0   42.10    7.17
   7   8   0   46.00    7.24
   7   9   1    4.03    1.88
   7   9   1    7.69    3.24
   7  10   2   45.46    6.55
   7  10   2   42.91    6.60
   7  11   3   10.06    3.22
   7  11   3   10.11    2.96
   7  12   4    9.78    3.27
   7  12   4   11.85    3.58
   7  13   5   99.60    9.12
   7  13   5  102.23    9.34
   7  14   6   10.34    2.83
   7   1  -8    0.36    0.58
   7   2  -7   98.79    9.67
   7   2  -7   95.75   10.03
   7   3  -6    6.40    2.85
   7   3  -6    4.30    2.24
   7   3  -6    8.08    3.53
   7   4  -5    9.18    3.34
   7   4  -5   15.05    4.44
   7   5  -4   38.06    7.13
   7   5  -4   38.41    7.18
   7   6  -3   23.65    5.59
   7   6  -3   22.63    5.42
   7   7  -2   33.29    6.75
   7   7  -2   26.65    5.87
   7   8  -1   31.22    6.15
   7   8  -1   30.92    6.09
   7   9   0   13.87    4.04
   7   9   0   14.05    3.72
   7  10   1   66.80    8.73
   7  10   1   69.90    8.50
   7  11   2   91.17    9.13
   7  11   2   81.18    9.12
   7  12   3   27.89    5.10
   7  13   4   53.51    6.60
   7  13   4   60.57    7.36
   7  14   5  180.77   11.34
   7   3  -7   63.48    8.12
   7   3  -7   80.15    9.37
   7   4  -6   41.70    6.96
   7   4  -6   51.09    7.95
   7   5  -5   -0.26    1.58
   7   5  -5    1.19    1.00
   7   6  -4    2.17    1.67
   7   6  -4    2.51    1.21
   7   7  -3    0.23    0.85
   7   7  -3    1.89    1.65
   7   8  -2   39.31    6.96
   7   8  -2   46.82    7.46
   7   9  -1    8.17    2.91
   7   9  -1    9.99    3.26
   7  10   0    1.85    1.43
   7  10   0   -0.48    1.27
   7  11   1    1.81    1.28
   7  12   2  131.94   10.59
   7  12   2  135.20   11.22
   7  13   3   27.44    4.67
   7  14   4   40.12    5.36
   7   4  -7    1.62    0.97
   7   4  -7   -0.37    0.81
   7   5  -6   -0.48    0.46
   7   5  -6   -0.16    0.71
   7   6  -5    4.15    2.58
   7   6  -5    2.27    1.89
   7   7  -4   18.19    4.51
   7   7  -4   21.70    5.13
   7   8  -3   27.69    5.97
   7   8  -3   26.92    5.76
   7   9  -2    1.71    2.23
   7   9  -2    4.81    2.61
   7  10  -1   -0.73    0.94
   7  10  -1    1.90    1.56
   7  11   0   -0.29    0.82
   7  11   0    1.74    1.15
   7  12   1    0.29    0.73
   7  13   2    1.65    1.12
   7  13   2    0.88    0.86
   7   5  -7    9.45    2.92
   7   5  -7   11.80    3.59
   7   6  -6   14.99    3.90
   7   6  -6   17.08    4.40
   7   7  -5    6.24    2.72
   7   7  -5    6.63    2.68
   7   8  -4    1.34    1.55
   7   8  -4    0.64    0.55
   7   9  -3   23.35    5.10
   7   9  -3   29.14    5.93
   7  10  -2    8.06    3.20
   7  10  -2    9.49    3.29
   7  11  -1   -0.96    0.51
   7  11  -1   -1.00    1.01
   7  12   0    0.01    0.80
   7  13   1   10.52    3.02
   7   5  -8   -1.91    1.28
   7   6  -7    1.07    0.97
   7   6  -7    5.37    2.43
   7   7  -6    0.35    0.34
   7   7  -6    1.08    0.62
   7   8  -5    7.05    2.54
   7   8  -5    4.85    2.33
   7   9  -4   15.00    4.25
   7   9  -4   16.87    4.24
   7  10  -3   -0.43    0.57
   7  10  -3   -0.70    1.47
   7  11  -2    0.01    1.37
   7  11  -2   -0.46    1.07
   7  12  -1    0.52    0.57
   7  12  -1    2.65    1.32
   7  13   0    3.48    1.66
   7   6  -8    1.70    1.14
   7   7  -7   -0.24    0.45
   7   7  -7    0.05    0.68
   7   8  -6   -0.76    1.31
   7   8  -6    0.28    0.70
   7   9  -5   -0.14    1.28
   7   9  -5   -0.51    0.36
   7  10  -4    2.07    1.53
   7  10  -4    0.12    0.59
   7  11  -3    9.17    2.85
   7  11  -3    9.18    2.98
   7  12  -2   -0.87    1.35
   7  12  -2    0.03    0.40
   7  13  -1   -1.08    0.95
   7   8  -7   12.60    3.25
   7   9  -6    1.55    0.98
   7   9  -6    4.32    1.90
   7  10  -5   14.07    3.51
   7  10  -5   21.14    4.44
   7  11  -4    0.18    0.73
   7  11  -4   -0.30    0.41
   7  12  -3    4.24    1.67
   7  12  -3    4.50    1.80
  -8   5  -7    2.60    1.45
  -8   4  -8   55.27    6.85
  -8   3  -9   -1.08    1.28
  -8   2 -10   -0.28    0.96
  -8   5  -6    1.06    0.90
  -8   4  -7    0.93    0.57
  -8   3  -8   12.73    3.46
  -8   2  -9   21.25    4.43
  -8   1 -10    8.32    2.72
   8  -1  10    4.13    1.99
  -8   0 -11    2.45    1.42
   8   0  11    0.36    0.60
  -8   5  -5    5.67    2.51
   8  -5   5   -0.82    0.88
  -8   4  -6   28.96    5.58
  -8   3  -7    4.85    2.33
  -8   2  -8    0.41    0.85
  -8   1  -9    9.83    3.29
  -8   0 -10  121.26   11.06
   8   0  10  102.76   10.14
  -8  -1 -11   23.96    4.67
   8   1  11   15.84    3.78
   8   2  12   14.48    3.42
   8  -6   3   23.33    4.93
   8  -6   3   38.31    6.99
  -8   5  -4   13.82    3.79
   8  -5   4   10.27    3.17
  -8   4  -5    0.56    0.70
   8  -4   5   -0.32    0.63
  -8   3  -6    2.70    2.15
   8  -3   6   -1.23    1.15
  -8   2  -7   23.94    5.52
   8  -2   7   22.17    4.67
  -8   1  -8   19.89    5.14
  -8   0  -9   20.37    5.01
  -8  -1 -10    6.88    3.07
   8   1  10    4.66    1.83
  -8  -2 -11   68.76    8.18
   8   2  11   51.72    6.99
   8   3  12   -1.26    1.27
   8  -6   2   26.44    5.38
   8  -6   2   33.20    6.56
  -8   5  -3   17.29    3.81
   8  -5   3    8.66    3.01
   8  -5   3   16.81    4.96
  -8   4  -4   -0.09    0.80
   8  -4   4    0.58    0.91
   8  -3   5   39.48    6.92
  -8   3  -5   44.78    7.50
  -8   2  -6   20.77    5.28
   8  -2   6   17.59    4.64
   8  -1   7   89.00   10.03
  -8   1  -7  109.52   12.30
   8   0   8    4.77    1.52
   8   1   9   82.01   11.45
   8   2  10   63.90    9.38
   8   2  10  115.77   10.89
   8   3  11   33.39    5.51
   8   4  12   16.42    3.64
   8  -6   1    3.73    2.04
   8  -5   2   31.57    6.25
   8  -4   3   84.55   10.65
  -8   4  -3   97.93   10.45
  -8   3  -4    3.80    2.44
   8  -3   4    1.08    0.79
   8  -2   5   36.58    6.96
  -8   2  -5   51.31    8.74
   8  -1   6    4.23    2.75
   8   0   7    7.61    3.01
   8   1   8  116.19   13.39
   8   2   9   14.59    4.35
   8   3  10    0.74    0.83
   8   3  10   -1.05    1.86
   8   4  11   24.46    4.68
   8   5  12    4.80    2.06
   8  -6   0   24.22    5.37
   8  -5   1   12.39    4.11
   8  -4   2   23.15    5.87
  -8   3  -3   30.32    6.21
   8  -3   3   26.20    6.38
   8  -2   4   57.74    9.21
  -8   2  -4   72.27   10.23
   8  -1   5   48.02    8.01
   8   0   6   99.89   13.62
   8   1   7  152.66   15.99
   8   2   8   20.83    5.87
   8   3   9  133.31   13.45
   8   4  10    0.47    1.33
   8   4  10   -0.04    1.40
   8   5  11   -0.61    1.11
   8   6  12    3.41    1.57
   8  -6  -1    2.28    1.62
   8  -5   0   11.10    3.69
   8  -4   1  100.36   12.04
  -8   3  -2    3.48    1.99
   8  -3   2    1.72    1.50
  -8   2  -3    9.97    3.58
   8  -2   3   32.93    7.00
   8  -1   4  118.06   13.35
   8   0   5    3.51    2.52
   8   1   6    0.30    0.97
   8   2   7    2.87    2.09
   8   3   8    8.17    3.72
   8   4   9   67.76    9.53
   8   5  10    8.47    2.87
   8   5  10   10.51    3.14
   8   6  11    0.67    0.69
   8   6  11    2.58    1.45
   8  -5  -1    5.20    2.46
   8  -4   0    1.85    1.23
   8  -4   0    1.07    0.63
   8  -3   1    3.86    2.40
   8  -3   1   -0.35    1.93
   8  -2   2   44.53    8.31
  -8   2  -2   62.30    8.91
   8  -1   3  107.75   13.13
   8   0   4    0.06    2.54
   8   1   5   10.70    4.37
   8   2   6   45.76    9.28
   8   3   7   22.60    6.70
   8   4   8   16.64    5.13
   8   5   9    1.75    0.89
   8   6  10   17.40    4.24
   8   6  10   16.55    3.80
   8   7  11    0.55    1.76
   8   7  11    1.00    0.92
   8  -5  -2   12.53    3.81
   8  -4  -1   11.16    3.40
   8  -4  -1    7.61    3.19
   8  -3   0   17.90    4.70
   8  -3   0   10.82    3.92
   8  -2   1    2.99    2.00
   8  -1   2   30.76    7.28
   8   0   3  111.28   14.65
   8   1   4    8.34    3.55
   8   2   5    3.91    2.13
   8   3   6  176.88   17.17
   8   4   7   60.90    9.89
   8   5   8    1.83    1.95
   8   6   9   22.52    5.30
   8   7  10    1.86    0.93
   8   8  11   -2.25    1.27
   8  -4  -2   55.11    7.56
   8  -4  -2   67.37    9.21
   8  -3  -1   11.81    3.70
   8  -3  -1   12.06    4.02
   8  -2   0  117.15   13.51
   8  -1   1   10.68    3.81
   8   0   2   30.99    5.95
   8   0   2   29.96    7.95
   8   1   3   39.09    6.30
   8   1   3   38.21    8.79
   8   2   4   20.20    6.14
   8   3   5    4.25    1.58
   8   4   6  203.08   18.06
   8   5   7   31.76    6.84
   8   6   8    2.45    1.89
   8   7   9   78.52    9.84
   8   8  10    0.43    1.53
   8  -4  -3   -0.24    1.03
   8  -4  -3    3.78    2.05
   8  -3  -2    2.00    1.75
   8  -3  -2    3.06    1.95
   8  -2  -1   -1.28    1.28
   8  -2  -1   -1.11    1.53
   8  -1   0   50.47    8.80
   8   0   1  135.64   12.75
   8   0   1  138.39   15.13
   8   0   1  100.23   13.66
   8   1   2    4.44    2.19
   8   1   2    3.36    2.54
   8   2   3    1.06    1.55
   8   2   3    1.31    2.20
   8   3   4    5.36    2.52
   8   3   4    3.91    1.57
   8   4   5  280.75   18.63
   8   4   5  314.23   23.16
   8   5   6  242.28   17.57
   8   5   6  228.85   18.97
   8   6   7    9.24    3.54
   8   6   7    4.24    2.37
   8   7   8    3.13    2.58
   8   8   9   22.19    5.02
   8   9  10   -0.48    0.72
   8  -4  -4   28.71    5.12
   8  -3  -3   13.71    3.96
   8  -3  -3   14.55    3.97
   8  -2  -2   12.76    4.00
   8  -2  -2    9.84    3.78
   8  -1  -1   29.61    6.57
   8   0   0    3.22    2.07
   8   0   0    3.09    2.97
   8   1   1   82.77   10.05
   8   1   1   64.77   10.87
   8   2   2   32.02    5.90
   8   2   2   33.68    6.37
   8   2   2   24.83    6.50
   8   3   3  144.33   12.03
   8   3   3  147.37   13.33
   8   3   3  143.24   16.00
   8   4   4    7.42    3.38
   8   4   4    6.69    3.31
   8   5   5   43.62    7.23
   8   5   5   48.84    8.94
   8   6   6   18.03    5.20
   8   6   6   20.19    4.83
   8   7   7   60.72    8.34
   8   7   7   52.43    8.78
   8   8   8    0.43    1.34
   8   9   9   14.39    4.01
   8  -3  -4    5.26    2.29
   8  -2  -3   44.07    7.19
   8  -2  -3   45.62    7.30
   8  -1  -2   30.46    6.51
   8   0  -1   18.45    5.11
   8   0  -1   18.58    5.32
   8   1   0    6.10    2.90
   8   1   0    6.27    3.28
   8   2   1  117.15   11.81
   8   2   1  114.56   11.76
   8   2   1   94.50   13.08
   8   3   2   16.75    4.24
   8   3   2   21.35    5.14
   8   3   2   13.68    4.83
   8   4   3    1.44    1.05
   8   4   3    3.21    1.86
   8   4   3   -0.09    2.43
   8   5   4   16.56    4.26
   8   5   4   14.91    5.29
   8   6   5    7.92    4.03
   8   6   5    4.41    2.16
   8   7   6    1.92    1.54
   8   7   6    2.98    1.86
   8   8   7    9.28    3.39
   8   8   7   11.87    3.97
   8   9   8   -3.11    1.88
   8  10   9    6.70    2.56
   8  -3  -5   10.63    3.09
   8  -2  -4    5.05    2.17
   8  -1  -3   15.66    4.40
   8  -1  -3   10.62    3.33
   8   0  -2    3.04    2.24
   8   0  -2    3.72    2.67
   8   1  -1    4.68    2.94
   8   1  -1    4.69    2.87
   8   2   0    9.91    3.76
   8   3   1   24.78    5.00
   8   3   1   18.69    4.67
   8   3   1   13.82    4.47
   8   4   2   -0.13    1.49
   8   4   2    1.20    0.57
   8   4   2    1.04    2.68
   8   5   3    9.84    3.00
   8   5   3    8.72    3.40
   8   5   3    6.50    3.69
   8   6   4  154.13   13.43
   8   6   4  181.67   16.94
   8   7   5    6.87    3.24
   8   7   5    7.61    3.02
   8   8   6    5.08    1.78
   8   8   6    6.88    2.80
   8   9   7    2.04    1.58
   8   9   7   -0.01    0.48
   8  10   8    1.52    1.21
   8  11   9    5.42    2.61
   8  -2  -5    0.51    0.72
   8  -1  -4   23.21    5.07
   8   0  -3   27.83    5.86
   8   0  -3   32.87    6.51
   8   1  -2   82.32   10.67
   8   1  -2   80.58   10.19
   8   2  -1   11.80    3.83
   8   3   0    5.15    2.34
   8   4   1   12.62    3.56
   8   4   1   11.41    3.57
   8   4   1   11.71    4.18
   8   5   2   14.45    3.90
   8   5   2   15.32    4.38
   8   5   2   17.07    4.98
   8   6   3   58.69    7.40
   8   6   3   46.07    7.44
   8   6   3   52.96    9.03
   8   7   4   22.94    5.81
   8   7   4   24.38    5.25
   8   8   5    0.41    0.38
   8   8   5    1.38    0.68
   8   9   6    2.78    0.94
   8   9   6    3.51    1.98
   8  10   7    2.23    1.61
   8  10   7    3.88    2.25
   8  11   8    8.00    2.82
   8  -1  -5    4.17    2.09
   8   0  -4    1.36    1.45
   8   1  -3   -0.03    0.43
   8   2  -2   10.21    3.54
   8   2  -2    8.37    3.04
   8   3  -1    0.96    1.45
   8   4   0   -0.99    1.29
   8   4   0    0.33    0.71
   8   5   1   11.51    3.64
   8   5   1    7.97    3.06
   8   5   1    6.89    2.23
   8   6   2    4.76    2.02
   8   6   2    4.40    2.29
   8   6   2    5.92    3.15
   8   7   3   16.40    5.17
   8   7   3   17.53    4.00
   8   7   3   15.28    4.17
   8   8   4   12.55    4.59
   8   8   4    8.08    3.03
   8   9   5    0.37    1.13
   8   9   5    0.47    1.31
   8  10   6    7.09    3.58
   8  10   6    5.43    2.63
   8  11   7   -0.08    1.39
   8  11   7   -5.05    2.06
   8  -1  -6   10.52    2.84
   8   0  -5   10.58    3.15
   8   1  -4    8.26    3.40
   8   1  -4    5.86    2.54
   8   2  -3   12.37    4.13
   8   3  -2   48.56    7.99
   8   4  -1    0.26    0.55
   8   5   0    8.79    3.02
   8   5   0    9.59    3.22
   8   6   1    2.92    1.35
   8   6   1    2.43    1.82
   8   6   1    6.54    2.91
   8   7   2  165.43   13.00
   8   7   2  151.66   13.04
   8   7   2  174.32   16.06
   8   8   3   31.61    5.34
   8   8   3   26.20    5.74
   8   8   3   40.00    7.64
   8   9   4    7.38    3.09
   8   9   4    4.52    2.39
   8  10   5    3.37    2.22
   8  10   5    3.75    1.94
   8  11   6    0.88    1.64
   8  11   6    0.64    0.92
   8  12   7    1.02    0.99
   8   0  -6   11.87    3.19
   8   1  -5    5.95    2.80
   8   1  -5    4.66    2.11
   8   2  -4    7.72    2.70
   8   2  -4    5.75    2.44
   8   3  -3    2.68    2.33
   8   4  -2    9.75    3.35
   8   5  -1    3.32    1.73
   8   5  -1    1.94    1.84
   8   6   0   11.65    3.78
   8   6   0   13.01    4.19
   8   7   1    6.35    2.76
   8   7   1    7.42    3.02
   8   7   1    2.81    2.56
   8   8   2    2.11    1.28
   8   8   2    0.08    0.95
   8   8   2    2.64    1.70
   8   9   3    1.44    1.36
   8   9   3   -2.21    1.39
   8   9   3    1.58    1.49
   8  10   4    0.82    2.17
   8  10   4    0.38    0.88
   8  11   5    7.82    3.68
   8  11   5    5.33    2.34
   8  12   6    8.32    3.43
   8  12   6    7.45    2.41
   8   1  -6   -0.56    0.96
   8   2  -5    3.04    1.60
   8   2  -5    0.88    1.06
   8   3  -4    1.03    0.45
   8   3  -4   -4.10    2.00
   8   4  -3    0.72    0.52
   8   5  -2    0.11    0.95
   8   5  -2    1.17    1.74
   8   6  -1   -1.12    0.76
   8   6  -1    1.41    1.73
   8   6  -1    0.98    1.32
   8   7   0   17.89    4.61
   8   7   0   14.05    4.02
   8   7   0   17.29    4.50
   8   8   1   11.01    3.69
   8   8   1    5.15    2.52
   8   8   1    4.51    2.66
   8   9   2   22.02    5.56
   8   9   2   20.28    4.33
   8   9   2   16.14    4.25
   8  10   3    1.26    1.53
   8  10   3    2.17    1.42
   8  11   4    1.60    1.81
   8  11   4    3.43    1.88
   8  12   5   28.38    4.77
   8  12   5   19.70    5.87
   8   2  -6   13.64    3.43
   8   2  -6   12.55    3.21
   8   3  -5   -0.45    1.40
   8   3  -5    0.33    0.96
   8   4  -4   10.57    3.27
   8   4  -4    9.23    2.80
   8   5  -3    5.85    2.72
   8   5  -3    5.84    3.01
   8   6  -2   25.06    5.39
   8   6  -2   24.07    5.30
   8   7  -1   19.77    4.75
   8   7  -1   20.53    4.96
   8   7  -1   17.14    4.66
   8   8   0   70.34    8.68
   8   8   0   70.12    8.69
   8   8   0   68.25    8.66
   8   9   1   -0.15    0.48
   8   9   1    0.34    1.14
   8  10   2    5.08    2.39
   8  10   2    5.40    1.99
   8  10   2    3.54    1.81
   8  11   3    1.06    1.84
   8  11   3   -0.23    0.58
   8  12   4   -0.45    1.77
   8  12   4    1.40    1.09
   8   3  -6   -3.32    1.70
   8   4  -5    3.55    1.96
   8   5  -4   -0.15    0.60
   8   5  -4    0.18    1.35
   8   6  -3    5.21    2.39
   8   6  -3    5.42    2.45
   8   7  -2    1.07    1.72
   8   7  -2   -1.37    1.44
   8   7  -2    1.14    2.25
   8   8  -1    6.16    2.94
   8   8  -1    2.80    1.97
   8   8  -1    5.61    2.77
   8   9   0    4.15    2.30
   8   9   0    2.37    1.34
   8  10   1    5.83    2.26
   8  10   1    4.90    2.15
   8  11   2    1.17    1.13
   8  11   2   -1.25    1.38
   8  11   2    2.79    1.92
   8  12   3   10.25    3.65
   8  12   3    7.34    2.66
   8   4  -6   40.29    5.87
   8   5  -5    9.28    3.06
   8   6  -4   41.24    6.64
   8   6  -4   46.04    7.08
   8   7  -3    2.86    1.95
   8   7  -3    3.52    2.21
   8   8  -2   50.26    7.37
   8   8  -2   51.01    6.95
   8   8  -2   48.24    7.24
   8   9  -1   11.43    3.52
   8   9  -1   10.54    3.45
   8  10   0   19.38    4.24
   8  10   0   15.47    3.70
   8  11   1    4.34    1.47
   8  11   1    4.15    2.18
   8  12   2    0.17    0.45
   8   5  -6   25.49    4.47
   8   6  -5   25.99    4.87
   8   6  -5   29.20    5.29
   8   7  -4   69.08    8.24
   8   7  -4   76.78    8.90
   8   8  -3   12.87    3.82
   8   8  -3   13.42    3.40
   8   8  -3   11.16    3.47
   8   9  -2   21.16    4.61
   8   9  -2   18.96    4.53
   8  10  -1   36.75    5.87
   8  10  -1   35.11    5.71
   8  11   0    1.30    0.80
   8  12   1    0.16    0.33
   8   7  -5   26.31    4.66
   8   7  -5   31.10    5.33
   8   8  -4    5.15    2.20
   8   8  -4    4.83    2.46
   8   9  -3    3.97    1.85
   8   9  -3    6.14    2.03
   8   9  -3    3.95    1.85
   8  10  -2   -0.09    0.50
   8  10  -2   -1.09    1.26
   8  11  -1    8.78    2.64
   8  11  -1    5.59    2.08
   8  12   0    0.05    0.61
   8   8  -5    1.80    1.55
   8   9  -4   26.61    4.58
   8   9  -4   33.50    5.33
   8  10  -3   30.42    4.91
   8  10  -3   37.34    5.51
  -9   1  -8    7.85    2.59
  -9   2  -6   13.03    3.52
  -9   1  -7    2.64    1.25
  -9   0  -8   30.36    5.38
  -9  -1  -9  108.95   10.19
   9  -3   4    4.34    1.90
  -9   2  -5    0.65    0.81
   9  -2   5    0.92    0.85
  -9   1  -6   14.50    4.08
   9  -1   6   11.05    3.07
  -9   0  -7   17.50    4.48
   9   0   7   12.10    3.22
   9   1   8   32.56    5.09
  -9  -1  -8   37.02    6.68
  -9  -2  -9  142.12   12.07
   9  -3   3   16.04    3.85
  -9   2  -4    8.94    2.99
   9  -2   4    7.08    2.63
  -9   1  -5    9.29    3.31
   9  -1   5   11.17    3.47
   9   0   6   28.49    5.45
  -9   0  -6   27.94    5.85
   9   1   7    1.12    1.75
   9   2   8    1.81    2.71
   9   3   9    2.90    1.67
   9  -3   2   12.76    3.56
   9  -2   3    6.13    2.39
  -9   1  -4   16.19    4.40
   9  -1   4   16.63    4.20
  -9   0  -5   23.01    5.56
   9   0   5   20.66    5.05
   9   1   6   29.77    6.38
   9   2   7    1.78    0.85
   9   3   8   10.67    3.32
   9   4   9   11.03    3.04
   9  -3   1    1.81    1.37
   9  -2   2    7.94    3.00
   9  -2   2    6.38    2.50
   9  -1   3  117.86   11.94
  -9   1  -3  123.95   11.51
  -9   0  -4   11.47    3.93
   9   0   4    5.34    2.34
   9   1   5   29.99    6.81
   9   2   6   74.75   10.91
   9   3   7   61.06    9.62
   9   4   8   22.31    4.72
   9   5   9   15.95    3.84
   9  -2   1    3.61    1.75
   9  -2   1    0.66    0.37
   9  -1   2    6.47    2.79
  -9   0  -3   -0.56    1.36
   9   0   3    1.19    1.69
   9   1   4   62.46    9.72
   9   2   5   12.27    4.21
   9   3   6   36.07    7.35
   9   4   7    0.34    0.64
   9   5   8    5.97    2.65
   9   6   9    3.63    1.93
   9  -2   0    5.87    2.23
   9  -2   0    7.56    2.95
   9  -1   1    7.16    3.05
   9   0   2    2.47    1.77
   9   1   3   18.63    5.07
   9   2   4    3.15    0.92
   9   3   5   54.81    9.27
   9   4   6    4.33    1.79
   9   5   7    2.24    0.93
   9   6   8   17.27    4.35
   9   7   9    8.76    2.71
   9  -1   0   13.14    3.64
   9  -1   0   10.04    3.25
   9   0   1    5.05    2.81
   9   1   2    3.63    2.23
   9   2   3    6.39    2.74
   9   3   4   94.02   12.41
   9   4   5   98.87   11.99
   9   5   6   27.91    6.08
   9   6   7    1.47    1.72
   9   7   8   24.88    5.35
   9  -1  -1    0.82    0.43
   9  -1  -1   -0.23    0.53
   9   0   0   36.67    6.56
   9   1   1    0.64    1.24
   9   2   2    9.00    2.78
   9   2   2    0.63    1.02
   9   3   3    0.72    0.97
   9   3   3    1.80    2.51
   9   4   4    2.68    2.14
   9   5   5    4.70    2.50
   9   6   6    2.27    1.71
   9   7   7    9.89    3.37
   9   8   8   -1.10    1.06
   9  -1  -2   23.81    4.54
   9   0  -1    9.17    3.05
   9   0  -1    5.13    2.00
   9   1   0   27.31    5.55
   9   2   1    8.47    3.01
   9   2   1    9.54    3.56
   9   3   2   -0.40    1.38
   9   3   2   -0.70    2.68
   9   4   3   14.28    3.49
   9   4   3   11.69    3.99
   9   5   4    2.89    1.12
   9   6   5   -3.73    2.21
   9   7   6    0.18    1.36
   9   8   7    3.76    2.05
   9   0  -2   15.42    3.72
   9   1  -1    6.16    2.50
   9   2   0    2.82    1.77
   9   2   0    1.18    1.31
   9   3   1   27.13    5.16
   9   4   2    0.30    0.51
   9   4   2    1.50    1.47
   9   5   3   -0.10    0.82
   9   5   3   -0.84    0.58
   9   6   4   58.32    7.78
   9   6   4   60.13    9.16
   9   7   5    8.38    3.05
   9   7   5    8.42    3.28
   9   8   6   13.81    3.92
   9   9   7    2.67    1.91
   9   0  -3   29.81    4.90
   9   1  -2   19.92    4.21
   9   2  -1   11.80    3.70
   9   2  -1    9.42    3.01
   9   3   0    6.07    2.18
   9   3   0    9.74    3.47
   9   4   1    3.17    1.72
   9   5   2   -1.33    1.08
   9   5   2    0.36    0.60
   9   5   2    0.58    0.92
   9   6   3   30.82    4.87
   9   6   3   34.88    5.91
   9   6   3   32.43    6.73
   9   7   4    5.68    2.39
   9   7   4    5.83    2.87
   9   8   5    1.35    0.97
   9   8   5    3.20    1.58
   9   9   6    1.09    0.99
   9   9   6    2.43    2.13
   9   1  -3    8.95    2.74
   9   2  -2    0.53    0.30
   9   2  -2    0.06    0.32
   9   3  -1   -1.01    1.56
   9   4   0   13.95    3.74
   9   5   1    2.43    1.39
   9   5   1    2.93    1.55
   9   6   2    3.41    1.50
   9   6   2    4.01    2.06
   9   6   2    0.83    1.06
   9   7   3   30.95    5.48
   9   7   3   27.15    6.03
   9   8   4   11.59    3.59
   9   8   4   15.65    4.24
   9   9   5   14.19    3.44
   9   9   5   11.52    3.57
   9   2  -3    8.70    2.78
   9   2  -3   13.27    3.29
   9   3  -2   15.49    3.93
   9   4  -1    0.45    0.70
   9   5   0    4.58    1.88
   9   6   1   12.54    3.19
   9   6   1   13.42    3.68
   9   7   2   56.83    6.71
   9   7   2   57.30    7.43
   9   7   2   78.15    9.62
   9   8   3    0.61    1.18
   9   8   3   -0.02    0.35
   9   9   4    2.36    1.27
   9   9   4    2.92    1.85
   9  10   5    1.88    1.32
   9  10   5    1.73    1.29
   9   3  -3    7.64    2.65
   9   3  -3    7.61    2.38
   9   4  -2    0.96    0.80
   9   5  -1    2.50    1.55
   9   6   0    7.06    2.36
   9   6   0    8.71    2.88
   9   7   1    3.18    1.86
   9   7   1    3.60    1.96
   9   8   2    3.83    1.67
   9   8   2    2.97    1.83
   9   9   3    2.18    1.43
   9   9   3    0.48    1.27
   9  10   4    7.43    2.37
   9   4  -3    0.59    0.52
   9   4  -3    2.54    1.47
   9   5  -2    4.89    1.96
   9   6  -1    4.31    2.12
   9   7   0   61.20    7.17
   9   7   0   55.11    6.87
   9   8   1   13.95    3.22
   9   8   1   16.54    3.99
   9   9   2   55.13    6.11
   9   9   2   55.29    7.02
   9  10   3    0.99    0.96
   9   5  -3    0.92    0.85
   9   6  -2    1.03    0.49
   9   7  -1   18.18    3.81
   9   8   0   12.02    3.08
   9   8   0    9.74    2.75
   9   9   1    0.57    0.33
   9   9   1    0.78    1.59
   9  10   2   37.77    5.42
   9   7  -2    5.71    2.24
   9   8  -1    1.76    1.40
   0   0   0    0.00    0.00

TITL 20170606-LJY-1-2 in P-1
REM P-1 (#2 in standard setting)
CELL 1.54184   8.602735  14.665883  14.828564  82.0136  77.6535  76.9264
ZERR   16.00   0.000762   0.000859   0.000868   0.0048   0.0061   0.0062
LATT  1
SFAC C H N O
UNIT 176.00 160.00 16.00 16.00
TREF
HKLF 4
END
_computing_structure_solution     'SHELXT 2014/5 (Sheldrick, 2014)'
;
_shelx_hkl_checksum              87499
loop_
_space_group_symop_operation_xyz
'x, y, z'
'-x, -y, -z'
loop_
_atom_site_label
_atom_site_type_symbol
_atom_site_fract_x
_atom_site_fract_y
_atom_site_fract_z
_atom_site_U_iso_or_equiv
_atom_site_adp_type
_atom_site_occupancy
_atom_site_site_symmetry_order
_atom_site_calc_flag
_atom_site_refinement_flags_posn
_atom_site_refinement_flags_adp
S1 S 0.7245(2) 0.57655(10) 0.07853(10) 0.0900(6) Uani 1 1 d . .
O1 O 0.9452(4) 0.8453(3) 0.1076(3) 0.0897(12) Uani 1 1 d . .
O2 O 0.4485(3) 0.82544(18) 0.08277(19) 0.0531(7) Uani 1 1 d . .
O3 O 0.5744(4) 0.7409(2) 0.1944(2) 0.0707(9) Uani 1 1 d . .
N1 N 0.7253(4) 0.8983(2) 0.0380(2) 0.0512(8) Uani 1 1 d . .
H1B H 0.679985 0.889526 -0.005584 0.061 Uiso 1 1 calc R U
N2 N 0.8514(5) 0.7816(3) -0.0928(2) 0.0591(9) Uani 1 1 d . .
C1 C 0.9135(7) 0.7261(4) -0.1604(3) 0.0749(14) Uani 1 1 d . .
H1A H 0.848056 0.722465 -0.201676 0.090 Uiso 1 1 calc R U
C2 C 1.0698(7) 0.6734(4) -0.1730(4) 0.0761(14) Uani 1 1 d . .
H2A H 1.109618 0.636396 -0.222300 0.091 Uiso 1 1 calc R U
C3 C 1.1645(6) 0.6771(4) -0.1110(4) 0.0724(13) Uani 1 1 d . .
H3A H 1.270660 0.642657 -0.118776 0.087 Uiso 1 1 calc R U
C4 C 1.1056(5) 0.7315(3) -0.0364(3) 0.0615(11) Uani 1 1 d . .
H4A H 1.167230 0.733134 0.007563 0.074 Uiso 1 1 calc R U
C5 C 0.9457(5) 0.7837(3) -0.0323(3) 0.0503(9) Uani 1 1 d . .
C6 C 0.8735(5) 0.8461(3) 0.0442(3) 0.0566(10) Uani 1 1 d . .
C7 C 0.6396(5) 0.9670(3) 0.0991(3) 0.0487(9) Uani 1 1 d . .
C8 C 0.7145(6) 1.0351(3) 0.1125(3) 0.0628(11) Uani 1 1 d . .
H8A H 0.820172 1.035723 0.081032 0.075 Uiso 1 1 calc R U
C9 C 0.6359(7) 1.1043(3) 0.1725(3) 0.0674(12) Uani 1 1 d . .
H9A H 0.690584 1.149066 0.181808 0.081 Uiso 1 1 calc R U
C10 C 0.4814(7) 1.1061(3) 0.2168(3) 0.0635(12) Uani 1 1 d . .
H10A H 0.430238 1.152826 0.255948 0.076 Uiso 1 1 calc R U
C11 C 0.3962(5) 1.0389(3) 0.2051(3) 0.0528(10) Uani 1 1 d . .
C12 C 0.2334(6) 1.0432(3) 0.2494(3) 0.0630(11) Uani 1 1 d . .
H12A H 0.182781 1.090823 0.287619 0.076 Uiso 1 1 calc R U
C13 C 0.1489(6) 0.9804(4) 0.2382(4) 0.0712(13) Uani 1 1 d . .
H13A H 0.040303 0.985808 0.266643 0.085 Uiso 1 1 calc R U
C14 C 0.2257(5) 0.9065(3) 0.1831(3) 0.0632(11) Uani 1 1 d . .
H14A H 0.168430 0.862013 0.176295 0.076 Uiso 1 1 calc R U
C15 C 0.3829(5) 0.8997(3) 0.1399(3) 0.0484(9) Uani 1 1 d . .
C16 C 0.4769(5) 0.9657(2) 0.1457(2) 0.0442(8) Uani 1 1 d . .
C17 C 0.5399(5) 0.7476(3) 0.1196(3) 0.0480(9) Uani 1 1 d . .
C18 C 0.5919(5) 0.6752(3) 0.0551(3) 0.0497(9) Uani 1 1 d . .
C19 C 0.5407(4) 0.6789(2) -0.0343(2) 0.0422(8) Uani 1 1 d . .
H19A H 0.465512 0.725902 -0.059620 0.051 Uiso 1 1 calc R U
C20 C 0.6308(7) 0.5950(4) -0.0736(4) 0.0779(14) Uani 1 1 d . .
H20A H 0.621716 0.581066 -0.131337 0.094 Uiso 1 1 calc R U
C21 C 0.7293(8) 0.5376(4) -0.0221(4) 0.0858(17) Uani 1 1 d . .
H21A H 0.794370 0.481127 -0.040878 0.103 Uiso 1 1 calc R U
S1' S 0.2801(2) 1.08679(11) 0.49755(11) 0.0990(6) Uani 1 1 d . .
O1' O 0.5208(4) 1.3381(3) 0.2716(2) 0.0761(10) Uani 1 1 d . .
O2' O 0.0623(3) 1.34840(16) 0.48585(16) 0.0423(6) Uani 1 1 d . .
O3' O 0.1272(4) 1.2490(2) 0.37498(19) 0.0647(9) Uani 1 1 d . .
N1' N 0.3428(4) 1.4041(2) 0.3932(2) 0.0466(8) Uani 1 1 d . .
H1'B H 0.319140 1.401179 0.452731 0.056 Uiso 1 1 calc R U
N2' N 0.5047(4) 1.2903(3) 0.5122(2) 0.0587(9) Uani 1 1 d . .
C1' C 0.5849(7) 1.2343(4) 0.5736(3) 0.0745(13) Uani 1 1 d . .
H1'A H 0.543944 1.239243 0.636471 0.089 Uiso 1 1 calc R U
C2' C 0.7250(7) 1.1698(4) 0.5481(4) 0.0827(16) Uani 1 1 d . .
H2'A H 0.777146 1.132137 0.593097 0.099 Uiso 1 1 calc R U
C3' C 0.7865(6) 1.1612(4) 0.4580(4) 0.0737(13) Uani 1 1 d . .
H3'A H 0.882406 1.118352 0.439930 0.088 Uiso 1 1 calc R U
C4' C 0.7062(5) 1.2165(3) 0.3927(3) 0.0564(10) Uani 1 1 d . .
H4'A H 0.745317 1.211219 0.329687 0.068 Uiso 1 1 calc R U
C5' C 0.5664(4) 1.2800(3) 0.4230(3) 0.0476(9) Uani 1 1 d . .
C6' C 0.4757(4) 1.3434(3) 0.3536(3) 0.0498(9) Uani 1 1 d . .
C7' C 0.2409(5) 1.4716(3) 0.3427(2) 0.0436(8) Uani 1 1 d . .
C8' C 0.3095(5) 1.5329(3) 0.2766(3) 0.0576(10) Uani 1 1 d . .
H8'A H 0.421201 1.528877 0.266206 0.069 Uiso 1 1 calc R U
C9' C 0.2152(6) 1.6016(3) 0.2239(3) 0.0657(12) Uani 1 1 d . .
H9'A H 0.264852 1.642350 0.179090 0.079 Uiso 1 1 calc R U
C10' C 0.0518(6) 1.6090(3) 0.2381(3) 0.0605(11) Uani 1 1 d . .
H10B H -0.009800 1.654277 0.202429 0.073 Uiso 1 1 calc R U
C11' C -0.0251(5) 1.5482(2) 0.3066(2) 0.0472(9) Uani 1 1 d . .
C12' C -0.1973(5) 1.5585(3) 0.3241(3) 0.0555(10) Uani 1 1 d . .
H12B H -0.258587 1.605099 0.289434 0.067 Uiso 1 1 calc R U
C13' C -0.2735(5) 1.5015(3) 0.3903(3) 0.0576(11) Uani 1 1 d . .
H13B H -0.386035 1.509248 0.400831 0.069 Uiso 1 1 calc R U
C14' C -0.1831(5) 1.4312(3) 0.4427(3) 0.0493(9) Uani 1 1 d . .
H14B H -0.235518 1.392688 0.488636 0.059 Uiso 1 1 calc R U
C15' C -0.0180(4) 1.4189(2) 0.4267(2) 0.0399(8) Uani 1 1 d . .
C16' C 0.0697(4) 1.4772(2) 0.3598(2) 0.0398(8) Uani 1 1 d . .
C17' C 0.1225(4) 1.2626(2) 0.4525(2) 0.0420(8) Uani 1 1 d . .
C18' C 0.1792(4) 1.1932(3) 0.5251(2) 0.0444(8) Uani 1 1 d . .
C19' C 0.1540(4) 1.20726(18) 0.62993(18) 0.0264(6) Uani 1 1 d . .
H19C H 0.100625 1.259148 0.661980 0.032 Uiso 1 1 calc R U
C20' C 0.2412(7) 1.1126(4) 0.6637(4) 0.0795(15) Uani 1 1 d . .
H20B H 0.249158 1.097831 0.725869 0.095 Uiso 1 1 calc R U
C21' C 0.3061(7) 1.0512(3) 0.6030(4) 0.0752(14) Uani 1 1 d . .
H21C H 0.363038 0.991385 0.619213 0.090 Uiso 1 1 calc R U
loop_
_atom_site_aniso_label
_atom_site_aniso_U_11
_atom_site_aniso_U_22
_atom_site_aniso_U_33
_atom_site_aniso_U_23
_atom_site_aniso_U_13
_atom_site_aniso_U_12
S1 0.1267(13) 0.0628(8) 0.0744(9) -0.0162(6) -0.0367(8) 0.0161(8)
O1 0.072(2) 0.120(3) 0.085(2) -0.039(2) -0.0427(19) 0.008(2)
O2 0.0636(16) 0.0442(14) 0.0551(16) -0.0133(12) -0.0255(13) 0.0004(12)
O3 0.107(3) 0.0518(17) 0.0484(17) -0.0085(13) -0.0279(16) 0.0094(16)
N1 0.0534(18) 0.058(2) 0.0404(16) -0.0057(14) -0.0143(14) -0.0011(15)
N2 0.069(2) 0.063(2) 0.0398(17) -0.0023(15) -0.0114(16) -0.0020(17)
C1 0.094(4) 0.077(3) 0.048(2) -0.010(2) -0.010(2) -0.008(3)
C2 0.093(4) 0.064(3) 0.061(3) -0.009(2) 0.008(3) -0.014(3)
C3 0.062(3) 0.064(3) 0.078(3) -0.002(2) 0.010(2) -0.010(2)
C4 0.043(2) 0.062(3) 0.069(3) -0.003(2) 0.0055(19) -0.0059(18)
C5 0.051(2) 0.053(2) 0.043(2) 0.0029(16) -0.0024(16) -0.0127(17)
C6 0.055(2) 0.065(3) 0.051(2) -0.0035(19) -0.0115(18) -0.012(2)
C7 0.064(2) 0.0399(19) 0.0405(19) 0.0009(15) -0.0163(17) -0.0043(17)
C8 0.076(3) 0.056(3) 0.058(2) 0.0045(19) -0.013(2) -0.022(2)
C9 0.101(4) 0.042(2) 0.068(3) -0.001(2) -0.029(3) -0.023(2)
C10 0.097(4) 0.035(2) 0.058(2) -0.0080(17) -0.020(2) -0.006(2)
C11 0.073(3) 0.0337(19) 0.048(2) -0.0005(15) -0.0201(19) 0.0041(17)
C12 0.069(3) 0.051(2) 0.058(3) -0.0100(19) -0.009(2) 0.010(2)
C13 0.057(3) 0.070(3) 0.078(3) -0.012(2) -0.009(2) 0.004(2)
C14 0.055(2) 0.064(3) 0.073(3) -0.009(2) -0.019(2) -0.009(2)
C15 0.058(2) 0.0392(19) 0.048(2) -0.0104(15) -0.0213(17) 0.0034(16)
C16 0.055(2) 0.0365(18) 0.0380(18) -0.0017(14) -0.0171(16) 0.0028(15)
C17 0.062(2) 0.040(2) 0.045(2) -0.0060(15) -0.0161(17) -0.0074(17)
C18 0.061(2) 0.042(2) 0.046(2) -0.0060(16) -0.0106(17) -0.0099(17)
C19 0.0494(19) 0.0349(18) 0.0421(19) -0.0134(14) -0.0083(15) -0.0025(14)
C20 0.108(4) 0.076(3) 0.057(3) -0.019(2) -0.022(3) -0.021(3)
C21 0.122(5) 0.048(3) 0.076(3) -0.018(2) -0.012(3) 0.008(3)
S1' 0.1296(14) 0.0659(9) 0.0857(10) -0.0065(7) -0.0257(9) 0.0170(8)
O1' 0.073(2) 0.099(3) 0.0413(17) -0.0146(15) -0.0076(14) 0.0155(18)
O2' 0.0552(14) 0.0337(13) 0.0373(12) -0.0054(10) -0.0130(10) -0.0024(10)
O3' 0.102(2) 0.0467(16) 0.0430(16) -0.0126(12) -0.0236(15) 0.0042(15)
N1' 0.0458(17) 0.0543(18) 0.0380(16) -0.0096(13) -0.0068(13) -0.0047(14)
N2' 0.058(2) 0.070(2) 0.0482(19) -0.0030(16) -0.0090(15) -0.0140(17)
C1' 0.083(3) 0.080(3) 0.056(3) 0.007(2) -0.018(2) -0.011(3)
C2' 0.087(4) 0.075(3) 0.085(4) 0.021(3) -0.037(3) -0.012(3)
C3' 0.061(3) 0.059(3) 0.096(4) 0.001(3) -0.020(3) 0.000(2)
C4' 0.051(2) 0.053(2) 0.060(2) -0.0057(19) -0.0050(18) -0.0054(18)
C5' 0.0442(19) 0.050(2) 0.050(2) -0.0050(16) -0.0085(16) -0.0124(16)
C6' 0.045(2) 0.060(2) 0.043(2) -0.0116(17) -0.0051(16) -0.0071(17)
C7' 0.054(2) 0.0423(19) 0.0364(18) -0.0085(14) -0.0111(15) -0.0069(16)
C8' 0.061(2) 0.061(3) 0.050(2) -0.0072(19) -0.0030(18) -0.017(2)
C9' 0.091(3) 0.051(2) 0.051(2) 0.0029(19) -0.005(2) -0.017(2)
C10' 0.091(3) 0.041(2) 0.044(2) -0.0019(17) -0.016(2) -0.001(2)
C11' 0.067(2) 0.0334(18) 0.0406(19) -0.0107(14) -0.0177(17) 0.0030(16)
C12' 0.066(3) 0.045(2) 0.057(2) -0.0138(18) -0.030(2) 0.0091(18)
C13' 0.050(2) 0.056(2) 0.071(3) -0.020(2) -0.023(2) -0.0003(18)
C14' 0.050(2) 0.046(2) 0.054(2) -0.0149(17) -0.0097(17) -0.0092(16)
C15' 0.050(2) 0.0335(17) 0.0375(18) -0.0104(14) -0.0126(15) -0.0025(14)
C16' 0.054(2) 0.0323(17) 0.0334(17) -0.0096(13) -0.0104(15) -0.0045(15)
C17' 0.0495(19) 0.0354(18) 0.0405(19) -0.0078(14) -0.0094(15) -0.0036(15)
C18' 0.052(2) 0.0395(19) 0.0421(19) -0.0031(15) -0.0092(15) -0.0092(16)
C19' 0.0415(16) 0.0117(12) 0.0237(14) 0.0060(10) -0.0103(11) -0.0017(11)
C20' 0.104(4) 0.081(4) 0.058(3) 0.013(3) -0.030(3) -0.027(3)
C21' 0.087(3) 0.046(2) 0.087(4) 0.006(2) -0.031(3) 0.005(2)
loop_
_atom_type_symbol
_atom_type_description
_atom_type_scat_dispersion_real
_atom_type_scat_dispersion_imag
_atom_type_scat_source
C C 0.0181 0.0091 'International Tables Vol C Tables 4.2.6.8 and 6.1.1.4'
H H 0.0000 0.0000 'International Tables Vol C Tables 4.2.6.8 and 6.1.1.4'
N N 0.0311 0.0180 'International Tables Vol C Tables 4.2.6.8 and 6.1.1.4'
O O 0.0492 0.0322 'International Tables Vol C Tables 4.2.6.8 and 6.1.1.4'
S S 0.3331 0.5567 'International Tables Vol C Tables 4.2.6.8 and 6.1.1.4'
loop_
_geom_angle_atom_site_label_1
_geom_angle_atom_site_label_2
_geom_angle_atom_site_label_3
_geom_angle
C21 S1 C18 92.2(2)
C17 O2 C15 116.8(3)
C6 N1 C7 123.8(3)
C6 N1 H1B 118.1
C7 N1 H1B 118.1
C1 N2 C5 117.3(4)
N2 C1 C2 123.7(5)
N2 C1 H1A 118.2
C2 C1 H1A 118.2
C3 C2 C1 118.1(5)
C3 C2 H2A 121.0
C1 C2 H2A 121.0
C2 C3 C4 121.4(5)
C2 C3 H3A 119.3
C4 C3 H3A 119.3
C3 C4 C5 115.1(5)
C3 C4 H4A 122.5
C5 C4 H4A 122.5
N2 C5 C4 124.4(4)
N2 C5 C6 116.8(4)
C4 C5 C6 118.9(4)
O1 C6 N1 124.7(4)
O1 C6 C5 120.9(4)
N1 C6 C5 114.3(4)
C8 C7 N1 119.0(4)
C8 C7 C16 120.0(4)
N1 C7 C16 121.0(3)
C7 C8 C9 121.4(4)
C7 C8 H8A 119.3
C9 C8 H8A 119.3
C10 C9 C8 120.2(4)
C10 C9 H9A 119.9
C8 C9 H9A 119.9
C9 C10 C11 121.3(4)
C9 C10 H10A 119.3
C11 C10 H10A 119.3
C10 C11 C12 120.8(4)
C10 C11 C16 119.1(4)
C12 C11 C16 120.0(4)
C13 C12 C11 121.8(4)
C13 C12 H12A 119.1
C11 C12 H12A 119.1
C12 C13 C14 119.5(4)
C12 C13 H13A 120.2
C14 C13 H13A 120.2
C15 C14 C13 120.4(4)
C15 C14 H14A 119.8
C13 C14 H14A 119.8
C14 C15 O2 116.6(4)
C14 C15 C16 123.0(4)
O2 C15 C16 120.3(3)
C15 C16 C7 126.9(3)
C15 C16 C11 115.2(4)
C7 C16 C11 117.9(4)
O3 C17 O2 123.7(3)
O3 C17 C18 125.5(4)
O2 C17 C18 110.8(3)
C17 C18 C19 126.4(3)
C17 C18 S1 120.4(3)
C19 C18 S1 113.2(3)
C20 C19 C18 105.3(4)
C20 C19 H19A 127.4
C18 C19 H19A 127.4
C21 C20 C19 115.6(4)
C21 C20 H20A 122.2
C19 C20 H20A 122.2
C20 C21 S1 113.7(4)
C20 C21 H21A 123.1
S1 C21 H21A 123.1
C21' S1' C18' 93.2(2)
C17' O2' C15' 116.1(2)
C6' N1' C7' 124.1(3)
C6' N1' H1'B 118.0
C7' N1' H1'B 118.0
C5' N2' C1' 116.6(4)
N2' C1' C2' 122.9(5)
N2' C1' H1'A 118.6
C2' C1' H1'A 118.6
C3' C2' C1' 119.7(5)
C3' C2' H2'A 120.1
C1' C2' H2'A 120.1
C2' C3' C4' 119.2(5)
C2' C3' H3'A 120.4
C4' C3' H3'A 120.4
C3' C4' C5' 118.1(4)
C3' C4' H4'A 120.9
C5' C4' H4'A 120.9
N2' C5' C4' 123.5(4)
N2' C5' C6' 116.5(3)
C4' C5' C6' 120.0(4)
O1' C6' N1' 125.1(4)
O1' C6' C5' 121.3(4)
N1' C6' C5' 113.6(3)
C8' C7' N1' 118.6(4)
C8' C7' C16' 120.0(3)
N1' C7' C16' 121.5(3)
C7' C8' C9' 121.5(4)
C7' C8' H8'A 119.3
C9' C8' H8'A 119.3
C10' C9' C8' 120.3(4)
C10' C9' H9'A 119.9
C8' C9' H9'A 119.9
C9' C10' C11' 120.4(4)
C9' C10' H10B 119.8
C11' C10' H10B 119.8
C10' C11' C12' 120.4(4)
C10' C11' C16' 119.8(4)
C12' C11' C16' 119.8(3)
C13' C12' C11' 121.2(4)
C13' C12' H12B 119.4
C11' C12' H12B 119.4
C12' C13' C14' 119.9(4)
C12' C13' H13B 120.0
C14' C13' H13B 120.0
C15' C14' C13' 120.2(4)
C15' C14' H14B 119.9
C13' C14' H14B 119.9
C14' C15' O2' 116.0(3)
C14' C15' C16' 122.9(3)
O2' C15' C16' 121.0(3)
C15' C16' C7' 126.0(3)
C15' C16' C11' 115.9(3)
C7' C16' C11' 118.1(3)
O3' C17' O2' 123.3(3)
O3' C17' C18' 126.3(3)
O2' C17' C18' 110.3(3)
C17' C18' C19' 126.6(3)
C17' C18' S1' 119.1(3)
C19' C18' S1' 114.3(2)
C20' C19' C18' 99.3(3)
C20' C19' H19C 130.4
C18' C19' H19C 130.4
C21' C20' C19' 117.9(4)
C21' C20' H20B 121.1
C19' C20' H20B 121.1
C20' C21' S1' 115.4(4)
C20' C21' H21C 122.3
S1' C21' H21C 122.3
loop_
_geom_bond_atom_site_label_1
_geom_bond_atom_site_label_2
_geom_bond_distance
S1 C21 1.660(6)
S1 C18 1.673(4)
O1 C6 1.227(5)
O2 C17 1.351(5)
O2 C15 1.412(5)
O3 C17 1.194(5)
N1 C6 1.345(5)
N1 C7 1.418(5)
N1 H1B 0.8600
N2 C1 1.323(6)
N2 C5 1.339(5)
C1 C2 1.380(8)
C1 H1A 0.9300
C2 C3 1.366(8)
C2 H2A 0.9300
C3 C4 1.392(7)
C3 H3A 0.9300
C4 C5 1.408(6)
C4 H4A 0.9300
C5 C6 1.497(6)
C7 C8 1.362(6)
C7 C16 1.425(6)
C8 C9 1.401(7)
C8 H8A 0.9300
C9 C10 1.347(7)
C9 H9A 0.9300
C10 C11 1.402(6)
C10 H10A 0.9300
C11 C12 1.405(6)
C11 C16 1.440(5)
C12 C13 1.342(7)
C12 H12A 0.9300
C13 C14 1.403(7)
C13 H13A 0.9300
C14 C15 1.355(6)
C14 H14A 0.9300
C15 C16 1.417(6)
C17 C18 1.459(5)
C18 C19 1.474(5)
C19 C20 1.424(6)
C19 H19A 0.9300
C20 C21 1.336(8)
C20 H20A 0.9300
C21 H21A 0.9300
S1' C21' 1.625(5)
S1' C18' 1.664(4)
O1' C6' 1.203(5)
O2' C17' 1.366(4)
O2' C15' 1.414(4)
O3' C17' 1.184(4)
N1' C6' 1.357(5)
N1' C7' 1.412(5)
N1' H1'B 0.8600
N2' C5' 1.332(5)
N2' C1' 1.336(6)
C1' C2' 1.371(8)
C1' H1'A 0.9300
C2' C3' 1.339(8)
C2' H2'A 0.9300
C3' C4' 1.374(7)
C3' H3'A 0.9300
C4' C5' 1.376(6)
C4' H4'A 0.9300
C5' C6' 1.511(6)
C7' C8' 1.365(6)
C7' C16' 1.425(5)
C8' C9' 1.402(6)
C8' H8'A 0.9300
C9' C10' 1.358(7)
C9' H9'A 0.9300
C10' C11' 1.411(6)
C10' H10B 0.9300
C11' C12' 1.425(6)
C11' C16' 1.427(5)
C12' C13' 1.355(7)
C12' H12B 0.9300
C13' C14' 1.394(6)
C13' H13B 0.9300
C14' C15' 1.362(5)
C14' H14B 0.9300
C15' C16' 1.422(5)
C17' C18' 1.458(5)
C18' C19' 1.559(4)
C19' C20' 1.496(6)
C19' H19C 0.9300
C20' C21' 1.310(8)
C20' H20B 0.9300
C21' H21C 0.9300
