#------------------------------------------------------------------------------
#$Date: 2017-09-12 05:49:20 +0300 (Tue, 12 Sep 2017) $
#$Revision: 200522 $
#$URL: file:///home/coder/svn-repositories/cod/cif/1/54/70/1547013.cif $
#------------------------------------------------------------------------------
#
# This file is available in the Crystallography Open Database (COD),
# http://www.crystallography.net/
#
# All data on this site have been placed in the public domain by the
# contributors.
#
data_1547013
loop_
_publ_author_name
'Fan, Xing'
'Yu, Liu-Zhu'
'Wei, Yin'
'Shi, Min'
_publ_section_title
;
 Cascade Amination/Cyclization/Aromatization Process for the Rapid
 Construction of [2,3-c]Dihydrocarbazoles and [2,3-c]Carbazoles.
;
_journal_issue                   17
_journal_name_full               'Organic letters'
_journal_page_first              4476
_journal_page_last               4479
_journal_paper_doi               10.1021/acs.orglett.7b01957
_journal_volume                  19
_journal_year                    2017
_chemical_formula_sum            'C23 H17 N O2 S'
_chemical_formula_weight         371.43
_chemical_name_systematic
; 
 ? 
;
_space_group_crystal_system      triclinic
_space_group_IT_number           2
_space_group_name_Hall           '-P 1'
_space_group_name_H-M_alt        'P -1'
_symmetry_space_group_name_Hall  '-P 1'
_symmetry_space_group_name_H-M   'P -1'
_atom_sites_solution_hydrogens   geom
_audit_creation_method           SHELXL-2013
_cell_angle_alpha                80.283(4)
_cell_angle_beta                 85.841(4)
_cell_angle_gamma                80.636(4)
_cell_formula_units_Z            2
_cell_length_a                   8.4697(16)
_cell_length_b                   9.1799(17)
_cell_length_c                   11.529(2)
_cell_measurement_reflns_used    1382
_cell_measurement_temperature    293(2)
_cell_measurement_theta_max      47.275
_cell_measurement_theta_min      5.331
_cell_volume                     870.8(3)
_computing_cell_refinement       'Bruker SMART'
_computing_data_collection       'Bruker SMART'
_computing_data_reduction        'Bruker SHELXTL'
_computing_molecular_graphics    'Bruker SHELXTL'
_computing_publication_material  'Bruker SHELXTL'
_computing_structure_refinement  'SHELXL-2013 (Sheldrick, 2013)'
_computing_structure_solution    'Bruker SHELXTL'
_diffrn_ambient_temperature      293(2)
_diffrn_measured_fraction_theta_full 0.999
_diffrn_measured_fraction_theta_max 0.999
_diffrn_measurement_device_type  'CCD area detector'
_diffrn_measurement_method       'phi and omega scans'
_diffrn_radiation_type           MoK\a
_diffrn_radiation_wavelength     0.71073
_diffrn_reflns_av_R_equivalents  0.0239
_diffrn_reflns_av_unetI/netI     0.0462
_diffrn_reflns_Laue_measured_fraction_full 0.999
_diffrn_reflns_Laue_measured_fraction_max 0.999
_diffrn_reflns_limit_h_max       10
_diffrn_reflns_limit_h_min       -10
_diffrn_reflns_limit_k_max       11
_diffrn_reflns_limit_k_min       -11
_diffrn_reflns_limit_l_max       10
_diffrn_reflns_limit_l_min       -13
_diffrn_reflns_number            5060
_diffrn_reflns_point_group_measured_fraction_full 0.999
_diffrn_reflns_point_group_measured_fraction_max 0.999
_diffrn_reflns_theta_full        25.242
_diffrn_reflns_theta_max         25.500
_diffrn_reflns_theta_min         1.794
_exptl_absorpt_coefficient_mu    0.205
_exptl_absorpt_correction_T_max  0.7456
_exptl_absorpt_correction_T_min  0.6436
_exptl_absorpt_correction_type   multi-scan
_exptl_absorpt_process_details   sadabs
_exptl_crystal_colour            colorless
_exptl_crystal_density_diffrn    1.417
_exptl_crystal_description       prismatic
_exptl_crystal_F_000             388
_exptl_crystal_size_max          0.200
_exptl_crystal_size_mid          0.170
_exptl_crystal_size_min          0.130
_refine_diff_density_max         0.260
_refine_diff_density_min         -0.184
_refine_diff_density_rms         0.050
_refine_ls_extinction_method     none
_refine_ls_goodness_of_fit_ref   1.038
_refine_ls_hydrogen_treatment    constr
_refine_ls_matrix_type           full
_refine_ls_number_parameters     245
_refine_ls_number_reflns         3229
_refine_ls_number_restraints     0
_refine_ls_restrained_S_all      1.038
_refine_ls_R_factor_all          0.0669
_refine_ls_R_factor_gt           0.0526
_refine_ls_shift/su_max          0.002
_refine_ls_shift/su_mean         0.000
_refine_ls_structure_factor_coef Fsqd
_refine_ls_weighting_details
'w=1/[\s^2^(Fo^2^)+(0.0856P)^2^+0.0537P] where P=(Fo^2^+2Fc^2^)/3'
_refine_ls_weighting_scheme      calc
_refine_ls_wR_factor_gt          0.1385
_refine_ls_wR_factor_ref         0.1505
_reflns_Friedel_coverage         0.000
_reflns_number_gt                2529
_reflns_number_total             3229
_reflns_threshold_expression     'I > 2\s(I)'
_cod_data_source_file            ol7b01957_si_002.cif
_cod_data_source_block           cd16663
_cod_database_code               1547013
_shelx_space_group_comment
; 
The symmetry employed for this shelxl refinement is uniquely defined 
by the following loop, which should always be used as a source of 
symmetry information in preference to the above space-group names. 
They are only intended as comments. 
;
_shelx_estimated_absorpt_t_min   0.960
_shelx_estimated_absorpt_t_max   0.974
_shelxl_version_number           2013-4
_shelx_res_file
; 
TITL cd16663 in P-1 
CELL 0.71073   8.4697   9.1799  11.5291  80.283  85.841  80.636 
ZERR    2.00   0.0016   0.0017   0.0021   0.004   0.004   0.004 
LATT 1 
SFAC C  H  N  O  S 
UNIT 46 34 2 4 2 
OMIT  -3.00  51.00 
L.S. 10 
ACTA 
BOND  $H 
FMAP 2 
PLAN 20 
wpdb -1 
size 0.20 0.17 0.13 
mpla c17 > c22 
mpla c7 > c16 
mpla c1 > c6 
htab 
conf 
WGHT    0.085600    0.053700 
FVAR       0.19197 
MOLE 1 
S1    5    0.242807    0.629115    0.154244    11.00000    0.05670    0.05554 = 
         0.03504   -0.01149   -0.00161   -0.00863 
N1    3    0.224450    0.560431    0.296111    11.00000    0.05319    0.04798 = 
         0.03589   -0.00971    0.00086   -0.00399 
O1    4    0.299329    0.506850    0.094851    11.00000    0.08289    0.06406 = 
         0.04428   -0.02337    0.00317   -0.01748 
O2    4    0.096075    0.721524    0.123755    11.00000    0.05594    0.07538 = 
         0.04512   -0.00467   -0.00911   -0.00635 
C1    1    0.332107    0.441086    0.355342    11.00000    0.04717    0.04266 = 
         0.04585   -0.00984    0.00013   -0.01367 
C2    1    0.443648    0.334889    0.309923    11.00000    0.05818    0.05337 = 
         0.05303   -0.01603    0.00409   -0.00589 
AFIX  43 
H2    2    0.460061    0.336893    0.229067    11.00000   -1.20000 
AFIX   0 
C3    1    0.528759    0.227127    0.387732    11.00000    0.06502    0.05283 = 
         0.07026   -0.01868    0.00098    0.00126 
AFIX  43 
H3    2    0.604100    0.154610    0.359078    11.00000   -1.20000 
AFIX   0 
C4    1    0.505751    0.223314    0.507144    11.00000    0.06518    0.05302 = 
         0.06961   -0.00683   -0.01143    0.00222 
AFIX  43 
H4    2    0.565191    0.148215    0.557911    11.00000   -1.20000 
AFIX   0 
C5    1    0.396649    0.328391    0.552538    11.00000    0.06046    0.05248 = 
         0.04730   -0.00629   -0.00774   -0.00686 
AFIX  43 
H5    2    0.382033    0.324648    0.633656    11.00000   -1.20000 
AFIX   0 
C6    1    0.307105    0.441541    0.476490    11.00000    0.04512    0.04213 = 
         0.04069   -0.00748   -0.00109   -0.01312 
C7    1    0.186750    0.567224    0.492940    11.00000    0.04204    0.04337 = 
         0.03934   -0.00837    0.00073   -0.01246 
C8    1    0.139219    0.638188    0.383199    11.00000    0.04649    0.04588 = 
         0.03804   -0.00813    0.00308   -0.01144 
C9    1    0.021121    0.765738    0.366690    11.00000    0.05586    0.05603 = 
         0.04437   -0.00281   -0.00053   -0.00089 
AFIX  43 
H9    2   -0.010610    0.810258    0.291728    11.00000   -1.20000 
AFIX   0 
C10   1   -0.044234    0.821011    0.462907    11.00000    0.05155    0.05369 = 
         0.05948   -0.00987    0.00417    0.00078 
AFIX  43 
H10   2   -0.121257    0.906216    0.453209    11.00000   -1.20000 
AFIX   0 
C11   1   -0.001025    0.755379    0.577758    11.00000    0.04962    0.04966 = 
         0.05172   -0.01469    0.00959   -0.01621 
C12   1    0.115034    0.625155    0.594943    11.00000    0.04805    0.04725 = 
         0.04308   -0.01356    0.00143   -0.01834 
C13   1    0.153112    0.561990    0.710733    11.00000    0.06836    0.06172 = 
         0.04345   -0.01311   -0.00204   -0.01246 
AFIX  43 
H13   2    0.228433    0.475809    0.723704    11.00000   -1.20000 
AFIX   0 
C14   1    0.082469    0.623720    0.805028    11.00000    0.07982    0.08139 = 
         0.04177   -0.01389    0.00386   -0.02130 
AFIX  43 
H14   2    0.110728    0.580306    0.881004    11.00000   -1.20000 
AFIX   0 
C15   1   -0.031605    0.751380    0.787365    11.00000    0.08312    0.07957 = 
         0.05198   -0.03020    0.02045   -0.02783 
AFIX  43 
H15   2   -0.080186    0.793035    0.851641    11.00000   -1.20000 
AFIX   0 
C16   1   -0.072115    0.815073    0.677395    11.00000    0.06687    0.06132 = 
         0.06519   -0.02486    0.01808   -0.01260 
AFIX  43 
H16   2   -0.148820    0.900473    0.666956    11.00000   -1.20000 
AFIX   0 
C17   1    0.392965    0.741915    0.144386    11.00000    0.04793    0.04955 = 
         0.03177   -0.00578    0.00004   -0.00301 
C18   1    0.355204    0.883524    0.174751    11.00000    0.05532    0.05633 = 
         0.04920   -0.01691    0.00200   -0.00019 
AFIX  43 
H18   2    0.250835    0.918609    0.198952    11.00000   -1.20000 
AFIX   0 
C19   1    0.471446    0.971110    0.169028    11.00000    0.06703    0.05200 = 
         0.05450   -0.01536   -0.00362   -0.00919 
AFIX  43 
H19   2    0.445452    1.065860    0.190054    11.00000   -1.20000 
AFIX   0 
C20   1    0.628012    0.922158    0.132493    11.00000    0.05836    0.05891 = 
         0.03809    0.00451   -0.00860   -0.01087 
C21   1    0.661769    0.782027    0.100609    11.00000    0.04862    0.06403 = 
         0.04933    0.00372    0.00595   -0.00409 
AFIX  43 
H21   2    0.765541    0.747578    0.074728    11.00000   -1.20000 
AFIX   0 
C22   1    0.546282    0.691960    0.106042    11.00000    0.06404    0.04795 = 
         0.04051   -0.00749    0.00409    0.00310 
AFIX  43 
H22   2    0.571673    0.597773    0.083914    11.00000   -1.20000 
AFIX   0 
C23   1    0.754251    1.020707    0.127603    11.00000    0.07357    0.07646 = 
         0.06925    0.00762   -0.01105   -0.02276 
AFIX 137 
H23A  2    0.795135    1.011181    0.204479    11.00000   -1.50000 
H23B  2    0.708405    1.122842    0.102028    11.00000   -1.50000 
H23C  2    0.839941    0.991121    0.073175    11.00000   -1.50000 
AFIX   0 
HKLF 4 
  
REM  cd16663 in P-1 
REM R1 =  0.0526 for    2529 Fo > 4sig(Fo)  and  0.0669 for all    3229 data 
REM    245 parameters refined using      0 restraints 
  
END 
  
WGHT      0.0715      0.1373 
  
REM Instructions for potential hydrogen bonds 
HTAB C2 O1 
HTAB C9 O2 
EQIV $1 -x+1, -y+1, -z 
HTAB C22 O1_$1 
  
REM Highest difference peak  0.260,  deepest hole -0.184,  1-sigma level  0.050 
Q1    1   0.3266  0.6961  0.1797  11.00000  0.05    0.26 
Q2    1   0.3547  0.8116  0.1310  11.00000  0.05    0.26 
Q3    1   0.1822  0.7350  0.1577  11.00000  0.05    0.24 
Q4    1   0.2670  0.6158  0.2411  11.00000  0.05    0.24 
Q5    1   0.2002  0.5670  0.2402  11.00000  0.05    0.23 
Q6    1   0.3397  0.4501  0.4216  11.00000  0.05    0.23 
Q7    1   0.0326  0.6740  0.5789  11.00000  0.05    0.22 
Q8    1   0.6332  0.8732  0.0791  11.00000  0.05    0.22 
Q9    1   0.2738  0.5189  0.5022  11.00000  0.05    0.22 
Q10   1   0.2880  0.5166  0.1558  11.00000  0.05    0.22 
Q11   1   0.1362  0.5845  0.5465  11.00000  0.05    0.22 
Q12   1   0.2581  0.5870  0.0842  11.00000  0.05    0.21 
Q13   1   0.1413  0.6835  0.1231  11.00000  0.05    0.21 
Q14   1   0.3624  0.4139  0.5200  11.00000  0.05    0.20 
Q15   1   0.0740  0.7065  0.5919  11.00000  0.05    0.20 
Q16   1   0.3095  0.3661  0.5225  11.00000  0.05    0.20 
Q17   1   0.2685  0.4866  0.3067  11.00000  0.05    0.20 
Q18   1   0.1189  0.7318  0.3657  11.00000  0.05    0.20 
Q19   1   0.5380  0.9593  0.1127  11.00000  0.05    0.20 
Q20   1   0.0138  0.8039  0.5266  11.00000  0.05    0.20 
;
_shelx_res_checksum              85488
_shelx_hkl_file
; 
  -1   0   0    0.01    0.01 
  -2   0   0    2.86    0.13 
  -3   0   0    2.13    0.12 
  -4   0   0    3.77    0.20 
  -5   0   0    0.48    0.09 
  -6   0   0    0.55    0.11 
   6   0   0    0.49    0.09 
  -7   0   0    0.86    0.14 
   7   0   0    0.77    0.12 
  -8   0   0    1.42    0.18 
   8   0   0    1.29    0.16 
   9   0   0    0.84    0.15 
  10   0   0    0.22    0.09 
  11   0   0    0.14    0.10 
  10  -1   0    0.18    0.08 
   9  -1   0    1.47    0.18 
   8  -1   0    0.80    0.13 
   7  -1   0    1.82    0.14 
  -7   1   0    1.77    0.17 
   6  -1   0    1.67    0.13 
  -6   1   0    1.55    0.15 
   5  -1   0    0.47    0.07 
  -5   1   0    0.44    0.08 
   4  -1   0    2.27    0.13 
  -4   1   0    2.22    0.14 
   3  -1   0   21.96    0.69 
  -3   1   0   21.88    0.71 
   2  -1   0    3.41    0.13 
  -2   1   0    3.08    0.13 
   1  -1   0   91.24    2.67 
   1  -1   0   91.70    2.51 
  -1   1   0   94.38    2.73 
   0  -1   0  182.42    5.22 
   0  -1   0  183.46    4.89 
   0   1   0  176.27    5.29 
   1   1   0    5.90    0.25 
  -2  -1   0  332.28    9.70 
  -3  -1   0    1.93    0.12 
  -4  -1   0    3.31    0.19 
  -5  -1   0    1.51    0.15 
  -6  -1   0   -0.03    0.04 
  -7  -1   0   11.52    0.52 
   8   1   0    0.18    0.08 
   8   1   0    0.05    0.06 
   9   1   0    0.04    0.08 
  10   1   0    0.13    0.09 
  11   1   0    0.37    0.13 
  10  -2   0    0.12    0.08 
   9  -2   0    0.31    0.09 
   8  -2   0    0.56    0.12 
   8  -2   0    0.63    0.12 
   7  -2   0    3.50    0.20 
   7  -2   0    3.19    0.22 
   6  -2   0    2.28    0.16 
   6  -2   0    1.98    0.14 
  -6   2   0    2.00    0.16 
   5  -2   0   -0.01    0.03 
   5  -2   0    0.08    0.04 
  -5   2   0    0.02    0.03 
   4  -2   0    0.39    0.07 
   4  -2   0    0.49    0.07 
  -4   2   0    0.53    0.07 
   3  -2   0   12.56    0.42 
   3  -2   0   12.70    0.42 
  -3   2   0   12.36    0.43 
   2  -2   0    3.53    0.16 
   2  -2   0    3.87    0.15 
  -2   2   0    3.97    0.16 
   1  -2   0   22.67    0.63 
   1  -2   0   22.91    0.66 
  -1   2   0   18.94    0.66 
   0  -2   0   43.03    1.18 
   0  -2   0   41.60    1.26 
   0   2   0   42.70    1.28 
  -1  -2   0  169.30    4.92 
   1   2   0  171.06    4.99 
   2   2   0 1000.00   29.03 
   3   2   0    0.96    0.09 
   4   2   0    1.43    0.11 
   5   2   0    4.23    0.23 
   6   2   0    0.52    0.09 
   7   2   0    5.07    0.29 
   8   2   0    0.19    0.08 
   9   2   0    0.53    0.13 
  10   2   0    0.35    0.12 
  11   2   0    0.12    0.13 
  10  -3   0    0.42    0.12 
   9  -3   0    0.11    0.08 
   8  -3   0    1.92    0.21 
   7  -3   0    1.04    0.15 
   7  -3   0    1.13    0.13 
   6  -3   0   10.99    0.45 
   6  -3   0   10.78    0.43 
   5  -3   0    0.32    0.08 
   5  -3   0    0.30    0.06 
  -5   3   0    0.33    0.07 
   4  -3   0    2.10    0.13 
   4  -3   0    2.50    0.15 
  -4   3   0    2.29    0.14 
   3  -3   0    2.58    0.13 
   3  -3   0    2.37    0.14 
  -3   3   0    2.43    0.13 
   2  -3   0   24.20    0.76 
   2  -3   0   23.99    0.73 
  -2   3   0   24.38    0.77 
   1  -3   0   68.09    1.91 
   1  -3   0   69.32    2.03 
   0  -3   0    6.96    0.26 
   0  -3   0    7.16    0.24 
   0   3   0    6.94    0.26 
  -1  -3   0   17.46    0.51 
  -1  -3   0   17.03    0.57 
   1   3   0   17.10    0.57 
  -2  -3   0   48.32    1.49 
   2   3   0   48.22    1.49 
   3   3   0  109.72    3.29 
   4   3   0    2.68    0.17 
   5   3   0    6.28    0.30 
   6   3   0    6.24    0.32 
   7   3   0    0.03    0.06 
   8   3   0    1.60    0.19 
   9   3   0    1.60    0.20 
  10   3   0    0.00    0.08 
  11   3   0    0.25    0.13 
   9  -4   0    0.05    0.08 
   8  -4   0    0.16    0.08 
   7  -4   0   -0.14    0.04 
   6  -4   0    3.71    0.24 
   6  -4   0    3.76    0.21 
   5  -4   0    0.10    0.05 
   5  -4   0    0.01    0.04 
  -5   4   0    0.05    0.04 
   4  -4   0    7.61    0.34 
   4  -4   0    8.47    0.33 
  -4   4   0    8.32    0.33 
   3  -4   0    4.74    0.23 
   3  -4   0    4.59    0.21 
  -3   4   0    4.60    0.21 
   2  -4   0   13.88    0.47 
   2  -4   0   14.11    0.47 
  -2   4   0   13.33    0.48 
   1  -4   0    0.30    0.05 
   1  -4   0    0.37    0.06 
  -1   4   0    0.35    0.06 
   0  -4   0    2.55    0.14 
   0  -4   0    2.56    0.13 
   0   4   0    2.70    0.15 
  -1  -4   0    1.01    0.10 
  -1  -4   0    1.20    0.08 
   1   4   0    1.30    0.10 
  -2  -4   0   32.50    1.05 
   2   4   0   32.01    1.04 
   3   4   0    5.52    0.27 
   4   4   0   76.55    2.37 
   5   4   0    0.19    0.07 
   6   4   0    3.82    0.25 
   7   4   0    0.51    0.12 
   8   4   0    1.53    0.20 
   9   4   0    0.20    0.10 
  10   4   0    2.02    0.26 
   9  -5   0    0.15    0.12 
   8  -5   0    0.06    0.08 
   7  -5   0    1.20    0.17 
   6  -5   0   -0.02    0.06 
   5  -5   0    2.00    0.19 
   5  -5   0    2.14    0.15 
   4  -5   0   20.40    0.70 
   4  -5   0   20.04    0.71 
  -4   5   0   20.57    0.71 
   3  -5   0   12.43    0.47 
   3  -5   0   13.20    0.47 
  -3   5   0   12.44    0.47 
   2  -5   0    0.51    0.08 
   2  -5   0    0.71    0.09 
  -2   5   0    0.65    0.09 
   1  -5   0   15.54    0.52 
   1  -5   0   15.59    0.55 
  -1   5   0   15.76    0.55 
   0  -5   0   13.38    0.51 
   0  -5   0   14.48    0.47 
   0   5   0   14.02    0.51 
  -1  -5   0    5.01    0.21 
  -1  -5   0    5.29    0.26 
   1   5   0    4.97    0.24 
  -2  -5   0    0.08    0.05 
   2   5   0    0.10    0.05 
   3   5   0    0.29    0.07 
   4   5   0    0.30    0.08 
   5   5   0    1.16    0.16 
   6   5   0    0.16    0.09 
   7   5   0    0.07    0.08 
   8   5   0    0.76    0.16 
   9   5   0    0.04    0.09 
  10   5   0    0.98    0.20 
   8  -6   0    0.02    0.08 
   7  -6   0    0.38    0.12 
   6  -6   0   -0.05    0.06 
   5  -6   0    4.55    0.28 
   4  -6   0    1.04    0.12 
   4  -6   0    1.02    0.15 
   3  -6   0    0.24    0.07 
   3  -6   0    0.20    0.08 
  -3   6   0    0.20    0.07 
   2  -6   0    0.04    0.04 
   2  -6   0    0.07    0.05 
  -2   6   0    0.03    0.04 
   1  -6   0    5.72    0.27 
   1  -6   0    5.47    0.25 
  -1   6   0    5.57    0.27 
   0  -6   0    3.15    0.19 
   0  -6   0    2.95    0.16 
   0   6   0    2.94    0.18 
  -1  -6   0    0.38    0.08 
  -1  -6   0    0.38    0.07 
   1   6   0    0.27    0.07 
  -2  -6   0    0.11    0.05 
   2   6   0    0.12    0.06 
   3   6   0    4.50    0.27 
   4   6   0    0.14    0.07 
   5   6   0    0.34    0.11 
   6   6   0    9.46    0.47 
   7   6   0    0.23    0.11 
   8   6   0    0.41    0.12 
   9   6   0    0.47    0.15 
  10   6   0    0.06    0.12 
   8  -7   0    0.85    0.19 
   7  -7   0   -0.02    0.08 
   6  -7   0    0.30    0.10 
   5  -7   0    0.81    0.15 
   4  -7   0    0.41    0.11 
   3  -7   0    1.75    0.16 
   3  -7   0    1.81    0.18 
   2  -7   0    1.19    0.13 
   2  -7   0    1.16    0.14 
   1  -7   0    5.14    0.25 
   1  -7   0    5.12    0.27 
  -1   7   0    4.24    0.25 
   0  -7   0    3.11    0.18 
   0  -7   0    2.54    0.19 
   0   7   0    3.09    0.20 
  -1  -7   0    3.35    0.18 
  -1  -7   0    2.79    0.20 
   1   7   0    2.99    0.21 
  -2  -7   0    0.08    0.07 
   2   7   0    0.02    0.06 
   3   7   0    4.41    0.28 
   4   7   0    1.97    0.22 
   5   7   0    0.11    0.08 
   6   7   0    0.75    0.15 
   7   7   0    0.11    0.09 
   8   7   0    0.74    0.17 
   9   7   0   -0.07    0.10 
  10   7   0    0.00    0.13 
   7  -8   0    0.14    0.13 
   6  -8   0    0.08    0.10 
   5  -8   0    0.10    0.09 
   4  -8   0    0.60    0.13 
   3  -8   0    0.10    0.08 
   2  -8   0    0.11    0.08 
   2  -8   0    0.14    0.07 
  -2   8   0    0.02    0.04 
   1  -8   0   -0.01    0.06 
   1  -8   0    0.08    0.07 
  -1   8   0    0.08    0.06 
   0  -8   0    0.81    0.14 
   0  -8   0    0.88    0.12 
   0   8   0    0.76    0.13 
  -1  -8   0    2.21    0.21 
  -1  -8   0    1.80    0.16 
   1   8   0    2.44    0.22 
  -2  -8   0    1.04    0.17 
   2   8   0    1.21    0.17 
   3   8   0    1.04    0.16 
   4   8   0    0.98    0.17 
   5   8   0    0.16    0.09 
   6   8   0    0.57    0.15 
   7   8   0    0.11    0.11 
   8   8   0    1.71    0.27 
   9   8   0    0.04    0.13 
   6  -9   0    0.72    0.19 
   5  -9   0    0.19    0.11 
   4  -9   0    0.01    0.08 
   3  -9   0    0.22    0.10 
   2  -9   0    0.48    0.12 
   1  -9   0    7.95    0.41 
   1  -9   0    7.88    0.37 
  -1   9   0    7.58    0.40 
   0  -9   0    1.16    0.15 
   0  -9   0    1.55    0.19 
   0   9   0    1.56    0.19 
  -1  -9   0    0.29    0.09 
  -1  -9   0    0.37    0.10 
   1   9   0    0.21    0.10 
  -2  -9   0    0.02    0.07 
   2   9   0   -0.01    0.07 
   3   9   0    0.24    0.10 
   4   9   0    0.05    0.08 
   5   9   0    1.35    0.22 
   6   9   0    1.40    0.23 
   7   9   0    0.52    0.17 
   8   9   0    0.53    0.20 
   4 -10   0   -0.09    0.10 
   3 -10   0    0.11    0.10 
   2 -10   0   -0.13    0.07 
   1 -10   0    0.32    0.11 
   0 -10   0    1.33    0.17 
   0 -10   0    1.24    0.20 
   0  10   0    1.48    0.20 
  -1 -10   0    1.03    0.18 
  -1 -10   0    1.34    0.17 
   1  10   0    1.31    0.19 
  -2 -10   0    0.20    0.10 
   2  10   0    0.43    0.12 
   3  10   0    0.13    0.09 
   4  10   0    0.24    0.10 
   5  10   0    0.39    0.15 
   6  10   0    0.16    0.12 
   7  10   0    0.29    0.15 
   3 -11   0    0.10    0.12 
   2 -11   0    0.40    0.15 
   1 -11   0    0.10    0.11 
  -1 -11   0    1.86    0.26 
   1  11   0    1.81    0.24 
   2  11   0    2.38    0.28 
   3  11   0    0.14    0.10 
   4  11   0    0.08    0.11 
   5  11   0   -0.01    0.11 
   6  11   0    0.52    0.19 
   2  12   0    0.82    0.21 
   3  12   0    0.03    0.13 
   5  11  -1    0.92    0.23 
   4  11  -1    0.22    0.13 
   3  11  -1    0.58    0.17 
   2  11  -1    0.33    0.13 
   1  11  -1    0.65    0.17 
   0 -11   1    0.16    0.11 
   1 -11   1    0.52    0.14 
   2 -11   1    0.02    0.11 
   7  10  -1    0.20    0.15 
   6  10  -1    0.03    0.11 
   5  10  -1    0.46    0.15 
   4  10  -1    0.46    0.15 
   3  10  -1    0.37    0.13 
   2  10  -1    1.12    0.20 
   1  10  -1    1.25    0.20 
   0  10  -1    2.05    0.24 
   0 -10   1    2.01    0.21 
   1 -10   1    0.36    0.11 
   2 -10   1    0.05    0.09 
   3 -10   1    0.12    0.11 
   4 -10   1   -0.03    0.10 
   8   9  -1    0.12    0.16 
   7   9  -1    0.01    0.12 
   6   9  -1    0.37    0.14 
   5   9  -1    0.12    0.10 
   4   9  -1    1.19    0.20 
   3   9  -1    0.07    0.08 
   2   9  -1   -0.04    0.06 
   1   9  -1    1.18    0.18 
  -1  -9   1    1.31    0.17 
  -1  -9   1    1.43    0.19 
   0   9  -1    4.62    0.31 
   0  -9   1    4.91    0.28 
   0  -9   1    4.68    0.30 
  -1   9  -1    0.13    0.10 
   1  -9   1    0.23    0.09 
   2  -9   1    2.12    0.21 
   3  -9   1    0.40    0.11 
   4  -9   1    0.15    0.10 
   5  -9   1   -0.03    0.09 
   6  -9   1    0.18    0.13 
   9   8  -1    0.40    0.19 
   8   8  -1   -0.03    0.10 
   7   8  -1    1.01    0.21 
   6   8  -1    0.14    0.10 
   5   8  -1    0.46    0.12 
   4   8  -1   -0.02    0.05 
   3   8  -1    2.32    0.24 
   2   8  -1    9.45    0.47 
   1   8  -1    1.64    0.19 
  -1  -8   1    1.88    0.19 
  -1  -8   1    1.85    0.17 
   0   8  -1    2.79    0.22 
   0  -8   1    2.82    0.20 
   0  -8   1    3.09    0.22 
  -1   8  -1    0.56    0.12 
   1  -8   1    0.72    0.12 
   1  -8   1    0.66    0.11 
  -2   8  -1    4.86    0.29 
   2  -8   1    4.51    0.27 
   3  -8   1    0.92    0.15 
   4  -8   1   -0.09    0.06 
   5  -8   1    0.00    0.07 
   6  -8   1    0.07    0.10 
   7  -8   1    0.02    0.12 
   9   7  -1    0.27    0.15 
   8   7  -1    0.31    0.14 
   7   7  -1    0.40    0.14 
   6   7  -1    0.52    0.15 
   5   7  -1    1.08    0.18 
   4   7  -1    0.46    0.12 
   3   7  -1    1.29    0.17 
   2   7  -1    0.31    0.10 
   1   7  -1    0.11    0.07 
  -1  -7   1    0.00    0.04 
  -1  -7   1    0.08    0.05 
   0   7  -1    0.26    0.08 
   0  -7   1    0.20    0.07 
   0  -7   1    0.19    0.07 
  -1   7  -1    0.05    0.04 
   1  -7   1    0.08    0.05 
   1  -7   1    0.02    0.05 
  -2   7  -1    4.53    0.26 
   2  -7   1    4.52    0.25 
   2  -7   1    4.39    0.24 
   4  -7   1    2.10    0.21 
   5  -7   1    0.50    0.12 
   6  -7   1    0.12    0.08 
   7  -7   1    0.23    0.12 
   8  -7   1    0.65    0.16 
  10   6  -1    0.01    0.13 
   9   6  -1    0.50    0.15 
   8   6  -1    0.61    0.14 
   7   6  -1    0.08    0.09 
   6   6  -1    0.51    0.13 
   5   6  -1    0.75    0.15 
   4   6  -1    0.69    0.13 
   3   6  -1    4.44    0.27 
   2   6  -1    1.88    0.17 
   1   6  -1    0.08    0.05 
  -1  -6   1   -0.02    0.03 
  -1  -6   1   -0.03    0.03 
   0   6  -1    0.66    0.11 
   0  -6   1    0.51    0.09 
   0  -6   1    0.49    0.08 
  -1   6  -1    0.68    0.11 
   1  -6   1    0.56    0.09 
   1  -6   1    0.45    0.08 
  -2   6  -1    0.01    0.04 
   2  -6   1   -0.04    0.04 
   2  -6   1    0.06    0.04 
   3  -6   1    0.35    0.09 
   3  -6   1    0.52    0.09 
  -4   6  -1    4.73    0.27 
   4  -6   1    4.96    0.28 
   5  -6   1    4.02    0.26 
   6  -6   1    0.41    0.11 
   7  -6   1   -0.02    0.08 
   8  -6   1    0.11    0.10 
  10   5  -1    0.22    0.13 
   9   5  -1    0.09    0.10 
   8   5  -1    0.99    0.18 
   7   5  -1    0.02    0.07 
   6   5  -1    2.05    0.22 
   5   5  -1    1.36    0.17 
   4   5  -1    4.40    0.26 
   3   5  -1    0.07    0.05 
   2   5  -1   15.56    0.59 
   1   5  -1    0.55    0.09 
  -1  -5   1    0.48    0.08 
  -1  -5   1    0.39    0.07 
   0   5  -1    8.80    0.38 
   0  -5   1    9.33    0.34 
   0  -5   1    9.49    0.37 
  -1   5  -1    1.10    0.11 
   1  -5   1    0.98    0.10 
   1  -5   1    0.91    0.10 
  -2   5  -1   10.15    0.41 
   2  -5   1   10.17    0.39 
   2  -5   1   10.99    0.39 
   3  -5   1    0.66    0.08 
   3  -5   1    0.64    0.10 
  -4   5  -1    0.97    0.12 
   4  -5   1    1.01    0.10 
   4  -5   1    1.00    0.13 
   5  -5   1    0.78    0.13 
   6  -5   1    0.09    0.06 
   7  -5   1    0.40    0.11 
   8  -5   1    0.13    0.09 
   9  -5   1    0.05    0.10 
  10   4  -1    0.15    0.12 
   9   4  -1    0.61    0.15 
   8   4  -1    0.06    0.08 
   7   4  -1    0.70    0.14 
   6   4  -1    0.05    0.07 
   5   4  -1    0.54    0.11 
   4   4  -1    2.55    0.18 
   3   4  -1   15.34    0.57 
   2   4  -1    0.62    0.10 
   1   4  -1    0.04    0.03 
  -1  -4   1    0.10    0.04 
  -1  -4   1    0.05    0.03 
   0   4  -1    3.37    0.18 
   0  -4   1    3.46    0.17 
   0  -4   1    3.54    0.16 
  -1   4  -1    2.26    0.14 
   1  -4   1    2.47    0.13 
   1  -4   1    2.06    0.12 
  -2   4  -1   16.13    0.57 
   2  -4   1   16.10    0.53 
   2  -4   1   15.56    0.53 
   3  -4   1   13.18    0.45 
   3  -4   1   13.46    0.48 
  -4   4  -1    0.47    0.09 
   4  -4   1    0.71    0.08 
   4  -4   1    0.63    0.10 
  -5   4  -1    0.71    0.11 
   5  -4   1    0.83    0.12 
   5  -4   1    0.89    0.09 
   6  -4   1    0.97    0.15 
   7  -4   1    0.37    0.10 
   8  -4   1    1.07    0.17 
   9  -4   1    0.43    0.13 
  11   3  -1    0.19    0.14 
   9   3  -1    1.24    0.19 
   8   3  -1    2.11    0.23 
   7   3  -1    0.11    0.07 
   6   3  -1    2.79    0.20 
   5   3  -1    1.20    0.14 
   4   3  -1    0.61    0.10 
   3   3  -1   26.38    0.87 
   2   3  -1    0.25    0.06 
   1   3  -1   12.26    0.44 
  -1  -3   1   12.50    0.44 
   0   3  -1   13.10    0.45 
   0  -3   1   12.20    0.42 
   0  -3   1   12.59    0.40 
  -1   3  -1    3.10    0.16 
   1  -3   1    3.17    0.13 
   1  -3   1    2.61    0.13 
  -2   3  -1   39.92    1.22 
   2  -3   1   38.25    1.13 
   2  -3   1   38.69    1.16 
   3  -3   1    4.48    0.18 
   3  -3   1    3.81    0.20 
  -4   3  -1    0.40    0.08 
   4  -3   1    0.27    0.06 
   4  -3   1    0.38    0.06 
  -5   3  -1   11.47    0.46 
   5  -3   1   11.23    0.45 
   5  -3   1   11.40    0.41 
  -6   3  -1    0.94    0.13 
   6  -3   1    1.37    0.12 
   6  -3   1    1.19    0.15 
   7  -3   1    0.53    0.11 
   8  -3   1    0.10    0.06 
   9  -3   1    1.34    0.19 
  10  -3   1    0.11    0.10 
  11   2  -1   -0.03    0.11 
  10   2  -1    0.05    0.10 
   9   2  -1    0.11    0.08 
   9   2  -1    0.15    0.09 
   8   2  -1    1.16    0.16 
   7   2  -1    4.51    0.26 
   6   2  -1   12.82    0.51 
   5   2  -1    0.01    0.04 
   4   2  -1   40.50    1.29 
   3   2  -1   15.46    0.54 
   2   2  -1    2.48    0.13 
   1   2  -1    1.80    0.10 
   0   2  -1   19.95    0.64 
   0  -2   1   19.85    0.58 
   0  -2   1   19.74    0.61 
  -1   2  -1    8.48    0.30 
   1  -2   1    8.24    0.28 
   1  -2   1    8.55    0.27 
  -2   2  -1    0.11    0.04 
   2  -2   1    0.10    0.03 
   2  -2   1    0.17    0.02 
  -3   2  -1   -0.01    0.02 
   3  -2   1    0.03    0.03 
   3  -2   1    0.06    0.02 
   4  -2   1   81.13    2.31 
   4  -2   1   83.04    2.42 
   5  -2   1    4.50    0.22 
   5  -2   1    4.26    0.20 
  -6   2  -1    0.25    0.08 
   6  -2   1    0.30    0.08 
   6  -2   1    0.19    0.06 
  -7   2  -1    2.58    0.20 
   7  -2   1    2.69    0.17 
   7  -2   1    2.77    0.19 
   8  -2   1    3.80    0.25 
   9  -2   1    0.03    0.07 
  10  -2   1    0.11    0.08 
  11   1  -1    0.06    0.12 
  10   1  -1   -0.01    0.08 
   9   1  -1    0.55    0.13 
   8   1  -1    0.83    0.15 
   8   1  -1    0.88    0.13 
   7   1  -1   -0.01    0.05 
   6   1  -1    8.92    0.38 
   5   1  -1    0.62    0.09 
   4   1  -1    0.75    0.08 
   3   1  -1   25.01    0.80 
   2   1  -1   39.69    1.21 
   1   1  -1    9.93    0.33 
   0   1  -1    1.32    0.07 
   0  -1   1    1.40    0.06 
  -1   1  -1   34.08    1.03 
   1  -1   1   33.82    0.95 
   1  -1   1   33.82    1.00 
  -2   1  -1    0.00    0.02 
   2  -1   1    0.04    0.01 
   2  -1   1    0.00    0.02 
  -3   1  -1   73.70    2.23 
   3  -1   1   74.58    2.05 
   3  -1   1   72.87    2.15 
  -4   1  -1   18.79    0.66 
   4  -1   1   19.75    0.62 
   4  -1   1   19.15    0.61 
  -5   1  -1    0.31    0.07 
   5  -1   1    0.27    0.06 
   5  -1   1    0.25    0.05 
  -6   1  -1    3.58    0.22 
   6  -1   1    3.62    0.19 
   6  -1   1    3.33    0.20 
  -7   1  -1    1.59    0.18 
   7  -1   1    1.31    0.15 
   7  -1   1    2.07    0.15 
   8  -1   1    3.36    0.22 
   8  -1   1    3.22    0.22 
   9  -1   1    0.57    0.12 
  10  -1   1    0.74    0.14 
  10   0  -1    0.04    0.09 
   9   0  -1    0.54    0.12 
   8   0  -1   -0.01    0.06 
   7   0  -1    2.20    0.20 
   7   0  -1    2.51    0.17 
   6   0  -1    4.41    0.23 
   6   0  -1    4.64    0.25 
   5   0  -1    5.46    0.26 
  -4   0   1    0.41    0.06 
  -3   0   1    0.49    0.06 
   2   0  -1   81.14    2.39 
   1   0  -1    8.87    0.28 
   1   0  -1    8.80    0.29 
   0   0  -1   16.38    0.50 
  -1   0  -1  225.43    6.52 
   1   0   1  220.78    6.02 
  -2   0  -1   49.23    1.49 
  -3   0  -1   14.11    0.50 
  -4   0  -1    1.98    0.14 
  -5   0  -1   16.16    0.61 
  -6   0  -1   13.52    0.55 
  -7   0  -1    0.32    0.09 
   7   0   1    0.38    0.08 
  -8   0  -1    1.09    0.17 
   8   0   1    1.35    0.16 
   8   0   1    1.16    0.15 
   9   0   1    0.06    0.06 
   9   0   1   -0.05    0.06 
  10   0   1    1.20    0.17 
  11   0   1    0.17    0.11 
  10  -1  -1    0.23    0.10 
   9  -1  -1    0.21    0.09 
   8  -1  -1    1.19    0.16 
   7  -1  -1    2.69    0.19 
   6  -1  -1    1.90    0.14 
  -6   1   1    1.76    0.14 
   5  -1  -1    0.52    0.08 
  -5   1   1    0.49    0.08 
   4  -1  -1   32.41    1.03 
  -4   1   1   32.63    1.02 
   3  -1  -1   40.91    1.27 
  -3   1   1   42.44    1.27 
   2  -1  -1   25.47    0.79 
  -2   1   1   25.49    0.77 
   1  -1  -1  248.56    7.14 
   0  -1  -1  123.05    3.56 
   0  -1  -1  123.90    3.64 
  -1  -1  -1   15.24    0.49 
  -1  -1  -1   14.95    0.47 
  -2  -1  -1  185.21    5.45 
  -3  -1  -1   39.89    1.26 
  -4  -1  -1    0.24    0.06 
  -5  -1  -1   27.47    0.95 
  -6  -1  -1    6.11    0.33 
  -7  -1  -1    9.98    0.47 
  -8  -1  -1    1.05    0.18 
  -9  -1  -1    0.13    0.10 
   9   1   1    0.13    0.09 
  10   1   1    0.11    0.07 
  10  -2  -1    0.12    0.09 
   9  -2  -1    0.13    0.07 
   8  -2  -1    1.14    0.15 
   7  -2  -1    0.38    0.09 
   6  -2  -1    3.13    0.20 
  -6   2   1    3.53    0.19 
   5  -2  -1    0.08    0.04 
  -5   2   1    0.04    0.03 
   4  -2  -1    0.07    0.03 
  -4   2   1    0.01    0.03 
   3  -2  -1    4.19    0.19 
  -3   2   1    4.06    0.16 
   2  -2  -1    2.09    0.11 
  -2   2   1    2.31    0.09 
   1  -2  -1    1.85    0.10 
  -1   2   1    1.75    0.07 
   0  -2  -1   15.49    0.49 
  -1  -2  -1   15.31    0.51 
  -1  -2  -1   15.91    0.52 
  -1  -2  -1   16.03    0.44 
  -2  -2  -1  559.03   16.35 
  -2  -2  -1  563.94   16.10 
  -3  -2  -1   77.37    2.36 
  -4  -2  -1    0.47    0.09 
  -5  -2  -1    1.77    0.17 
  -6  -2  -1   14.36    0.60 
  -7  -2  -1    0.17    0.09 
  -8  -2  -1    1.93    0.23 
   9   2   1    0.36    0.10 
  10   2   1    0.19    0.10 
  10   2   1    0.02    0.08 
  10  -3  -1    0.41    0.13 
   9  -3  -1    0.00    0.07 
   8  -3  -1    1.19    0.17 
   7  -3  -1    5.59    0.30 
   7  -3  -1    5.86    0.31 
   6  -3  -1    1.01    0.13 
   6  -3  -1    1.12    0.13 
   5  -3  -1    0.67    0.09 
   5  -3  -1    0.46    0.09 
  -5   3   1    0.62    0.08 
   4  -3  -1    8.76    0.36 
   4  -3  -1    9.29    0.36 
  -4   3   1    9.47    0.33 
   3  -3  -1    0.00    0.03 
   3  -3  -1   -0.02    0.02 
  -3   3   1    0.02    0.02 
   2  -3  -1   17.48    0.58 
   2  -3  -1   17.16    0.55 
  -2   3   1   17.84    0.55 
   1  -3  -1    2.47    0.12 
   1  -3  -1    2.60    0.13 
  -1   3   1    2.60    0.11 
   0  -3  -1   36.72    1.01 
   0  -3  -1   35.62    1.10 
   0   3   1   35.07    1.09 
  -1  -3  -1    3.48    0.17 
  -1  -3  -1    3.65    0.13 
   1   3   1    3.54    0.16 
  -2  -3  -1   18.57    0.64 
   2   3   1   19.16    0.63 
   3   3   1   19.99    0.68 
  -4  -3  -1  186.94    5.58 
  -5  -3  -1    6.80    0.35 
   6   3   1    2.21    0.17 
   7   3   1    0.33    0.09 
   8   3   1    0.21    0.09 
   9   3   1    0.05    0.08 
  10   3   1    0.18    0.10 
   9  -4  -1    0.53    0.13 
   8  -4  -1    0.09    0.07 
   7  -4  -1    1.20    0.14 
   7  -4  -1    1.42    0.17 
   6  -4  -1    0.09    0.07 
   6  -4  -1    0.16    0.05 
   5  -4  -1    5.02    0.27 
   5  -4  -1    5.14    0.25 
   4  -4  -1    1.59    0.12 
   4  -4  -1    1.49    0.14 
  -4   4   1    1.70    0.11 
   3  -4  -1   10.60    0.40 
   3  -4  -1   10.78    0.40 
  -3   4   1   10.46    0.37 
   2  -4  -1    0.19    0.05 
   2  -4  -1    0.25    0.05 
  -2   4   1    0.15    0.04 
   1  -4  -1    8.08    0.31 
   1  -4  -1    8.00    0.29 
  -1   4   1    7.97    0.29 
   0  -4  -1   27.78    0.80 
   0  -4  -1   26.47    0.88 
   0   4   1   27.84    0.87 
  -1  -4  -1    9.31    0.31 
  -1  -4  -1    9.85    0.38 
   1   4   1    9.67    0.36 
  -2  -4  -1    0.19    0.05 
   2   4   1    0.01    0.03 
  -3  -4  -1   30.61    1.03 
   3   4   1   31.35    1.02 
   4   4   1  142.47    4.27 
   5   4   1    3.83    0.23 
   6   4   1    0.37    0.10 
   7   4   1    0.86    0.14 
   8   4   1    1.50    0.20 
   9   4   1    0.18    0.10 
  10   4   1    0.12    0.10 
  11   4   1    0.25    0.14 
   9  -5  -1    0.35    0.13 
   8  -5  -1    0.10    0.08 
   7  -5  -1    0.23    0.09 
   6  -5  -1    0.18    0.08 
   6  -5  -1    0.27    0.08 
   5  -5  -1    9.26    0.41 
   5  -5  -1    9.00    0.39 
   4  -5  -1    4.96    0.27 
   4  -5  -1    4.97    0.25 
   3  -5  -1    3.82    0.20 
   3  -5  -1    3.43    0.20 
  -3   5   1    3.47    0.18 
   2  -5  -1    0.02    0.03 
   2  -5  -1    0.04    0.03 
  -2   5   1   -0.03    0.02 
   1  -5  -1    0.65    0.09 
   1  -5  -1    0.74    0.08 
  -1   5   1    0.63    0.08 
   0  -5  -1   17.75    0.63 
   0  -5  -1   18.49    0.57 
   0   5   1   18.14    0.62 
  -1  -5  -1    3.30    0.19 
   1   5   1    3.33    0.18 
  -2  -5  -1    0.05    0.04 
   2   5   1    0.07    0.04 
  -3  -5  -1    1.30    0.14 
   3   5   1    1.22    0.14 
   4   5   1    2.42    0.18 
   5   5   1    3.41    0.23 
   6   5   1   19.96    0.78 
   7   5   1    0.42    0.12 
   8   5   1   -0.03    0.07 
   9   5   1    0.58    0.15 
  10   5   1    0.23    0.13 
   8  -6  -1   -0.07    0.07 
   7  -6  -1    0.75    0.15 
   6  -6  -1    0.06    0.07 
   5  -6  -1    3.56    0.22 
   5  -6  -1    3.41    0.24 
   4  -6  -1   12.91    0.52 
   4  -6  -1   13.32    0.52 
   3  -6  -1    1.32    0.15 
   3  -6  -1    1.32    0.14 
   2  -6  -1    9.30    0.39 
   2  -6  -1   10.23    0.38 
  -2   6   1    8.92    0.37 
   1  -6  -1   -0.01    0.03 
   1  -6  -1   -0.03    0.03 
  -1   6   1    0.00    0.02 
   0  -6  -1    1.40    0.14 
   0  -6  -1    1.45    0.11 
   0   6   1    1.60    0.13 
  -1  -6  -1    0.57    0.07 
  -1  -6  -1    0.60    0.10 
   1   6   1    0.53    0.09 
  -2  -6  -1    5.07    0.28 
   2   6   1    4.80    0.26 
  -3  -6  -1    6.45    0.34 
   3   6   1    6.42    0.32 
   4   6   1    6.76    0.35 
   5   6   1    5.00    0.30 
   6   6   1   17.42    0.72 
   7   6   1    0.03    0.07 
   8   6   1    0.13    0.10 
   9   6   1    0.35    0.15 
  10   6   1   -0.02    0.12 
   8  -7  -1    0.17    0.12 
   7  -7  -1    0.11    0.10 
   6  -7  -1    0.41    0.12 
   5  -7  -1    2.04    0.21 
   4  -7  -1    0.09    0.06 
   4  -7  -1    0.01    0.06 
   3  -7  -1    2.71    0.20 
   3  -7  -1    2.64    0.19 
   2  -7  -1   10.65    0.45 
   2  -7  -1    9.94    0.42 
  -2   7   1   10.84    0.43 
   1  -7  -1    0.10    0.05 
   1  -7  -1    0.04    0.04 
  -1   7   1    0.01    0.03 
   0  -7  -1    1.99    0.18 
   0  -7  -1    1.99    0.14 
   0   7   1    1.66    0.16 
  -1  -7  -1    2.42    0.15 
  -1  -7  -1    2.27    0.20 
   1   7   1    2.36    0.17 
  -2  -7  -1   28.60    0.98 
   2   7   1   25.23    0.94 
  -3  -7  -1    5.45    0.32 
   3   7   1    5.45    0.31 
   4   7   1   -0.01    0.06 
   5   7   1    0.21    0.10 
   6   7   1    0.18    0.08 
   7   7   1    0.69    0.16 
   8   7   1    1.59    0.24 
   9   7   1    0.30    0.14 
  10   7   1    0.48    0.18 
   7  -8  -1    0.54    0.16 
   6  -8  -1    0.05    0.10 
   5  -8  -1   -0.03    0.07 
   4  -8  -1    0.09    0.08 
   3  -8  -1    0.53    0.12 
   3  -8  -1    0.62    0.12 
   2  -8  -1    2.30    0.20 
   2  -8  -1    2.02    0.19 
   1  -8  -1    0.05    0.06 
   1  -8  -1   -0.04    0.06 
  -1   8   1    0.03    0.04 
   0  -8  -1    2.82    0.18 
   0  -8  -1    3.48    0.24 
   0   8   1    3.03    0.21 
  -1  -8  -1    3.12    0.19 
  -1  -8  -1    3.51    0.25 
   1   8   1    3.28    0.23 
  -2  -8  -1    0.02    0.06 
   2   8   1    0.08    0.07 
  -3  -8  -1    1.13    0.18 
   3   8   1    0.98    0.17 
   4   8   1    1.47    0.20 
   5   8   1    0.29    0.10 
   6   8   1    0.52    0.14 
   7   8   1    0.12    0.09 
   8   8   1    3.05    0.33 
   9   8   1    0.15    0.14 
   6  -9  -1    0.08    0.13 
   5  -9  -1    0.30    0.12 
   4  -9  -1    0.27    0.10 
   3  -9  -1    0.61    0.13 
   2  -9  -1   -0.06    0.06 
   2  -9  -1    0.11    0.08 
   1  -9  -1    0.11    0.08 
   1  -9  -1   -0.06    0.06 
   0  -9  -1    1.34    0.19 
   0  -9  -1    1.34    0.15 
   0   9   1    1.29    0.17 
  -1  -9  -1    1.74    0.16 
  -1  -9  -1    1.76    0.21 
   1   9   1    2.12    0.21 
  -2  -9  -1    0.69    0.14 
   2   9   1    0.69    0.14 
  -3  -9  -1    1.76    0.22 
   3   9   1    1.71    0.21 
   4   9   1    1.35    0.21 
   5   9   1    0.46    0.14 
   6   9   1    0.12    0.10 
   7   9   1    0.68    0.17 
   8   9   1    0.32    0.15 
   4 -10  -1   -0.08    0.09 
   3 -10  -1    0.12    0.10 
   2 -10  -1    1.03    0.17 
   1 -10  -1    0.08    0.07 
   1 -10  -1    0.03    0.08 
   0 -10  -1    0.36    0.11 
   0 -10  -1    0.20    0.09 
  -1 -10  -1    0.10    0.09 
   1  10   1    0.12    0.09 
  -2 -10  -1    0.00    0.08 
   2  10   1    0.21    0.10 
  -3 -10  -1    0.69    0.16 
   3  10   1    0.80    0.16 
   4  10   1    0.27    0.11 
   5  10   1    0.60    0.16 
   6  10   1    0.49    0.17 
   7  10   1   -0.01    0.12 
   3 -11  -1    0.07    0.12 
   2 -11  -1    0.00    0.11 
   0 -11  -1    0.37    0.14 
  -1 -11  -1    0.77    0.18 
  -2 -11  -1    0.66    0.17 
   2  11   1    0.33    0.13 
   3  11   1    0.10    0.10 
   4  11   1    0.35    0.14 
   5  11   1    0.11    0.13 
   6  11   1   -0.03    0.12 
  -2 -12  -1    0.18    0.14 
   3  12   1    0.47    0.16 
   5  11  -2    0.19    0.15 
   4  11  -2    0.07    0.12 
   3  11  -2   -0.03    0.11 
   2  11  -2    0.08    0.11 
   1  11  -2    0.07    0.11 
   0  11  -2    0.40    0.18 
   1 -11   2    0.14    0.12 
   2 -11   2    0.09    0.12 
   7  10  -2   -0.06    0.13 
   6  10  -2    1.35    0.25 
   5  10  -2    0.27    0.15 
   4  10  -2    0.49    0.16 
   3  10  -2    0.20    0.11 
   2  10  -2    0.26    0.12 
   1  10  -2    0.55    0.15 
   0  10  -2    0.48    0.14 
   0 -10   2    0.46    0.13 
  -1  10  -2    0.01    0.10 
   1 -10   2   -0.11    0.08 
   2 -10   2    0.99    0.18 
   3 -10   2    0.03    0.10 
   4 -10   2   -0.04    0.11 
   8   9  -2    0.03    0.16 
   7   9  -2    0.06    0.12 
   6   9  -2    0.20    0.12 
   5   9  -2    0.77    0.18 
   4   9  -2    0.92    0.19 
   3   9  -2    0.87    0.17 
   2   9  -2    0.36    0.12 
   1   9  -2    2.74    0.27 
   0   9  -2    0.03    0.07 
   0  -9   2    0.05    0.08 
  -1   9  -2    1.30    0.20 
   1  -9   2    1.62    0.19 
  -2   9  -2    0.22    0.12 
   2  -9   2    0.12    0.09 
   3  -9   2    0.32    0.12 
   4  -9   2   -0.01    0.08 
   5  -9   2    0.13    0.12 
   9   8  -2    0.26    0.19 
   8   8  -2   -0.05    0.11 
   7   8  -2    0.56    0.17 
   6   8  -2    0.38    0.13 
   5   8  -2    0.03    0.08 
   4   8  -2    0.52    0.13 
   3   8  -2    0.55    0.14 
   2   8  -2    2.57    0.25 
   1   8  -2    2.94    0.24 
   0   8  -2    0.26    0.10 
   0  -8   2    0.19    0.08 
   0  -8   2    0.09    0.07 
  -1   8  -2    6.64    0.38 
   1  -8   2    6.70    0.34 
  -2   8  -2    0.37    0.11 
   2  -8   2    0.24    0.08 
   3  -8   2    0.37    0.10 
   4  -8   2    0.05    0.08 
   5  -8   2    0.10    0.09 
   6  -8   2   -0.07    0.09 
   9   7  -2    0.02    0.14 
   8   7  -2    0.63    0.17 
   7   7  -2    0.07    0.09 
   6   7  -2    0.75    0.16 
   5   7  -2    0.11    0.08 
   4   7  -2    0.37    0.11 
   3   7  -2    6.89    0.38 
   2   7  -2    2.01    0.21 
   1   7  -2    0.73    0.14 
  -1  -7   2    0.57    0.11 
   0   7  -2    1.08    0.16 
   0  -7   2    1.16    0.14 
   0  -7   2    0.84    0.13 
  -1   7  -2    2.29    0.21 
   1  -7   2    2.11    0.18 
   1  -7   2    2.12    0.16 
  -2   7  -2    3.84    0.25 
   2  -7   2    3.36    0.22 
  -3   7  -2    1.13    0.16 
   3  -7   2    1.04    0.15 
   4  -7   2   -0.02    0.06 
   5  -7   2    3.88    0.27 
   6  -7   2    1.13    0.18 
   7  -7   2    0.11    0.11 
  10   6  -2   -0.08    0.14 
   9   6  -2    0.57    0.18 
   8   6  -2    0.05    0.10 
   7   6  -2    0.81    0.18 
   6   6  -2    0.66    0.15 
   5   6  -2    1.66    0.21 
   4   6  -2    1.32    0.18 
   3   6  -2    0.84    0.14 
   2   6  -2    0.26    0.09 
   1   6  -2    4.51    0.26 
  -1  -6   2    4.13    0.22 
   0   6  -2    0.08    0.06 
   0  -6   2    0.07    0.05 
   0  -6   2    0.10    0.05 
  -1   6  -2    0.10    0.06 
   1  -6   2    0.12    0.06 
   1  -6   2    0.13    0.05 
  -2   6  -2    4.99    0.27 
   2  -6   2    4.68    0.25 
   2  -6   2    4.81    0.23 
  -3   6  -2    3.66    0.24 
   3  -6   2    4.32    0.25 
  -4   6  -2    7.16    0.37 
   4  -6   2    8.22    0.38 
   5  -6   2    0.64    0.12 
   6  -6   2   -0.09    0.05 
   7  -6   2    0.13    0.09 
   8  -6   2    0.13    0.10 
  10   5  -2    0.47    0.17 
   9   5  -2    1.39    0.23 
   8   5  -2   -0.07    0.09 
   7   5  -2    0.67    0.14 
   6   5  -2   -0.06    0.06 
   5   5  -2    7.01    0.38 
   4   5  -2    0.52    0.11 
   3   5  -2    1.71    0.17 
   2   5  -2    1.15    0.14 
   1   5  -2    0.47    0.09 
   0   5  -2    1.67    0.14 
   0  -5   2    1.83    0.13 
   0  -5   2    1.72    0.12 
  -1   5  -2    4.44    0.24 
   1  -5   2    4.02    0.21 
   1  -5   2    4.27    0.20 
  -2   5  -2    1.55    0.15 
   2  -5   2    1.16    0.12 
   2  -5   2    1.52    0.10 
  -3   5  -2    0.09    0.05 
   3  -5   2    0.16    0.07 
   3  -5   2    0.21    0.04 
  -4   5  -2   14.38    0.57 
   4  -5   2   13.92    0.55 
  -5   5  -2    0.85    0.13 
   5  -5   2    0.98    0.14 
   6  -5   2    0.67    0.13 
   7  -5   2    0.08    0.07 
   8  -5   2    0.08    0.08 
   9  -5   2    0.11    0.10 
  10   4  -2    0.20    0.14 
   9   4  -2    0.20    0.11 
   8   4  -2    0.57    0.13 
   7   4  -2    1.51    0.19 
   6   4  -2    0.79    0.14 
   5   4  -2    5.44    0.30 
   4   4  -2    0.73    0.12 
   3   4  -2   29.88    1.01 
   2   4  -2    7.50    0.33 
   1   4  -2    3.94    0.21 
   0   4  -2    1.55    0.13 
   0  -4   2    1.39    0.10 
   0  -4   2    1.30    0.11 
  -1   4  -2    0.19    0.06 
   1  -4   2    0.13    0.05 
   1  -4   2    0.17    0.04 
  -2   4  -2    6.85    0.31 
   2  -4   2    6.97    0.26 
   2  -4   2    6.79    0.28 
  -3   4  -2    2.51    0.17 
   3  -4   2    2.56    0.12 
   3  -4   2    2.62    0.16 
  -4   4  -2    0.02    0.05 
   4  -4   2    0.01    0.04 
   4  -4   2    0.11    0.03 
  -5   4  -2    0.00    0.04 
   5  -4   2    0.25    0.08 
  -6   4  -2    3.96    0.26 
   6  -4   2    4.22    0.26 
   7  -4   2    1.25    0.17 
   8  -4   2    0.08    0.07 
   9  -4   2    0.44    0.12 
  11   3  -2    0.26    0.17 
  10   3  -2    0.42    0.15 
   9   3  -2    0.24    0.11 
   8   3  -2    0.40    0.11 
   7   3  -2    1.27    0.17 
   6   3  -2    0.78    0.13 
   5   3  -2    0.04    0.04 
   4   3  -2   11.07    0.45 
   3   3  -2    4.06    0.22 
   2   3  -2    4.89    0.23 
   1   3  -2    0.07    0.04 
   0   3  -2   10.39    0.39 
   0  -3   2   10.28    0.35 
  -1   3  -2    8.83    0.35 
   1  -3   2    8.87    0.32 
   1  -3   2    8.64    0.30 
  -2   3  -2    2.02    0.14 
   2  -3   2    2.14    0.13 
   2  -3   2    2.45    0.10 
  -3   3  -2    3.24    0.19 
   3  -3   2    3.43    0.18 
   3  -3   2    3.49    0.14 
  -4   3  -2    7.55    0.34 
   4  -3   2    8.03    0.33 
   4  -3   2    7.60    0.27 
  -5   3  -2    0.58    0.11 
   5  -3   2    0.33    0.08 
   5  -3   2    0.66    0.07 
   6  -3   2    2.47    0.21 
   7  -3   2    1.21    0.16 
   8  -3   2    0.10    0.07 
   9  -3   2    0.10    0.08 
  10  -3   2    0.20    0.12 
  11   2  -2    0.00    0.11 
  10   2  -2    0.27    0.12 
   9   2  -2    0.36    0.12 
   8   2  -2    0.13    0.08 
   7   2  -2    2.41    0.19 
   6   2  -2   11.76    0.48 
   5   2  -2    0.05    0.04 
   4   2  -2   13.42    0.49 
   3   2  -2    1.59    0.11 
   2   2  -2   19.23    0.64 
   1   2  -2    8.34    0.32 
   0   2  -2    0.17    0.04 
   0  -2   2    0.11    0.03 
  -1   2  -2    9.72    0.37 
   1  -2   2    9.87    0.31 
   1  -2   2   10.11    0.33 
  -2   2  -2   12.84    0.46 
   2  -2   2   12.79    0.39 
   2  -2   2   12.42    0.42 
  -3   2  -2   11.66    0.45 
   3  -2   2   12.02    0.37 
   3  -2   2   11.48    0.40 
  -4   2  -2    4.30    0.24 
   4  -2   2    4.86    0.19 
   4  -2   2    4.87    0.23 
  -5   2  -2    3.04    0.20 
   5  -2   2    3.17    0.15 
   5  -2   2    3.14    0.19 
  -6   2  -2    1.01    0.14 
   6  -2   2    0.80    0.12 
   6  -2   2    1.08    0.10 
  -7   2  -2    0.22    0.08 
   7  -2   2    0.21    0.08 
   8  -2   2    0.78    0.13 
   9  -2   2    0.05    0.07 
  10  -2   2    0.13    0.10 
  11   1  -2    0.13    0.12 
  10   1  -2    0.16    0.09 
   9   1  -2    1.37    0.19 
   8   1  -2    0.35    0.11 
   8   1  -2    0.30    0.10 
   7   1  -2   11.51    0.50 
   7   1  -2   11.18    0.47 
   6   1  -2    1.43    0.14 
   5   1  -2    1.28    0.12 
   4   1  -2    0.09    0.04 
   3   1  -2   10.13    0.36 
   2   1  -2    2.72    0.13 
   1   1  -2    0.55    0.06 
   0   1  -2  217.11    6.36 
  -1   1  -2  320.09    9.34 
   1  -1   2  319.64    8.61 
  -2   1  -2    0.01    0.02 
   2  -1   2    0.01    0.01 
   2  -1   2    0.00    0.02 
  -3   1  -2   37.62    1.21 
   3  -1   2   38.92    1.12 
   3  -1   2   37.08    1.10 
  -4   1  -2   11.60    0.46 
   4  -1   2   11.24    0.39 
   4  -1   2   12.07    0.41 
  -5   1  -2    7.82    0.37 
   5  -1   2    8.08    0.31 
   5  -1   2    8.53    0.33 
  -6   1  -2    2.53    0.19 
   6  -1   2    2.38    0.14 
   6  -1   2    2.39    0.16 
  -7   1  -2    4.11    0.27 
   7  -1   2    3.84    0.21 
   7  -1   2    3.93    0.23 
  -8   1  -2    0.19    0.10 
   8  -1   2    0.35    0.09 
   9  -1   2   -0.03    0.06 
  10  -1   2   -0.01    0.08 
  10   0  -2    0.28    0.11 
   9   0  -2   -0.01    0.07 
   8   0  -2    0.27    0.10 
   7   0  -2    2.00    0.19 
   7   0  -2    1.91    0.14 
   6   0  -2    2.81    0.19 
   6   0  -2    2.61    0.16 
   5   0  -2    0.82    0.09 
   5   0  -2    0.94    0.12 
   4   0  -2    0.43    0.08 
   4   0  -2    0.50    0.06 
   3   0  -2    0.49    0.07 
   3   0  -2    0.67    0.06 
   2   0  -2    2.54    0.11 
   2   0  -2    2.43    0.13 
   1   0  -2    0.28    0.03 
   1   0  -2    0.30    0.04 
   0   0  -2    6.20    0.22 
   0   0  -2    5.15    0.20 
  -1   0  -2   24.98    0.74 
  -1   0  -2   24.21    0.78 
   1   0   2   25.21    0.70 
  -2   0  -2    0.33    0.06 
   2   0   2    0.25    0.03 
  -3   0  -2    1.23    0.11 
   3   0   2    1.44    0.08 
  -4   0  -2    0.12    0.05 
   4   0   2    0.16    0.04 
  -5   0  -2    8.09    0.37 
   5   0   2    7.60    0.30 
  -6   0  -2    5.09    0.30 
   6   0   2    5.43    0.25 
  -7   0  -2    7.85    0.41 
   7   0   2    8.47    0.36 
   7   0   2    8.16    0.36 
  -8   0  -2    0.38    0.12 
   8   0   2    0.39    0.09 
   8   0   2    0.26    0.08 
  -9   0  -2    0.55    0.15 
   9   0   2    0.82    0.13 
  10   0   2    1.19    0.18 
  10  -1  -2    0.24    0.11 
   9  -1  -2    1.15    0.18 
   8  -1  -2    0.47    0.12 
   7  -1  -2    0.03    0.05 
   6  -1  -2    3.34    0.21 
   6  -1  -2    3.24    0.17 
   5  -1  -2    2.31    0.16 
   5  -1  -2    2.42    0.13 
   4  -1  -2    0.15    0.03 
   4  -1  -2    0.23    0.06 
   3  -1  -2    0.26    0.05 
   3  -1  -2    0.57    0.04 
   2  -1  -2   10.95    0.34 
   2  -1  -2   11.26    0.39 
   1  -1  -2   25.73    0.78 
   1  -1  -2   26.36    0.80 
   0  -1  -2  198.92    5.88 
   0  -1  -2  202.98    5.78 
  -1  -1  -2    3.67    0.14 
  -1  -1  -2    3.67    0.16 
  -2  -1  -2    4.90    0.22 
  -2  -1  -2    4.96    0.19 
   2   1   2    4.91    0.16 
  -3  -1  -2   24.54    0.84 
   3   1   2   25.48    0.72 
  -4  -1  -2    0.77    0.11 
  -5  -1  -2    0.19    0.07 
  -6  -1  -2    7.59    0.38 
  -7  -1  -2    7.48    0.40 
   7   1   2    7.39    0.32 
  -8  -1  -2    2.47    0.25 
   8   1   2    2.20    0.17 
  -9  -1  -2    2.13    0.26 
   9   1   2    1.75    0.18 
   9   1   2    1.78    0.20 
  10   1   2    0.76    0.13 
  10  -2  -2    0.41    0.13 
   9  -2  -2    0.38    0.11 
   8  -2  -2    0.62    0.12 
   7  -2  -2    4.71    0.27 
   6  -2  -2    0.07    0.05 
   5  -2  -2    0.42    0.08 
   5  -2  -2    0.52    0.05 
   4  -2  -2   19.94    0.62 
   4  -2  -2   20.47    0.69 
   3  -2  -2   11.31    0.41 
   2  -2  -2    0.14    0.04 
   1  -2  -2   10.53    0.37 
  -1   2   2   11.19    0.34 
   0  -2  -2   26.76    0.82 
   0  -2  -2   26.27    0.82 
  -1  -2  -2   49.51    1.51 
  -1  -2  -2   49.40    1.48 
  -2  -2  -2    5.23    0.22 
  -2  -2  -2    5.27    0.24 
  -3  -2  -2   14.85    0.52 
  -3  -2  -2   14.91    0.55 
  -4  -2  -2   28.93    0.99 
  -5  -2  -2    2.58    0.19 
  -6  -2  -2    7.77    0.40 
  -7  -2  -2    7.67    0.42 
  -8  -2  -2    2.56    0.27 
  -9  -2  -2    1.19    0.21 
   9   2   2    1.34    0.16 
  10   2   2    0.36    0.12 
  10  -3  -2   -0.03    0.10 
   9  -3  -2    0.11    0.08 
   8  -3  -2    0.07    0.07 
   7  -3  -2    2.18    0.20 
   6  -3  -2    1.02    0.13 
   5  -3  -2    7.16    0.32 
   4  -3  -2    0.10    0.05 
  -4   3   2    0.04    0.02 
   3  -3  -2    0.61    0.08 
   2  -3  -2    3.06    0.16 
   1  -3  -2   21.44    0.71 
  -1   3   2   22.80    0.68 
   0  -3  -2    6.54    0.26 
  -1  -3  -2   10.03    0.29 
  -1  -3  -2    9.43    0.36 
  -1  -3  -2    9.77    0.36 
  -2  -3  -2   32.02    1.03 
  -2  -3  -2   32.45    1.05 
  -3  -3  -2   13.67    0.52 
  -3  -3  -2   13.33    0.50 
  -4  -3  -2   13.60    0.55 
  -5  -3  -2    0.23    0.07 
  -6  -3  -2    0.28    0.10 
  -7  -3  -2    2.02    0.24 
  -8  -3  -2    3.39    0.31 
   9   3   2    0.09    0.08 
  10   3   2    0.81    0.16 
   9  -4  -2    0.28    0.11 
   8  -4  -2    0.28    0.09 
   7  -4  -2   -0.01    0.05 
   7  -4  -2   -0.03    0.05 
   6  -4  -2    3.44    0.22 
   6  -4  -2    3.39    0.22 
   5  -4  -2    0.75    0.11 
   5  -4  -2    0.69    0.11 
   4  -4  -2    1.36    0.13 
   4  -4  -2    1.52    0.14 
   3  -4  -2    8.86    0.37 
   3  -4  -2    9.49    0.36 
  -3   4   2    9.61    0.31 
   2  -4  -2    0.52    0.08 
   2  -4  -2    0.37    0.07 
  -2   4   2    0.51    0.05 
   1  -4  -2   13.71    0.45 
   1  -4  -2   13.90    0.50 
  -1   4   2   14.09    0.46 
   0  -4  -2   11.99    0.44 
  -1  -4  -2    1.33    0.12 
  -1  -4  -2    1.39    0.07 
   1   4   2    1.24    0.09 
  -2  -4  -2    2.11    0.15 
   2   4   2    1.95    0.13 
  -3  -4  -2   51.11    1.62 
   3   4   2   51.96    1.62 
  -4  -4  -2    8.43    0.40 
  -4  -4  -2    8.35    0.39 
  -5  -4  -2    2.07    0.21 
  -6  -4  -2    0.09    0.07 
   7   4   2    2.70    0.22 
   8   4   2   -0.04    0.06 
   9   4   2    1.85    0.23 
  10   4   2    1.04    0.19 
  11   4   2    0.01    0.12 
   9  -5  -2   -0.04    0.09 
   8  -5  -2    0.36    0.11 
   7  -5  -2   -0.05    0.06 
   6  -5  -2    0.53    0.11 
   6  -5  -2    0.81    0.13 
   5  -5  -2    0.33    0.09 
   5  -5  -2    0.20    0.07 
   4  -5  -2   25.25    0.82 
   4  -5  -2   24.22    0.85 
   3  -5  -2    0.02    0.04 
   3  -5  -2   -0.07    0.04 
  -3   5   2    0.00    0.02 
   2  -5  -2    7.38    0.32 
   2  -5  -2    6.57    0.29 
  -2   5   2    7.56    0.28 
   1  -5  -2   12.31    0.41 
   1  -5  -2   11.59    0.46 
  -1   5   2   12.05    0.42 
   0  -5  -2    2.24    0.15 
   0  -5  -2    2.05    0.11 
   0   5   2    1.47    0.11 
  -1  -5  -2    1.01    0.11 
  -1  -5  -2    1.17    0.08 
   1   5   2    1.27    0.11 
  -2  -5  -2   12.52    0.49 
   2   5   2   11.69    0.46 
  -3  -5  -2    2.43    0.19 
   3   5   2    2.97    0.18 
  -4  -5  -2    0.21    0.08 
   4   5   2    0.27    0.07 
   5   5   2    2.86    0.21 
   6   5   2   21.55    0.82 
   7   5   2    0.44    0.11 
   8   5   2    0.11    0.08 
   9   5   2    0.63    0.15 
  10   5   2    0.28    0.12 
   8  -6  -2    0.55    0.14 
   7  -6  -2    0.12    0.08 
   6  -6  -2    0.09    0.08 
   5  -6  -2    0.62    0.11 
   5  -6  -2    0.76    0.13 
   4  -6  -2    4.78    0.27 
   4  -6  -2    5.11    0.28 
   3  -6  -2    2.94    0.20 
   3  -6  -2    2.88    0.19 
   2  -6  -2    5.69    0.26 
   2  -6  -2    5.53    0.28 
  -2   6   2    5.14    0.24 
   1  -6  -2    0.42    0.07 
   1  -6  -2    0.49    0.09 
  -1   6   2    0.48    0.07 
   0  -6  -2    0.58    0.10 
   0  -6  -2    0.56    0.07 
   0   6   2    0.43    0.08 
  -1  -6  -2    0.82    0.08 
  -1  -6  -2    1.06    0.13 
   1   6   2    0.97    0.11 
  -2  -6  -2    0.20    0.07 
   2   6   2    0.26    0.07 
  -3  -6  -2    3.56    0.24 
   3   6   2    3.68    0.22 
  -4  -6  -2    0.07    0.07 
   4   6   2    0.30    0.09 
   5   6   2    0.52    0.12 
   6   6   2    6.98    0.39 
   7   6   2    0.51    0.13 
   8   6   2    1.18    0.20 
   9   6   2   -0.03    0.09 
  10   6   2    0.14    0.12 
   8  -7  -2    0.20    0.13 
   7  -7  -2    1.26    0.20 
   6  -7  -2    0.24    0.11 
   5  -7  -2    2.26    0.21 
   5  -7  -2    2.91    0.25 
   4  -7  -2    0.33    0.09 
   4  -7  -2    0.24    0.08 
   3  -7  -2    4.09    0.26 
   3  -7  -2    4.26    0.25 
   2  -7  -2    2.42    0.17 
   2  -7  -2    2.60    0.19 
   1  -7  -2    1.22    0.15 
   1  -7  -2    1.19    0.12 
  -1   7   2    1.31    0.13 
   0  -7  -2    1.47    0.12 
   0  -7  -2    1.32    0.16 
   0   7   2    1.76    0.15 
  -1  -7  -2    3.76    0.25 
  -1  -7  -2    4.01    0.19 
   1   7   2    3.88    0.23 
  -2  -7  -2   -0.03    0.05 
   2   7   2    0.06    0.05 
  -3  -7  -2    9.70    0.47 
   3   7   2    9.49    0.43 
  -4  -7  -2    0.01    0.06 
   4   7   2    0.05    0.07 
   5   7   2    0.63    0.14 
   6   7   2    0.05    0.08 
   7   7   2    0.13    0.09 
   8   7   2    5.83    0.40 
   9   7   2   -0.05    0.10 
  10   7   2    0.06    0.14 
   7  -8  -2   -0.04    0.11 
   6  -8  -2    0.19    0.10 
   5  -8  -2    0.68    0.14 
   4  -8  -2    0.44    0.11 
   4  -8  -2    0.27    0.10 
   3  -8  -2    0.91    0.15 
   3  -8  -2    1.38    0.17 
   2  -8  -2    0.05    0.07 
   2  -8  -2    0.06    0.07 
   1  -8  -2    8.14    0.40 
   1  -8  -2    7.88    0.34 
  -1   8   2    7.84    0.35 
   0  -8  -2    0.95    0.15 
   0  -8  -2    0.97    0.12 
   0   8   2    1.03    0.13 
  -1  -8  -2    1.92    0.21 
   1   8   2    1.83    0.18 
  -2  -8  -2    6.12    0.35 
   2   8   2    5.71    0.33 
  -3  -8  -2    0.63    0.14 
   3   8   2    1.00    0.15 
  -4  -8  -2    0.79    0.16 
   4   8   2    1.02    0.16 
   5   8   2    2.28    0.24 
   6   8   2    0.29    0.11 
   7   8   2    0.53    0.15 
   8   8   2    1.52    0.25 
   9   8   2    0.26    0.15 
   6  -9  -2   -0.05    0.11 
   5  -9  -2   -0.01    0.10 
   4  -9  -2   -0.02    0.08 
   3  -9  -2    0.12    0.08 
   3  -9  -2    0.07    0.07 
   2  -9  -2    0.34    0.11 
   2  -9  -2    0.24    0.09 
   1  -9  -2    2.49    0.24 
   1  -9  -2    3.02    0.21 
   0  -9  -2    0.88    0.13 
   0  -9  -2    0.77    0.15 
   0   9   2    0.82    0.14 
  -1  -9  -2    0.24    0.10 
   1   9   2    0.51    0.12 
  -2  -9  -2    0.35    0.11 
   2   9   2    0.61    0.13 
  -3  -9  -2    0.23    0.10 
   3   9   2    0.15    0.09 
  -4  -9  -2    3.19    0.31 
   4   9   2    3.90    0.28 
   5   9   2    0.21    0.11 
   6   9   2    0.74    0.17 
   7   9   2    0.06    0.10 
   8   9   2   -0.12    0.11 
   4 -10  -2    0.19    0.12 
   3 -10  -2    0.15    0.09 
   2 -10  -2    0.56    0.15 
   2 -10  -2    0.60    0.13 
   1 -10  -2    0.37    0.12 
   1 -10  -2    0.36    0.11 
   0 -10  -2    0.11    0.09 
  -1 -10  -2    1.22    0.20 
   1  10   2    1.20    0.18 
  -2 -10  -2    2.07    0.25 
   2  10   2    1.92    0.22 
  -3 -10  -2    0.31    0.11 
   3  10   2    0.13    0.09 
  -4 -10  -2    0.76    0.18 
   4  10   2    0.83    0.18 
   5  10   2    0.43    0.14 
   6  10   2    2.44    0.31 
   7  10   2    0.12    0.12 
   3 -11  -2    0.04    0.13 
   0 -11  -2    0.11    0.10 
  -1 -11  -2    0.04    0.09 
  -2 -11  -2    0.06    0.09 
   2  11   2    0.00    0.10 
  -3 -11  -2    0.08    0.10 
   3  11   2    0.04    0.10 
   4  11   2    0.39    0.14 
   5  11   2    1.24    0.24 
   6  11   2    0.12    0.14 
  -1 -12  -2    0.02    0.13 
  -2 -12  -2   -0.08    0.10 
  -3 -12  -2   -0.07    0.13 
   3  12   2    0.12    0.13 
   4  12   2    0.02    0.13 
   4  11  -3    1.40    0.28 
   3  11  -3    0.17    0.13 
   2  11  -3    0.13    0.14 
   1  11  -3    0.02    0.12 
   0  11  -3    0.32    0.14 
   1 -11   3    0.09    0.11 
   6  10  -3    0.13    0.14 
   5  10  -3    0.87    0.21 
   4  10  -3    0.71    0.19 
   3  10  -3    0.33    0.14 
   2  10  -3   -0.04    0.09 
   1  10  -3    0.10    0.11 
   0  10  -3    0.08    0.10 
  -1  10  -3    0.05    0.09 
   1 -10   3   -0.03    0.08 
   2 -10   3    0.27    0.12 
   3 -10   3    0.34    0.15 
   7   9  -3    0.36    0.18 
   6   9  -3    0.20    0.14 
   5   9  -3    0.78    0.19 
   4   9  -3    0.56    0.15 
   3   9  -3    0.33    0.12 
   2   9  -3    2.17    0.26 
   1   9  -3    1.50    0.22 
   0   9  -3    0.91    0.18 
   0  -9   3    0.74    0.14 
  -1   9  -3    1.91    0.24 
   1  -9   3    2.05    0.22 
  -2   9  -3    0.57    0.13 
   2  -9   3    0.70    0.15 
   3  -9   3    0.04    0.08 
   4  -9   3    0.08    0.11 
   5  -9   3    0.74    0.19 
   8   8  -3    0.00    0.13 
   7   8  -3    0.51    0.18 
   5   8  -3    0.52    0.14 
   4   8  -3    1.42    0.22 
   3   8  -3    0.12    0.09 
   2   8  -3    0.05    0.07 
   1   8  -3    0.13    0.09 
   0   8  -3    0.88    0.16 
   0  -8   3    0.96    0.15 
  -1   8  -3    0.09    0.08 
   1  -8   3    0.05    0.06 
  -2   8  -3    1.04    0.18 
   2  -8   3    0.98    0.15 
  -3   8  -3    0.16    0.10 
   3  -8   3    0.30    0.10 
   4  -8   3    0.26    0.10 
   5  -8   3    0.30    0.12 
   6  -8   3    0.31    0.13 
   9   7  -3    0.02    0.13 
   8   7  -3    0.32    0.14 
   7   7  -3    2.56    0.30 
   6   7  -3    0.20    0.11 
   5   7  -3    0.38    0.12 
   4   7  -3    1.51    0.21 
   3   7  -3    1.37    0.19 
   2   7  -3    8.10    0.43 
   1   7  -3    0.44    0.11 
   0   7  -3    0.11    0.08 
   0  -7   3    0.00    0.05 
  -1   7  -3    1.48    0.19 
   1  -7   3    1.35    0.16 
  -2   7  -3    1.98    0.21 
   2  -7   3    1.72    0.18 
  -3   7  -3    0.04    0.07 
   3  -7   3   -0.10    0.04 
  -4   7  -3    0.30    0.11 
   4  -7   3    0.14    0.09 
   5  -7   3    0.05    0.07 
   6  -7   3    0.38    0.13 
   7  -7   3    0.17    0.12 
   9   6  -3    0.31    0.16 
   8   6  -3    0.00    0.10 
   7   6  -3    2.02    0.26 
   6   6  -3    0.08    0.08 
   5   6  -3    7.76    0.42 
   4   6  -3    0.38    0.11 
   3   6  -3    0.05    0.07 
   2   6  -3    1.32    0.17 
   1   6  -3    2.77    0.22 
   0   6  -3    0.06    0.06 
   0  -6   3    0.11    0.06 
  -1   6  -3    0.20    0.08 
   1  -6   3    0.24    0.07 
  -2   6  -3    2.41    0.22 
   2  -6   3    3.17    0.20 
  -3   6  -3    3.26    0.24 
   3  -6   3    3.05    0.21 
  -4   6  -3    4.18    0.28 
   4  -6   3    3.97    0.25 
   5  -6   3    2.77    0.24 
   6  -6   3    0.22    0.09 
   7  -6   3    0.11    0.09 
   8  -6   3    0.09    0.11 
  10   5  -3    0.05    0.15 
   9   5  -3    0.75    0.18 
   8   5  -3    0.03    0.10 
   7   5  -3   -0.08    0.07 
   6   5  -3    1.10    0.18 
   5   5  -3    4.79    0.30 
   4   5  -3    2.84    0.21 
   3   5  -3    0.03    0.06 
   2   5  -3    0.08    0.05 
   1   5  -3    0.01    0.04 
   0   5  -3    0.98    0.13 
   0  -5   3    0.97    0.11 
  -1   5  -3    1.97    0.18 
   1  -5   3    2.00    0.15 
  -2   5  -3    2.16    0.17 
   2  -5   3    1.73    0.11 
   2  -5   3    1.93    0.16 
  -3   5  -3    3.92    0.24 
   3  -5   3    3.61    0.22 
  -4   5  -3   -0.02    0.05 
   4  -5   3   -0.01    0.05 
  -5   5  -3    0.60    0.13 
   5  -5   3    0.54    0.11 
   6  -5   3    0.09    0.08 
   7  -5   3    0.27    0.10 
   8  -5   3    0.00    0.08 
   9  -5   3    0.12    0.12 
  10   4  -3    1.26    0.24 
   9   4  -3    0.89    0.19 
   8   4  -3    0.24    0.11 
   7   4  -3    1.01    0.17 
   6   4  -3    0.08    0.08 
   5   4  -3    1.28    0.16 
   4   4  -3    6.64    0.33 
   3   4  -3   13.79    0.54 
   2   4  -3   21.68    0.77 
   1   4  -3    7.29    0.33 
   0   4  -3    4.13    0.23 
   0  -4   3    4.24    0.21 
  -1   4  -3   12.98    0.50 
   1  -4   3   12.56    0.45 
  -2   4  -3    4.11    0.23 
   2  -4   3    4.31    0.17 
   2  -4   3    3.87    0.21 
  -3   4  -3   -0.02    0.04 
   3  -4   3    0.03    0.03 
   3  -4   3    0.03    0.02 
  -4   4  -3    1.30    0.16 
   4  -4   3    1.10    0.13 
  -5   4  -3    4.66    0.29 
   5  -4   3    4.78    0.27 
  -6   4  -3    0.47    0.12 
   6  -4   3    0.38    0.10 
   7  -4   3    0.05    0.06 
   8  -4   3   -0.03    0.06 
   9  -4   3    0.30    0.12 
  10   3  -3   -0.05    0.09 
   9   3  -3    0.08    0.10 
   9   3  -3    0.01    0.09 
   8   3  -3    1.11    0.18 
   7   3  -3    0.76    0.14 
   6   3  -3    3.55    0.24 
   5   3  -3    9.45    0.42 
   4   3  -3    3.81    0.22 
   3   3  -3   17.00    0.62 
   2   3  -3   13.50    0.51 
   1   3  -3    9.93    0.40 
   0   3  -3    3.20    0.18 
   0  -3   3    3.04    0.16 
  -1   3  -3    4.67    0.24 
   1  -3   3    5.24    0.22 
  -2   3  -3    3.77    0.21 
   2  -3   3    3.30    0.17 
  -3   3  -3    0.16    0.06 
   3  -3   3    0.14    0.05 
  -4   3  -3    7.65    0.37 
   4  -3   3    7.62    0.33 
  -5   3  -3    0.40    0.10 
   5  -3   3    0.49    0.09 
  -6   3  -3    1.37    0.17 
   6  -3   3    1.22    0.15 
  -7   3  -3    0.52    0.13 
   7  -3   3    0.84    0.14 
   8  -3   3    1.02    0.16 
   9  -3   3    0.15    0.09 
  10  -3   3    0.02    0.11 
  10   2  -3    0.05    0.10 
   9   2  -3    0.06    0.09 
   8   2  -3    0.18    0.09 
   8   2  -3   -0.02    0.07 
   7   2  -3    1.45    0.17 
   6   2  -3    0.41    0.09 
   5   2  -3    9.81    0.41 
   4   2  -3    0.06    0.04 
   3   2  -3    8.27    0.34 
   2   2  -3    3.56    0.18 
   1   2  -3   16.67    0.58 
   0   2  -3    9.16    0.37 
   0  -2   3    9.62    0.33 
  -1   2  -3   29.89    1.00 
   1  -2   3   32.03    0.91 
  -2   2  -3   18.27    0.65 
   2  -2   3   18.62    0.58 
  -3   2  -3    0.56    0.09 
   3  -2   3    0.72    0.08 
  -4   2  -3    2.77    0.19 
   4  -2   3    2.69    0.16 
   4  -2   3    2.81    0.11 
  -5   2  -3    2.35    0.19 
   5  -2   3    2.47    0.16 
   5  -2   3    2.78    0.12 
  -6   2  -3    1.03    0.15 
   6  -2   3    0.99    0.13 
  -7   2  -3    0.56    0.13 
   7  -2   3    0.42    0.10 
  -8   2  -3    0.44    0.13 
   8  -2   3    0.65    0.12 
   9  -2   3    0.31    0.10 
  10  -2   3    0.00    0.09 
  10   1  -3    1.47    0.22 
   9   1  -3    0.03    0.08 
   8   1  -3    0.62    0.14 
   7   1  -3    3.07    0.19 
   7   1  -3    2.31    0.23 
   6   1  -3    0.11    0.05 
   6   1  -3    0.13    0.07 
   5   1  -3    0.69    0.11 
   5   1  -3    0.78    0.10 
   4   1  -3    1.55    0.11 
   3   1  -3    3.92    0.18 
   2   1  -3   11.81    0.42 
   1   1  -3   38.33    1.19 
   0   1  -3  129.17    3.62 
   0   1  -3  114.73    3.52 
  -1   1  -3  201.02    6.09 
  -1   1  -3  215.16    5.99 
   1  -1   3  205.42    5.61 
  -2   1  -3   16.16    0.56 
   2  -1   3   15.48    0.49 
  -3   1  -3    6.39    0.30 
   3  -1   3    6.40    0.21 
   3  -1   3    6.14    0.24 
  -4   1  -3   31.24    1.05 
   4  -1   3   31.21    0.94 
   4  -1   3   31.07    0.94 
  -5   1  -3    0.04    0.05 
   5  -1   3    0.01    0.03 
   5  -1   3    0.03    0.02 
  -6   1  -3    0.56    0.12 
   6  -1   3    0.69    0.08 
   6  -1   3    0.50    0.09 
  -7   1  -3    0.49    0.12 
   7  -1   3    0.37    0.09 
  -8   1  -3    0.91    0.17 
   8  -1   3    0.69    0.12 
   9  -1   3   -0.01    0.07 
  10  -1   3    0.04    0.07 
  10   0  -3   -0.01    0.09 
   9   0  -3   -0.07    0.06 
   8   0  -3    0.00    0.07 
   7   0  -3    1.53    0.18 
   6   0  -3    0.44    0.10 
   6   0  -3    0.59    0.09 
   5   0  -3    2.75    0.18 
   5   0  -3    2.86    0.15 
   4   0  -3    0.21    0.04 
   4   0  -3    0.24    0.06 
   3   0  -3   20.09    0.67 
   3   0  -3   19.77    0.64 
   2   0  -3   37.05    1.15 
   2   0  -3   37.81    1.14 
   1   0  -3   15.96    0.52 
   1   0  -3   16.13    0.52 
   0   0  -3  241.27    6.84 
   0   0  -3  234.41    6.96 
  -1   0  -3   19.09    0.57 
  -1   0  -3   18.94    0.63 
   1   0   3   18.79    0.55 
  -2   0  -3    2.70    0.16 
  -2   0  -3    3.11    0.12 
   2   0   3    3.23    0.13 
  -3   0  -3    1.83    0.14 
   3   0   3    1.90    0.10 
  -4   0  -3   20.53    0.74 
   4   0   3   20.62    0.64 
  -5   0  -3    3.10    0.22 
   5   0   3    3.45    0.17 
  -6   0  -3    7.02    0.36 
   6   0   3    6.50    0.29 
  -7   0  -3    3.47    0.26 
   7   0   3    3.52    0.21 
  -8   0  -3    3.50    0.28 
   8   0   3    3.16    0.21 
  -9   0  -3    0.93    0.19 
   9   0   3    0.63    0.12 
  10   0   3   -0.01    0.08 
  10  -1  -3    0.02    0.09 
   9  -1  -3    0.66    0.14 
   8  -1  -3    3.32    0.25 
   7  -1  -3    4.44    0.28 
   6  -1  -3    2.74    0.20 
   5  -1  -3    4.01    0.23 
   5  -1  -3    3.89    0.17 
   4  -1  -3    8.29    0.35 
   4  -1  -3    8.38    0.29 
   3  -1  -3    3.13    0.13 
   3  -1  -3    3.06    0.17 
   2  -1  -3    0.06    0.03 
   2  -1  -3    0.08    0.02 
   1  -1  -3    4.49    0.17 
   1  -1  -3    4.25    0.19 
   0  -1  -3   48.24    1.45 
   0  -1  -3   47.81    1.43 
  -1  -1  -3   34.72    1.04 
  -1  -1  -3   34.19    1.08 
  -2  -1  -3    1.09    0.10 
   2   1   3    1.03    0.05 
  -3  -1  -3    0.01    0.03 
  -3  -1  -3    0.00    0.02 
   3   1   3    0.01    0.01 
  -4  -1  -3    4.52    0.25 
   4   1   3    4.75    0.19 
  -5  -1  -3    4.30    0.26 
   5   1   3    3.95    0.18 
  -6  -1  -3   10.53    0.48 
   6   1   3    9.67    0.37 
  -7  -1  -3    3.40    0.27 
   7   1   3    3.99    0.21 
  -8  -1  -3    0.81    0.18 
   8   1   3    0.73    0.12 
  -9  -1  -3    0.02    0.09 
   9   1   3   -0.02    0.06 
 -10  -1  -3    0.09    0.12 
  10  -2  -3    0.05    0.12 
   9  -2  -3   -0.01    0.07 
   8  -2  -3    0.34    0.11 
   7  -2  -3    1.10    0.15 
   6  -2  -3    2.29    0.18 
   5  -2  -3    5.94    0.29 
   4  -2  -3    0.31    0.07 
   3  -2  -3   17.41    0.60 
   2  -2  -3   16.84    0.57 
   1  -2  -3    6.08    0.25 
   1  -2  -3    6.06    0.21 
   0  -2  -3    4.84    0.20 
   0  -2  -3    5.09    0.20 
  -1  -2  -3    8.88    0.33 
  -1  -2  -3    8.50    0.32 
  -2  -2  -3   18.41    0.64 
  -2  -2  -3   18.80    0.62 
  -3  -2  -3    0.96    0.12 
  -3  -2  -3    1.04    0.10 
   3   2   3    1.03    0.05 
  -4  -2  -3    8.82    0.40 
   4   2   3    8.98    0.29 
  -5  -2  -3    5.79    0.32 
   5   2   3    5.97    0.23 
  -6  -2  -3    5.67    0.34 
   6   2   3    6.20    0.25 
  -7  -2  -3   13.38    0.62 
   7   2   3   14.11    0.49 
  -8  -2  -3    0.13    0.09 
   8   2   3    0.15    0.06 
  -9  -2  -3    0.72    0.17 
 -10  -2  -3    0.22    0.13 
  10  -3  -3    0.12    0.11 
   9  -3  -3    0.14    0.09 
   8  -3  -3    0.94    0.15 
   7  -3  -3    2.86    0.22 
   6  -3  -3   14.53    0.58 
   5  -3  -3    3.02    0.20 
   4  -3  -3    0.47    0.09 
   3  -3  -3    5.86    0.27 
   2  -3  -3   27.85    0.90 
   1  -3  -3    1.99    0.13 
  -1   3   3    1.96    0.08 
   0  -3  -3   58.35    1.79 
   0  -3  -3   60.33    1.79 
  -1  -3  -3    2.05    0.13 
  -1  -3  -3    2.05    0.12 
  -1  -3  -3    2.08    0.08 
  -2  -3  -3    0.59    0.09 
  -2  -3  -3    0.52    0.08 
  -3  -3  -3    2.46    0.17 
  -3  -3  -3    2.64    0.17 
  -4  -3  -3    6.96    0.32 
  -4  -3  -3    6.50    0.34 
   4   3   3    7.22    0.22 
  -5  -3  -3    1.45    0.18 
  -6  -3  -3    1.16    0.18 
  -7  -3  -3    0.87    0.16 
   7   3   3    1.04    0.10 
  -8  -3  -3    0.19    0.10 
  -9  -3  -3    3.09    0.33 
 -10  -3  -3    0.11    0.11 
  11   3   3    0.63    0.17 
   9  -4  -3    0.34    0.12 
   8  -4  -3    0.79    0.14 
   8  -4  -3    0.57    0.13 
   7  -4  -3    0.59    0.12 
   6  -4  -3    2.91    0.21 
   5  -4  -3    2.51    0.18 
   4  -4  -3    4.81    0.25 
   3  -4  -3    0.95    0.11 
   2  -4  -3    8.90    0.37 
  -2   4   3    9.49    0.30 
   1  -4  -3    0.35    0.07 
   1  -4  -3    0.38    0.06 
  -1   4   3    0.38    0.04 
   0  -4  -3   13.98    0.50 
   0  -4  -3   13.79    0.42 
   0   4   3   13.53    0.46 
  -1  -4  -3   14.05    0.41 
  -1  -4  -3   13.63    0.51 
  -1  -4  -3   13.56    0.50 
  -2  -4  -3    5.10    0.26 
  -2  -4  -3    5.85    0.27 
  -3  -4  -3    0.16    0.06 
  -3  -4  -3    0.17    0.06 
  -4  -4  -3    0.02    0.04 
  -4  -4  -3   -0.03    0.02 
  -5  -4  -3    0.21    0.08 
  -6  -4  -3    0.28    0.10 
  -7  -4  -3    0.27    0.10 
  -8  -4  -3    0.38    0.13 
   9   4   3    0.99    0.18 
  10   4   3    0.61    0.15 
  11   4   3   -0.03    0.11 
   9  -5  -3    0.05    0.10 
   8  -5  -3    0.14    0.09 
   7  -5  -3    0.13    0.08 
   7  -5  -3    0.10    0.07 
   6  -5  -3    0.27    0.09 
   6  -5  -3    0.21    0.08 
   5  -5  -3    2.48    0.19 
   5  -5  -3    2.69    0.20 
   4  -5  -3   25.30    0.78 
   4  -5  -3   20.71    0.80 
   3  -5  -3   11.75    0.45 
   3  -5  -3   12.11    0.48 
   2  -5  -3    0.32    0.08 
   2  -5  -3    0.33    0.07 
  -2   5   3    0.34    0.04 
   1  -5  -3    2.69    0.15 
   1  -5  -3    2.87    0.18 
  -1   5   3    2.93    0.14 
   0  -5  -3    2.36    0.12 
   0   5   3    2.38    0.13 
  -1  -5  -3   20.22    0.71 
  -1  -5  -3   19.84    0.59 
   1   5   3   20.00    0.68 
  -2  -5  -3    4.95    0.26 
   2   5   3    4.85    0.24 
  -3  -5  -3    0.24    0.08 
   3   5   3    0.28    0.07 
  -4  -5  -3    5.99    0.33 
  -4  -5  -3    6.27    0.33 
   4   5   3    5.80    0.30 
  -5  -5  -3    1.67    0.20 
  -6  -5  -3    0.36    0.11 
   6   5   3    0.34    0.10 
   7   5   3    0.15    0.08 
   8   5   3    0.55    0.14 
   9   5   3    0.06    0.09 
  10   5   3    0.73    0.17 
   8  -6  -3    0.27    0.12 
   7  -6  -3    1.17    0.18 
   6  -6  -3    0.11    0.08 
   6  -6  -3   -0.02    0.06 
   5  -6  -3    3.86    0.25 
   5  -6  -3    3.89    0.25 
   4  -6  -3    1.52    0.17 
   4  -6  -3    1.31    0.16 
   3  -6  -3    4.35    0.24 
   3  -6  -3    4.44    0.26 
   2  -6  -3    0.06    0.05 
   2  -6  -3    0.15    0.06 
   1  -6  -3    2.80    0.19 
   1  -6  -3    2.52    0.15 
  -1   6   3    2.52    0.14 
   0  -6  -3    0.09    0.03 
   0   6   3    0.30    0.06 
  -1  -6  -3    4.44    0.25 
  -1  -6  -3    4.46    0.18 
   1   6   3    4.20    0.22 
  -2  -6  -3    1.07    0.14 
  -2  -6  -3    0.96    0.07 
   2   6   3    1.01    0.12 
  -3  -6  -3   26.62    0.95 
   3   6   3   26.12    0.92 
  -4  -6  -3    0.62    0.13 
   4   6   3    0.70    0.12 
  -5  -6  -3    4.02    0.29 
   5   6   3    4.10    0.27 
   6   6   3    0.37    0.10 
   7   6   3    0.19    0.09 
   8   6   3   -0.05    0.06 
   9   6   3    0.72    0.17 
  10   6   3   -0.04    0.09 
   8  -7  -3    0.15    0.13 
   7  -7  -3    0.38    0.12 
   6  -7  -3    1.14    0.17 
   5  -7  -3    0.16    0.09 
   5  -7  -3    0.20    0.09 
   4  -7  -3    1.32    0.17 
   4  -7  -3    1.39    0.17 
   3  -7  -3    2.95    0.22 
   3  -7  -3    3.06    0.21 
   2  -7  -3    0.16    0.07 
   2  -7  -3    0.09    0.07 
   1  -7  -3    4.95    0.28 
   1  -7  -3    4.48    0.23 
  -1   7   3    4.70    0.23 
   0  -7  -3    1.85    0.19 
  -1  -7  -3    0.37    0.07 
  -1  -7  -3    0.36    0.09 
   1   7   3    0.36    0.08 
  -2  -7  -3    0.24    0.05 
  -2  -7  -3    0.22    0.08 
   2   7   3    0.25    0.08 
  -3  -7  -3    5.00    0.32 
   3   7   3    5.28    0.30 
  -4  -7  -3    0.61    0.14 
   4   7   3    0.53    0.11 
  -5  -7  -3    1.02    0.18 
   5   7   3    1.15    0.17 
   6   7   3    0.02    0.07 
   7   7   3    1.64    0.22 
   8   7   3    1.38    0.22 
   9   7   3    0.26    0.14 
  10   7   3    0.05    0.13 
   7  -8  -3    0.14    0.13 
   6  -8  -3    0.82    0.16 
   5  -8  -3    0.25    0.11 
   4  -8  -3    0.50    0.12 
   4  -8  -3    0.37    0.10 
   3  -8  -3    0.09    0.07 
   3  -8  -3    0.10    0.07 
   2  -8  -3    1.56    0.19 
   2  -8  -3    1.81    0.17 
   1  -8  -3    1.68    0.20 
   1  -8  -3    1.76    0.16 
   0  -8  -3    4.76    0.29 
   0  -8  -3    3.85    0.21 
  -1  -8  -3    0.66    0.09 
  -1  -8  -3    0.63    0.13 
   1   8   3    0.75    0.12 
  -2  -8  -3    4.22    0.29 
   2   8   3    4.48    0.27 
  -3  -8  -3    1.32    0.19 
   3   8   3    1.24    0.17 
  -4  -8  -3    0.20    0.10 
   4   8   3    0.08    0.08 
  -5  -8  -3    0.72    0.16 
   5   8   3    0.77    0.15 
   6   8   3    0.55    0.14 
   7   8   3    0.71    0.16 
   8   8   3    0.77    0.18 
   9   8   3    0.08    0.14 
   6  -9  -3   -0.03    0.12 
   5  -9  -3    0.39    0.13 
   4  -9  -3    0.32    0.11 
   3  -9  -3    0.29    0.10 
   3  -9  -3    0.34    0.11 
   2  -9  -3    0.86    0.14 
   2  -9  -3    0.86    0.16 
   1  -9  -3    0.69    0.14 
   1  -9  -3    0.83    0.13 
   0  -9  -3    0.62    0.15 
  -1  -9  -3   -0.02    0.06 
   1   9   3    0.02    0.07 
  -2  -9  -3    0.47    0.12 
   2   9   3    0.51    0.13 
  -3  -9  -3    0.18    0.09 
   3   9   3    0.24    0.10 
  -4  -9  -3    0.32    0.11 
   4   9   3    0.49    0.13 
  -5  -9  -3    0.06    0.09 
   5   9   3    0.09    0.09 
   6   9   3    0.49    0.15 
   7   9   3    0.10    0.11 
   8   9   3    0.07    0.11 
   4 -10  -3    0.07    0.10 
   3 -10  -3    0.13    0.10 
   2 -10  -3    0.11    0.09 
   2 -10  -3    0.04    0.08 
   1 -10  -3    0.73    0.16 
   0 -10  -3    0.44    0.12 
  -1 -10  -3    0.66    0.15 
  -2 -10  -3    0.29    0.11 
   2  10   3    0.28    0.11 
  -3 -10  -3    0.31    0.13 
   3  10   3    0.33    0.12 
  -4 -10  -3    0.00    0.08 
   4  10   3    0.09    0.09 
   5  10   3    0.52    0.16 
   6  10   3    0.02    0.10 
   7  10   3    0.22    0.14 
   1 -11  -3    0.37    0.14 
   0 -11  -3    0.19    0.12 
  -1 -11  -3    0.80    0.17 
  -2 -11  -3    0.20    0.11 
  -3 -11  -3   -0.04    0.09 
   3  11   3   -0.02    0.09 
  -4 -11  -3    0.04    0.11 
   4  11   3   -0.03    0.09 
   5  11   3    0.41    0.16 
   6  11   3    0.66    0.19 
   0 -12  -3    0.11    0.15 
  -1 -12  -3   -0.04    0.12 
  -2 -12  -3    0.03    0.13 
  -3 -12  -3    0.33    0.16 
  -4 -12  -3    0.27    0.18 
   3  11  -4    1.15    0.26 
   2  11  -4    0.11    0.13 
   1  11  -4    0.40    0.18 
   0  11  -4    0.07    0.13 
   5  10  -4    0.00    0.13 
   4  10  -4    0.46    0.16 
   3  10  -4    0.15    0.13 
   2  10  -4    2.11    0.29 
   1  10  -4    0.49    0.16 
   0  10  -4    0.12    0.12 
  -1  10  -4    0.88    0.19 
   1 -10   4    1.00    0.19 
   2 -10   4    0.04    0.10 
   3 -10   4    0.20    0.14 
   7   9  -4    0.19    0.19 
   6   9  -4    0.03    0.13 
   5   9  -4    0.07    0.11 
   4   9  -4   -0.05    0.07 
   3   9  -4    1.64    0.24 
   2   9  -4    2.57    0.30 
   1   9  -4    4.17    0.33 
   0   9  -4    0.76    0.17 
  -1   9  -4    0.31    0.12 
   1  -9   4    0.19    0.10 
  -2   9  -4    0.85    0.18 
   2  -9   4    0.73    0.15 
   3  -9   4    0.47    0.14 
   4  -9   4    0.17    0.12 
   5  -9   4    0.04    0.12 
   8   8  -4   -0.01    0.16 
   7   8  -4    0.05    0.13 
   6   8  -4    0.33    0.15 
   5   8  -4    0.91    0.19 
   4   8  -4    0.25    0.12 
   3   8  -4    0.22    0.10 
   2   8  -4    4.35    0.32 
   1   8  -4    2.26    0.26 
   0   8  -4    4.34    0.31 
   0  -8   4    3.45    0.25 
  -1   8  -4    0.21    0.09 
   1  -8   4    0.24    0.09 
  -2   8  -4    0.33    0.12 
   2  -8   4    0.23    0.09 
  -3   8  -4    0.14    0.10 
   3  -8   4    0.13    0.08 
   4  -8   4   -0.09    0.07 
   5  -8   4    0.06    0.10 
   6  -8   4    1.15    0.22 
   9   7  -4    0.13    0.17 
   8   7  -4    0.35    0.15 
   7   7  -4    0.04    0.10 
   6   7  -4    1.73    0.25 
   5   7  -4    1.28    0.22 
   4   7  -4    0.16    0.10 
   3   7  -4    0.72    0.15 
   2   7  -4    0.63    0.14 
   1   7  -4    5.76    0.35 
   0   7  -4    6.59    0.38 
   0  -7   4    6.05    0.32 
  -1   7  -4    0.12    0.07 
   1  -7   4    0.06    0.06 
  -2   7  -4   -0.01    0.07 
   2  -7   4   -0.01    0.05 
  -3   7  -4    1.44    0.20 
   3  -7   4    1.02    0.16 
  -4   7  -4    0.17    0.10 
   4  -7   4    0.10    0.08 
   5  -7   4    0.03    0.08 
   6  -7   4    0.14    0.11 
   7  -7   4    0.96    0.20 
   9   6  -4    1.03    0.22 
   8   6  -4    1.33    0.23 
   7   6  -4    0.00    0.09 
   6   6  -4    0.66    0.15 
   5   6  -4    0.01    0.09 
   4   6  -4    8.95    0.46 
   3   6  -4    8.29    0.43 
   2   6  -4    0.97    0.16 
   1   6  -4    1.73    0.20 
   0   6  -4    0.24    0.10 
   0  -6   4    0.38    0.10 
  -1   6  -4    0.21    0.08 
   1  -6   4    0.07    0.07 
  -2   6  -4    2.83    0.23 
   2  -6   4    2.51    0.19 
  -3   6  -4    1.16    0.18 
   3  -6   4    0.89    0.14 
  -4   6  -4    0.48    0.13 
   4  -6   4    0.27    0.09 
  -5   6  -4    2.21    0.25 
   5  -6   4    1.79    0.21 
   6  -6   4    0.65    0.13 
   7  -6   4    0.16    0.09 
   8  -6   4    0.09    0.12 
   9   5  -4    0.27    0.15 
   8   5  -4    1.87    0.25 
   7   5  -4    0.25    0.10 
   6   5  -4    2.57    0.25 
   5   5  -4    4.38    0.30 
   4   5  -4    8.82    0.44 
   3   5  -4    1.53    0.19 
   2   5  -4   12.48    0.54 
   1   5  -4    0.09    0.06 
   0   5  -4    6.07    0.33 
   0  -5   4    6.36    0.30 
  -1   5  -4    3.26    0.22 
   1  -5   4    3.42    0.20 
  -2   5  -4    0.11    0.06 
   2  -5   4    0.04    0.06 
  -3   5  -4    1.00    0.16 
   3  -5   4    0.79    0.12 
  -4   5  -4    4.50    0.29 
   4  -5   4    4.08    0.25 
  -5   5  -4    0.03    0.07 
   5  -5   4   -0.01    0.05 
  -6   5  -4    0.13    0.10 
   6  -5   4    0.04    0.06 
   7  -5   4    0.04    0.07 
   8  -5   4    0.10    0.10 
  10   4  -4    0.06    0.13 
   9   4  -4    0.89    0.18 
   8   4  -4    1.68    0.22 
   7   4  -4    0.14    0.09 
   6   4  -4    0.74    0.14 
   5   4  -4    2.72    0.22 
   4   4  -4    1.34    0.17 
   3   4  -4   18.49    0.70 
   2   4  -4   30.49    1.05 
   1   4  -4    5.75    0.30 
   0   4  -4    0.90    0.13 
   0  -4   4    0.94    0.11 
  -1   4  -4    1.59    0.16 
   1  -4   4    1.25    0.12 
  -2   4  -4    0.40    0.09 
   2  -4   4    0.32    0.07 
  -3   4  -4    1.02    0.15 
   3  -4   4    0.81    0.11 
  -4   4  -4    0.10    0.07 
   4  -4   4    0.11    0.06 
  -5   4  -4    0.73    0.14 
   5  -4   4    0.41    0.09 
  -6   4  -4    0.56    0.13 
   6  -4   4    0.39    0.10 
   7  -4   4    0.11    0.08 
   8  -4   4    0.47    0.13 
   9  -4   4    0.27    0.11 
  10   3  -4    0.28    0.15 
   9   3  -4    0.40    0.14 
   8   3  -4    0.13    0.09 
   8   3  -4    0.07    0.09 
   7   3  -4    0.61    0.13 
   6   3  -4   13.31    0.56 
   5   3  -4    2.76    0.19 
   4   3  -4    0.91    0.13 
   3   3  -4   89.16    2.73 
   2   3  -4    0.67    0.11 
   1   3  -4    4.18    0.23 
   0   3  -4    2.24    0.16 
  -1   3  -4    0.18    0.06 
   1  -3   4    0.20    0.05 
  -2   3  -4    2.17    0.17 
   2  -3   4    2.23    0.14 
  -3   3  -4    2.05    0.18 
   3  -3   4    1.86    0.13 
  -4   3  -4    0.13    0.07 
   4  -3   4    0.19    0.06 
  -5   3  -4    7.41    0.40 
   5  -3   4    8.11    0.35 
  -6   3  -4    0.92    0.16 
   6  -3   4    0.50    0.10 
  -7   3  -4    0.04    0.08 
   7  -3   4    0.08    0.07 
   8  -3   4    0.51    0.12 
   9  -3   4    0.64    0.14 
  10   2  -4    0.88    0.20 
   9   2  -4    0.70    0.16 
   8   2  -4    0.96    0.18 
   7   2  -4    7.56    0.37 
   7   2  -4    6.78    0.39 
   6   2  -4    0.05    0.06 
   6   2  -4    0.14    0.08 
   5   2  -4    0.88    0.12 
   4   2  -4    0.71    0.10 
   3   2  -4    7.53    0.32 
   2   2  -4    8.58    0.35 
   1   2  -4   78.66    2.39 
   0   2  -4   19.52    0.68 
  -1   2  -4    0.00    0.01 
  -1   2  -4    0.00    0.03 
   1  -2   4    0.02    0.03 
  -2   2  -4   11.25    0.45 
   2  -2   4   11.05    0.39 
  -3   2  -4    5.83    0.30 
   3  -2   4    6.02    0.25 
  -4   2  -4   13.26    0.55 
   4  -2   4   13.54    0.48 
  -5   2  -4    0.09    0.06 
   5  -2   4    0.12    0.06 
  -6   2  -4    0.18    0.08 
   6  -2   4    0.23    0.07 
  -7   2  -4    3.00    0.27 
   7  -2   4    2.63    0.20 
  -8   2  -4    0.29    0.11 
   8  -2   4    0.27    0.09 
   9  -2   4   -0.04    0.07 
  10  -2   4    0.03    0.09 
  10   1  -4    1.12    0.19 
   9   1  -4    0.39    0.12 
   8   1  -4    0.29    0.11 
   7   1  -4    0.41    0.12 
   7   1  -4    0.49    0.09 
   6   1  -4    4.13    0.27 
   6   1  -4    3.91    0.22 
   5   1  -4    5.88    0.31 
   5   1  -4    6.13    0.28 
   4   1  -4    4.08    0.23 
   4   1  -4    3.95    0.20 
   3   1  -4   11.44    0.43 
   3   1  -4   12.36    0.46 
   2   1  -4    4.44    0.21 
   2   1  -4    4.34    0.21 
   1   1  -4   51.10    1.61 
   1   1  -4   53.28    1.57 
   0   1  -4    1.80    0.09 
  -1   1  -4    5.91    0.20 
  -1   1  -4    5.59    0.26 
   1  -1   4    5.46    0.22 
  -2   1  -4    1.86    0.14 
   2  -1   4    1.70    0.10 
  -3   1  -4    7.44    0.35 
   3  -1   4    8.13    0.29 
  -4   1  -4    0.51    0.11 
   4  -1   4    0.49    0.07 
   4  -1   4    0.52    0.04 
  -5   1  -4    0.60    0.12 
   5  -1   4    0.53    0.08 
   5  -1   4    0.75    0.06 
  -6   1  -4    5.74    0.34 
   6  -1   4    5.38    0.27 
  -7   1  -4    1.26    0.19 
   7  -1   4    1.29    0.15 
  -8   1  -4    0.23    0.11 
   8  -1   4    0.20    0.08 
  -9   1  -4   -0.05    0.09 
   9  -1   4    0.08    0.07 
  10  -1   4    0.06    0.08 
  10   0  -4    0.33    0.13 
   9   0  -4    3.06    0.29 
   8   0  -4    2.43    0.25 
   7   0  -4   -0.04    0.06 
   6   0  -4    1.86    0.19 
   6   0  -4    1.89    0.13 
   5   0  -4    2.59    0.19 
   5   0  -4    3.04    0.16 
   4   0  -4    8.26    0.36 
   4   0  -4    7.84    0.31 
   3   0  -4    0.53    0.06 
   3   0  -4    0.42    0.08 
   2   0  -4   11.57    0.40 
   2   0  -4   11.29    0.42 
   1   0  -4    0.91    0.07 
   1   0  -4    0.88    0.08 
   0   0  -4  210.80    6.33 
   0   0  -4  220.35    6.22 
  -1   0  -4    7.19    0.25 
  -1   0  -4    6.96    0.29 
  -2   0  -4    1.27    0.12 
  -2   0  -4    1.09    0.07 
   2   0   4    1.10    0.07 
  -3   0  -4   30.39    1.03 
   3   0   4   30.92    0.89 
  -4   0  -4    0.23    0.07 
   4   0   4    0.15    0.04 
  -5   0  -4    0.47    0.10 
   5   0   4    0.59    0.08 
  -6   0  -4    2.88    0.25 
   6   0   4    2.29    0.15 
  -7   0  -4    0.06    0.07 
   7   0   4    0.11    0.06 
  -8   0  -4    2.86    0.29 
   8   0   4    3.30    0.21 
  -9   0  -4    0.06    0.09 
   9   0   4    0.10    0.07 
  10  -1  -4   -0.01    0.10 
   9  -1  -4    2.66    0.27 
   8  -1  -4    2.40    0.24 
   7  -1  -4    0.22    0.09 
   6  -1  -4    1.04    0.15 
   5  -1  -4    0.06    0.04 
   5  -1  -4    0.07    0.03 
   4  -1  -4    4.22    0.23 
   4  -1  -4    4.30    0.18 
   3  -1  -4    2.86    0.17 
   3  -1  -4    3.17    0.13 
   2  -1  -4   63.68    1.97 
   2  -1  -4   67.51    1.96 
   1  -1  -4   51.96    1.58 
   1  -1  -4   52.48    1.58 
   0  -1  -4    6.93    0.27 
   0  -1  -4    7.26    0.28 
  -1  -1  -4    7.05    0.29 
  -1  -1  -4    6.78    0.25 
  -2  -1  -4   16.17    0.60 
   2   1   4   17.03    0.49 
  -3  -1  -4    2.21    0.13 
  -3  -1  -4    1.96    0.15 
   3   1   4    2.30    0.10 
  -4  -1  -4    0.36    0.09 
   4   1   4    0.55    0.06 
  -5  -1  -4   19.63    0.76 
   5   1   4   19.88    0.62 
  -6  -1  -4    0.21    0.09 
   6   1   4    0.24    0.05 
  -7  -1  -4    7.65    0.42 
   7   1   4    7.14    0.31 
  -8  -1  -4    0.82    0.18 
   8   1   4    0.52    0.10 
  -9  -1  -4    0.16    0.10 
 -10  -1  -4   -0.08    0.09 
  10  -2  -4   -0.03    0.11 
   9  -2  -4   -0.10    0.07 
   8  -2  -4    0.12    0.09 
   7  -2  -4    5.86    0.34 
   6  -2  -4    0.20    0.08 
   5  -2  -4    2.04    0.18 
   4  -2  -4    0.07    0.05 
   3  -2  -4   11.04    0.43 
   2  -2  -4   11.97    0.38 
   2  -2  -4   11.93    0.44 
   1  -2  -4    3.21    0.13 
   1  -2  -4    2.80    0.16 
   0  -2  -4    5.27    0.21 
   0  -2  -4    4.44    0.21 
  -1  -2  -4    2.53    0.14 
  -1  -2  -4    2.81    0.15 
  -2  -2  -4    2.24    0.15 
  -2  -2  -4    2.31    0.14 
  -3  -2  -4    0.06    0.04 
  -3  -2  -4    0.09    0.04 
   3   2   4    0.15    0.02 
  -4  -2  -4    0.01    0.04 
  -4  -2  -4    0.05    0.05 
   4   2   4    0.13    0.03 
  -5  -2  -4    9.01    0.44 
   5   2   4    9.28    0.31 
  -6  -2  -4    3.51    0.26 
   6   2   4    3.16    0.16 
  -7  -2  -4    0.43    0.13 
   7   2   4    0.54    0.08 
  -8  -2  -4    0.02    0.07 
  -9  -2  -4    0.60    0.17 
 -10  -2  -4   -0.10    0.10 
 -11  -2  -4    0.06    0.16 
   9  -3  -4    0.42    0.12 
   8  -3  -4    1.34    0.19 
   7  -3  -4    0.91    0.15 
   6  -3  -4    2.11    0.20 
   5  -3  -4    5.40    0.29 
   4  -3  -4    6.26    0.30 
   3  -3  -4    2.15    0.15 
   2  -3  -4    2.18    0.15 
   1  -3  -4   14.52    0.48 
   1  -3  -4   14.96    0.53 
   0  -3  -4   77.58    2.34 
   0  -3  -4   78.41    2.33 
  -1  -3  -4    0.04    0.04 
  -1  -3  -4   -0.01    0.02 
  -2  -3  -4    5.59    0.27 
  -2  -3  -4    5.48    0.25 
  -3  -3  -4   10.58    0.44 
  -3  -3  -4   10.23    0.41 
  -4  -3  -4    5.45    0.30 
  -4  -3  -4    5.54    0.28 
   4   3   4    5.53    0.18 
  -5  -3  -4    0.06    0.06 
   5   3   4    0.16    0.03 
  -6  -3  -4    3.08    0.25 
   6   3   4    3.07    0.14 
  -7  -3  -4    0.48    0.14 
  -8  -3  -4    2.95    0.30 
  -9  -3  -4    0.17    0.12 
 -10  -3  -4    0.16    0.14 
 -11  -3  -4    0.11    0.14 
   9  -4  -4    0.02    0.09 
   9  -4  -4    0.02    0.10 
   8  -4  -4    0.15    0.08 
   7  -4  -4    1.01    0.16 
   6  -4  -4   -0.02    0.06 
   5  -4  -4    1.20    0.15 
   4  -4  -4    0.23    0.08 
   3  -4  -4   33.02    1.09 
   2  -4  -4    0.03    0.04 
   1  -4  -4   54.46    1.70 
  -1   4   4   55.49    1.64 
   0  -4  -4    7.71    0.31 
   0  -4  -4    8.10    0.34 
  -1  -4  -4    0.17    0.03 
  -1  -4  -4    0.16    0.05 
  -1  -4  -4    0.15    0.05 
  -2  -4  -4    3.64    0.21 
  -2  -4  -4    3.45    0.20 
  -3  -4  -4    5.90    0.30 
  -3  -4  -4    6.08    0.31 
  -4  -4  -4   -0.01    0.04 
  -4  -4  -4    0.09    0.04 
  -5  -4  -4    0.00    0.04 
  -5  -4  -4    0.08    0.06 
  -6  -4  -4    0.45    0.12 
  -7  -4  -4    0.24    0.10 
  -8  -4  -4    2.05    0.27 
  -9  -4  -4    0.42    0.15 
 -10  -4  -4    1.05    0.23 
   9  -5  -4    0.04    0.12 
   8  -5  -4    0.11    0.09 
   8  -5  -4   -0.01    0.08 
   7  -5  -4    0.00    0.05 
   7  -5  -4    0.27    0.09 
   6  -5  -4    0.02    0.05 
   5  -5  -4    1.57    0.18 
   4  -5  -4    6.04    0.32 
   3  -5  -4   18.19    0.68 
   2  -5  -4    0.38    0.08 
   1  -5  -4   11.39    0.40 
   1  -5  -4   11.27    0.46 
  -1   5   4   11.88    0.39 
   0  -5  -4   21.65    0.64 
   0  -5  -4   20.42    0.74 
   0   5   4   21.16    0.69 
  -1  -5  -4   12.73    0.51 
  -1  -5  -4   13.53    0.40 
   1   5   4   12.94    0.48 
  -2  -5  -4    0.08    0.04 
  -2  -5  -4    0.08    0.05 
  -3  -5  -4    1.41    0.16 
  -3  -5  -4    1.78    0.17 
  -4  -5  -4    0.41    0.10 
  -4  -5  -4    0.35    0.09 
  -5  -5  -4    0.08    0.07 
  -5  -5  -4   -0.09    0.06 
  -6  -5  -4    0.03    0.06 
  -7  -5  -4    0.27    0.12 
  -8  -5  -4    0.34    0.13 
   9   5   4    0.43    0.14 
  10   5   4    0.44    0.16 
   8  -6  -4    0.50    0.15 
   7  -6  -4    0.03    0.08 
   7  -6  -4    0.10    0.08 
   6  -6  -4    1.01    0.16 
   6  -6  -4    0.75    0.14 
   5  -6  -4    2.30    0.21 
   5  -6  -4    2.47    0.22 
   4  -6  -4   10.09    0.43 
   4  -6  -4   10.46    0.47 
   3  -6  -4    5.35    0.27 
   3  -6  -4    5.50    0.31 
   2  -6  -4   10.26    0.45 
   2  -6  -4    9.72    0.38 
   1  -6  -4    9.52    0.44 
   1  -6  -4   10.73    0.38 
  -1   6   4   10.09    0.37 
   0  -6  -4    1.71    0.17 
   0  -6  -4    1.62    0.11 
   0   6   4    1.69    0.12 
  -1  -6  -4    9.94    0.44 
  -1  -6  -4    9.78    0.33 
   1   6   4   10.01    0.40 
  -2  -6  -4    7.36    0.23 
  -2  -6  -4    5.62    0.33 
   2   6   4    7.20    0.32 
  -3  -6  -4    4.55    0.29 
   3   6   4    4.56    0.26 
  -4  -6  -4    8.02    0.42 
   4   6   4    8.35    0.40 
  -5  -6  -4    0.90    0.16 
   5   6   4    0.62    0.13 
   6   6   4    0.53    0.13 
   7   6   4    0.00    0.05 
   8   6   4    0.05    0.07 
   9   6   4    0.47    0.14 
  10   6   4    0.03    0.11 
   7  -7  -4    0.03    0.08 
   6  -7  -4    0.18    0.10 
   6  -7  -4    0.27    0.10 
   5  -7  -4    0.16    0.08 
   5  -7  -4    0.41    0.11 
   4  -7  -4    0.40    0.10 
   4  -7  -4    0.48    0.11 
   3  -7  -4    4.30    0.25 
   3  -7  -4    3.92    0.27 
   2  -7  -4   17.21    0.70 
   2  -7  -4   18.15    0.63 
   1  -7  -4    1.67    0.14 
   1  -7  -4    1.98    0.19 
   0  -7  -4    1.29    0.16 
   0  -7  -4    1.41    0.12 
   0   7   4    1.53    0.14 
  -1  -7  -4    0.20    0.08 
  -1  -7  -4    0.42    0.06 
   1   7   4    0.50    0.09 
  -2  -7  -4   23.10    0.87 
   2   7   4   22.85    0.82 
  -3  -7  -4    3.71    0.27 
   3   7   4    3.95    0.25 
  -4  -7  -4    0.27    0.11 
   4   7   4    0.28    0.09 
  -5  -7  -4    0.03    0.07 
   5   7   4    0.00    0.06 
   6   7   4    0.52    0.13 
   7   7   4    0.10    0.08 
   8   7   4    0.44    0.13 
   9   7   4   -0.02    0.09 
  10   7   4    0.29    0.16 
   7  -8  -4   -0.08    0.12 
   6  -8  -4    0.79    0.17 
   5  -8  -4    1.10    0.17 
   5  -8  -4    1.11    0.18 
   4  -8  -4    0.19    0.10 
   4  -8  -4    0.26    0.10 
   3  -8  -4    0.48    0.12 
   3  -8  -4    0.39    0.10 
   2  -8  -4    1.34    0.15 
   2  -8  -4    1.52    0.19 
   1  -8  -4    3.86    0.22 
   1  -8  -4    4.37    0.29 
   0  -8  -4    6.83    0.29 
   0  -8  -4    6.83    0.38 
   0   8   4    7.08    0.32 
  -1  -8  -4    0.00    0.05 
   1   8   4    0.11    0.05 
  -2  -8  -4    1.05    0.18 
   2   8   4    0.86    0.14 
  -3  -8  -4    0.18    0.09 
   3   8   4    0.17    0.08 
  -4  -8  -4    3.07    0.28 
   4   8   4    2.18    0.22 
  -5  -8  -4    1.60    0.23 
   5   8   4    1.28    0.19 
   6   8   4    1.09    0.18 
   7   8   4    0.45    0.14 
   8   8   4    0.11    0.12 
   9   8   4    0.38    0.16 
   6  -9  -4    0.02    0.11 
   5  -9  -4    0.62    0.15 
   4  -9  -4    2.16    0.23 
   4  -9  -4    2.47    0.26 
   3  -9  -4    0.43    0.12 
   3  -9  -4    0.16    0.09 
   2  -9  -4    0.23    0.10 
   2  -9  -4    0.15    0.09 
   1  -9  -4    7.09    0.34 
   1  -9  -4    7.90    0.43 
   0  -9  -4    1.07    0.18 
  -1  -9  -4    0.23    0.10 
   1   9   4    0.17    0.09 
  -2  -9  -4    0.26    0.11 
   2   9   4    0.12    0.09 
  -3  -9  -4    0.31    0.11 
   3   9   4    0.17    0.09 
  -4  -9  -4    1.39    0.23 
   4   9   4    1.12    0.18 
  -5  -9  -4    1.46    0.24 
   5   9   4    1.49    0.22 
   6   9   4    0.13    0.10 
   7   9   4    0.95    0.20 
   8   9   4    0.10    0.12 
   4 -10  -4    0.79    0.17 
   3 -10  -4    0.23    0.11 
   3 -10  -4    0.27    0.14 
   2 -10  -4    0.31    0.12 
   1 -10  -4    0.11    0.09 
   0 -10  -4    0.05    0.09 
  -1 -10  -4    2.61    0.28 
  -2 -10  -4   -0.05    0.07 
   2  10   4   -0.08    0.07 
  -3 -10  -4    0.02    0.08 
   3  10   4    0.12    0.10 
  -4 -10  -4    0.10    0.09 
   4  10   4   -0.05    0.08 
  -5 -10  -4    0.09    0.10 
   5  10   4    0.06    0.10 
   6  10   4    0.16    0.12 
   7  10   4    0.06    0.12 
   2 -11  -4    1.62    0.26 
   1 -11  -4    0.02    0.10 
   0 -11  -4    0.16    0.10 
  -1 -11  -4    0.45    0.15 
  -2 -11  -4   -0.02    0.08 
  -3 -11  -4    0.12    0.10 
   3  11   4    0.00    0.09 
  -4 -11  -4    0.31    0.15 
   4  11   4    0.32    0.14 
  -5 -11  -4   -0.03    0.11 
   5  11   4    0.03    0.11 
   6  11   4    0.02    0.13 
   0 -12  -4    0.09    0.14 
  -1 -12  -4    0.21    0.17 
  -2 -12  -4    0.09    0.15 
  -3 -12  -4    0.14    0.14 
   5  10  -5    0.13    0.14 
   4  10  -5   -0.01    0.14 
   3  10  -5    0.13    0.13 
   2  10  -5    0.25    0.14 
   1  10  -5    0.11    0.13 
   0  10  -5    0.85    0.19 
  -1  10  -5    0.33    0.15 
  -2  10  -5    0.75    0.21 
   2 -10   5    0.98    0.21 
   6   9  -5    0.06    0.16 
   5   9  -5    0.45    0.18 
   4   9  -5    0.09    0.11 
   3   9  -5    0.01    0.09 
   2   9  -5    2.28    0.29 
   1   9  -5    0.90    0.20 
   0   9  -5    0.24    0.11 
  -1   9  -5    0.00    0.10 
   1  -9   5    0.07    0.10 
  -2   9  -5    0.36    0.14 
   2  -9   5    0.21    0.11 
  -3   9  -5    0.66    0.19 
   3  -9   5    1.00    0.19 
   4  -9   5    0.17    0.13 
   7   8  -5    0.31    0.17 
   6   8  -5    0.08    0.12 
   5   8  -5    0.10    0.10 
   4   8  -5   -0.02    0.09 
   3   8  -5    0.08    0.10 
   2   8  -5    0.93    0.19 
   1   8  -5    2.04    0.27 
   0   8  -5    3.10    0.31 
  -1   8  -5    2.31    0.27 
   1  -8   5    2.46    0.24 
  -2   8  -5    0.11    0.09 
   2  -8   5    0.05    0.08 
  -3   8  -5    1.30    0.21 
   3  -8   5    0.99    0.17 
  -4   8  -5    0.19    0.13 
   4  -8   5    0.03    0.09 
   5  -8   5    0.09    0.11 
   8   7  -5    0.30    0.18 
   7   7  -5    0.01    0.10 
   6   7  -5    0.25    0.13 
   5   7  -5    0.70    0.17 
   4   7  -5    0.30    0.13 
   3   7  -5    0.18    0.09 
   2   7  -5    0.87    0.17 
   1   7  -5    2.47    0.26 
   0   7  -5   11.04    0.54 
  -1   7  -5    3.29    0.27 
   1  -7   5    3.85    0.25 
  -2   7  -5    0.21    0.09 
   2  -7   5    0.07    0.07 
  -3   7  -5    0.52    0.14 
   3  -7   5    0.62    0.13 
  -4   7  -5   -0.08    0.07 
   4  -7   5    0.10    0.09 
   5  -7   5    3.73    0.31 
   6  -7   5    0.23    0.13 
   9   6  -5   -0.01    0.14 
   8   6  -5    0.24    0.14 
   7   6  -5    0.61    0.17 
   6   6  -5    0.10    0.11 
   5   6  -5    0.05    0.08 
   4   6  -5    0.08    0.09 
   3   6  -5    0.97    0.18 
   2   6  -5    0.81    0.15 
   1   6  -5    1.30    0.19 
   0   6  -5    1.10    0.18 
  -1   6  -5    1.81    0.21 
   1  -6   5    1.77    0.18 
  -2   6  -5   11.38    0.54 
   2  -6   5   11.36    0.48 
  -3   6  -5    1.58    0.22 
   3  -6   5    1.48    0.17 
  -4   6  -5    0.07    0.08 
   4  -6   5    0.02    0.06 
  -5   6  -5    0.94    0.18 
   5  -6   5    0.68    0.14 
   6  -6   5    0.04    0.08 
   7  -6   5    0.10    0.09 
   9   5  -5    0.49    0.17 
   8   5  -5   -0.07    0.10 
   7   5  -5    2.11    0.26 
   6   5  -5    0.23    0.11 
   5   5  -5    1.46    0.20 
   4   5  -5    0.63    0.15 
   3   5  -5    0.36    0.12 
   2   5  -5    2.03    0.21 
   1   5  -5    6.65    0.36 
   0   5  -5    1.61    0.19 
  -1   5  -5    6.94    0.38 
   1  -5   5    7.31    0.34 
  -2   5  -5   30.09    1.07 
   2  -5   5   29.17    0.96 
  -3   5  -5    0.20    0.10 
   3  -5   5    0.23    0.08 
  -4   5  -5    2.48    0.25 
   4  -5   5    2.49    0.21 
  -5   5  -5    0.81    0.16 
   5  -5   5    0.88    0.14 
  -6   5  -5    0.00    0.08 
   6  -5   5    0.03    0.07 
   7  -5   5    0.52    0.13 
   8  -5   5    0.27    0.12 
  10   4  -5    0.03    0.13 
   9   4  -5    0.74    0.19 
   8   4  -5    0.67    0.15 
   7   4  -5    0.78    0.16 
   6   4  -5    0.53    0.13 
   5   4  -5    6.65    0.37 
   4   4  -5    1.88    0.20 
   3   4  -5    5.81    0.32 
   2   4  -5   13.05    0.54 
   1   4  -5   13.55    0.56 
   0   4  -5    0.26    0.08 
  -1   4  -5   11.68    0.51 
   1  -4   5   11.27    0.44 
  -2   4  -5    3.02    0.23 
   2  -4   5    3.82    0.21 
  -3   4  -5    8.77    0.44 
   3  -4   5    8.65    0.37 
  -4   4  -5    9.86    0.48 
   4  -4   5   10.24    0.43 
  -5   4  -5   -0.04    0.06 
   5  -4   5   -0.05    0.04 
  -6   4  -5    0.19    0.11 
   6  -4   5    0.01    0.05 
  -7   4  -5    0.01    0.08 
   7  -4   5   -0.01    0.06 
   8  -4   5    0.04    0.07 
   9  -4   5    0.52    0.15 
  10   3  -5    0.12    0.14 
   9   3  -5    0.29    0.13 
   8   3  -5    0.40    0.12 
   8   3  -5    0.42    0.13 
   7   3  -5    0.22    0.09 
   7   3  -5    0.23    0.10 
   6   3  -5    0.14    0.08 
   5   3  -5    6.94    0.36 
   4   3  -5   12.22    0.51 
   3   3  -5    4.09    0.24 
   2   3  -5    9.49    0.41 
   1   3  -5    4.30    0.25 
   0   3  -5   10.99    0.46 
  -1   3  -5    6.45    0.23 
  -1   3  -5    5.70    0.31 
   1  -3   5    6.59    0.28 
  -2   3  -5   17.86    0.68 
   2  -3   5   16.89    0.59 
  -3   3  -5    9.66    0.44 
   3  -3   5    9.48    0.38 
  -4   3  -5    4.02    0.27 
   4  -3   5    3.96    0.23 
  -5   3  -5    0.05    0.08 
   5  -3   5    0.04    0.05 
  -6   3  -5    0.01    0.07 
   6  -3   5   -0.02    0.05 
  -7   3  -5    0.29    0.12 
   7  -3   5    0.31    0.09 
  -8   3  -5    0.30    0.14 
   8  -3   5    0.04    0.07 
   9  -3   5    0.18    0.10 
  10   2  -5    0.04    0.11 
   9   2  -5    0.07    0.09 
   8   2  -5    0.16    0.09 
   7   2  -5    1.99    0.23 
   7   2  -5    1.73    0.18 
   6   2  -5   11.99    0.51 
   6   2  -5   12.77    0.55 
   5   2  -5    1.12    0.14 
   5   2  -5    1.09    0.16 
   4   2  -5    9.71    0.42 
   4   2  -5    9.39    0.40 
   3   2  -5    0.12    0.06 
   3   2  -5    0.15    0.05 
   2   2  -5   22.85    0.77 
   2   2  -5   22.70    0.79 
   1   2  -5    4.05    0.22 
   1   2  -5    3.92    0.19 
   0   2  -5   29.38    1.00 
   0   2  -5   29.70    0.91 
  -1   2  -5   79.39    2.22 
  -1   2  -5   73.78    2.36 
   1  -2   5   74.78    2.15 
  -2   2  -5   23.87    0.88 
   2  -2   5   26.25    0.79 
  -3   2  -5    0.09    0.06 
   3  -2   5    0.04    0.04 
  -4   2  -5   20.57    0.80 
   4  -2   5   21.73    0.70 
  -5   2  -5    0.25    0.11 
   5  -2   5    0.31    0.08 
  -6   2  -5    2.07    0.24 
   6  -2   5    2.26    0.17 
  -7   2  -5    0.06    0.08 
   7  -2   5   -0.02    0.06 
  -8   2  -5    0.91    0.18 
   8  -2   5    1.09    0.16 
   9  -2   5    0.09    0.09 
  10  -2   5    0.33    0.14 
  10   1  -5    0.15    0.13 
   9   1  -5    2.16    0.26 
   8   1  -5    0.09    0.09 
   7   1  -5    0.21    0.09 
   6   1  -5    0.07    0.05 
   6   1  -5    0.01    0.07 
   5   1  -5    4.09    0.22 
   5   1  -5    3.73    0.24 
   4   1  -5    3.93    0.23 
   4   1  -5    3.49    0.20 
   3   1  -5    0.84    0.11 
   3   1  -5    1.16    0.11 
   2   1  -5   38.40    1.24 
   2   1  -5   39.00    1.22 
   1   1  -5   18.91    0.61 
   1   1  -5   17.70    0.64 
   0   1  -5   64.23    1.99 
  -1   1  -5   39.03    1.30 
  -1   1  -5   41.03    1.19 
  -2   1  -5    1.49    0.07 
  -2   1  -5    1.55    0.15 
   2  -1   5    1.46    0.10 
  -3   1  -5    0.08    0.05 
   3  -1   5    0.18    0.05 
  -4   1  -5    5.11    0.30 
   4  -1   5    5.39    0.24 
  -5   1  -5   -0.01    0.05 
   5  -1   5    0.09    0.04 
  -6   1  -5    0.03    0.08 
   6  -1   5    0.21    0.07 
  -7   1  -5    1.56    0.23 
   7  -1   5    1.36    0.15 
  -8   1  -5    0.72    0.17 
   8  -1   5    0.47    0.11 
  -9   1  -5    0.59    0.18 
   9  -1   5    0.30    0.10 
  10   0  -5    0.32    0.14 
   9   0  -5    0.24    0.11 
   8   0  -5    2.26    0.25 
   7   0  -5    2.55    0.24 
   6   0  -5    0.44    0.11 
   5   0  -5    0.89    0.14 
   5   0  -5    1.06    0.10 
   4   0  -5    0.31    0.08 
   4   0  -5    0.30    0.06 
   3   0  -5    0.65    0.10 
   3   0  -5    0.78    0.08 
   2   0  -5    9.13    0.35 
   2   0  -5    9.16    0.37 
   1   0  -5    5.82    0.25 
   1   0  -5    5.36    0.24 
   0   0  -5   38.94    1.16 
   0   0  -5   37.00    1.21 
  -1   0  -5   94.14    2.71 
  -1   0  -5   91.80    2.82 
  -2   0  -5   35.18    1.16 
  -2   0  -5   35.25    1.05 
   2   0   5   34.71    1.02 
  -3   0  -5    6.45    0.33 
  -3   0  -5    6.58    0.24 
   3   0   5    6.28    0.24 
  -4   0  -5    0.00    0.04 
   4   0   5    0.02    0.02 
  -5   0  -5    3.75    0.26 
   5   0   5    3.71    0.19 
  -6   0  -5    0.96    0.17 
   6   0   5    1.24    0.12 
  -7   0  -5    0.29    0.12 
   7   0   5    0.53    0.09 
  -8   0  -5    0.77    0.17 
   8   0   5    0.84    0.12 
  -9   0  -5    1.11    0.22 
 -10   0  -5    0.08    0.14 
  10  -1  -5    0.02    0.11 
   9  -1  -5    0.05    0.09 
   8  -1  -5    2.62    0.26 
   7  -1  -5    3.09    0.25 
   6  -1  -5    7.12    0.38 
   5  -1  -5    0.22    0.08 
   4  -1  -5    0.16    0.06 
   4  -1  -5    0.23    0.05 
   3  -1  -5   31.55    1.05 
   3  -1  -5   32.46    1.00 
   2  -1  -5    0.15    0.04 
   2  -1  -5    0.05    0.04 
   1  -1  -5   13.14    0.46 
   1  -1  -5   12.78    0.46 
   0  -1  -5    0.19    0.05 
   0  -1  -5    0.18    0.05 
  -1  -1  -5   31.85    0.97 
  -1  -1  -5   31.11    1.03 
  -2  -1  -5    3.58    0.20 
  -2  -1  -5    2.69    0.14 
  -3  -1  -5    5.39    0.23 
  -3  -1  -5    5.89    0.30 
   3   1   5    5.62    0.21 
  -4  -1  -5    2.38    0.14 
  -4  -1  -5    2.03    0.20 
   4   1   5    2.32    0.12 
  -5  -1  -5    0.10    0.06 
   5   1   5    0.18    0.05 
  -6  -1  -5   -0.05    0.06 
   6   1   5    0.03    0.04 
  -7  -1  -5    5.79    0.37 
   7   1   5    4.80    0.24 
  -8  -1  -5    6.35    0.41 
   8   1   5    5.92    0.29 
  -9  -1  -5    0.38    0.14 
 -10  -1  -5    0.17    0.13 
  10  -2  -5    0.07    0.12 
   9  -2  -5    0.00    0.08 
   8  -2  -5    1.08    0.18 
   7  -2  -5    3.55    0.26 
   6  -2  -5   10.24    0.48 
   5  -2  -5    0.55    0.12 
   4  -2  -5    2.19    0.17 
   3  -2  -5    0.55    0.04 
   3  -2  -5    0.46    0.09 
   2  -2  -5    3.04    0.13 
   2  -2  -5    2.97    0.18 
   1  -2  -5    4.84    0.20 
   1  -2  -5    4.53    0.22 
   0  -2  -5    0.10    0.04 
   0  -2  -5    0.10    0.03 
  -1  -2  -5    1.58    0.12 
  -1  -2  -5    1.60    0.11 
  -2  -2  -5   -0.02    0.03 
  -2  -2  -5    0.03    0.03 
  -3  -2  -5   38.43    1.20 
  -3  -2  -5   38.44    1.27 
   3   2   5   37.71    1.07 
  -4  -2  -5    0.03    0.05 
  -4  -2  -5    0.05    0.05 
   4   2   5    0.03    0.02 
  -5  -2  -5   11.46    0.57 
   5   2   5   15.02    0.44 
  -6  -2  -5    3.02    0.28 
   6   2   5    3.22    0.16 
  -7  -2  -5    0.59    0.15 
  -8  -2  -5    0.04    0.08 
  -9  -2  -5    0.17    0.13 
 -10  -2  -5    1.03    0.23 
   9  -3  -5    0.33    0.12 
   8  -3  -5   -0.01    0.07 
   7  -3  -5    4.41    0.30 
   6  -3  -5    3.31    0.25 
   5  -3  -5    0.78    0.13 
   4  -3  -5    1.97    0.18 
   3  -3  -5    1.24    0.14 
   2  -3  -5    1.00    0.06 
   2  -3  -5    0.91    0.11 
   1  -3  -5    7.07    0.26 
   1  -3  -5    6.92    0.31 
   0  -3  -5   15.65    0.55 
   0  -3  -5   15.91    0.56 
  -1  -3  -5   52.69    1.61 
  -1  -3  -5   52.10    1.64 
  -2  -3  -5   -0.01    0.03 
  -2  -3  -5    0.05    0.03 
  -3  -3  -5   10.09    0.44 
  -3  -3  -5   10.13    0.41 
  -4  -3  -5    0.59    0.11 
  -4  -3  -5    0.57    0.10 
   4   3   5    0.68    0.04 
  -5  -3  -5    0.00    0.05 
  -5  -3  -5   -0.02    0.05 
   5   3   5    0.06    0.02 
  -6  -3  -5   -0.05    0.07 
  -7  -3  -5    3.71    0.30 
  -8  -3  -5    0.47    0.15 
  -9  -3  -5    0.13    0.11 
 -10  -3  -5    0.95    0.23 
   9  -4  -5   -0.03    0.10 
   8  -4  -5    0.04    0.08 
   7  -4  -5    0.03    0.08 
   6  -4  -5    0.40    0.11 
   5  -4  -5    8.52    0.41 
   4  -4  -5   18.44    0.70 
   3  -4  -5    2.84    0.20 
   2  -4  -5    5.40    0.28 
   1  -4  -5    0.86    0.11 
   1  -4  -5    1.01    0.07 
   0  -4  -5   39.97    1.23 
   0  -4  -5   37.74    1.25 
  -1  -4  -5    2.01    0.15 
  -1  -4  -5    2.08    0.14 
  -2  -4  -5    6.31    0.30 
  -2  -4  -5    5.95    0.30 
  -3  -4  -5    8.68    0.39 
  -3  -4  -5    8.82    0.41 
  -4  -4  -5    0.20    0.07 
  -4  -4  -5    0.21    0.07 
  -5  -4  -5    2.01    0.22 
  -5  -4  -5    2.05    0.19 
  -6  -4  -5    0.68    0.15 
  -7  -4  -5    7.31    0.44 
  -8  -4  -5    0.15    0.11 
  -9  -4  -5    0.90    0.22 
 -10  -4  -5    0.05    0.11 
   8  -5  -5   -0.04    0.08 
   8  -5  -5    0.07    0.09 
   7  -5  -5    0.04    0.06 
   6  -5  -5    0.79    0.15 
   5  -5  -5    3.56    0.25 
   4  -5  -5    0.25    0.09 
   3  -5  -5    0.06    0.07 
   2  -5  -5    0.78    0.12 
   1  -5  -5    1.37    0.15 
  -1   5   5    1.24    0.08 
   0  -5  -5    0.65    0.07 
   0  -5  -5    0.72    0.11 
  -1  -5  -5    7.96    0.26 
  -1  -5  -5    7.72    0.36 
  -1  -5  -5    7.60    0.34 
  -2  -5  -5   33.77    1.14 
  -2  -5  -5   34.11    1.14 
  -3  -5  -5   14.56    0.58 
  -3  -5  -5   14.45    0.59 
  -4  -5  -5    4.10    0.27 
  -4  -5  -5    4.94    0.30 
  -5  -5  -5    0.95    0.16 
  -5  -5  -5    1.06    0.18 
  -6  -5  -5    1.50    0.23 
  -7  -5  -5    0.32    0.12 
  -8  -5  -5    0.69    0.18 
  -9  -5  -5    1.69    0.28 
 -10  -5  -5    0.71    0.23 
   8  -6  -5    0.06    0.11 
   7  -6  -5    0.21    0.09 
   7  -6  -5    0.17    0.11 
   6  -6  -5    0.22    0.09 
   6  -6  -5    0.32    0.11 
   5  -6  -5    0.92    0.15 
   5  -6  -5    0.97    0.14 
   4  -6  -5    5.20    0.31 
   4  -6  -5    5.22    0.28 
   3  -6  -5    3.06    0.23 
   3  -6  -5    3.00    0.19 
   2  -6  -5    5.76    0.31 
   2  -6  -5    4.84    0.24 
   1  -6  -5    5.97    0.32 
   1  -6  -5    6.11    0.26 
   0  -6  -5    5.71    0.31 
   0  -6  -5    5.80    0.24 
   0   6   5    6.12    0.26 
  -1  -6  -5    7.11    0.35 
  -1  -6  -5    6.82    0.24 
   1   6   5    6.83    0.30 
  -2  -6  -5    7.60    0.38 
   2   6   5    8.04    0.35 
  -3  -6  -5   -0.04    0.06 
  -3  -6  -5    0.02    0.04 
  -4  -6  -5    9.77    0.48 
  -4  -6  -5   10.27    0.49 
  -5  -6  -5    0.00    0.07 
  -5  -6  -5   -0.01    0.07 
  -6  -6  -5    0.44    0.14 
  -6  -6  -5    0.44    0.13 
  -7  -6  -5    0.60    0.15 
  -8  -6  -5    1.36    0.25 
   9   6   5    0.16    0.11 
  10   6   5    0.39    0.16 
   7  -7  -5    1.36    0.21 
   7  -7  -5    1.26    0.20 
   6  -7  -5    0.02    0.07 
   6  -7  -5   -0.02    0.07 
   5  -7  -5    0.35    0.11 
   5  -7  -5    0.37    0.11 
   4  -7  -5    0.01    0.06 
   4  -7  -5    0.10    0.07 
   3  -7  -5    0.43    0.10 
   3  -7  -5    0.43    0.11 
   2  -7  -5    0.84    0.15 
   2  -7  -5    1.13    0.13 
   1  -7  -5    1.06    0.12 
   1  -7  -5    0.99    0.16 
   0  -7  -5    1.47    0.11 
   0  -7  -5    1.24    0.17 
   0   7   5    1.31    0.12 
  -1  -7  -5    8.95    0.44 
   1   7   5    9.30    0.39 
  -2  -7  -5    1.50    0.18 
   2   7   5    1.17    0.14 
  -3  -7  -5   32.22    1.16 
  -4  -7  -5    0.73    0.16 
   4   7   5    1.10    0.16 
  -5  -7  -5    0.01    0.08 
   5   7   5    0.05    0.06 
  -6  -7  -5    0.46    0.14 
   6   7   5    0.50    0.12 
   7   7   5    0.74    0.17 
   8   7   5    0.21    0.11 
   9   7   5    0.34    0.15 
   6  -8  -5    0.02    0.10 
   6  -8  -5    0.13    0.11 
   5  -8  -5    0.06    0.09 
   5  -8  -5    0.01    0.08 
   4  -8  -5    0.57    0.12 
   4  -8  -5    0.65    0.14 
   3  -8  -5    1.86    0.22 
   3  -8  -5    1.40    0.17 
   2  -8  -5    0.00    0.06 
   2  -8  -5    0.06    0.07 
   1  -8  -5    1.28    0.13 
   1  -8  -5    1.79    0.21 
   0  -8  -5   10.02    0.50 
  -1  -8  -5    8.09    0.43 
   1   8   5    8.30    0.38 
  -2  -8  -5    0.14    0.08 
   2   8   5    0.14    0.07 
  -3  -8  -5    3.41    0.30 
   3   8   5    3.31    0.24 
  -4  -8  -5    0.12    0.09 
   4   8   5    0.05    0.07 
  -5  -8  -5    2.29    0.27 
   5   8   5    2.05    0.23 
  -6  -8  -5    0.06    0.10 
   6   8   5    0.01    0.08 
   7   8   5    0.50    0.14 
   8   8   5    0.22    0.11 
   9   8   5    0.67    0.20 
   5  -9  -5    0.50    0.14 
   5  -9  -5    0.46    0.16 
   4  -9  -5    0.20    0.10 
   4  -9  -5    0.31    0.12 
   3  -9  -5    0.29    0.10 
   3  -9  -5    0.21    0.11 
   2  -9  -5    0.47    0.13 
   2  -9  -5    0.41    0.12 
   1  -9  -5    0.18    0.10 
   0  -9  -5    5.68    0.36 
  -1  -9  -5    0.26    0.10 
  -2  -9  -5    0.54    0.14 
   2   9   5    0.42    0.11 
  -3  -9  -5    2.71    0.28 
   3   9   5    2.41    0.23 
  -4  -9  -5    1.50    0.23 
   4   9   5    1.69    0.22 
  -5  -9  -5    3.03    0.32 
   5   9   5    2.72    0.27 
  -6  -9  -5    0.02    0.11 
   6   9   5    0.01    0.08 
   7   9   5    0.13    0.11 
   8   9   5    0.24    0.13 
   4 -10  -5    0.03    0.13 
   4 -10  -5    0.10    0.12 
   3 -10  -5    0.68    0.16 
   2 -10  -5    0.29    0.13 
   1 -10  -5    0.08    0.08 
   0 -10  -5    0.21    0.11 
  -1 -10  -5    2.42    0.28 
  -2 -10  -5    7.24    0.45 
  -3 -10  -5    0.50    0.15 
   3  10   5    0.61    0.14 
  -4 -10  -5    0.17    0.11 
   4  10   5    0.19    0.11 
  -5 -10  -5    0.57    0.16 
   5  10   5    0.64    0.16 
  -6 -10  -5    1.23    0.26 
   6  10   5    1.56    0.24 
   7  10   5    0.20    0.14 
   2 -11  -5    0.19    0.15 
   1 -11  -5    1.46    0.25 
   0 -11  -5   -0.03    0.09 
  -1 -11  -5    1.79    0.27 
  -2 -11  -5    0.93    0.21 
  -3 -11  -5    0.14    0.14 
  -4 -11  -5    0.17    0.13 
   4  11   5    0.23    0.13 
  -5 -11  -5   -0.21    0.10 
   5  11   5    0.03    0.11 
   6  11   5    0.10    0.14 
  -1 -12  -5   -0.08    0.12 
  -2 -12  -5    0.13    0.16 
  -3 -12  -5    1.18    0.27 
   3  10  -6    0.04    0.13 
   2  10  -6    0.09    0.15 
   1  10  -6   -0.03    0.12 
   0  10  -6    0.40    0.17 
  -1  10  -6    0.18    0.16 
   5   9  -6    0.18    0.17 
   4   9  -6    0.00    0.11 
   3   9  -6    0.04    0.11 
   2   9  -6    0.32    0.14 
   1   9  -6    0.48    0.16 
   0   9  -6   -0.05    0.10 
  -1   9  -6    0.91    0.20 
  -2   9  -6    0.09    0.12 
   2  -9   6   -0.11    0.09 
  -3   9  -6    0.13    0.13 
   3  -9   6   -0.04    0.10 
   7   8  -6    0.18    0.18 
   6   8  -6    1.31    0.26 
   5   8  -6    0.20    0.14 
   4   8  -6    0.03    0.11 
   3   8  -6    0.53    0.15 
   2   8  -6    0.48    0.15 
   1   8  -6    0.16    0.10 
   0   8  -6   -0.06    0.08 
  -1   8  -6    0.37    0.13 
  -2   8  -6    0.11    0.10 
   2  -8   6    0.01    0.08 
  -3   8  -6    0.16    0.12 
   3  -8   6    0.03    0.08 
  -4   8  -6    0.17    0.13 
   4  -8   6    0.25    0.12 
   5  -8   6    0.20    0.12 
   8   7  -6    0.50    0.20 
   7   7  -6    0.08    0.14 
   6   7  -6    0.47    0.16 
   5   7  -6    0.12    0.11 
   4   7  -6    2.89    0.31 
   3   7  -6    0.34    0.12 
   2   7  -6    0.21    0.10 
   1   7  -6    0.87    0.18 
   0   7  -6    0.12    0.09 
  -1   7  -6    1.10    0.20 
   1  -7   6    1.18    0.18 
  -2   7  -6    0.00    0.08 
   2  -7   6    0.12    0.07 
  -3   7  -6    0.85    0.19 
   3  -7   6    0.52    0.13 
  -4   7  -6    0.08    0.09 
   4  -7   6    0.00    0.08 
  -5   7  -6    0.03    0.10 
   5  -7   6    0.01    0.09 
   6  -7   6    1.68    0.25 
   8   6  -6    0.03    0.13 
   7   6  -6    0.20    0.12 
   6   6  -6    0.04    0.10 
   5   6  -6    0.68    0.16 
   4   6  -6    0.79    0.17 
   3   6  -6    1.71    0.23 
   2   6  -6    0.03    0.08 
   1   6  -6    2.79    0.28 
   0   6  -6    0.44    0.12 
  -1   6  -6    0.80    0.17 
   1  -6   6    0.70    0.13 
  -2   6  -6    0.03    0.07 
   2  -6   6    0.10    0.07 
  -3   6  -6    1.54    0.22 
   3  -6   6    1.60    0.19 
  -4   6  -6    0.62    0.15 
   4  -6   6    0.56    0.12 
  -5   6  -6    1.70    0.25 
   5  -6   6    2.02    0.22 
  -6   6  -6    0.00    0.12 
   6  -6   6   -0.03    0.08 
   7  -6   6    0.16    0.11 
   9   5  -6    0.10    0.14 
   8   5  -6    0.02    0.11 
   8   5  -6    0.07    0.11 
   7   5  -6    0.03    0.09 
   6   5  -6    0.24    0.11 
   5   5  -6    0.91    0.18 
   4   5  -6    0.28    0.11 
   3   5  -6    0.57    0.14 
   2   5  -6    1.30    0.19 
   1   5  -6    2.59    0.26 
   0   5  -6    3.59    0.26 
  -1   5  -6   -0.05    0.06 
   1  -5   6   -0.06    0.06 
  -2   5  -6    2.52    0.25 
   2  -5   6    2.21    0.20 
  -3   5  -6    4.66    0.32 
   3  -5   6    4.50    0.27 
  -4   5  -6    0.14    0.09 
   4  -5   6    0.08    0.06 
  -5   5  -6    0.08    0.09 
   5  -5   6    0.04    0.07 
  -6   5  -6    0.10    0.10 
   6  -5   6   -0.02    0.06 
   7  -5   6    1.15    0.19 
   8  -5   6    0.12    0.12 
   9   4  -6    0.29    0.15 
   8   4  -6    0.11    0.10 
   8   4  -6    0.11    0.11 
   7   4  -6    0.49    0.14 
   7   4  -6    0.38    0.11 
   6   4  -6   -0.07    0.07 
   5   4  -6    2.11    0.23 
   4   4  -6    2.98    0.24 
   3   4  -6    3.95    0.27 
   2   4  -6    7.36    0.38 
   1   4  -6    0.01    0.07 
   0   4  -6    3.07    0.23 
  -1   4  -6    0.90    0.15 
   1  -4   6    1.12    0.14 
  -2   4  -6    8.46    0.43 
   2  -4   6    8.17    0.37 
  -3   4  -6    0.03    0.06 
   3  -4   6    0.05    0.06 
  -4   4  -6    8.70    0.46 
   4  -4   6    8.08    0.38 
  -5   4  -6    3.34    0.31 
   5  -4   6    3.33    0.23 
  -6   4  -6    0.19    0.11 
   6  -4   6    0.12    0.07 
  -7   4  -6    0.31    0.14 
   7  -4   6    0.34    0.11 
   8  -4   6   -0.01    0.09 
   9   3  -6    0.09    0.11 
   8   3  -6    0.12    0.10 
   7   3  -6    0.76    0.15 
   7   3  -6    0.87    0.16 
   6   3  -6    0.82    0.15 
   6   3  -6    0.81    0.15 
   5   3  -6    4.16    0.28 
   5   3  -6    4.03    0.27 
   4   3  -6    0.72    0.12 
   4   3  -6    0.76    0.13 
   3   3  -6    1.46    0.17 
   3   3  -6    1.48    0.15 
   2   3  -6    8.73    0.41 
   2   3  -6    8.65    0.37 
   1   3  -6    0.04    0.04 
   1   3  -6    0.02    0.04 
   0   3  -6    0.23    0.05 
   0   3  -6    0.11    0.06 
  -1   3  -6    0.88    0.07 
  -1   3  -6    0.86    0.14 
  -2   3  -6    7.27    0.38 
   2  -3   6    7.67    0.33 
  -3   3  -6    6.94    0.37 
   3  -3   6    6.32    0.30 
  -4   3  -6   18.01    0.76 
   4  -3   6   19.22    0.66 
  -5   3  -6    0.02    0.08 
   5  -3   6    0.07    0.06 
  -6   3  -6    1.00    0.19 
   6  -3   6    1.22    0.16 
  -7   3  -6    0.03    0.08 
   7  -3   6   -0.02    0.06 
  -8   3  -6    0.47    0.15 
   8  -3   6    0.62    0.13 
   9  -3   6    0.01    0.09 
  10   2  -6    0.20    0.15 
   9   2  -6   -0.14    0.09 
   8   2  -6    0.83    0.17 
   7   2  -6    0.49    0.13 
   6   2  -6    0.69    0.14 
   6   2  -6    0.88    0.14 
   5   2  -6    6.20    0.32 
   5   2  -6    6.61    0.35 
   4   2  -6    0.68    0.12 
   4   2  -6    0.50    0.10 
   3   2  -6    8.48    0.38 
   3   2  -6    8.18    0.37 
   2   2  -6    0.41    0.08 
   2   2  -6    0.35    0.08 
   1   2  -6    3.09    0.20 
   1   2  -6    3.13    0.17 
   0   2  -6    0.14    0.04 
   0   2  -6    0.11    0.05 
  -1   2  -6    0.27    0.04 
  -1   2  -6    0.24    0.07 
  -2   2  -6    5.04    0.29 
   2  -2   6    4.95    0.24 
  -3   2  -6    7.52    0.39 
   3  -2   6    7.76    0.32 
  -4   2  -6    2.72    0.25 
   4  -2   6    2.16    0.16 
  -5   2  -6    7.08    0.41 
   5  -2   6    6.77    0.32 
  -6   2  -6   11.59    0.57 
   6  -2   6   10.51    0.45 
  -7   2  -6    0.58    0.15 
   7  -2   6    0.47    0.10 
  -8   2  -6    0.02    0.09 
   8  -2   6    0.05    0.06 
  -9   2  -6    0.12    0.13 
   9  -2   6    0.14    0.10 
  10   1  -6    0.16    0.14 
   9   1  -6   -0.05    0.09 
   8   1  -6    0.14    0.09 
   7   1  -6    3.01    0.28 
   6   1  -6    0.90    0.16 
   6   1  -6    1.36    0.14 
   5   1  -6    1.54    0.18 
   5   1  -6    1.75    0.16 
   4   1  -6    1.67    0.17 
   4   1  -6    1.73    0.14 
   3   1  -6    6.44    0.31 
   3   1  -6    6.31    0.30 
   2   1  -6    1.20    0.12 
   2   1  -6    1.29    0.13 
   1   1  -6   15.80    0.60 
   1   1  -6   16.25    0.56 
   0   1  -6   33.44    1.12 
  -1   1  -6   61.38    1.79 
  -1   1  -6   59.66    1.92 
  -2   1  -6   32.83    0.97 
  -2   1  -6   32.14    1.11 
   2  -1   6   32.47    0.99 
  -3   1  -6   10.72    0.49 
   3  -1   6   11.15    0.40 
  -4   1  -6    2.64    0.24 
   4  -1   6    2.80    0.16 
  -5   1  -6   12.44    0.57 
   5  -1   6   11.68    0.45 
  -6   1  -6    5.74    0.36 
   6  -1   6    5.63    0.28 
  -7   1  -6    0.20    0.10 
   7  -1   6    0.03    0.06 
  -8   1  -6    1.14    0.21 
   8  -1   6    1.14    0.15 
  -9   1  -6    0.58    0.17 
   9  -1   6    0.50    0.12 
  10   0  -6    0.00    0.12 
   9   0  -6    0.12    0.10 
   8   0  -6    1.03    0.18 
   7   0  -6    0.07    0.08 
   6   0  -6    0.17    0.08 
   5   0  -6    1.67    0.12 
   5   0  -6    1.41    0.18 
   4   0  -6    3.53    0.19 
   4   0  -6    3.13    0.22 
   3   0  -6    0.50    0.10 
   3   0  -6    0.69    0.09 
   2   0  -6    8.63    0.36 
   2   0  -6    9.02    0.37 
   1   0  -6    7.10    0.30 
   1   0  -6    6.71    0.30 
   0   0  -6   23.35    0.75 
   0   0  -6   23.41    0.81 
  -1   0  -6    0.48    0.09 
  -1   0  -6    0.39    0.06 
  -2   0  -6    0.32    0.05 
  -2   0  -6    0.27    0.07 
  -3   0  -6    5.98    0.23 
  -3   0  -6    6.27    0.33 
   3   0   6    6.09    0.25 
  -4   0  -6    2.21    0.22 
   4   0   6    2.21    0.13 
  -5   0  -6    6.44    0.37 
   5   0   6    5.89    0.26 
  -6   0  -6    3.18    0.29 
   6   0   6    2.85    0.17 
  -7   0  -6    7.55    0.44 
   7   0   6    6.72    0.31 
  -8   0  -6    0.62    0.17 
   8   0   6    0.55    0.11 
  -9   0  -6    1.25    0.24 
 -10   0  -6    0.62    0.20 
   9  -1  -6    0.41    0.14 
   8  -1  -6    0.08    0.09 
   7  -1  -6    1.68    0.21 
   6  -1  -6    1.62    0.19 
   5  -1  -6    0.05    0.06 
   4  -1  -6    0.00    0.05 
   4  -1  -6    0.08    0.03 
   3  -1  -6    0.04    0.03 
   3  -1  -6    0.02    0.04 
   2  -1  -6    8.22    0.37 
   2  -1  -6    9.78    0.36 
   1  -1  -6    0.72    0.09 
   1  -1  -6    0.53    0.08 
   0  -1  -6   37.06    1.15 
   0  -1  -6   36.09    1.18 
  -1  -1  -6    1.15    0.09 
  -1  -1  -6    1.40    0.14 
  -2  -1  -6    0.20    0.05 
  -2  -1  -6    0.47    0.09 
  -3  -1  -6   -0.01    0.03 
  -3  -1  -6    0.01    0.03 
   3   1   6    0.02    0.03 
  -4  -1  -6    8.99    0.43 
  -4  -1  -6    8.96    0.35 
   4   1   6    8.97    0.32 
  -5  -1  -6    3.56    0.26 
   5   1   6    3.25    0.17 
  -6  -1  -6    6.18    0.38 
   6   1   6    5.78    0.25 
  -7  -1  -6    3.25    0.31 
   7   1   6    2.81    0.17 
  -8  -1  -6    0.13    0.12 
  -9  -1  -6    0.04    0.10 
 -10  -1  -6    0.25    0.13 
   9  -2  -6    0.82    0.17 
   8  -2  -6    0.09    0.08 
   7  -2  -6    5.82    0.36 
   6  -2  -6    0.11    0.08 
   5  -2  -6    5.77    0.33 
   4  -2  -6    0.20    0.07 
   3  -2  -6    0.53    0.06 
   3  -2  -6    0.35    0.09 
   2  -2  -6    0.35    0.05 
   2  -2  -6    0.30    0.08 
   1  -2  -6    5.03    0.22 
   1  -2  -6    4.82    0.24 
   0  -2  -6    8.95    0.35 
   0  -2  -6    8.54    0.35 
  -1  -2  -6    3.13    0.18 
  -1  -2  -6    3.57    0.20 
  -2  -2  -6    9.52    0.42 
  -2  -2  -6    9.69    0.37 
  -3  -2  -6    0.59    0.11 
  -3  -2  -6    0.60    0.09 
  -4  -2  -6   15.09    0.62 
   4   2   6   14.32    0.45 
  -5  -2  -6    1.35    0.13 
  -5  -2  -6    1.56    0.21 
   5   2   6    1.50    0.09 
  -6  -2  -6    1.92    0.24 
  -7  -2  -6    1.43    0.23 
  -8  -2  -6    0.67    0.17 
  -9  -2  -6    0.75    0.19 
 -10  -2  -6    0.41    0.16 
   9  -3  -6    0.30    0.14 
   8  -3  -6    0.38    0.11 
   7  -3  -6    1.02    0.17 
   6  -3  -6    1.60    0.20 
   5  -3  -6    5.77    0.32 
   4  -3  -6    0.96    0.14 
   3  -3  -6    0.58    0.10 
   2  -3  -6    7.04    0.33 
   2  -3  -6    7.15    0.26 
   1  -3  -6    7.00    0.27 
   1  -3  -6    6.68    0.31 
   0  -3  -6    4.45    0.23 
   0  -3  -6    4.24    0.21 
  -1  -3  -6    1.49    0.14 
  -1  -3  -6    1.48    0.13 
  -2  -3  -6    6.44    0.30 
  -2  -3  -6    6.52    0.32 
  -3  -3  -6    2.69    0.18 
  -3  -3  -6    3.09    0.21 
  -4  -3  -6    1.26    0.17 
  -4  -3  -6    1.08    0.13 
  -5  -3  -6    0.55    0.11 
  -5  -3  -6    0.44    0.12 
  -6  -3  -6    0.78    0.17 
  -7  -3  -6    0.12    0.10 
  -8  -3  -6    0.47    0.14 
  -9  -3  -6   -0.06    0.09 
 -10  -3  -6    0.35    0.16 
   9  -4  -6    0.06    0.11 
   8  -4  -6    0.08    0.09 
   7  -4  -6   -0.01    0.06 
   6  -4  -6    2.06    0.22 
   5  -4  -6    0.18    0.08 
   4  -4  -6    0.94    0.15 
   3  -4  -6   12.05    0.51 
   2  -4  -6   10.05    0.44 
   1  -4  -6    1.03    0.13 
   1  -4  -6    1.18    0.09 
   0  -4  -6   13.09    0.51 
   0  -4  -6   13.23    0.49 
  -1  -4  -6    0.06    0.04 
  -1  -4  -6    0.01    0.04 
  -2  -4  -6    0.34    0.08 
  -2  -4  -6    0.36    0.08 
  -3  -4  -6    0.09    0.05 
  -3  -4  -6    0.08    0.05 
  -4  -4  -6    0.31    0.09 
  -4  -4  -6    0.26    0.08 
  -5  -4  -6    2.36    0.21 
  -5  -4  -6    2.61    0.26 
  -6  -4  -6   -0.01    0.07 
  -7  -4  -6    0.05    0.08 
  -8  -4  -6    0.18    0.09 
  -9  -4  -6    0.26    0.14 
 -10  -4  -6    0.13    0.14 
   8  -5  -6    0.16    0.10 
   7  -5  -6    0.07    0.08 
   6  -5  -6    0.70    0.14 
   5  -5  -6    0.13    0.08 
   4  -5  -6   13.86    0.59 
   3  -5  -6    2.82    0.22 
   2  -5  -6    2.56    0.20 
   1  -5  -6    2.97    0.21 
  -1   5   6    3.12    0.15 
   0  -5  -6    2.19    0.18 
   0  -5  -6    2.53    0.16 
  -1  -5  -6    0.00    0.05 
  -1  -5  -6    0.09    0.05 
  -2  -5  -6    1.08    0.14 
  -2  -5  -6    1.09    0.14 
  -3  -5  -6    3.99    0.25 
  -3  -5  -6    2.68    0.21 
  -4  -5  -6    2.00    0.20 
  -4  -5  -6    1.49    0.19 
  -5  -5  -6    0.22    0.09 
  -5  -5  -6    0.42    0.13 
  -6  -5  -6    1.22    0.18 
  -6  -5  -6    0.74    0.17 
  -7  -5  -6    0.18    0.09 
  -8  -5  -6    0.07    0.10 
  -9  -5  -6    0.35    0.16 
 -10  -5  -6    0.25    0.16 
   8  -6  -6    0.02    0.11 
   8  -6  -6   -0.02    0.10 
   7  -6  -6   -0.02    0.08 
   7  -6  -6    0.03    0.08 
   6  -6  -6    0.18    0.09 
   5  -6  -6    0.10    0.08 
   4  -6  -6    0.18    0.08 
   3  -6  -6    2.19    0.22 
   2  -6  -6    4.55    0.29 
   1  -6  -6    0.05    0.06 
   1  -6  -6    0.02    0.04 
   0  -6  -6    0.73    0.13 
   0  -6  -6    1.17    0.10 
   0   6   6    0.97    0.10 
  -1  -6  -6    6.11    0.31 
  -1  -6  -6    6.76    0.35 
  -2  -6  -6    0.78    0.13 
  -2  -6  -6    0.75    0.13 
  -3  -6  -6    7.33    0.38 
  -3  -6  -6    6.65    0.37 
  -4  -6  -6    2.23    0.23 
  -4  -6  -6    2.85    0.26 
  -5  -6  -6    2.77    0.26 
  -5  -6  -6    2.33    0.27 
  -6  -6  -6    0.11    0.09 
  -6  -6  -6    0.20    0.10 
  -7  -6  -6    0.28    0.12 
  -8  -6  -6    0.05    0.10 
  -9  -6  -6    1.28    0.25 
  10   6   6   -0.18    0.10 
   7  -7  -6   -0.06    0.09 
   7  -7  -6    0.07    0.10 
   6  -7  -6    0.53    0.13 
   6  -7  -6    0.30    0.11 
   5  -7  -6   -0.07    0.06 
   5  -7  -6    0.16    0.08 
   4  -7  -6    0.48    0.11 
   4  -7  -6    0.36    0.12 
   3  -7  -6    0.17    0.09 
   3  -7  -6    0.12    0.07 
   2  -7  -6    0.95    0.12 
   2  -7  -6    0.85    0.15 
   1  -7  -6    1.34    0.18 
   0  -7  -6    1.44    0.18 
  -1  -7  -6    1.94    0.21 
   1   7   6    1.71    0.14 
  -2  -7  -6    0.15    0.08 
   2   7   6    0.04    0.05 
  -3  -7  -6    1.78    0.21 
   3   7   6    1.70    0.18 
  -4  -7  -6    4.03    0.30 
  -4  -7  -6    3.92    0.30 
  -5  -7  -6    3.70    0.30 
  -5  -7  -6    3.84    0.30 
  -6  -7  -6    0.36    0.13 
  -6  -7  -6    0.52    0.16 
  -7  -7  -6    0.39    0.16 
   8   7   6    0.13    0.10 
   9   7   6    0.03    0.11 
   6  -8  -6    0.12    0.12 
   6  -8  -6   -0.02    0.10 
   5  -8  -6    0.07    0.09 
   5  -8  -6   -0.02    0.07 
   4  -8  -6    1.01    0.18 
   4  -8  -6    1.23    0.17 
   3  -8  -6    0.94    0.15 
   3  -8  -6    1.11    0.18 
   2  -8  -6    0.11    0.08 
   2  -8  -6    0.15    0.08 
   1  -8  -6    4.58    0.31 
   0  -8  -6    0.16    0.09 
  -1  -8  -6    1.19    0.18 
   1   8   6    0.55    0.10 
  -2  -8  -6    2.65    0.26 
   2   8   6    2.89    0.21 
  -3  -8  -6    0.35    0.12 
   3   8   6    0.20    0.09 
  -4  -8  -6    0.55    0.14 
   4   8   6    0.61    0.13 
  -5  -8  -6    0.86    0.18 
   5   8   6    0.77    0.15 
  -6  -8  -6    3.25    0.32 
   6   8   6    2.11    0.25 
   7   8   6    0.84    0.18 
   8   8   6    0.77    0.18 
   9   8   6    0.02    0.12 
   5  -9  -6    1.40    0.21 
   5  -9  -6    1.49    0.23 
   4  -9  -6    0.17    0.10 
   4  -9  -6    0.08    0.09 
   3  -9  -6    0.32    0.12 
   2  -9  -6    0.09    0.09 
   1  -9  -6    0.44    0.13 
   0  -9  -6    0.15    0.10 
  -1  -9  -6    0.22    0.10 
  -2  -9  -6    0.12    0.09 
   2   9   6    0.03    0.08 
  -3  -9  -6    0.64    0.15 
   3   9   6    0.49    0.12 
  -4  -9  -6    1.20    0.22 
   4   9   6    1.10    0.18 
  -5  -9  -6    0.61    0.17 
   5   9   6    0.81    0.17 
  -6  -9  -6    2.55    0.31 
   6   9   6    2.16    0.26 
   7   9   6   -0.01    0.10 
   8   9   6    0.33    0.15 
   4 -10  -6    0.15    0.12 
   3 -10  -6    0.10    0.11 
   2 -10  -6   -0.03    0.10 
   1 -10  -6    2.15    0.27 
   0 -10  -6    0.10    0.09 
  -1 -10  -6    0.76    0.17 
  -2 -10  -6    1.86    0.27 
  -3 -10  -6    2.53    0.30 
   3  10   6    2.11    0.23 
  -4 -10  -6    0.53    0.16 
   4  10   6    0.10    0.10 
  -5 -10  -6    0.75    0.19 
   5  10   6    0.77    0.17 
  -6 -10  -6    0.39    0.19 
   6  10   6    0.37    0.15 
   7  10   6    0.42    0.16 
   2 -11  -6   -0.06    0.13 
   1 -11  -6    0.43    0.15 
   0 -11  -6    0.72    0.20 
  -1 -11  -6    0.07    0.11 
  -2 -11  -6    1.78    0.28 
  -3 -11  -6    0.40    0.15 
  -4 -11  -6    0.27    0.17 
   4  11   6    0.37    0.14 
  -5 -11  -6    1.18    0.26 
   5  11   6    1.33    0.23 
   4   9  -7    0.07    0.15 
   3   9  -7    0.28    0.16 
   2   9  -7    0.10    0.15 
   1   9  -7    1.50    0.27 
   0   9  -7    0.68    0.20 
  -1   9  -7    0.26    0.15 
  -2   9  -7    0.28    0.16 
   6   8  -7    0.07    0.17 
   5   8  -7   -0.03    0.14 
   4   8  -7    0.02    0.12 
   3   8  -7    0.14    0.13 
   2   8  -7    0.45    0.14 
   1   8  -7    0.03    0.09 
   0   8  -7    0.05    0.11 
  -1   8  -7    0.18    0.12 
  -2   8  -7    0.27    0.13 
   2  -8   7    0.21    0.10 
  -3   8  -7    0.25    0.12 
   3  -8   7    0.08    0.11 
  -4   8  -7    0.22    0.14 
   4  -8   7    0.08    0.11 
   7   7  -7    0.94    0.24 
   6   7  -7    0.07    0.14 
   5   7  -7    0.85    0.20 
   4   7  -7    0.10    0.10 
   3   7  -7    0.44    0.14 
   2   7  -7    0.51    0.16 
   1   7  -7    0.20    0.10 
   0   7  -7    0.03    0.09 
  -1   7  -7    0.06    0.08 
  -2   7  -7    0.20    0.12 
   2  -7   7    0.11    0.09 
  -3   7  -7    0.20    0.11 
   3  -7   7    0.20    0.10 
  -4   7  -7    0.08    0.10 
   4  -7   7    0.01    0.09 
  -5   7  -7    0.13    0.13 
   5  -7   7   -0.01    0.09 
   8   6  -7    0.49    0.18 
   8   6  -7    0.90    0.23 
   7   6  -7    1.34    0.25 
   6   6  -7    0.25    0.13 
   5   6  -7    2.43    0.29 
   4   6  -7    1.29    0.22 
   3   6  -7    0.46    0.14 
   2   6  -7    0.27    0.11 
   1   6  -7   -0.07    0.07 
   0   6  -7    0.48    0.13 
  -1   6  -7    0.24    0.10 
  -2   6  -7    0.38    0.13 
   2  -6   7    0.18    0.09 
  -3   6  -7    2.18    0.27 
   3  -6   7    1.62    0.20 
  -4   6  -7    0.10    0.09 
   4  -6   7    0.14    0.08 
  -5   6  -7    0.76    0.19 
   5  -6   7    0.69    0.15 
  -6   6  -7    0.54    0.19 
   6  -6   7    0.52    0.15 
   8   5  -7    0.02    0.12 
   8   5  -7    0.28    0.14 
   7   5  -7   -0.12    0.09 
   7   5  -7   -0.04    0.09 
   6   5  -7    1.36    0.22 
   6   5  -7    1.07    0.18 
   5   5  -7    0.27    0.12 
   4   5  -7    2.41    0.26 
   3   5  -7    2.34    0.25 
   2   5  -7    6.58    0.40 
   1   5  -7    4.08    0.30 
   0   5  -7    0.11    0.08 
  -1   5  -7    0.38    0.12 
  -2   5  -7    3.05    0.30 
   2  -5   7    3.01    0.22 
  -3   5  -7    0.46    0.13 
   3  -5   7    0.34    0.09 
  -4   5  -7    0.24    0.11 
   4  -5   7    0.27    0.09 
  -5   5  -7    0.05    0.10 
   5  -5   7    0.14    0.07 
  -6   5  -7    0.15    0.12 
   6  -5   7    0.16    0.08 
  -7   5  -7   -0.01    0.13 
   7  -5   7    0.01    0.09 
   9   4  -7    0.16    0.13 
   8   4  -7   -0.11    0.09 
   7   4  -7    0.95    0.18 
   7   4  -7    0.88    0.18 
   6   4  -7    0.02    0.07 
   6   4  -7   -0.01    0.08 
   5   4  -7    0.69    0.14 
   5   4  -7    0.95    0.16 
   4   4  -7    3.26    0.26 
   4   4  -7    2.83    0.22 
   3   4  -7    0.95    0.14 
   3   4  -7    0.93    0.16 
   2   4  -7   10.72    0.52 
   2   4  -7   10.22    0.43 
   1   4  -7    1.85    0.21 
   1   4  -7    0.69    0.09 
   0   4  -7    1.37    0.20 
   0   4  -7    1.46    0.12 
  -1   4  -7    4.62    0.31 
  -2   4  -7    0.77    0.16 
   2  -4   7    0.93    0.14 
  -3   4  -7    2.50    0.26 
   3  -4   7    2.37    0.21 
  -4   4  -7    0.25    0.11 
   4  -4   7    0.39    0.10 
  -5   4  -7    0.11    0.08 
   5  -4   7    0.02    0.06 
  -6   4  -7    0.30    0.12 
   6  -4   7    0.10    0.07 
  -7   4  -7    0.12    0.13 
   7  -4   7    0.10    0.09 
   8  -4   7    0.34    0.13 
   9   3  -7    0.02    0.11 
   8   3  -7    0.11    0.10 
   7   3  -7    0.19    0.10 
   7   3  -7    0.30    0.11 
   6   3  -7    1.70    0.21 
   6   3  -7    1.22    0.19 
   5   3  -7    4.50    0.29 
   5   3  -7    4.10    0.28 
   4   3  -7    0.03    0.07 
   4   3  -7    0.01    0.07 
   3   3  -7    6.56    0.36 
   3   3  -7    6.35    0.33 
   2   3  -7    0.48    0.09 
   2   3  -7    0.68    0.14 
   1   3  -7   -0.01    0.04 
   1   3  -7   -0.02    0.06 
   0   3  -7    2.35    0.23 
   0   3  -7    2.22    0.14 
  -1   3  -7    7.81    0.41 
  -2   3  -7    0.04    0.07 
   2  -3   7    0.03    0.06 
  -3   3  -7    8.74    0.46 
   3  -3   7    9.11    0.39 
  -4   3  -7    2.19    0.26 
   4  -3   7    1.67    0.17 
  -5   3  -7    5.90    0.39 
   5  -3   7    6.89    0.33 
  -6   3  -7    0.22    0.11 
   6  -3   7    0.40    0.10 
  -7   3  -7    0.07    0.11 
   7  -3   7    0.01    0.06 
  -8   3  -7    0.08    0.12 
   8  -3   7    0.38    0.12 
   9  -3   7    0.91    0.18 
   9   2  -7    0.39    0.16 
   8   2  -7    1.86    0.25 
   7   2  -7    0.07    0.09 
   6   2  -7    0.19    0.10 
   6   2  -7    0.20    0.09 
   5   2  -7    0.00    0.07 
   5   2  -7   -0.02    0.06 
   4   2  -7    2.10    0.19 
   4   2  -7    2.02    0.20 
   3   2  -7    0.68    0.12 
   3   2  -7    0.76    0.13 
   2   2  -7    0.03    0.04 
   2   2  -7    0.05    0.04 
   1   2  -7    2.75    0.17 
   1   2  -7    2.82    0.20 
   0   2  -7    0.60    0.08 
   0   2  -7    0.52    0.10 
  -1   2  -7    8.94    0.43 
  -1   2  -7    8.98    0.32 
  -2   2  -7    6.10    0.35 
   2  -2   7    6.24    0.29 
  -3   2  -7    7.78    0.42 
   3  -2   7    7.58    0.33 
  -4   2  -7    3.15    0.28 
   4  -2   7    2.90    0.19 
  -5   2  -7    2.25    0.26 
   5  -2   7    1.93    0.17 
  -6   2  -7    0.34    0.11 
   6  -2   7    0.62    0.12 
  -7   2  -7    0.76    0.17 
   7  -2   7    0.97    0.15 
  -8   2  -7    0.17    0.13 
   8  -2   7    0.15    0.08 
  -9   2  -7    0.26    0.15 
   9  -2   7    0.42    0.13 
   9   1  -7    0.02    0.11 
   8   1  -7    3.13    0.31 
   7   1  -7    0.31    0.12 
   6   1  -7    2.08    0.23 
   5   1  -7    3.12    0.20 
   5   1  -7    3.08    0.24 
   4   1  -7    2.42    0.20 
   4   1  -7    2.35    0.18 
   3   1  -7    2.88    0.19 
   3   1  -7    3.13    0.21 
   2   1  -7    1.24    0.14 
   2   1  -7    1.38    0.15 
   1   1  -7    5.86    0.30 
   1   1  -7    5.59    0.26 
   0   1  -7    0.00    0.03 
   0   1  -7    0.29    0.08 
  -1   1  -7    9.85    0.45 
  -1   1  -7   10.25    0.36 
  -2   1  -7    5.03    0.29 
  -2   1  -7    4.66    0.19 
  -3   1  -7    2.82    0.23 
   3  -1   7    3.21    0.18 
  -4   1  -7   11.38    0.53 
   4  -1   7   10.38    0.41 
  -5   1  -7    1.62    0.22 
   5  -1   7    1.63    0.15 
  -6   1  -7    1.91    0.25 
   6  -1   7    1.83    0.17 
  -7   1  -7    2.20    0.28 
   7  -1   7    1.72    0.18 
  -8   1  -7    1.02    0.23 
   8  -1   7    0.51    0.11 
  -9   1  -7   -0.06    0.12 
   9   0  -7    0.33    0.13 
   8   0  -7    0.00    0.09 
   7   0  -7   -0.08    0.06 
   6   0  -7    6.96    0.40 
   5   0  -7    6.46    0.36 
   4   0  -7    0.97    0.12 
   4   0  -7    0.83    0.14 
   3   0  -7    3.11    0.21 
   3   0  -7    3.41    0.20 
   2   0  -7   22.22    0.78 
   2   0  -7   22.23    0.78 
   1   0  -7    7.04    0.31 
   1   0  -7    7.22    0.33 
   0   0  -7    9.51    0.36 
   0   0  -7    9.23    0.41 
  -1   0  -7    8.39    0.32 
  -1   0  -7    8.65    0.39 
  -2   0  -7    0.27    0.08 
  -2   0  -7    0.23    0.05 
  -3   0  -7    0.00    0.03 
  -3   0  -7    0.00    0.03 
   3   0   7    0.00    0.03 
  -4   0  -7    2.55    0.25 
   4   0   7    3.20    0.17 
  -5   0  -7    0.33    0.12 
   5   0   7    0.36    0.07 
  -6   0  -7    6.06    0.39 
   6   0   7    5.78    0.28 
  -7   0  -7    0.61    0.16 
   7   0   7    0.32    0.09 
  -8   0  -7    7.02    0.47 
  -9   0  -7    0.17    0.13 
 -10   0  -7    0.29    0.17 
   9  -1  -7    0.19    0.12 
   8  -1  -7    0.01    0.08 
   7  -1  -7    0.55    0.14 
   6  -1  -7    0.57    0.13 
   5  -1  -7    1.70    0.20 
   4  -1  -7    0.23    0.09 
   4  -1  -7    0.27    0.06 
   3  -1  -7   15.41    0.60 
   3  -1  -7   15.49    0.56 
   2  -1  -7    0.96    0.13 
   2  -1  -7    1.30    0.12 
   1  -1  -7   18.02    0.64 
   1  -1  -7   17.90    0.65 
   0  -1  -7    0.24    0.06 
   0  -1  -7    0.48    0.09 
  -1  -1  -7    0.20    0.06 
  -1  -1  -7    0.14    0.05 
  -2  -1  -7    1.33    0.11 
  -2  -1  -7    1.57    0.17 
  -3  -1  -7    0.68    0.12 
  -3  -1  -7    0.47    0.07 
  -4  -1  -7   -0.02    0.04 
  -4  -1  -7    0.03    0.04 
   4   1   7    0.04    0.03 
  -5  -1  -7    2.87    0.28 
   5   1   7    3.63    0.18 
  -6  -1  -7    2.05    0.26 
   6   1   7    2.29    0.14 
  -7  -1  -7    2.32    0.29 
  -8  -1  -7    0.55    0.17 
  -9  -1  -7    0.22    0.15 
 -10  -1  -7    0.82    0.21 
   9  -2  -7    0.33    0.14 
   8  -2  -7    0.03    0.09 
   7  -2  -7    1.33    0.20 
   6  -2  -7    4.24    0.29 
   5  -2  -7   -0.02    0.06 
   4  -2  -7    0.86    0.15 
   3  -2  -7    9.71    0.43 
   3  -2  -7    9.72    0.36 
   2  -2  -7   16.23    0.56 
   2  -2  -7   15.33    0.59 
   1  -2  -7    7.63    0.32 
   1  -2  -7    7.35    0.33 
   0  -2  -7    0.61    0.10 
   0  -2  -7    0.50    0.09 
  -1  -2  -7   15.97    0.61 
  -1  -2  -7   15.80    0.57 
  -2  -2  -7    2.35    0.18 
  -2  -2  -7    2.59    0.16 
  -3  -2  -7    0.22    0.07 
  -3  -2  -7    0.23    0.06 
  -4  -2  -7    0.21    0.07 
  -4  -2  -7    0.19    0.08 
  -5  -2  -7    3.49    0.27 
  -5  -2  -7    3.36    0.20 
  -6  -2  -7    0.16    0.10 
  -7  -2  -7    2.60    0.30 
  -8  -2  -7    0.06    0.10 
  -9  -2  -7    0.96    0.22 
 -10  -2  -7    1.11    0.26 
   9  -3  -7    0.05    0.12 
   8  -3  -7    0.81    0.17 
   7  -3  -7    0.23    0.10 
   6  -3  -7    1.44    0.20 
   5  -3  -7    0.77    0.14 
   4  -3  -7    0.42    0.11 
   3  -3  -7    2.37    0.19 
   2  -3  -7    8.77    0.34 
   2  -3  -7    9.56    0.41 
   1  -3  -7    2.77    0.16 
   1  -3  -7    2.67    0.18 
   0  -3  -7   27.14    0.92 
   0  -3  -7   27.27    0.92 
  -1  -3  -7    0.10    0.04 
  -1  -3  -7    0.02    0.04 
  -2  -3  -7    2.78    0.18 
  -2  -3  -7    2.44    0.18 
  -3  -3  -7    1.27    0.13 
  -3  -3  -7    0.85    0.14 
  -4  -3  -7    4.10    0.24 
  -4  -3  -7    4.11    0.28 
  -5  -3  -7    0.76    0.16 
  -5  -3  -7    0.79    0.12 
  -6  -3  -7    3.14    0.31 
  -7  -3  -7    0.85    0.18 
  -8  -3  -7    0.27    0.13 
  -9  -3  -7    0.83    0.21 
 -10  -3  -7    0.18    0.15 
   8  -4  -7    0.01    0.09 
   7  -4  -7    0.61    0.14 
   6  -4  -7    0.01    0.07 
   5  -4  -7    1.06    0.17 
   4  -4  -7    6.45    0.35 
   3  -4  -7    4.04    0.26 
   2  -4  -7    0.24    0.08 
   1  -4  -7    0.06    0.04 
   1  -4  -7    0.00    0.06 
   0  -4  -7    6.15    0.31 
   0  -4  -7    6.58    0.29 
  -1  -4  -7    0.60    0.11 
  -1  -4  -7    0.65    0.11 
  -2  -4  -7    2.08    0.17 
  -2  -4  -7    2.26    0.17 
  -3  -4  -7    0.12    0.06 
  -3  -4  -7    0.04    0.05 
  -4  -4  -7    3.57    0.27 
  -4  -4  -7    3.04    0.22 
  -5  -4  -7    0.66    0.15 
  -5  -4  -7    0.63    0.13 
  -6  -4  -7    0.57    0.12 
  -6  -4  -7    0.52    0.15 
  -7  -4  -7    0.41    0.14 
  -8  -4  -7    0.87    0.20 
  -9  -4  -7    0.28    0.13 
 -10  -4  -7    0.06    0.14 
   8  -5  -7    0.18    0.12 
   7  -5  -7    0.03    0.08 
   6  -5  -7    0.29    0.11 
   5  -5  -7    0.93    0.16 
   4  -5  -7    2.28    0.22 
   3  -5  -7   17.43    0.70 
   2  -5  -7    0.20    0.08 
   1  -5  -7    1.17    0.15 
   0  -5  -7    0.18    0.08 
   0  -5  -7    0.34    0.07 
  -1  -5  -7    1.88    0.15 
  -1  -5  -7    1.42    0.17 
  -2  -5  -7    1.25    0.16 
  -2  -5  -7    1.53    0.17 
  -3  -5  -7    0.40    0.11 
  -3  -5  -7    0.38    0.10 
  -4  -5  -7    3.67    0.28 
  -4  -5  -7    3.88    0.27 
  -5  -5  -7    1.83    0.20 
  -5  -5  -7    1.78    0.24 
  -6  -5  -7    0.00    0.07 
  -6  -5  -7    0.07    0.08 
  -7  -5  -7    1.90    0.28 
  -8  -5  -7    0.27    0.12 
  -9  -5  -7    0.04    0.12 
 -10  -5  -7    0.34    0.20 
   7  -6  -7    0.26    0.12 
   6  -6  -7    0.54    0.13 
   5  -6  -7    0.63    0.14 
   4  -6  -7    2.95    0.24 
   3  -6  -7    0.74    0.14 
   2  -6  -7    0.89    0.16 
   1  -6  -7    4.71    0.30 
   0  -6  -7    2.47    0.23 
   0  -6  -7    2.58    0.17 
  -1  -6  -7    0.54    0.10 
  -1  -6  -7    0.53    0.12 
  -2  -6  -7    0.25    0.07 
  -2  -6  -7    0.20    0.10 
  -3  -6  -7   10.43    0.50 
  -3  -6  -7   10.71    0.50 
  -4  -6  -7    5.10    0.34 
  -4  -6  -7    5.28    0.33 
  -5  -6  -7    0.22    0.10 
  -5  -6  -7    0.10    0.09 
  -6  -6  -7    0.02    0.08 
  -6  -6  -7    0.05    0.08 
  -7  -6  -7    0.53    0.16 
  -8  -6  -7   -0.02    0.10 
  -9  -6  -7    0.51    0.20 
   7  -7  -7    0.10    0.11 
   6  -7  -7    0.17    0.11 
   6  -7  -7    0.21    0.10 
   5  -7  -7    0.01    0.08 
   5  -7  -7    0.04    0.07 
   4  -7  -7    0.25    0.10 
   4  -7  -7    0.24    0.08 
   3  -7  -7    0.09    0.07 
   3  -7  -7    0.24    0.10 
   2  -7  -7    0.95    0.12 
   2  -7  -7    0.93    0.16 
   1  -7  -7    2.96    0.24 
   0  -7  -7    1.74    0.20 
  -1  -7  -7   -0.10    0.06 
   1   7   7    0.00    0.03 
  -2  -7  -7    5.11    0.33 
  -2  -7  -7    5.37    0.32 
  -3  -7  -7    0.13    0.08 
  -3  -7  -7    0.05    0.08 
  -4  -7  -7    0.08    0.08 
  -4  -7  -7    0.02    0.08 
  -5  -7  -7    0.09    0.10 
  -5  -7  -7    0.15    0.10 
  -6  -7  -7    0.08    0.09 
  -6  -7  -7    0.03    0.09 
  -7  -7  -7    0.00    0.11 
  -8  -7  -7    0.36    0.18 
  -9  -7  -7    0.16    0.16 
   6  -8  -7    0.33    0.14 
   6  -8  -7    0.27    0.13 
   5  -8  -7    0.15    0.10 
   5  -8  -7   -0.08    0.08 
   4  -8  -7    0.32    0.11 
   4  -8  -7    0.18    0.09 
   3  -8  -7    0.63    0.14 
   3  -8  -7    0.41    0.11 
   2  -8  -7    0.64    0.15 
   1  -8  -7    0.26    0.10 
   0  -8  -7    1.25    0.20 
  -1  -8  -7   -0.06    0.06 
  -2  -8  -7    2.07    0.24 
   2   8   7    2.00    0.19 
  -3  -8  -7    1.82    0.24 
   3   8   7    1.74    0.19 
  -4  -8  -7    0.94    0.19 
   4   8   7    1.06    0.17 
  -5  -8  -7   -0.05    0.09 
   5   8   7    0.01    0.06 
  -6  -8  -7    0.32    0.15 
   6   8   7    0.39    0.14 
   7   8   7    0.31    0.13 
   8   8   7    0.16    0.11 
   5  -9  -7    0.06    0.11 
   5  -9  -7    0.09    0.11 
   4  -9  -7    0.34    0.14 
   3  -9  -7    0.10    0.09 
   2  -9  -7    0.03    0.09 
   1  -9  -7    0.31    0.11 
   0  -9  -7    0.05    0.08 
  -1  -9  -7   -0.04    0.06 
  -2  -9  -7    0.59    0.15 
  -3  -9  -7    0.44    0.14 
   3   9   7    0.65    0.13 
  -4  -9  -7    0.27    0.12 
   4   9   7    0.27    0.10 
  -5  -9  -7    0.18    0.12 
   5   9   7    0.50    0.14 
  -6  -9  -7    0.32    0.14 
   6   9   7    0.08    0.09 
   7   9   7    1.22    0.22 
   8   9   7    0.16    0.13 
   3 -10  -7   -0.05    0.10 
   2 -10  -7    0.45    0.15 
   1 -10  -7    0.01    0.10 
   0 -10  -7   -0.01    0.08 
  -1 -10  -7    0.15    0.11 
  -2 -10  -7    0.00    0.08 
  -3 -10  -7    0.16    0.11 
  -4 -10  -7    0.02    0.11 
   4  10   7    0.05    0.10 
  -5 -10  -7    0.68    0.20 
   5  10   7    0.52    0.14 
  -6 -10  -7    0.17    0.15 
   6  10   7    0.09    0.11 
   7  10   7    0.02    0.12 
   1 -11  -7    0.08    0.14 
   0 -11  -7    0.86    0.21 
  -1 -11  -7    0.21    0.15 
  -2 -11  -7    0.16    0.14 
  -3 -11  -7    0.14    0.13 
  -4 -11  -7   -0.09    0.12 
  -5 -11  -7    0.13    0.17 
   5  11   7    0.09    0.12 
   3   9  -8    0.15    0.16 
   2   9  -8    0.07    0.15 
   1   9  -8    0.18    0.16 
   0   9  -8    0.54    0.20 
  -1   9  -8   -0.06    0.14 
   5   8  -8    0.14    0.17 
   4   8  -8    0.17    0.17 
   3   8  -8    1.15    0.25 
   2   8  -8    0.38    0.15 
   1   8  -8    1.56    0.26 
   0   8  -8   -0.04    0.11 
  -1   8  -8    0.23    0.12 
  -2   8  -8    0.05    0.12 
  -3   8  -8    0.10    0.14 
   3  -8   8    0.14    0.13 
   6   7  -8    0.37    0.19 
   6   7  -8    0.28    0.15 
   5   7  -8   -0.02    0.12 
   4   7  -8    0.06    0.13 
   3   7  -8    1.02    0.23 
   2   7  -8    0.27    0.13 
   1   7  -8    0.61    0.16 
   0   7  -8    0.06    0.10 
  -1   7  -8    0.72    0.18 
  -2   7  -8    0.05    0.10 
  -3   7  -8    0.46    0.15 
   3  -7   8    0.25    0.13 
  -4   7  -8    0.14    0.12 
   4  -7   8   -0.02    0.09 
  -5   7  -8    0.28    0.14 
   5  -7   8    0.02    0.11 
   7   6  -8    0.58    0.18 
   7   6  -8    0.68    0.21 
   6   6  -8    0.46    0.16 
   6   6  -8    0.42    0.14 
   5   6  -8    0.05    0.10 
   5   6  -8    0.06    0.10 
   4   6  -8    0.21    0.12 
   4   6  -8    0.20    0.10 
   3   6  -8    0.51    0.15 
   2   6  -8    0.04    0.08 
   1   6  -8    1.04    0.20 
   0   6  -8    1.66    0.25 
  -1   6  -8    0.16    0.10 
  -2   6  -8   -0.01    0.09 
  -3   6  -8    0.35    0.14 
   3  -6   8    0.29    0.11 
  -4   6  -8   -0.02    0.07 
   4  -6   8    0.16    0.09 
  -5   6  -8    0.42    0.15 
   5  -6   8    0.44    0.14 
  -6   6  -8    0.60    0.19 
   6  -6   8    0.55    0.16 
   8   5  -8    0.17    0.14 
   7   5  -8   -0.04    0.11 
   7   5  -8    0.03    0.11 
   6   5  -8    0.83    0.18 
   6   5  -8    1.18    0.19 
   5   5  -8    1.90    0.25 
   5   5  -8    1.68    0.21 
   4   5  -8    2.56    0.24 
   4   5  -8    2.61    0.29 
   3   5  -8    2.38    0.28 
   3   5  -8    2.21    0.21 
   2   5  -8    0.67    0.15 
   2   5  -8    0.93    0.13 
   1   5  -8    0.20    0.11 
   0   5  -8    0.28    0.11 
  -1   5  -8    0.06    0.07 
  -2   5  -8    2.46    0.29 
  -3   5  -8    0.09    0.09 
   3  -5   8    0.12    0.07 
  -4   5  -8    0.51    0.16 
   4  -5   8    0.26    0.09 
  -5   5  -8    0.20    0.12 
   5  -5   8    0.09    0.08 
  -6   5  -8    0.06    0.11 
   6  -5   8    0.05    0.09 
  -7   5  -8   -0.02    0.13 
   7  -5   8    0.03    0.11 
   8   4  -8    0.38    0.15 
   7   4  -8    0.62    0.15 
   7   4  -8    0.67    0.16 
   6   4  -8    2.10    0.26 
   6   4  -8    2.16    0.25 
   5   4  -8    4.03    0.29 
   5   4  -8    4.10    0.30 
   4   4  -8   -0.03    0.08 
   4   4  -8    0.02    0.08 
   3   4  -8    3.45    0.28 
   3   4  -8    3.47    0.24 
   2   4  -8    0.01    0.07 
   2   4  -8    0.05    0.08 
   1   4  -8    3.29    0.20 
   1   4  -8    3.11    0.29 
   0   4  -8    1.62    0.22 
  -1   4  -8    0.04    0.07 
  -2   4  -8    0.17    0.09 
  -3   4  -8    0.40    0.12 
   3  -4   8    0.58    0.12 
  -4   4  -8   -0.01    0.08 
   4  -4   8   -0.09    0.05 
  -5   4  -8    0.70    0.17 
   5  -4   8    0.58    0.12 
  -6   4  -8    0.09    0.11 
   6  -4   8    0.05    0.07 
  -7   4  -8   -0.02    0.12 
   7  -4   8    0.11    0.08 
   8   3  -8    0.15    0.12 
   7   3  -8    0.18    0.11 
   6   3  -8    1.53    0.21 
   6   3  -8    1.69    0.22 
   5   3  -8    0.79    0.16 
   5   3  -8    0.82    0.16 
   4   3  -8    8.64    0.42 
   4   3  -8    8.05    0.43 
   3   3  -8    9.84    0.45 
   3   3  -8   10.15    0.49 
   2   3  -8    0.09    0.06 
   2   3  -8    0.12    0.08 
   1   3  -8    8.46    0.44 
   0   3  -8    4.35    0.29 
   0   3  -8    4.13    0.21 
  -1   3  -8    1.58    0.21 
  -2   3  -8    0.11    0.07 
  -3   3  -8    1.81    0.23 
   3  -3   8    1.51    0.17 
  -4   3  -8    0.13    0.09 
   4  -3   8    0.19    0.08 
  -5   3  -8    0.66    0.16 
   5  -3   8    0.44    0.11 
  -6   3  -8    0.09    0.11 
   6  -3   8    0.20    0.08 
  -7   3  -8    0.20    0.13 
   7  -3   8    0.15    0.08 
  -8   3  -8   -0.05    0.12 
   8  -3   8    0.16    0.10 
   9   2  -8   -0.07    0.12 
   8   2  -8    0.15    0.11 
   7   2  -8   -0.03    0.08 
   6   2  -8    0.15    0.09 
   5   2  -8    6.93    0.38 
   5   2  -8    6.99    0.38 
   4   2  -8    6.43    0.36 
   4   2  -8    6.56    0.36 
   3   2  -8    1.70    0.18 
   3   2  -8    1.75    0.19 
   2   2  -8    1.12    0.14 
   2   2  -8    0.90    0.15 
   1   2  -8    4.02    0.22 
   1   2  -8    4.25    0.28 
   0   2  -8    0.99    0.11 
   0   2  -8    1.06    0.16 
  -1   2  -8   11.17    0.40 
  -1   2  -8   11.99    0.54 
  -2   2  -8   29.62    1.10 
  -3   2  -8    4.31    0.31 
   3  -2   8    4.24    0.24 
  -4   2  -8    3.38    0.31 
   4  -2   8    2.74    0.20 
  -5   2  -8    0.44    0.12 
   5  -2   8    0.64    0.12 
  -6   2  -8    0.57    0.16 
   6  -2   8    0.53    0.11 
  -7   2  -8    0.23    0.12 
   7  -2   8    0.21    0.09 
  -8   2  -8    0.46    0.17 
   8  -2   8    0.43    0.12 
  -9   2  -8    0.12    0.14 
   9   1  -8    0.06    0.13 
   8   1  -8    0.34    0.14 
   7   1  -8    1.95    0.25 
   6   1  -8    0.27    0.11 
   5   1  -8    0.84    0.13 
   5   1  -8    0.61    0.14 
   4   1  -8    0.40    0.11 
   4   1  -8    0.68    0.12 
   3   1  -8    5.28    0.30 
   3   1  -8    5.71    0.30 
   2   1  -8    8.81    0.39 
   2   1  -8    8.61    0.41 
   1   1  -8    0.69    0.11 
   1   1  -8    0.60    0.12 
   0   1  -8    0.94    0.14 
  -1   1  -8    1.74    0.12 
  -1   1  -8    1.73    0.19 
  -2   1  -8    2.88    0.23 
  -3   1  -8    5.39    0.34 
  -4   1  -8    2.16    0.25 
   4  -1   8    1.75    0.16 
  -5   1  -8    0.91    0.18 
   5  -1   8    0.99    0.13 
  -6   1  -8    2.70    0.31 
   6  -1   8    1.97    0.18 
  -7   1  -8    0.40    0.16 
   7  -1   8    0.60    0.11 
  -8   1  -8    0.42    0.15 
  -9   1  -8   -0.02    0.12 
   9   0  -8    0.23    0.16 
   8   0  -8    0.14    0.11 
   7   0  -8    1.09    0.19 
   6   0  -8    2.82    0.28 
   5   0  -8    1.58    0.20 
   4   0  -8    4.31    0.28 
   4   0  -8    4.44    0.25 
   3   0  -8    1.99    0.16 
   3   0  -8    2.45    0.21 
   2   0  -8    3.27    0.21 
   2   0  -8    3.31    0.21 
   1   0  -8    0.95    0.13 
   1   0  -8    0.84    0.11 
   0   0  -8    2.99    0.18 
   0   0  -8    2.96    0.21 
  -1   0  -8    3.43    0.23 
  -1   0  -8    3.59    0.19 
  -2   0  -8    0.03    0.06 
  -2   0  -8   -0.02    0.03 
  -3   0  -8    0.18    0.09 
  -4   0  -8    1.34    0.20 
   4   0   8    1.88    0.14 
  -5   0  -8    7.72    0.45 
   5   0   8    7.56    0.32 
  -6   0  -8    0.61    0.15 
   6   0   8    0.50    0.10 
  -7   0  -8    1.34    0.24 
  -8   0  -8    0.96    0.21 
  -9   0  -8    0.84    0.22 
   9  -1  -8    0.82    0.21 
   8  -1  -8    0.42    0.15 
   7  -1  -8    0.53    0.15 
   6  -1  -8    7.71    0.44 
   5  -1  -8    2.57    0.25 
   4  -1  -8    5.90    0.34 
   3  -1  -8   -0.04    0.06 
   3  -1  -8    0.07    0.05 
   2  -1  -8   17.37    0.62 
   2  -1  -8   15.46    0.62 
   1  -1  -8    0.77    0.11 
   1  -1  -8    0.86    0.12 
   0  -1  -8    0.25    0.07 
   0  -1  -8    0.32    0.07 
  -1  -1  -8    0.30    0.08 
  -1  -1  -8    0.23    0.06 
  -2  -1  -8    0.41    0.10 
  -2  -1  -8    0.45    0.08 
  -3  -1  -8    1.13    0.11 
  -3  -1  -8    1.29    0.18 
  -4  -1  -8    0.33    0.11 
  -5  -1  -8   13.17    0.62 
   5   1   8   12.33    0.45 
  -6  -1  -8    1.37    0.23 
  -7  -1  -8    5.57    0.40 
  -8  -1  -8    1.45    0.26 
  -9  -1  -8    0.35    0.16 
   8  -2  -8    0.38    0.15 
   7  -2  -8    0.14    0.10 
   6  -2  -8    1.51    0.21 
   5  -2  -8    0.32    0.11 
   4  -2  -8   14.81    0.63 
   3  -2  -8    1.57    0.18 
   2  -2  -8    5.93    0.31 
   2  -2  -8    5.64    0.27 
   1  -2  -8    1.89    0.17 
   1  -2  -8    2.00    0.15 
   0  -2  -8    7.78    0.35 
   0  -2  -8    8.06    0.37 
  -1  -2  -8    2.29    0.18 
  -1  -2  -8    2.05    0.15 
  -2  -2  -8    0.27    0.08 
  -2  -2  -8    0.24    0.07 
  -3  -2  -8    0.01    0.05 
  -3  -2  -8    0.05    0.04 
  -4  -2  -8    0.92    0.11 
  -4  -2  -8    0.69    0.15 
  -5  -2  -8    0.38    0.12 
  -6  -2  -8    0.53    0.15 
  -7  -2  -8    1.74    0.27 
  -8  -2  -8    0.12    0.11 
  -9  -2  -8    0.90    0.22 
 -10  -2  -8    0.16    0.17 
   8  -3  -8    0.11    0.11 
   7  -3  -8    0.46    0.13 
   6  -3  -8    0.22    0.10 
   5  -3  -8    1.19    0.18 
   4  -3  -8    2.70    0.24 
   3  -3  -8    0.95    0.15 
   2  -3  -8   11.54    0.50 
   1  -3  -8   20.19    0.72 
   1  -3  -8   18.45    0.68 
   0  -3  -8   10.25    0.44 
   0  -3  -8   10.63    0.44 
  -1  -3  -8   15.12    0.59 
  -1  -3  -8   14.74    0.57 
  -2  -3  -8    1.16    0.15 
  -2  -3  -8    0.98    0.13 
  -3  -3  -8    0.31    0.08 
  -3  -3  -8    0.42    0.11 
  -4  -3  -8    1.14    0.14 
  -4  -3  -8    0.98    0.18 
  -5  -3  -8    3.94    0.30 
  -5  -3  -8    3.76    0.24 
  -6  -3  -8    0.03    0.09 
  -7  -3  -8    0.04    0.10 
  -8  -3  -8    1.81    0.30 
  -9  -3  -8    0.14    0.12 
 -10  -3  -8    0.31    0.18 
   8  -4  -8    0.27    0.13 
   7  -4  -8    0.18    0.10 
   6  -4  -8   -0.03    0.07 
   5  -4  -8    1.49    0.20 
   4  -4  -8    1.15    0.17 
   3  -4  -8    4.36    0.29 
   2  -4  -8    1.59    0.18 
   1  -4  -8   11.47    0.48 
   1  -4  -8    9.95    0.41 
   0  -4  -8    3.30    0.22 
   0  -4  -8    3.33    0.21 
  -1  -4  -8   10.10    0.44 
  -1  -4  -8   10.11    0.44 
  -2  -4  -8    1.72    0.17 
  -2  -4  -8    1.84    0.19 
  -3  -4  -8    8.80    0.43 
  -3  -4  -8    7.62    0.38 
  -4  -4  -8    0.33    0.12 
  -4  -4  -8    0.05    0.07 
  -5  -4  -8    2.37    0.22 
  -5  -4  -8    2.23    0.27 
  -6  -4  -8    0.00    0.08 
  -6  -4  -8    0.07    0.08 
  -7  -4  -8    2.35    0.31 
  -8  -4  -8    0.08    0.11 
  -9  -4  -8    0.09    0.13 
   7  -5  -8    0.04    0.11 
   6  -5  -8    0.74    0.15 
   5  -5  -8    0.31    0.11 
   4  -5  -8    0.20    0.09 
   3  -5  -8    1.16    0.17 
   2  -5  -8   -0.02    0.06 
   1  -5  -8    0.09    0.07 
   0  -5  -8   -0.03    0.06 
   0  -5  -8    0.16    0.06 
  -1  -5  -8   15.09    0.61 
  -1  -5  -8   14.37    0.59 
  -2  -5  -8    2.15    0.21 
  -2  -5  -8    2.13    0.20 
  -3  -5  -8    8.11    0.43 
  -3  -5  -8    8.27    0.41 
  -4  -5  -8    1.12    0.17 
  -4  -5  -8    0.98    0.18 
  -5  -5  -8    0.35    0.12 
  -5  -5  -8    0.35    0.11 
  -6  -5  -8    1.07    0.21 
  -6  -5  -8    1.53    0.20 
  -7  -5  -8    0.37    0.15 
  -8  -5  -8    0.12    0.12 
  -9  -5  -8    0.30    0.17 
   7  -6  -8    0.43    0.16 
   6  -6  -8    0.47    0.13 
   5  -6  -8    0.40    0.12 
   4  -6  -8    1.86    0.23 
   3  -6  -8    0.19    0.08 
   2  -6  -8    0.70    0.13 
   1  -6  -8    0.27    0.10 
   0  -6  -8    0.52    0.12 
  -1  -6  -8    2.56    0.19 
  -1  -6  -8    2.60    0.23 
  -2  -6  -8    6.71    0.37 
  -2  -6  -8    7.02    0.39 
  -3  -6  -8    5.70    0.34 
  -3  -6  -8    5.91    0.35 
  -4  -6  -8    5.26    0.33 
  -4  -6  -8    4.36    0.32 
  -5  -6  -8    0.25    0.11 
  -5  -6  -8    0.02    0.09 
  -6  -6  -8    1.85    0.27 
  -6  -6  -8    1.53    0.22 
  -7  -6  -8    0.08    0.10 
  -7  -6  -8   -0.08    0.08 
  -8  -6  -8    0.83    0.22 
  -9  -6  -8   -0.05    0.14 
   6  -7  -8    0.04    0.09 
   6  -7  -8   -0.13    0.08 
   5  -7  -8    0.20    0.10 
   4  -7  -8    0.77    0.16 
   3  -7  -8    0.59    0.13 
   2  -7  -8    0.13    0.08 
   1  -7  -8    0.41    0.11 
   0  -7  -8    0.79    0.16 
  -1  -7  -8    2.68    0.26 
  -2  -7  -8    0.57    0.14 
  -2  -7  -8    0.57    0.13 
  -3  -7  -8    0.42    0.13 
  -3  -7  -8    0.44    0.12 
  -4  -7  -8    0.02    0.08 
  -4  -7  -8    0.10    0.09 
  -5  -7  -8    0.58    0.16 
  -5  -7  -8    0.43    0.14 
  -6  -7  -8    0.84    0.20 
  -6  -7  -8    0.84    0.18 
  -7  -7  -8    0.23    0.14 
  -7  -7  -8    0.18    0.13 
  -8  -7  -8    0.83    0.24 
  -9  -7  -8    0.09    0.18 
   5  -8  -8    0.06    0.09 
   5  -8  -8    0.01    0.10 
   4  -8  -8    0.24    0.11 
   4  -8  -8    0.44    0.13 
   3  -8  -8    0.88    0.17 
   2  -8  -8    0.14    0.09 
   1  -8  -8    0.44    0.13 
   0  -8  -8    0.17    0.09 
  -1  -8  -8    2.80    0.29 
  -2  -8  -8    1.02    0.18 
   2   8   8    1.35    0.17 
  -3  -8  -8    0.04    0.08 
   3   8   8    0.06    0.08 
  -4  -8  -8    0.94    0.19 
  -4  -8  -8    0.96    0.19 
  -5  -8  -8    0.21    0.12 
  -5  -8  -8    0.13    0.11 
  -6  -8  -8    0.25    0.13 
  -6  -8  -8    0.20    0.13 
  -7  -8  -8    0.15    0.12 
  -7  -8  -8    0.18    0.15 
   8   8   8    0.11    0.12 
   4  -9  -8    0.95    0.20 
   3  -9  -8    0.06    0.10 
   2  -9  -8    0.07    0.09 
   1  -9  -8    0.59    0.15 
   0  -9  -8    1.33    0.22 
  -1  -9  -8    0.31    0.12 
  -2  -9  -8    0.09    0.09 
  -3  -9  -8    0.64    0.16 
   3   9   8    0.87    0.15 
  -4  -9  -8    0.87    0.20 
   4   9   8    0.33    0.11 
  -5  -9  -8   -0.05    0.10 
   5   9   8    0.14    0.10 
  -6  -9  -8    0.00    0.12 
   6   9   8    0.08    0.11 
  -7  -9  -8    0.44    0.20 
   7   9   8    0.20    0.12 
   3 -10  -8    0.08    0.13 
   2 -10  -8    0.31    0.14 
   1 -10  -8    0.03    0.10 
   0 -10  -8    0.62    0.17 
  -1 -10  -8    0.02    0.10 
  -2 -10  -8    0.35    0.14 
  -3 -10  -8    0.12    0.13 
  -4 -10  -8    1.17    0.24 
   4  10   8    0.52    0.15 
  -5 -10  -8    0.01    0.12 
   5  10   8   -0.01    0.09 
  -6 -10  -8    0.34    0.19 
   6  10   8    0.50    0.16 
   0 -11  -8    0.07    0.14 
  -1 -11  -8    0.28    0.16 
  -2 -11  -8    0.13    0.14 
  -3 -11  -8    0.01    0.13 
  -4 -11  -8    0.05    0.16 
   3   8  -9    0.02    0.14 
   2   8  -9    0.13    0.14 
   1   8  -9    1.00    0.22 
   0   8  -9    0.06    0.14 
  -1   8  -9    0.15    0.14 
  -2   8  -9    0.22    0.17 
   5   7  -9    0.38    0.17 
   5   7  -9    0.58    0.22 
   4   7  -9    1.40    0.28 
   3   7  -9   -0.07    0.11 
   2   7  -9    0.45    0.17 
   1   7  -9    0.39    0.15 
   0   7  -9    1.53    0.26 
  -1   7  -9   -0.08    0.11 
  -2   7  -9    0.12    0.12 
  -3   7  -9    0.09    0.12 
  -4   7  -9    0.20    0.15 
   4  -7   9    0.17    0.13 
   6   6  -9    0.22    0.17 
   6   6  -9    0.55    0.16 
   5   6  -9    0.03    0.10 
   5   6  -9    0.04    0.12 
   4   6  -9    1.27    0.24 
   4   6  -9    1.03    0.18 
   3   6  -9    0.41    0.15 
   2   6  -9    0.26    0.13 
   1   6  -9    2.71    0.33 
   0   6  -9    0.44    0.15 
  -1   6  -9    0.51    0.15 
  -2   6  -9    0.53    0.16 
  -3   6  -9    0.00    0.09 
  -4   6  -9   -0.01    0.12 
   4  -6   9    0.07    0.10 
  -5   6  -9    0.63    0.21 
   5  -6   9    0.53    0.15 
   7   5  -9    1.70    0.27 
   7   5  -9    1.00    0.20 
   6   5  -9    0.48    0.15 
   6   5  -9    0.76    0.19 
   5   5  -9    0.53    0.16 
   5   5  -9    0.43    0.13 
   4   5  -9    0.14    0.11 
   4   5  -9    0.16    0.10 
   3   5  -9    0.16    0.10 
   3   5  -9    0.11    0.08 
   2   5  -9    2.12    0.27 
   1   5  -9    2.32    0.29 
   0   5  -9    0.41    0.14 
  -1   5  -9    1.63    0.25 
  -2   5  -9    1.42    0.23 
  -3   5  -9    1.11    0.22 
  -4   5  -9    0.13    0.11 
   4  -5   9    0.09    0.09 
  -5   5  -9    0.29    0.15 
   5  -5   9    0.34    0.12 
  -6   5  -9    0.18    0.14 
   6  -5   9    0.05    0.10 
   7   4  -9    0.47    0.16 
   6   4  -9    0.28    0.12 
   6   4  -9    0.04    0.11 
   5   4  -9    0.65    0.17 
   5   4  -9    0.55    0.14 
   4   4  -9    1.04    0.19 
   4   4  -9    0.76    0.15 
   3   4  -9    0.28    0.12 
   3   4  -9    0.39    0.11 
   2   4  -9    0.33    0.13 
   2   4  -9    0.69    0.13 
   1   4  -9    2.09    0.26 
   0   4  -9    0.50    0.14 
  -1   4  -9    4.82    0.35 
  -2   4  -9    0.86    0.18 
  -3   4  -9    1.29    0.22 
  -4   4  -9    0.03    0.09 
   4  -4   9    0.00    0.06 
  -5   4  -9    0.65    0.18 
   5  -4   9    0.41    0.11 
  -6   4  -9    0.96    0.22 
   6  -4   9    0.67    0.14 
  -7   4  -9    0.48    0.17 
   7  -4   9    0.27    0.11 
   8   3  -9    0.07    0.13 
   7   3  -9    0.10    0.11 
   6   3  -9    0.80    0.16 
   6   3  -9    0.90    0.18 
   5   3  -9    2.84    0.27 
   5   3  -9    2.82    0.28 
   4   3  -9    1.11    0.17 
   4   3  -9    1.45    0.20 
   3   3  -9    2.49    0.22 
   3   3  -9    2.38    0.25 
   2   3  -9    3.29    0.22 
   2   3  -9    2.96    0.28 
   1   3  -9    1.11    0.18 
   0   3  -9    0.06    0.08 
  -1   3  -9    0.04    0.07 
  -2   3  -9    2.68    0.28 
  -3   3  -9    0.29    0.12 
  -4   3  -9    0.58    0.15 
   4  -3   9    0.64    0.12 
  -5   3  -9    0.19    0.12 
   5  -3   9    0.07    0.07 
  -6   3  -9    0.48    0.16 
   6  -3   9    0.42    0.11 
  -7   3  -9    0.14    0.13 
   7  -3   9    0.13    0.09 
  -8   3  -9    0.27    0.18 
   8  -3   9    0.04    0.11 
   8   2  -9    1.20    0.22 
   7   2  -9    0.21    0.11 
   6   2  -9    1.57    0.22 
   5   2  -9    0.05    0.09 
   5   2  -9   -0.03    0.07 
   4   2  -9    1.30    0.18 
   4   2  -9    0.83    0.16 
   3   2  -9    3.59    0.27 
   3   2  -9    3.97    0.26 
   2   2  -9   -0.05    0.06 
   2   2  -9    0.07    0.07 
   1   2  -9    0.57    0.13 
   1   2  -9    0.81    0.12 
   0   2  -9   -0.01    0.05 
   0   2  -9   -0.06    0.05 
  -1   2  -9    1.07    0.18 
  -2   2  -9    3.87    0.30 
  -3   2  -9    0.13    0.10 
  -4   2  -9    3.19    0.32 
   4  -2   9    3.05    0.22 
  -5   2  -9    0.59    0.16 
   5  -2   9    0.42    0.10 
  -6   2  -9    0.11    0.10 
   6  -2   9    0.29    0.10 
  -7   2  -9   -0.16    0.09 
   7  -2   9    0.03    0.07 
  -8   2  -9    0.38    0.17 
   8   1  -9    0.16    0.12 
   7   1  -9    0.07    0.10 
   6   1  -9    0.06    0.09 
   5   1  -9    0.49    0.14 
   4   1  -9    0.12    0.07 
   4   1  -9    0.05    0.08 
   3   1  -9    3.46    0.25 
   3   1  -9    3.45    0.24 
   2   1  -9    9.33    0.42 
   2   1  -9    8.88    0.44 
   1   1  -9   19.44    0.71 
   1   1  -9   20.24    0.78 
   0   1  -9    4.07    0.28 
  -1   1  -9   19.63    0.78 
  -1   1  -9   19.12    0.66 
  -2   1  -9   13.19    0.61 
  -3   1  -9    0.20    0.10 
  -4   1  -9    0.07    0.08 
  -5   1  -9    0.25    0.11 
   5  -1   9    0.34    0.09 
  -6   1  -9    0.43    0.15 
   6  -1   9    0.52    0.11 
  -7   1  -9    0.37    0.17 
  -8   1  -9    0.13    0.14 
   8   0  -9    1.03    0.22 
   7   0  -9    0.15    0.11 
   6   0  -9    0.34    0.12 
   5   0  -9    0.59    0.14 
   4   0  -9    0.60    0.14 
   3   0  -9    6.21    0.34 
   3   0  -9    5.61    0.31 
   2   0  -9    9.46    0.43 
   2   0  -9    9.26    0.43 
   1   0  -9    3.58    0.24 
   1   0  -9    3.36    0.21 
   0   0  -9    1.69    0.20 
   0   0  -9    1.96    0.16 
  -1   0  -9    2.08    0.22 
  -1   0  -9    2.09    0.15 
  -2   0  -9    0.37    0.12 
  -2   0  -9    0.44    0.07 
  -3   0  -9    4.99    0.34 
  -4   0  -9    3.05    0.30 
  -5   0  -9    0.01    0.07 
   5   0   9    0.12    0.06 
  -6   0  -9    0.06    0.11 
  -7   0  -9    0.24    0.13 
  -8   0  -9    0.41    0.16 
  -9   0  -9   -0.06    0.13 
   8  -1  -9    0.60    0.17 
   7  -1  -9    0.35    0.13 
   6  -1  -9    1.17    0.21 
   5  -1  -9    4.79    0.32 
   4  -1  -9    0.00    0.07 
   3  -1  -9    0.36    0.11 
   3  -1  -9    0.37    0.08 
   2  -1  -9    2.00    0.19 
   2  -1  -9    1.94    0.16 
   1  -1  -9   19.37    0.72 
   1  -1  -9   20.00    0.74 
   0  -1  -9   29.04    0.98 
   0  -1  -9   29.01    1.04 
  -1  -1  -9    7.36    0.32 
  -1  -1  -9    7.03    0.38 
  -2  -1  -9    0.02    0.06 
  -2  -1  -9    0.08    0.05 
  -3  -1  -9    0.94    0.11 
  -3  -1  -9    1.01    0.18 
  -4  -1  -9    4.19    0.31 
  -5  -1  -9    0.02    0.08 
  -6  -1  -9    2.37    0.30 
  -7  -1  -9    0.16    0.11 
  -8  -1  -9    1.08    0.24 
  -9  -1  -9    0.11    0.14 
   8  -2  -9    0.09    0.14 
   7  -2  -9    1.66    0.25 
   6  -2  -9    0.66    0.15 
   5  -2  -9    0.99    0.18 
   4  -2  -9    3.00    0.24 
   3  -2  -9    6.62    0.36 
   2  -2  -9    0.04    0.07 
   2  -2  -9    0.15    0.05 
   1  -2  -9   22.08    0.80 
   1  -2  -9   22.56    0.81 
   0  -2  -9   11.00    0.45 
   0  -2  -9   10.05    0.46 
  -1  -2  -9    3.11    0.22 
  -1  -2  -9    2.80    0.19 
  -2  -2  -9    0.20    0.09 
  -2  -2  -9    0.23    0.07 
  -3  -2  -9    0.08    0.07 
  -3  -2  -9    0.00    0.04 
  -4  -2  -9    1.29    0.21 
  -4  -2  -9    1.22    0.13 
  -5  -2  -9    0.92    0.19 
  -6  -2  -9    2.30    0.30 
  -7  -2  -9    3.15    0.36 
  -8  -2  -9    0.16    0.10 
  -9  -2  -9    0.06    0.13 
   8  -3  -9    0.63    0.20 
   7  -3  -9    1.71    0.24 
   6  -3  -9    0.02    0.08 
   5  -3  -9    0.29    0.11 
   4  -3  -9    0.60    0.14 
   3  -3  -9    8.40    0.43 
   2  -3  -9    5.16    0.31 
   1  -3  -9    4.78    0.28 
   1  -3  -9    4.78    0.26 
   0  -3  -9    4.37    0.26 
   0  -3  -9    3.64    0.24 
  -1  -3  -9   20.32    0.76 
  -1  -3  -9   21.97    0.80 
  -2  -3  -9    5.58    0.29 
  -2  -3  -9    4.87    0.31 
  -3  -3  -9    0.57    0.13 
  -3  -3  -9    0.56    0.11 
  -4  -3  -9    1.71    0.23 
  -4  -3  -9    1.84    0.17 
  -5  -3  -9    0.05    0.05 
  -5  -3  -9   -0.03    0.07 
  -6  -3  -9    0.39    0.15 
  -7  -3  -9    1.81    0.29 
  -8  -3  -9    0.37    0.15 
  -9  -3  -9    0.30    0.17 
   7  -4  -9   -0.04    0.10 
   6  -4  -9    0.20    0.11 
   5  -4  -9    0.79    0.16 
   4  -4  -9    0.50    0.13 
   3  -4  -9    8.42    0.44 
   2  -4  -9   27.37    1.00 
   1  -4  -9    2.74    0.22 
   0  -4  -9   12.29    0.52 
   0  -4  -9   12.98    0.54 
  -1  -4  -9    5.19    0.30 
  -1  -4  -9    4.64    0.28 
  -2  -4  -9    0.43    0.11 
  -2  -4  -9    0.35    0.11 
  -3  -4  -9    0.33    0.10 
  -3  -4  -9    0.23    0.10 
  -4  -4  -9    0.28    0.11 
  -4  -4  -9    0.32    0.10 
  -5  -4  -9    0.07    0.07 
  -5  -4  -9    0.18    0.09 
  -6  -4  -9    0.86    0.18 
  -7  -4  -9    0.10    0.12 
  -8  -4  -9    0.14    0.13 
  -9  -4  -9    1.15    0.26 
   7  -5  -9    0.57    0.17 
   6  -5  -9    1.00    0.19 
   5  -5  -9    0.20    0.10 
   4  -5  -9    1.77    0.22 
   3  -5  -9    1.82    0.22 
   2  -5  -9    1.64    0.20 
   1  -5  -9    2.61    0.24 
   0  -5  -9   12.37    0.51 
   0  -5  -9   13.06    0.57 
  -1  -5  -9    0.07    0.07 
  -1  -5  -9    0.16    0.06 
  -2  -5  -9    9.68    0.48 
  -2  -5  -9   10.00    0.47 
  -3  -5  -9    3.21    0.27 
  -3  -5  -9    3.66    0.26 
  -4  -5  -9    2.06    0.26 
  -4  -5  -9    2.25    0.23 
  -5  -5  -9    4.61    0.35 
  -5  -5  -9    5.07    0.33 
  -6  -5  -9    1.40    0.20 
  -6  -5  -9    1.56    0.25 
  -7  -5  -9    1.25    0.25 
  -8  -5  -9   -0.10    0.11 
  -9  -5  -9    0.38    0.19 
   6  -6  -9    0.56    0.16 
   5  -6  -9    0.21    0.12 
   4  -6  -9    0.23    0.10 
   3  -6  -9    0.64    0.14 
   2  -6  -9   -0.02    0.07 
   1  -6  -9   -0.01    0.07 
   0  -6  -9   10.86    0.52 
  -1  -6  -9    0.43    0.12 
  -1  -6  -9    0.49    0.10 
  -2  -6  -9    4.82    0.31 
  -2  -6  -9    4.64    0.31 
  -3  -6  -9    0.91    0.16 
  -3  -6  -9    0.96    0.18 
  -4  -6  -9    0.76    0.17 
  -4  -6  -9    0.77    0.16 
  -5  -6  -9    1.15    0.22 
  -5  -6  -9    0.89    0.18 
  -6  -6  -9    0.08    0.10 
  -6  -6  -9    0.07    0.10 
  -7  -6  -9    0.53    0.15 
  -7  -6  -9    0.72    0.19 
  -8  -6  -9    0.16    0.16 
  -9  -6  -9    0.54    0.22 
   6  -7  -9    0.60    0.17 
   5  -7  -9    0.72    0.17 
   4  -7  -9    0.05    0.08 
   3  -7  -9    0.14    0.09 
   2  -7  -9   -0.06    0.06 
   1  -7  -9    0.67    0.16 
   0  -7  -9    1.55    0.22 
  -1  -7  -9    0.05    0.08 
  -2  -7  -9    2.41    0.24 
  -2  -7  -9    2.54    0.27 
  -3  -7  -9    6.37    0.40 
  -3  -7  -9    7.31    0.42 
  -4  -7  -9   -0.01    0.07 
  -4  -7  -9   -0.02    0.08 
  -5  -7  -9    0.19    0.11 
  -5  -7  -9    0.12    0.11 
  -6  -7  -9   -0.02    0.09 
  -6  -7  -9    0.06    0.11 
  -7  -7  -9    1.48    0.26 
  -7  -7  -9    1.83    0.26 
  -8  -7  -9   -0.08    0.15 
   5  -8  -9    0.79    0.20 
   5  -8  -9    0.84    0.19 
   4  -8  -9    0.32    0.14 
   3  -8  -9    0.14    0.10 
   2  -8  -9    0.33    0.12 
   1  -8  -9    0.25    0.11 
   0  -8  -9    2.13    0.26 
  -1  -8  -9    0.55    0.15 
  -2  -8  -9    1.17    0.20 
  -3  -8  -9    0.20    0.11 
  -3  -8  -9    0.09    0.10 
  -4  -8  -9    0.07    0.10 
  -4  -8  -9   -0.05    0.08 
  -5  -8  -9    1.30    0.23 
  -5  -8  -9    1.44    0.24 
  -6  -8  -9    0.23    0.13 
  -6  -8  -9    0.33    0.16 
  -7  -8  -9    1.04    0.22 
  -7  -8  -9    1.20    0.27 
   3  -9  -9    0.01    0.11 
   2  -9  -9    0.03    0.11 
   1  -9  -9    0.59    0.16 
   0  -9  -9    0.33    0.13 
  -1  -9  -9    0.19    0.12 
  -2  -9  -9    0.10    0.10 
  -3  -9  -9    0.68    0.19 
  -4  -9  -9   -0.01    0.11 
   4   9   9    0.02    0.09 
  -5  -9  -9    0.41    0.16 
   5   9   9    0.57    0.14 
  -6  -9  -9    0.25    0.15 
   6   9   9    0.27    0.13 
  -7  -9  -9    0.00    0.14 
   7   9   9    0.07    0.12 
   2 -10  -9   -0.07    0.13 
   1 -10  -9    0.63    0.20 
   0 -10  -9    0.18    0.13 
  -1 -10  -9    0.30    0.15 
  -2 -10  -9    0.32    0.14 
  -3 -10  -9    1.70    0.28 
  -4 -10  -9    0.90    0.23 
  -5 -10  -9   -0.06    0.13 
   5  10   9   -0.06    0.10 
  -2 -11  -9    0.31    0.16 
   4   7 -10    0.18    0.18 
   3   7 -10    0.58    0.21 
   2   7 -10    0.14    0.15 
   1   7 -10    0.69    0.22 
   0   7 -10    0.17    0.15 
  -1   7 -10    0.15    0.13 
  -2   7 -10    0.18    0.15 
   5   6 -10    0.85    0.20 
   5   6 -10    0.89    0.23 
   4   6 -10    0.11    0.14 
   3   6 -10    1.73    0.28 
   2   6 -10    0.02    0.10 
   1   6 -10    1.05    0.23 
   0   6 -10    0.65    0.19 
  -1   6 -10    0.35    0.14 
  -2   6 -10    0.15    0.12 
  -3   6 -10    0.54    0.18 
  -4   6 -10    0.15    0.15 
   6   5 -10    0.80    0.20 
   6   5 -10    0.95    0.19 
   5   5 -10    0.71    0.18 
   5   5 -10    0.67    0.16 
   4   5 -10    0.51    0.13 
   4   5 -10    0.19    0.13 
   3   5 -10    0.82    0.20 
   2   5 -10    0.56    0.17 
   1   5 -10    1.17    0.22 
   0   5 -10    0.56    0.18 
  -1   5 -10    0.34    0.15 
  -2   5 -10    1.17    0.22 
  -3   5 -10    0.48    0.16 
  -4   5 -10    0.03    0.11 
  -5   5 -10   -0.01    0.13 
   5  -5  10    0.00    0.11 
   7   4 -10    0.06    0.15 
   6   4 -10    0.14    0.12 
   6   4 -10    0.18    0.13 
   5   4 -10    1.31    0.21 
   5   4 -10    0.95    0.19 
   4   4 -10    3.81    0.28 
   4   4 -10    3.59    0.34 
   3   4 -10    0.63    0.17 
   3   4 -10    0.53    0.13 
   2   4 -10    3.57    0.34 
   1   4 -10    1.14    0.21 
   0   4 -10    0.51    0.16 
  -1   4 -10    0.34    0.14 
  -2   4 -10    2.17    0.29 
  -3   4 -10    0.13    0.11 
  -4   4 -10    0.64    0.18 
  -5   4 -10    0.32    0.14 
   5  -4  10    0.32    0.11 
  -6   4 -10    0.14    0.15 
   6  -4  10    0.07    0.09 
   7   3 -10    0.49    0.16 
   6   3 -10    0.16    0.11 
   5   3 -10    3.51    0.29 
   5   3 -10    3.38    0.30 
   4   3 -10    0.64    0.15 
   4   3 -10    0.53    0.14 
   3   3 -10    0.03    0.09 
   3   3 -10    0.08    0.10 
   2   3 -10    0.29    0.11 
   2   3 -10    0.43    0.12 
   1   3 -10    0.64    0.16 
   0   3 -10    1.24    0.21 
  -1   3 -10    0.05    0.09 
  -2   3 -10    2.66    0.31 
  -3   3 -10    4.03    0.38 
  -4   3 -10    1.92    0.28 
  -5   3 -10    0.66    0.19 
   5  -3  10    0.45    0.12 
  -6   3 -10    0.34    0.15 
   6  -3  10    0.40    0.12 
  -7   3 -10    0.08    0.15 
   7  -3  10    0.33    0.12 
   7   2 -10    0.27    0.14 
   6   2 -10    0.16    0.13 
   5   2 -10    1.77    0.24 
   4   2 -10    1.28    0.19 
   4   2 -10    1.20    0.19 
   3   2 -10    0.86    0.17 
   3   2 -10    0.94    0.16 
   2   2 -10    0.73    0.16 
   2   2 -10    0.97    0.15 
   1   2 -10    0.04    0.06 
   1   2 -10    0.00    0.07 
   0   2 -10    0.23    0.10 
  -1   2 -10    2.56    0.27 
  -2   2 -10   -0.01    0.06 
  -3   2 -10    4.71    0.36 
  -4   2 -10    0.37    0.14 
  -5   2 -10    0.51    0.15 
   5  -2  10    0.52    0.12 
  -6   2 -10    0.28    0.13 
   6  -2  10    0.35    0.10 
  -7   2 -10    0.16    0.14 
   8   1 -10    0.75    0.21 
   7   1 -10    0.01    0.10 
   6   1 -10    0.15    0.11 
   5   1 -10   -0.03    0.09 
   4   1 -10    4.26    0.30 
   4   1 -10    4.66    0.31 
   3   1 -10    2.01    0.22 
   3   1 -10    2.46    0.24 
   2   1 -10    2.26    0.21 
   2   1 -10    2.36    0.24 
   1   1 -10    0.02    0.06 
   1   1 -10    0.05    0.08 
   0   1 -10    0.01    0.04 
   0   1 -10    0.00    0.06 
  -1   1 -10    0.53    0.14 
  -2   1 -10    2.66    0.29 
  -3   1 -10    0.41    0.13 
  -4   1 -10    1.04    0.21 
  -5   1 -10    2.37    0.31 
  -6   1 -10    0.35    0.14 
   6  -1  10    0.10    0.07 
  -7   1 -10    0.22    0.13 
  -8   1 -10    0.18    0.17 
   8   0 -10    0.23    0.17 
   7   0 -10    0.07    0.13 
   6   0 -10    1.56    0.24 
   5   0 -10    0.19    0.11 
   4   0 -10    0.07    0.09 
   3   0 -10    0.14    0.08 
   3   0 -10   -0.02    0.07 
   2   0 -10    5.47    0.33 
   2   0 -10    5.46    0.31 
   1   0 -10    0.91    0.13 
   1   0 -10    0.56    0.13 
   0   0 -10    0.64    0.14 
   0   0 -10    0.74    0.11 
  -1   0 -10    4.37    0.23 
  -1   0 -10    4.53    0.32 
  -2   0 -10    0.06    0.07 
  -3   0 -10    6.61    0.42 
  -4   0 -10    0.81    0.18 
  -5   0 -10    1.91    0.28 
  -6   0 -10    1.60    0.27 
  -7   0 -10    0.43    0.15 
  -8   0 -10    0.98    0.24 
   8  -1 -10    0.02    0.12 
   7  -1 -10    0.17    0.13 
   6  -1 -10    0.45    0.15 
   5  -1 -10    0.91    0.18 
   4  -1 -10    0.07    0.09 
   3  -1 -10    1.35    0.18 
   2  -1 -10    3.03    0.22 
   1  -1 -10    0.37    0.10 
   1  -1 -10    0.55    0.13 
   0  -1 -10    5.26    0.33 
   0  -1 -10    4.95    0.28 
  -1  -1 -10    8.01    0.36 
  -1  -1 -10    8.37    0.44 
  -2  -1 -10    0.14    0.09 
  -2  -1 -10    0.08    0.06 
  -3  -1 -10    3.93    0.31 
  -4  -1 -10    0.16    0.10 
  -5  -1 -10    2.77    0.32 
  -6  -1 -10    0.96    0.19 
  -7  -1 -10    0.12    0.11 
  -8  -1 -10   -0.08    0.12 
   7  -2 -10    0.51    0.16 
   6  -2 -10    0.63    0.16 
   5  -2 -10    1.01    0.19 
   4  -2 -10    0.02    0.08 
   3  -2 -10    0.03    0.07 
   2  -2 -10    0.80    0.14 
   1  -2 -10    1.34    0.16 
   1  -2 -10    1.56    0.18 
   0  -2 -10    0.19    0.08 
   0  -2 -10    0.00    0.07 
  -1  -2 -10    4.58    0.30 
  -1  -2 -10    3.94    0.24 
  -2  -2 -10   10.45    0.45 
  -2  -2 -10   10.91    0.53 
  -3  -2 -10    3.37    0.27 
  -3  -2 -10    2.38    0.18 
  -4  -2 -10   -0.04    0.07 
  -5  -2 -10   12.54    0.64 
  -6  -2 -10    0.58    0.18 
  -7  -2 -10    0.07    0.09 
  -8  -2 -10    0.16    0.14 
  -9  -2 -10    0.00    0.17 
   7  -3 -10    0.34    0.14 
   6  -3 -10    0.28    0.12 
   5  -3 -10    0.06    0.08 
   4  -3 -10    0.35    0.11 
   3  -3 -10    0.25    0.10 
   2  -3 -10    3.43    0.25 
   1  -3 -10    0.17    0.06 
   1  -3 -10    0.05    0.07 
   0  -3 -10    2.58    0.22 
   0  -3 -10    2.37    0.19 
  -1  -3 -10    7.29    0.40 
  -1  -3 -10    7.95    0.38 
  -2  -3 -10   15.72    0.70 
  -2  -3 -10   17.21    0.65 
  -3  -3 -10    6.54    0.39 
  -3  -3 -10    5.65    0.32 
  -4  -3 -10    1.39    0.16 
  -4  -3 -10    1.34    0.22 
  -5  -3 -10    0.90    0.20 
  -6  -3 -10    2.58    0.33 
  -7  -3 -10    0.86    0.21 
  -8  -3 -10    0.22    0.14 
  -9  -3 -10    0.08    0.18 
   7  -4 -10    0.30    0.16 
   6  -4 -10    0.40    0.15 
   5  -4 -10    0.31    0.12 
   4  -4 -10    0.73    0.16 
   3  -4 -10    0.49    0.12 
   2  -4 -10    0.34    0.11 
   1  -4 -10    5.29    0.32 
   0  -4 -10    3.06    0.23 
   0  -4 -10    3.07    0.21 
  -1  -4 -10    2.99    0.23 
  -1  -4 -10    3.08    0.23 
  -2  -4 -10    3.93    0.28 
  -2  -4 -10    3.72    0.26 
  -3  -4 -10    0.52    0.12 
  -3  -4 -10    0.60    0.14 
  -4  -4 -10    7.60    0.40 
  -4  -4 -10    8.02    0.46 
  -5  -4 -10    0.25    0.12 
  -5  -4 -10    0.17    0.12 
  -6  -4 -10    0.62    0.18 
  -7  -4 -10    0.79    0.21 
  -8  -4 -10    1.38    0.29 
  -9  -4 -10    0.15    0.18 
   6  -5 -10    0.34    0.15 
   5  -5 -10    1.64    0.24 
   4  -5 -10    0.51    0.13 
   3  -5 -10    3.07    0.29 
   2  -5 -10    0.28    0.10 
   1  -5 -10    2.42    0.24 
   0  -5 -10    0.07    0.08 
  -1  -5 -10    2.42    0.23 
  -1  -5 -10    3.00    0.26 
  -2  -5 -10    0.40    0.11 
  -2  -5 -10    0.71    0.15 
  -3  -5 -10   10.53    0.54 
  -3  -5 -10   10.64    0.51 
  -4  -5 -10   14.23    0.70 
  -4  -5 -10   16.18    0.67 
  -5  -5 -10    0.14    0.11 
  -5  -5 -10    0.21    0.11 
  -6  -5 -10    0.16    0.12 
  -7  -5 -10    0.49    0.17 
  -8  -5 -10    0.68    0.23 
   6  -6 -10    1.06    0.22 
   5  -6 -10    0.23    0.13 
   4  -6 -10    0.30    0.12 
   3  -6 -10    1.10    0.19 
   2  -6 -10    0.26    0.11 
   1  -6 -10    0.20    0.10 
   0  -6 -10    2.28    0.24 
  -1  -6 -10    9.57    0.49 
  -2  -6 -10    0.41    0.12 
  -2  -6 -10    0.40    0.13 
  -3  -6 -10    9.07    0.48 
  -3  -6 -10    9.73    0.51 
  -4  -6 -10    0.98    0.18 
  -4  -6 -10    0.89    0.19 
  -5  -6 -10    0.64    0.16 
  -5  -6 -10    0.19    0.12 
  -6  -6 -10    0.92    0.21 
  -6  -6 -10    0.61    0.15 
  -7  -6 -10    0.06    0.14 
  -8  -6 -10    0.01    0.16 
   5  -7 -10    0.92    0.21 
   4  -7 -10    0.56    0.15 
   3  -7 -10    0.68    0.16 
   2  -7 -10    0.39    0.13 
   1  -7 -10    0.02    0.07 
   0  -7 -10    0.26    0.11 
  -1  -7 -10    2.30    0.26 
  -2  -7 -10    5.17    0.36 
  -3  -7 -10    1.04    0.19 
  -4  -7 -10    1.43    0.23 
  -4  -7 -10    1.15    0.21 
  -5  -7 -10    3.82    0.37 
  -5  -7 -10    4.25    0.34 
  -6  -7 -10    0.81    0.21 
  -6  -7 -10    0.40    0.15 
  -7  -7 -10    0.02    0.14 
  -7  -7 -10    0.04    0.12 
  -8  -7 -10    0.34    0.22 
   4  -8 -10    1.60    0.27 
   3  -8 -10    1.16    0.22 
   2  -8 -10    0.03    0.11 
   1  -8 -10    0.02    0.09 
   0  -8 -10    0.18    0.11 
  -1  -8 -10    1.00    0.20 
  -2  -8 -10    3.23    0.32 
  -3  -8 -10    0.66    0.16 
  -3  -8 -10    0.66    0.17 
  -4  -8 -10    1.44    0.24 
  -4  -8 -10    1.61    0.24 
  -5  -8 -10    0.24    0.13 
  -5  -8 -10    0.85    0.20 
  -6  -8 -10    0.46    0.17 
  -6  -8 -10    0.40    0.16 
  -7  -8 -10    0.03    0.14 
  -7  -8 -10    0.10    0.18 
   3  -9 -10    2.30    0.32 
   2  -9 -10    0.10    0.12 
   1  -9 -10    0.00    0.11 
   0  -9 -10    0.06    0.13 
  -1  -9 -10    0.56    0.16 
  -2  -9 -10    0.10    0.11 
  -3  -9 -10   -0.03    0.12 
  -4  -9 -10    1.53    0.26 
   4   9  10    1.23    0.21 
  -5  -9 -10   -0.01    0.13 
   5   9  10    0.12    0.10 
  -6  -9 -10    0.59    0.21 
   6   9  10    0.61    0.17 
   1 -10 -10    0.76    0.20 
   0 -10 -10    0.19    0.15 
  -1 -10 -10   -0.04    0.12 
  -2 -10 -10    0.54    0.19 
  -3 -10 -10    0.07    0.14 
  -4 -10 -10    0.55    0.21 
   4   6 -11    0.15    0.18 
   3   6 -11    0.15    0.16 
   2   6 -11    0.23    0.17 
   1   6 -11    0.22    0.16 
   0   6 -11    0.90    0.25 
  -1   6 -11   -0.06    0.10 
  -2   6 -11    0.07    0.15 
  -3   6 -11    0.87    0.25 
   5   5 -11    0.33    0.16 
   5   5 -11   -0.14    0.12 
   4   5 -11    1.03    0.22 
   3   5 -11    0.19    0.14 
   2   5 -11    0.76    0.19 
   1   5 -11    0.47    0.17 
   0   5 -11    0.63    0.19 
  -1   5 -11    0.94    0.22 
  -2   5 -11    0.77    0.20 
  -3   5 -11    0.21    0.13 
  -4   5 -11    0.31    0.18 
   6   4 -11    0.02    0.12 
   5   4 -11    0.43    0.14 
   5   4 -11    0.20    0.14 
   4   4 -11    1.21    0.20 
   4   4 -11    1.23    0.22 
   3   4 -11    0.62    0.18 
   2   4 -11    0.52    0.15 
   1   4 -11    0.96    0.20 
   0   4 -11    0.08    0.11 
  -1   4 -11    1.19    0.24 
  -2   4 -11    0.53    0.17 
  -3   4 -11    0.83    0.20 
  -4   4 -11    0.07    0.12 
  -5   4 -11    0.03    0.14 
   6   3 -11   -0.03    0.12 
   5   3 -11    2.67    0.29 
   5   3 -11    2.39    0.29 
   4   3 -11    0.04    0.10 
   4   3 -11    0.23    0.12 
   3   3 -11    2.45    0.23 
   3   3 -11    1.94    0.26 
   2   3 -11    0.15    0.11 
   1   3 -11    0.37    0.14 
   0   3 -11    0.02    0.08 
  -1   3 -11    0.63    0.17 
  -2   3 -11    0.74    0.19 
  -3   3 -11    4.79    0.39 
  -4   3 -11    0.12    0.11 
  -5   3 -11    0.89    0.23 
  -6   3 -11    0.09    0.13 
   6  -3  11   -0.06    0.09 
   7   2 -11    0.02    0.15 
   6   2 -11    0.87    0.19 
   5   2 -11    0.50    0.16 
   4   2 -11    0.75    0.16 
   4   2 -11    0.96    0.18 
   3   2 -11    0.88    0.18 
   3   2 -11    0.67    0.15 
   2   2 -11   -0.07    0.08 
   2   2 -11    0.06    0.09 
   1   2 -11    0.93    0.19 
   0   2 -11    0.44    0.14 
  -1   2 -11    2.18    0.27 
  -2   2 -11    3.31    0.34 
  -3   2 -11    0.03    0.09 
  -4   2 -11    0.33    0.14 
  -5   2 -11    0.72    0.20 
  -6   2 -11    0.12    0.12 
  -7   2 -11    0.08    0.17 
   7   1 -11    0.00    0.15 
   6   1 -11    0.40    0.15 
   5   1 -11    1.01    0.21 
   4   1 -11    1.13    0.19 
   3   1 -11    0.77    0.15 
   3   1 -11    0.89    0.18 
   2   1 -11   -0.02    0.08 
   2   1 -11    0.00    0.08 
   1   1 -11    1.03    0.15 
   1   1 -11    0.95    0.18 
   0   1 -11    0.24    0.11 
  -1   1 -11    0.54    0.14 
  -2   1 -11    1.56    0.24 
  -3   1 -11    0.15    0.10 
  -4   1 -11    0.97    0.22 
  -5   1 -11    0.17    0.12 
  -6   1 -11    0.59    0.18 
  -7   1 -11    0.08    0.14 
   7   0 -11    0.16    0.14 
   6   0 -11    0.59    0.17 
   5   0 -11    1.72    0.24 
   4   0 -11   -0.01    0.11 
   3   0 -11    1.87    0.22 
   2   0 -11    0.36    0.11 
   2   0 -11    0.46    0.13 
   1   0 -11    2.59    0.26 
   1   0 -11    2.83    0.22 
   0   0 -11    0.24    0.10 
   0   0 -11    0.31    0.12 
  -1   0 -11    0.61    0.15 
  -2   0 -11   -0.01    0.07 
  -3   0 -11    0.32    0.14 
  -4   0 -11    0.25    0.11 
  -5   0 -11    0.32    0.15 
  -6   0 -11    1.17    0.24 
  -7   0 -11   -0.05    0.12 
  -8   0 -11    0.85    0.26 
   7  -1 -11    0.49    0.18 
   6  -1 -11    0.30    0.14 
   5  -1 -11    0.14    0.10 
   4  -1 -11    0.32    0.11 
   3  -1 -11    1.96    0.22 
   2  -1 -11    1.16    0.18 
   2  -1 -11    1.24    0.18 
   1  -1 -11    2.65    0.26 
   1  -1 -11    3.18    0.23 
   0  -1 -11    0.70    0.12 
   0  -1 -11    0.77    0.16 
  -1  -1 -11    0.00    0.06 
  -1  -1 -11    0.01    0.07 
  -2  -1 -11    0.90    0.19 
  -3  -1 -11    0.11    0.10 
  -4  -1 -11    0.03    0.09 
  -5  -1 -11    0.33    0.13 
  -6  -1 -11    0.27    0.14 
  -7  -1 -11    0.66    0.19 
  -8  -1 -11    0.11    0.15 
   7  -2 -11    0.06    0.14 
   6  -2 -11    1.34    0.23 
   5  -2 -11    0.04    0.10 
   4  -2 -11    0.41    0.12 
   3  -2 -11   -0.02    0.07 
   2  -2 -11    1.12    0.17 
   1  -2 -11    0.61    0.13 
   1  -2 -11    0.65    0.14 
   0  -2 -11    6.05    0.33 
   0  -2 -11    5.26    0.34 
  -1  -2 -11    1.20    0.19 
  -1  -2 -11    0.87    0.14 
  -2  -2 -11    0.30    0.12 
  -2  -2 -11    0.13    0.08 
  -3  -2 -11    1.28    0.22 
  -4  -2 -11    0.91    0.19 
  -5  -2 -11    1.54    0.26 
  -6  -2 -11    0.45    0.16 
  -7  -2 -11    0.68    0.20 
  -8  -2 -11   -0.05    0.15 
   6  -3 -11    0.03    0.11 
   5  -3 -11   -0.04    0.09 
   4  -3 -11    0.20    0.11 
   3  -3 -11    0.09    0.08 
   2  -3 -11    5.07    0.32 
   1  -3 -11    1.66    0.20 
   0  -3 -11    5.94    0.35 
   0  -3 -11    5.57    0.33 
  -1  -3 -11    0.36    0.11 
  -1  -3 -11    0.34    0.10 
  -2  -3 -11    0.22    0.11 
  -2  -3 -11    0.22    0.09 
  -3  -3 -11    2.09    0.25 
  -3  -3 -11    1.28    0.17 
  -4  -3 -11    0.99    0.19 
  -5  -3 -11    3.43    0.36 
  -6  -3 -11    0.38    0.16 
  -7  -3 -11    0.65    0.21 
  -8  -3 -11    0.16    0.17 
   6  -4 -11    0.10    0.12 
   5  -4 -11    0.24    0.13 
   4  -4 -11    0.63    0.15 
   3  -4 -11    1.62    0.22 
   2  -4 -11    0.37    0.11 
   1  -4 -11    1.20    0.18 
   0  -4 -11    0.04    0.08 
  -1  -4 -11    1.15    0.17 
  -1  -4 -11    1.29    0.19 
  -2  -4 -11    2.83    0.23 
  -2  -4 -11    3.05    0.28 
  -3  -4 -11    0.46    0.13 
  -3  -4 -11    0.33    0.12 
  -4  -4 -11    0.65    0.17 
  -4  -4 -11    0.58    0.13 
  -5  -4 -11    5.80    0.42 
  -6  -4 -11   -0.03    0.09 
  -7  -4 -11    4.31    0.46 
  -8  -4 -11    0.16    0.18 
   6  -5 -11    0.23    0.14 
   5  -5 -11    0.09    0.11 
   4  -5 -11    0.18    0.12 
   3  -5 -11    0.44    0.13 
   2  -5 -11    1.73    0.22 
   1  -5 -11    0.21    0.09 
   0  -5 -11    0.05    0.08 
  -1  -5 -11    1.41    0.19 
  -1  -5 -11    1.24    0.19 
  -2  -5 -11    0.16    0.10 
  -2  -5 -11   -0.02    0.08 
  -3  -5 -11   -0.05    0.07 
  -3  -5 -11    0.15    0.09 
  -4  -5 -11    1.03    0.18 
  -4  -5 -11    0.94    0.19 
  -5  -5 -11    2.92    0.28 
  -5  -5 -11    3.40    0.36 
  -6  -5 -11    0.84    0.21 
  -7  -5 -11    2.30    0.35 
  -8  -5 -11    0.04    0.17 
   5  -6 -11    0.31    0.15 
   4  -6 -11    1.55    0.24 
   3  -6 -11    0.39    0.14 
   2  -6 -11    0.03    0.08 
   1  -6 -11    0.09    0.10 
   0  -6 -11    0.35    0.11 
  -1  -6 -11    0.15    0.10 
  -2  -6 -11    2.34    0.26 
  -2  -6 -11    1.95    0.24 
  -3  -6 -11    0.94    0.19 
  -3  -6 -11    1.30    0.20 
  -4  -6 -11    1.48    0.25 
  -4  -6 -11    1.83    0.24 
  -5  -6 -11    0.76    0.19 
  -5  -6 -11    0.87    0.19 
  -6  -6 -11    2.05    0.31 
  -7  -6 -11    1.17    0.28 
   4  -7 -11    0.60    0.18 
   3  -7 -11    1.31    0.23 
   2  -7 -11    0.13    0.10 
   1  -7 -11    0.33    0.12 
   0  -7 -11    1.23    0.21 
  -1  -7 -11    1.19    0.21 
  -2  -7 -11    0.14    0.11 
  -3  -7 -11    0.61    0.17 
  -3  -7 -11    0.76    0.18 
  -4  -7 -11   -0.09    0.09 
  -4  -7 -11    0.01    0.10 
  -5  -7 -11    0.45    0.16 
  -5  -7 -11    0.66    0.18 
  -6  -7 -11    2.11    0.28 
  -6  -7 -11    2.27    0.33 
  -7  -7 -11    0.41    0.20 
   3  -8 -11    0.89    0.21 
   2  -8 -11    0.00    0.11 
   1  -8 -11    0.75    0.19 
   0  -8 -11    0.02    0.09 
  -1  -8 -11    0.75    0.18 
  -2  -8 -11    0.22    0.13 
  -3  -8 -11    1.42    0.24 
  -4  -8 -11    0.24    0.14 
  -4  -8 -11    0.19    0.12 
  -5  -8 -11    0.64    0.19 
  -5  -8 -11    0.55    0.17 
  -6  -8 -11   -0.04    0.15 
  -6  -8 -11    0.16    0.15 
   1  -9 -11    0.80    0.21 
   0  -9 -11    0.54    0.17 
  -1  -9 -11    0.27    0.16 
  -2  -9 -11    0.14    0.13 
  -3  -9 -11    1.21    0.24 
  -4  -9 -11    1.47    0.27 
  -5  -9 -11    0.42    0.17 
  -5  -9 -11    0.55    0.21 
   3   5 -12    0.23    0.17 
   2   5 -12    0.23    0.16 
   1   5 -12    1.86    0.32 
   0   5 -12    0.20    0.18 
  -1   5 -12    0.11    0.14 
  -2   5 -12    0.38    0.17 
  -3   5 -12    0.92    0.26 
   4   4 -12    0.24    0.16 
   3   4 -12   -0.06    0.11 
   2   4 -12    0.19    0.14 
   1   4 -12    0.72    0.21 
   0   4 -12    0.50    0.17 
  -1   4 -12    0.89    0.22 
  -2   4 -12    0.20    0.16 
  -3   4 -12    0.81    0.21 
  -4   4 -12   -0.03    0.14 
   5   3 -12    0.13    0.13 
   4   3 -12    1.64    0.25 
   4   3 -12    1.63    0.23 
   3   3 -12   -0.09    0.10 
   2   3 -12    0.29    0.13 
   1   3 -12    0.01    0.10 
   0   3 -12    0.74    0.19 
  -1   3 -12    0.40    0.15 
  -2   3 -12    0.68    0.19 
  -3   3 -12    0.12    0.15 
  -4   3 -12    0.33    0.17 
  -5   3 -12    0.47    0.20 
   6   2 -12   -0.05    0.14 
   5   2 -12    0.74    0.20 
   4   2 -12    0.15    0.12 
   3   2 -12    1.43    0.20 
   3   2 -12    1.80    0.25 
   2   2 -12    0.77    0.18 
   1   2 -12   -0.09    0.09 
   0   2 -12    0.39    0.14 
  -1   2 -12    0.53    0.14 
  -2   2 -12    5.29    0.41 
  -3   2 -12    1.09    0.24 
  -4   2 -12    0.87    0.23 
  -5   2 -12    0.45    0.16 
  -6   2 -12    0.08    0.17 
   6   1 -12    0.15    0.15 
   5   1 -12    1.41    0.23 
   4   1 -12    0.67    0.17 
   3   1 -12    1.74    0.22 
   3   1 -12    2.02    0.25 
   2   1 -12    0.61    0.14 
   2   1 -12    0.82    0.17 
   1   1 -12    2.44    0.28 
   0   1 -12   -0.01    0.09 
  -1   1 -12    1.28    0.23 
  -2   1 -12    0.22    0.12 
  -3   1 -12    0.01    0.10 
  -4   1 -12    0.36    0.17 
  -5   1 -12    0.58    0.18 
  -6   1 -12    0.51    0.18 
   6   0 -12   -0.01    0.12 
   5   0 -12    1.21    0.22 
   4   0 -12    2.22    0.26 
   3   0 -12    0.09    0.09 
   2   0 -12    0.84    0.15 
   2   0 -12    0.60    0.15 
   1   0 -12    5.29    0.36 
   1   0 -12    5.20    0.31 
   0   0 -12    0.18    0.11 
  -1   0 -12    0.60    0.16 
  -2   0 -12    0.47    0.16 
  -3   0 -12    0.22    0.12 
  -4   0 -12    0.15    0.13 
  -5   0 -12    0.70    0.21 
  -6   0 -12    0.07    0.11 
  -7   0 -12    0.67    0.23 
   6  -1 -12    0.28    0.15 
   5  -1 -12    0.27    0.13 
   4  -1 -12    1.44    0.22 
   3  -1 -12    0.03    0.08 
   2  -1 -12    6.01    0.36 
   1  -1 -12    0.12    0.09 
   1  -1 -12    0.19    0.11 
   0  -1 -12    0.21    0.09 
   0  -1 -12    0.13    0.11 
  -1  -1 -12    1.26    0.22 
  -2  -1 -12    1.33    0.23 
  -3  -1 -12    0.29    0.12 
  -4  -1 -12    0.81    0.21 
  -5  -1 -12    1.30    0.25 
  -6  -1 -12    1.11    0.26 
  -7  -1 -12    0.32    0.20 
   6  -2 -12    0.18    0.14 
   5  -2 -12    0.26    0.14 
   4  -2 -12    0.22    0.12 
   3  -2 -12    0.13    0.09 
   2  -2 -12    3.22    0.28 
   1  -2 -12    3.26    0.25 
   0  -2 -12    2.86    0.23 
   0  -2 -12    2.95    0.29 
  -1  -2 -12    0.01    0.07 
  -1  -2 -12    0.04    0.08 
  -2  -2 -12    0.25    0.12 
  -3  -2 -12    0.29    0.13 
  -4  -2 -12    0.79    0.20 
  -5  -2 -12    0.69    0.20 
  -6  -2 -12    0.40    0.18 
  -7  -2 -12   -0.08    0.15 
   6  -3 -12   -0.07    0.13 
   5  -3 -12    0.35    0.15 
   4  -3 -12    0.46    0.14 
   3  -3 -12    0.02    0.09 
   2  -3 -12    1.49    0.21 
   1  -3 -12    3.80    0.28 
   0  -3 -12    1.52    0.22 
   0  -3 -12    1.61    0.20 
  -1  -3 -12    3.06    0.30 
  -1  -3 -12    2.75    0.25 
  -2  -3 -12    0.37    0.12 
  -2  -3 -12    0.44    0.13 
  -3  -3 -12    0.02    0.10 
  -4  -3 -12   -0.04    0.08 
  -5  -3 -12    0.86    0.21 
  -6  -3 -12    0.16    0.14 
  -7  -3 -12    0.03    0.14 
   5  -4 -12    0.55    0.18 
   4  -4 -12    0.09    0.12 
   3  -4 -12    2.50    0.28 
   2  -4 -12    2.81    0.29 
   1  -4 -12    0.12    0.10 
   0  -4 -12    0.15    0.10 
  -1  -4 -12    2.67    0.25 
  -1  -4 -12    2.35    0.26 
  -2  -4 -12    0.10    0.08 
  -2  -4 -12    0.04    0.08 
  -3  -4 -12    0.44    0.13 
  -3  -4 -12    0.35    0.13 
  -4  -4 -12    0.77    0.18 
  -5  -4 -12    1.20    0.24 
  -6  -4 -12    1.38    0.27 
  -7  -4 -12    0.30    0.20 
   5  -5 -12    0.11    0.14 
   4  -5 -12    0.12    0.12 
   3  -5 -12    0.08    0.10 
   2  -5 -12    0.80    0.18 
   1  -5 -12    0.14    0.11 
   0  -5 -12    0.20    0.11 
  -1  -5 -12    0.64    0.15 
  -2  -5 -12    0.71    0.15 
  -2  -5 -12    0.50    0.14 
  -3  -5 -12    0.62    0.16 
  -3  -5 -12    0.79    0.17 
  -4  -5 -12    3.42    0.35 
  -4  -5 -12    3.21    0.29 
  -5  -5 -12    0.62    0.18 
  -6  -5 -12    0.26    0.16 
  -7  -5 -12    0.22    0.20 
   4  -6 -12   -0.01    0.13 
   3  -6 -12    0.21    0.13 
   2  -6 -12    0.07    0.11 
   1  -6 -12    0.02    0.10 
   0  -6 -12    0.20    0.12 
  -1  -6 -12    0.59    0.15 
  -2  -6 -12    1.10    0.20 
  -3  -6 -12    0.08    0.10 
  -3  -6 -12    0.16    0.11 
  -4  -6 -12    2.10    0.30 
  -4  -6 -12    1.57    0.23 
  -5  -6 -12    0.57    0.19 
  -6  -6 -12    0.40    0.19 
   3  -7 -12    0.46    0.18 
   2  -7 -12    0.92    0.20 
   1  -7 -12    0.04    0.11 
   0  -7 -12    0.07    0.09 
  -1  -7 -12    2.23    0.27 
  -2  -7 -12    0.24    0.13 
  -3  -7 -12    0.44    0.15 
  -4  -7 -12    0.09    0.12 
  -4  -7 -12    0.10    0.12 
  -5  -7 -12    0.09    0.13 
  -5  -7 -12    0.06    0.13 
  -6  -7 -12    0.11    0.16 
   2  -8 -12    1.15    0.24 
   1  -8 -12    0.00    0.13 
   0  -8 -12    0.55    0.18 
  -1  -8 -12   -0.03    0.11 
  -2  -8 -12    0.59    0.18 
  -3  -8 -12    0.11    0.13 
  -4  -8 -12    0.04    0.13 
  -5  -8 -12    0.13    0.15 
  -5  -8 -12    0.21    0.14 
  -1  -9 -12    0.19    0.17 
  -2  -9 -12    0.58    0.21 
  -3  -9 -12   -0.03    0.15 
   2   4 -13    0.91    0.24 
   1   4 -13    0.35    0.19 
   0   4 -13    0.35    0.18 
  -1   4 -13    0.04    0.15 
  -2   4 -13    0.12    0.18 
   3   3 -13    0.81    0.21 
   2   3 -13    1.07    0.23 
   1   3 -13    0.00    0.13 
   0   3 -13    0.09    0.13 
  -1   3 -13    0.85    0.22 
  -2   3 -13    0.53    0.21 
  -3   3 -13    0.26    0.17 
  -4   3 -13    0.15    0.17 
   4   2 -13    0.53    0.18 
   3   2 -13    1.08    0.23 
   2   2 -13    0.08    0.12 
   1   2 -13    0.09    0.11 
   0   2 -13    0.09    0.11 
  -1   2 -13    0.28    0.16 
  -2   2 -13    0.37    0.18 
  -3   2 -13    1.51    0.28 
  -4   2 -13    0.04    0.16 
  -5   2 -13    0.16    0.16 
   5   1 -13    0.12    0.15 
   4   1 -13    1.69    0.24 
   3   1 -13    0.05    0.11 
   2   1 -13    0.27    0.14 
   1   1 -13    1.56    0.25 
   0   1 -13    0.09    0.11 
  -1   1 -13    0.18    0.14 
  -2   1 -13    3.09    0.36 
  -3   1 -13    0.59    0.18 
  -4   1 -13    0.22    0.18 
  -5   1 -13    0.12    0.18 
   5   0 -13   -0.14    0.12 
   4   0 -13    0.61    0.17 
   3   0 -13    0.68    0.16 
   2   0 -13    2.09    0.24 
   1   0 -13    0.01    0.08 
   0   0 -13    1.09    0.21 
  -1   0 -13    0.78    0.19 
  -2   0 -13    0.35    0.15 
  -3   0 -13    0.01    0.11 
  -4   0 -13    0.60    0.20 
  -5   0 -13    0.56    0.22 
  -6   0 -13    0.63    0.22 
   5  -1 -13   -0.02    0.13 
   4  -1 -13    0.10    0.12 
   3  -1 -13    2.07    0.25 
   2  -1 -13    1.55    0.21 
   1  -1 -13    1.27    0.19 
   1  -1 -13    1.09    0.21 
   0  -1 -13    1.14    0.22 
  -1  -1 -13    0.55    0.16 
  -2  -1 -13    0.29    0.15 
  -3  -1 -13    1.87    0.29 
  -4  -1 -13    0.19    0.13 
  -5  -1 -13    0.05    0.14 
  -6  -1 -13    0.92    0.27 
   5  -2 -13    0.00    0.13 
   4  -2 -13    0.17    0.14 
   3  -2 -13    0.35    0.13 
   2  -2 -13    0.04    0.10 
   1  -2 -13    4.58    0.32 
   0  -2 -13    0.10    0.08 
   0  -2 -13    0.03    0.10 
  -1  -2 -13    3.42    0.34 
  -2  -2 -13    0.03    0.09 
  -3  -2 -13    1.21    0.25 
  -4  -2 -13    0.05    0.10 
  -5  -2 -13    1.42    0.27 
  -6  -2 -13    0.02    0.15 
   5  -3 -13    0.09    0.14 
   4  -3 -13    0.17    0.13 
   3  -3 -13    0.14    0.11 
   2  -3 -13    1.74    0.24 
   1  -3 -13    1.80    0.23 
   0  -3 -13    0.70    0.15 
  -1  -3 -13    0.89    0.16 
  -1  -3 -13    0.88    0.19 
  -2  -3 -13    0.12    0.12 
  -3  -3 -13    0.93    0.20 
  -4  -3 -13    0.66    0.18 
  -5  -3 -13    0.42    0.18 
  -6  -3 -13    0.41    0.21 
   4  -4 -13    0.09    0.12 
   3  -4 -13    0.13    0.12 
   2  -4 -13    0.95    0.18 
   1  -4 -13    0.28    0.12 
   0  -4 -13    2.04    0.25 
  -1  -4 -13    0.09    0.09 
  -2  -4 -13    0.98    0.19 
  -2  -4 -13    1.48    0.20 
  -3  -4 -13    0.49    0.16 
  -4  -4 -13   -0.06    0.09 
  -5  -4 -13    0.46    0.18 
  -6  -4 -13    0.88    0.25 
   4  -5 -13    0.20    0.17 
   3  -5 -13    1.82    0.26 
   2  -5 -13    0.86    0.19 
   1  -5 -13    0.29    0.13 
   0  -5 -13    1.06    0.19 
  -1  -5 -13    0.11    0.10 
  -2  -5 -13    2.18    0.25 
  -3  -5 -13   -0.05    0.10 
  -3  -5 -13    0.05    0.12 
  -4  -5 -13    0.88    0.20 
  -5  -5 -13    0.43    0.18 
  -6  -5 -13   -0.11    0.15 
   3  -6 -13    1.54    0.26 
   2  -6 -13    0.13    0.14 
   1  -6 -13    0.16    0.13 
   0  -6 -13    0.42    0.15 
  -1  -6 -13    0.53    0.16 
  -2  -6 -13    0.46    0.16 
  -3  -6 -13    0.86    0.19 
  -3  -6 -13    0.60    0.18 
  -4  -6 -13    0.08    0.13 
  -5  -6 -13    0.02    0.14 
   2  -7 -13    0.93    0.23 
   1  -7 -13    0.11    0.12 
   0  -7 -13    0.97    0.21 
  -1  -7 -13    0.41    0.15 
  -2  -7 -13    0.32    0.15 
  -3  -7 -13    0.03    0.13 
  -4  -7 -13   -0.05    0.15 
  -4  -7 -13    0.10    0.12 
   0  -8 -13    0.52    0.19 
  -1  -8 -13    0.69    0.21 
  -2  -8 -13    0.90    0.23 
  -3  -8 -13    0.24    0.16 
   1   3 -14    0.52    0.22 
   0   3 -14    0.28    0.19 
  -1   3 -14    0.21    0.20 
   2   2 -14    1.02    0.25 
   1   2 -14    0.00    0.14 
   0   2 -14    2.15    0.33 
  -1   2 -14    0.08    0.16 
  -2   2 -14    1.05    0.27 
  -3   2 -14    1.04    0.29 
   1   1 -14    0.34    0.16 
   0   1 -14    2.76    0.36 
  -1   1 -14    0.17    0.15 
  -2   1 -14    2.50    0.36 
  -3   1 -14    0.10    0.17 
  -4   1 -14    0.04    0.18 
   3   0 -14    0.17    0.14 
   1   0 -14    1.90    0.29 
   0   0 -14    0.34    0.15 
  -1   0 -14    0.93    0.23 
  -2   0 -14    0.64    0.20 
  -3   0 -14    0.35    0.19 
  -4   0 -14    0.62    0.24 
   3  -1 -14    0.77    0.19 
   2  -1 -14    0.19    0.12 
   0  -1 -14    0.15    0.13 
  -1  -1 -14    2.27    0.32 
  -2  -1 -14    0.07    0.11 
  -3  -1 -14    0.11    0.14 
  -4  -1 -14    0.08    0.14 
  -5  -1 -14    0.82    0.26 
   3  -2 -14    1.06    0.21 
   2  -2 -14   -0.10    0.09 
   1  -2 -14    0.32    0.13 
  -1  -2 -14    1.78    0.27 
  -2  -2 -14    0.98    0.23 
  -3  -2 -14   -0.03    0.12 
  -4  -2 -14   -0.07    0.14 
  -5  -2 -14    0.41    0.20 
   3  -3 -14    1.02    0.22 
   2  -3 -14    2.35    0.28 
   1  -3 -14    0.69    0.16 
   0  -3 -14    1.78    0.24 
  -2  -3 -14    0.88    0.21 
  -3  -3 -14    0.24    0.15 
  -4  -3 -14    0.13    0.15 
  -5  -3 -14    0.23    0.18 
   3  -4 -14   -0.08    0.13 
   2  -4 -14    1.13    0.22 
   1  -4 -14    0.04    0.11 
   0  -4 -14    0.13    0.11 
  -1  -4 -14    0.81    0.18 
  -2  -4 -14    1.26    0.24 
  -3  -4 -14   -0.02    0.11 
  -4  -4 -14    0.41    0.17 
  -5  -4 -14    1.20    0.28 
   2  -5 -14    0.11    0.14 
   1  -5 -14    0.04    0.13 
   0  -5 -14    0.00    0.11 
  -1  -5 -14    0.76    0.18 
  -2  -5 -14    0.27    0.15 
  -3  -5 -14    0.58    0.18 
  -4  -5 -14    0.22    0.16 
   1  -6 -14    0.25    0.16 
   0  -6 -14    0.18    0.15 
  -1  -6 -14    0.07    0.13 
  -2  -6 -14    1.44    0.25 
   0   0 -15    0.48    0.21 
  -1   0 -15    0.52    0.21 
  -2   0 -15    1.74    0.34 
  -1  -1 -15    0.18    0.15 
  -2  -1 -15    3.45    0.41 
  -1  -2 -15   -0.05    0.15 
  -2  -2 -15    0.80    0.24 
  -3  -2 -15    0.00    0.17 
   1  -3 -15    3.21    0.33 
  -2  -3 -15   -0.05    0.14 
  -3  -3 -15    0.45    0.18 
   0  -4 -15    0.06    0.16 
   0   0   0    0.00    0.00 
;
_shelx_hkl_checksum              17095
loop_
_space_group_symop_operation_xyz
'x, y, z'
'-x, -y, -z'
loop_
_atom_site_label
_atom_site_type_symbol
_atom_site_fract_x
_atom_site_fract_y
_atom_site_fract_z
_atom_site_U_iso_or_equiv
_atom_site_adp_type
_atom_site_occupancy
_atom_site_site_symmetry_order
_atom_site_calc_flag
_atom_site_refinement_flags_posn
_atom_site_refinement_flags_adp
S1 S 0.24281(8) 0.62912(7) 0.15424(5) 0.0486(2) Uani 1 1 d . .
N1 N 0.2244(2) 0.5604(2) 0.29611(16) 0.0459(5) Uani 1 1 d . .
O1 O 0.2993(2) 0.5068(2) 0.09485(15) 0.0616(5) Uani 1 1 d . .
O2 O 0.0961(2) 0.7215(2) 0.12376(15) 0.0595(5) Uani 1 1 d . .
C1 C 0.3321(3) 0.4411(3) 0.3553(2) 0.0442(6) Uani 1 1 d . .
C2 C 0.4436(3) 0.3349(3) 0.3099(2) 0.0546(7) Uani 1 1 d . .
H2 H 0.4601 0.3369 0.2291 0.066 Uiso 1 1 calc R U
C3 C 0.5288(3) 0.2271(3) 0.3877(3) 0.0630(8) Uani 1 1 d . .
H3 H 0.6041 0.1546 0.3591 0.076 Uiso 1 1 calc R U
C4 C 0.5058(4) 0.2233(3) 0.5071(3) 0.0638(8) Uani 1 1 d . .
H4 H 0.5652 0.1482 0.5579 0.077 Uiso 1 1 calc R U
C5 C 0.3966(3) 0.3284(3) 0.5525(2) 0.0536(7) Uani 1 1 d . .
H5 H 0.3820 0.3246 0.6337 0.064 Uiso 1 1 calc R U
C6 C 0.3071(3) 0.4415(2) 0.4765(2) 0.0419(5) Uani 1 1 d . .
C7 C 0.1868(3) 0.5672(2) 0.4929(2) 0.0408(5) Uani 1 1 d . .
C8 C 0.1392(3) 0.6382(3) 0.3832(2) 0.0431(6) Uani 1 1 d . .
C9 C 0.0211(3) 0.7657(3) 0.3667(2) 0.0537(7) Uani 1 1 d . .
H9 H -0.0106 0.8103 0.2917 0.064 Uiso 1 1 calc R U
C10 C -0.0442(3) 0.8210(3) 0.4629(2) 0.0561(7) Uani 1 1 d . .
H10 H -0.1213 0.9062 0.4532 0.067 Uiso 1 1 calc R U
C11 C -0.0010(3) 0.7554(3) 0.5778(2) 0.0492(6) Uani 1 1 d . .
C12 C 0.1150(3) 0.6252(3) 0.5949(2) 0.0443(6) Uani 1 1 d . .
C13 C 0.1531(3) 0.5620(3) 0.7107(2) 0.0570(7) Uani 1 1 d . .
H13 H 0.2284 0.4758 0.7237 0.068 Uiso 1 1 calc R U
C14 C 0.0825(4) 0.6237(4) 0.8050(2) 0.0665(8) Uani 1 1 d . .
H14 H 0.1107 0.5803 0.8810 0.080 Uiso 1 1 calc R U
C15 C -0.0316(4) 0.7514(4) 0.7874(3) 0.0687(8) Uani 1 1 d . .
H15 H -0.0802 0.7930 0.8516 0.082 Uiso 1 1 calc R U
C16 C -0.0721(4) 0.8151(3) 0.6774(3) 0.0635(8) Uani 1 1 d . .
H16 H -0.1488 0.9005 0.6670 0.076 Uiso 1 1 calc R U
C17 C 0.3930(3) 0.7419(3) 0.1444(2) 0.0438(6) Uani 1 1 d . .
C18 C 0.3552(3) 0.8835(3) 0.1748(2) 0.0538(7) Uani 1 1 d . .
H18 H 0.2508 0.9186 0.1990 0.065 Uiso 1 1 calc R U
C19 C 0.4714(3) 0.9711(3) 0.1690(2) 0.0570(7) Uani 1 1 d . .
H19 H 0.4455 1.0659 0.1901 0.068 Uiso 1 1 calc R U
C20 C 0.6280(3) 0.9222(3) 0.1325(2) 0.0527(6) Uani 1 1 d . .
C21 C 0.6618(3) 0.7820(3) 0.1006(2) 0.0564(7) Uani 1 1 d . .
H21 H 0.7655 0.7476 0.0747 0.068 Uiso 1 1 calc R U
C22 C 0.5463(3) 0.6920(3) 0.1060(2) 0.0524(7) Uani 1 1 d . .
H22 H 0.5717 0.5978 0.0839 0.063 Uiso 1 1 calc R U
C23 C 0.7543(4) 1.0207(3) 0.1276(3) 0.0737(9) Uani 1 1 d . .
H23A H 0.7951 1.0112 0.2045 0.111 Uiso 1 1 calc R U
H23B H 0.7084 1.1228 0.1020 0.111 Uiso 1 1 calc R U
H23C H 0.8399 0.9911 0.0732 0.111 Uiso 1 1 calc R U
loop_
_atom_site_aniso_label
_atom_site_aniso_U_11
_atom_site_aniso_U_22
_atom_site_aniso_U_33
_atom_site_aniso_U_23
_atom_site_aniso_U_13
_atom_site_aniso_U_12
S1 0.0567(4) 0.0555(4) 0.0350(4) -0.0115(3) -0.0016(3) -0.0086(3)
N1 0.0532(12) 0.0480(11) 0.0359(11) -0.0097(9) 0.0009(9) -0.0040(9)
O1 0.0829(13) 0.0641(11) 0.0443(10) -0.0234(9) 0.0032(9) -0.0175(10)
O2 0.0559(11) 0.0754(12) 0.0451(11) -0.0047(9) -0.0091(8) -0.0063(9)
C1 0.0472(13) 0.0427(13) 0.0459(14) -0.0098(11) 0.0001(11) -0.0137(11)
C2 0.0582(15) 0.0534(15) 0.0530(16) -0.0160(13) 0.0041(12) -0.0059(12)
C3 0.0650(17) 0.0528(15) 0.070(2) -0.0187(14) 0.0010(15) 0.0013(14)
C4 0.0652(17) 0.0530(15) 0.070(2) -0.0068(14) -0.0114(15) 0.0022(14)
C5 0.0605(16) 0.0525(14) 0.0473(15) -0.0063(12) -0.0077(12) -0.0069(12)
C6 0.0451(13) 0.0421(12) 0.0407(13) -0.0075(10) -0.0011(10) -0.0131(10)
C7 0.0420(12) 0.0434(12) 0.0393(13) -0.0084(10) 0.0007(10) -0.0125(10)
C8 0.0465(13) 0.0459(12) 0.0380(13) -0.0081(10) 0.0031(10) -0.0114(10)
C9 0.0559(15) 0.0560(15) 0.0444(15) -0.0028(12) -0.0005(12) -0.0009(12)
C10 0.0515(15) 0.0537(15) 0.0595(17) -0.0099(13) 0.0042(13) 0.0008(12)
C11 0.0496(14) 0.0497(14) 0.0517(16) -0.0147(12) 0.0096(12) -0.0162(11)
C12 0.0481(13) 0.0472(13) 0.0431(14) -0.0136(11) 0.0014(11) -0.0183(11)
C13 0.0684(17) 0.0617(16) 0.0435(15) -0.0131(13) -0.0020(13) -0.0125(13)
C14 0.080(2) 0.081(2) 0.0418(16) -0.0139(15) 0.0039(14) -0.0213(17)
C15 0.083(2) 0.080(2) 0.0520(18) -0.0302(16) 0.0205(15) -0.0278(17)
C16 0.0669(17) 0.0613(16) 0.0652(19) -0.0249(15) 0.0181(14) -0.0126(14)
C17 0.0479(13) 0.0495(13) 0.0318(12) -0.0058(10) 0.0000(10) -0.0030(11)
C18 0.0553(15) 0.0563(15) 0.0492(15) -0.0169(13) 0.0020(12) -0.0002(13)
C19 0.0670(18) 0.0520(15) 0.0545(17) -0.0154(13) -0.0036(13) -0.0092(13)
C20 0.0584(16) 0.0589(16) 0.0381(14) 0.0045(12) -0.0086(12) -0.0109(13)
C21 0.0486(15) 0.0640(17) 0.0493(15) 0.0037(13) 0.0059(12) -0.0041(13)
C22 0.0640(17) 0.0480(14) 0.0405(14) -0.0075(11) 0.0041(12) 0.0031(13)
C23 0.074(2) 0.0765(19) 0.069(2) 0.0076(16) -0.0110(16) -0.0228(16)
loop_
_atom_type_symbol
_atom_type_description
_atom_type_scat_dispersion_real
_atom_type_scat_dispersion_imag
_atom_type_scat_source
C C 0.0033 0.0016 'International Tables Vol C Tables 4.2.6.8 and 6.1.1.4'
H H 0.0000 0.0000 'International Tables Vol C Tables 4.2.6.8 and 6.1.1.4'
N N 0.0061 0.0033 'International Tables Vol C Tables 4.2.6.8 and 6.1.1.4'
O O 0.0106 0.0060 'International Tables Vol C Tables 4.2.6.8 and 6.1.1.4'
S S 0.1246 0.1234 'International Tables Vol C Tables 4.2.6.8 and 6.1.1.4'
loop_
_geom_angle_atom_site_label_1
_geom_angle_atom_site_label_2
_geom_angle_atom_site_label_3
_geom_angle
O1 S1 O2 119.83(11)
O1 S1 N1 106.89(10)
O2 S1 N1 106.90(10)
O1 S1 C17 108.67(11)
O2 S1 C17 108.70(11)
N1 S1 C17 104.83(11)
C8 N1 C1 107.16(19)
C8 N1 S1 125.22(16)
C1 N1 S1 124.35(16)
C2 C1 C6 122.1(2)
C2 C1 N1 129.7(2)
C6 C1 N1 108.2(2)
C3 C2 C1 117.8(2)
C3 C2 H2 121.1
C1 C2 H2 121.1
C2 C3 C4 121.6(3)
C2 C3 H3 119.2
C4 C3 H3 119.2
C5 C4 C3 120.9(3)
C5 C4 H4 119.6
C3 C4 H4 119.6
C4 C5 C6 119.7(3)
C4 C5 H5 120.1
C6 C5 H5 120.1
C5 C6 C1 117.9(2)
C5 C6 C7 134.4(2)
C1 C6 C7 107.7(2)
C8 C7 C12 119.2(2)
C8 C7 C6 107.7(2)
C12 C7 C6 133.2(2)
C7 C8 C9 122.8(2)
C7 C8 N1 109.24(19)
C9 C8 N1 127.9(2)
C10 C9 C8 117.7(2)
C10 C9 H9 121.1
C8 C9 H9 121.1
C9 C10 C11 122.7(2)
C9 C10 H10 118.6
C11 C10 H10 118.6
C10 C11 C16 121.6(2)
C10 C11 C12 119.7(2)
C16 C11 C12 118.6(3)
C13 C12 C11 118.0(2)
C13 C12 C7 124.2(2)
C11 C12 C7 117.8(2)
C14 C13 C12 121.7(3)
C14 C13 H13 119.2
C12 C13 H13 119.2
C13 C14 C15 119.9(3)
C13 C14 H14 120.0
C15 C14 H14 120.0
C16 C15 C14 120.2(3)
C16 C15 H15 119.9
C14 C15 H15 119.9
C15 C16 C11 121.6(3)
C15 C16 H16 119.2
C11 C16 H16 119.2
C22 C17 C18 119.9(3)
C22 C17 S1 120.79(19)
C18 C17 S1 119.26(19)
C19 C18 C17 119.7(2)
C19 C18 H18 120.1
C17 C18 H18 120.1
C18 C19 C20 121.4(2)
C18 C19 H19 119.3
C20 C19 H19 119.3
C21 C20 C19 117.7(3)
C21 C20 C23 121.9(3)
C19 C20 C23 120.4(3)
C22 C21 C20 121.7(2)
C22 C21 H21 119.2
C20 C21 H21 119.2
C21 C22 C17 119.5(2)
C21 C22 H22 120.3
C17 C22 H22 120.3
C20 C23 H23A 109.5
C20 C23 H23B 109.5
H23A C23 H23B 109.5
C20 C23 H23C 109.5
H23A C23 H23C 109.5
H23B C23 H23C 109.5
loop_
_geom_bond_atom_site_label_1
_geom_bond_atom_site_label_2
_geom_bond_distance
S1 O1 1.4124(18)
S1 O2 1.4168(18)
S1 N1 1.656(2)
S1 C17 1.752(3)
N1 C8 1.417(3)
N1 C1 1.418(3)
C1 C2 1.385(3)
C1 C6 1.398(3)
C2 C3 1.366(4)
C2 H2 0.9300
C3 C4 1.372(4)
C3 H3 0.9300
C4 C5 1.367(4)
C4 H4 0.9300
C5 C6 1.398(3)
C5 H5 0.9300
C6 C7 1.439(3)
C7 C8 1.378(3)
C7 C12 1.427(3)
C8 C9 1.407(3)
C9 C10 1.343(3)
C9 H9 0.9300
C10 C11 1.407(4)
C10 H10 0.9300
C11 C16 1.410(4)
C11 C12 1.414(3)
C12 C13 1.401(3)
C13 C14 1.365(4)
C13 H13 0.9300
C14 C15 1.388(4)
C14 H14 0.9300
C15 C16 1.347(4)
C15 H15 0.9300
C16 H16 0.9300
C17 C22 1.372(3)
C17 C18 1.384(3)
C18 C19 1.360(4)
C18 H18 0.9300
C19 C20 1.388(4)
C19 H19 0.9300
C20 C21 1.377(4)
C20 C23 1.501(4)
C21 C22 1.372(4)
C21 H21 0.9300
C22 H22 0.9300
C23 H23A 0.9600
C23 H23B 0.9600
C23 H23C 0.9600
loop_
_geom_torsion_atom_site_label_1
_geom_torsion_atom_site_label_2
_geom_torsion_atom_site_label_3
_geom_torsion_atom_site_label_4
_geom_torsion
O1 S1 N1 C8 -165.33(19)
O2 S1 N1 C8 -35.9(2)
C17 S1 N1 C8 79.4(2)
O1 S1 N1 C1 37.8(2)
O2 S1 N1 C1 167.22(18)
C17 S1 N1 C1 -77.5(2)
C8 N1 C1 C2 -178.5(2)
S1 N1 C1 C2 -18.1(4)
C8 N1 C1 C6 2.9(3)
S1 N1 C1 C6 163.36(17)
C6 C1 C2 C3 1.0(4)
N1 C1 C2 C3 -177.4(2)
C1 C2 C3 C4 -0.1(4)
C2 C3 C4 C5 -0.3(5)
C3 C4 C5 C6 0.0(4)
C4 C5 C6 C1 0.8(4)
C4 C5 C6 C7 -179.4(3)
C2 C1 C6 C5 -1.3(4)
N1 C1 C6 C5 177.4(2)
C2 C1 C6 C7 178.8(2)
N1 C1 C6 C7 -2.5(2)
C5 C6 C7 C8 -178.7(3)
C1 C6 C7 C8 1.1(3)
C5 C6 C7 C12 1.3(5)
C1 C6 C7 C12 -178.9(2)
C12 C7 C8 C9 -0.5(4)
C6 C7 C8 C9 179.4(2)
C12 C7 C8 N1 -179.27(19)
C6 C7 C8 N1 0.7(3)
C1 N1 C8 C7 -2.3(3)
S1 N1 C8 C7 -162.46(17)
C1 N1 C8 C9 179.1(2)
S1 N1 C8 C9 18.9(4)
C7 C8 C9 C10 1.5(4)
N1 C8 C9 C10 180.0(2)
C8 C9 C10 C11 -1.0(4)
C9 C10 C11 C16 -179.6(3)
C9 C10 C11 C12 -0.4(4)
C10 C11 C12 C13 -179.1(2)
C16 C11 C12 C13 0.1(4)
C10 C11 C12 C7 1.4(3)
C16 C11 C12 C7 -179.4(2)
C8 C7 C12 C13 179.6(2)
C6 C7 C12 C13 -0.4(4)
C8 C7 C12 C11 -0.9(3)
C6 C7 C12 C11 179.1(2)
C11 C12 C13 C14 -0.6(4)
C7 C12 C13 C14 178.9(2)
C12 C13 C14 C15 0.8(4)
C13 C14 C15 C16 -0.4(5)
C14 C15 C16 C11 -0.1(5)
C10 C11 C16 C15 179.4(3)
C12 C11 C16 C15 0.2(4)
O1 S1 C17 C22 -12.4(2)
O2 S1 C17 C22 -144.36(19)
N1 S1 C17 C22 101.6(2)
O1 S1 C17 C18 167.00(19)
O2 S1 C17 C18 35.0(2)
N1 S1 C17 C18 -79.0(2)
C22 C17 C18 C19 -1.6(4)
S1 C17 C18 C19 179.1(2)
C17 C18 C19 C20 0.4(4)
C18 C19 C20 C21 0.8(4)
C18 C19 C20 C23 -179.7(2)
C19 C20 C21 C22 -1.0(4)
C23 C20 C21 C22 179.5(2)
C20 C21 C22 C17 -0.1(4)
C18 C17 C22 C21 1.4(4)
S1 C17 C22 C21 -179.21(18)
