#------------------------------------------------------------------------------
#$Date: 2017-09-28 15:26:08 +0300 (Thu, 28 Sep 2017) $
#$Revision: 201411 $
#$URL: file:///home/coder/svn-repositories/cod/cif/1/54/74/1547409.cif $
#------------------------------------------------------------------------------
#
# This file is available in the Crystallography Open Database (COD),
# http://www.crystallography.net/
#
# All data on this site have been placed in the public domain by the
# contributors.
#
data_1547409
loop_
_publ_author_name
'Anuradha R. Pallipurath'
'Jonathan M. Skelton'
'Mark R. Warren'
'Naghmeh Kamali'
'Patrick McArdle'
'Andrea Erxleben'
_publ_section_title
;
 Sulfamerazine: Understanding the Influence of Slip Planes in the
 Polymorphic Phase Transformation through X-Ray Crystallographic Studies
 and ab Initio Lattice Dynamics
;
_journal_name_full               'Molecular Pharmaceutics'
_journal_page_first              3735
_journal_page_last               3748
_journal_paper_doi               10.1021/acs.molpharmaceut.5b00504
_journal_volume                  12
_journal_year                    2015
_chemical_absolute_configuration ad
_chemical_formula_moiety         'C11 H12 N4 O2 S'
_chemical_formula_sum            'C11 H12 N4 O2 S'
_chemical_formula_weight         264.31
_chemical_name_common            Sulfamerazine
_chemical_name_systematic        4-amino-N-(4-methylpyrimidin-2-yl)
_space_group_crystal_system      orthorhombic
_space_group_IT_number           33
_space_group_name_Hall           'P 2c -2n'
_space_group_name_H-M_alt        'P n a 21'
_symmetry_space_group_name_Hall  'P 2c -2n'
_symmetry_space_group_name_H-M   'P n a 21'
_atom_sites_solution_hydrogens   mixed
_cell_angle_alpha                90
_cell_angle_beta                 90
_cell_angle_gamma                90
_cell_formula_units_Z            8
_cell_length_a                   14.4687(6)
_cell_length_b                   8.1829(9)
_cell_length_c                   21.8084(4)
_cell_measurement_reflns_used    2291
_cell_measurement_temperature    175.0(2)
_cell_measurement_theta_max      28.5850
_cell_measurement_theta_min      3.8550
_cell_volume                     2582.0(3)
_computing_cell_refinement
;
'Fri Dec 12 05:27:49 2014'
;
_computing_data_collection
;
'Fri Dec 12 05:27:49 2014'
;
_computing_data_reduction
;
'Fri Dec 12 05:27:49 2014'
;
_computing_molecular_graphics    OSCAIL
_computing_structure_refinement  'SHELXL-2014/7 (Sheldrick, 2014)'
_computing_structure_solution    SHELXT
_diffrn_ambient_temperature      175.0(2)
_diffrn_detector_area_resol_mean 16.1048
_diffrn_measured_fraction_theta_full 0.997
_diffrn_measured_fraction_theta_max 0.877
_diffrn_measurement_device_type  'Xcalibur, Sapphire3'
_diffrn_measurement_method       '\w scans'
_diffrn_radiation_type           MoK\a
_diffrn_radiation_wavelength     0.71073
_diffrn_reflns_av_R_equivalents  0.0344
_diffrn_reflns_av_unetI/netI     0.0689
_diffrn_reflns_Laue_measured_fraction_full 0.997
_diffrn_reflns_Laue_measured_fraction_max 0.877
_diffrn_reflns_limit_h_max       17
_diffrn_reflns_limit_h_min       -19
_diffrn_reflns_limit_k_max       11
_diffrn_reflns_limit_k_min       -10
_diffrn_reflns_limit_l_max       25
_diffrn_reflns_limit_l_min       -27
_diffrn_reflns_number            8151
_diffrn_reflns_point_group_measured_fraction_full 0.749
_diffrn_reflns_point_group_measured_fraction_max 0.634
_diffrn_reflns_theta_full        25.242
_diffrn_reflns_theta_max         28.988
_diffrn_reflns_theta_min         3.380
_diffrn_source                   'Enhance (Mo) X-ray Source'
_exptl_absorpt_coefficient_mu    0.251
_exptl_absorpt_correction_T_max  1.00000
_exptl_absorpt_correction_T_min  0.97919
_exptl_absorpt_correction_type   multi-scan
_exptl_absorpt_process_details
;
'Fri Dec 12 05:27:49 2014'
;
_exptl_crystal_colour            Colourless
_exptl_crystal_density_diffrn    1.360
_exptl_crystal_description       Parallelepiped
_exptl_crystal_F_000             1104
_exptl_crystal_size_max          0.50
_exptl_crystal_size_mid          0.40
_exptl_crystal_size_min          0.20
_refine_diff_density_max         0.243
_refine_diff_density_min         -0.349
_refine_diff_density_rms         0.053
_refine_ls_abs_structure_details
;
 Flack x determined using 753 quotients [(I+)-(I-)]/[(I+)+(I-)]
 (Parsons, Flack and Wagner, Acta Cryst. B69 (2013) 249-259).
;
_refine_ls_abs_structure_Flack   -0.03(10)
_refine_ls_extinction_coef       .
_refine_ls_extinction_method     none
_refine_ls_goodness_of_fit_ref   0.970
_refine_ls_hydrogen_treatment    mixed
_refine_ls_matrix_type           full
_refine_ls_number_parameters     343
_refine_ls_number_reflns         4347
_refine_ls_number_restraints     5
_refine_ls_restrained_S_all      0.970
_refine_ls_R_factor_all          0.0797
_refine_ls_R_factor_gt           0.0499
_refine_ls_shift/su_max          0.030
_refine_ls_shift/su_mean         0.001
_refine_ls_structure_factor_coef Fsqd
_refine_ls_weighting_details
'w=1/[\s^2^(Fo^2^)+(0.0366P)^2^] where P=(Fo^2^+2Fc^2^)/3'
_refine_ls_weighting_scheme      calc
_refine_ls_wR_factor_gt          0.0873
_refine_ls_wR_factor_ref         0.0959
_reflns_Friedel_coverage         0.412
_reflns_Friedel_fraction_full    0.487
_reflns_Friedel_fraction_max     0.380
_reflns_number_gt                3065
_reflns_number_total             4347
_reflns_threshold_expression     'I > 2\s(I)'
_cod_data_source_file            Exp_Form-I2FInHouse_Form-I_175K.cif
_cod_data_source_block           smz_f1_175
_cod_database_code               1547409
_shelx_space_group_comment
;
The symmetry employed for this shelxl refinement is uniquely defined
by the following loop, which should always be used as a source of
symmetry information in preference to the above space-group names.
They are only intended as comments.
;
_shelx_estimated_absorpt_t_min   0.885
_shelx_estimated_absorpt_t_max   0.952
_shelxl_version_number           2014/6
_shelx_res_file
;
TITL smz_f1_175_a.res in Pna2(1)
REM Old TITL smz_f1_175 in Pnma
REM SHELXT solution in Pna2(1)
REM R1 0.115,  Rweak 0.170,  Alpha 0.009,  Orientation as input
REM Flack x =  0.030 ( 0.098 ) from Parsons' quotients
REM Formula found by SHELXT:  C27 N3 O4 S2
CELL  0.71073  14.4687   8.1829  21.8084   90.000   90.000   90.000
ZERR    8.000   0.0006   0.0009   0.0004    0.000    0.000    0.000
REM SG 33 4 4 Pna21 PGmm2 Orthorhombic
LATT -1
REM SG  ASUN  1  .5 .5 1.
REM SG  ORGN  on 2(1)
SYMM -X,-Y,0.5+Z
SYMM 0.5+X,0.5-Y,Z
SYMM 0.5-X,0.5+Y,0.5+Z
SFAC C H N O S
UNIT 88 96 32 16 8
FMAP 2
PLAN -32
BOND $H
L.S. 12
SIZE    0.50  0.40  0.20
ACTA
CONF
HTAB
DFIX .89 .02 N1 H1N1 N1 H2N1 N2 H1N2 N6 H1N6
LIST 4
WGHT    0.036600
FVAR       0.35213
S1    5    0.355811    0.505347    0.656375    11.00000    0.02148    0.02636 =
         0.02079    0.00295   -0.00075   -0.00181
S2    5    0.421992    0.502157    0.346827    11.00000    0.02051    0.02559 =
         0.02041    0.00219   -0.00087   -0.00196
O1    4    0.312776    0.630230    0.692155    11.00000    0.03697    0.02528 =
         0.02803   -0.00046   -0.00145   -0.00175
O2    4    0.453262    0.477785    0.662677    11.00000    0.02278    0.03554 =
         0.02789    0.00616   -0.00484   -0.00303
O3    4    0.324278    0.529524    0.340149    11.00000    0.01930    0.04066 =
         0.02912    0.00414   -0.00239   -0.00325
O4    4    0.464446    0.374500    0.311063    11.00000    0.03097    0.02486 =
         0.02802   -0.00285   -0.00329    0.00002
N1    3    0.159024   -0.116672    0.687882    11.00000    0.02863    0.02587 =
         0.05119   -0.00396    0.01581   -0.00235
N2    3    0.346299    0.552765    0.582917    11.00000    0.01749    0.03657 =
         0.02056    0.00482    0.00028    0.00129
N3    3    0.187029    0.592122    0.583448    11.00000    0.02268    0.02651 =
         0.03165    0.00130    0.00170    0.00075
N4    3    0.272520    0.569329    0.490381    11.00000    0.02608    0.06171 =
         0.02269    0.00453   -0.00072    0.01145
N5    3    0.619905    1.120184    0.305714    11.00000    0.03775    0.02321 =
         0.06551   -0.00523    0.01420   -0.00561
AFIX  93
H5A   2    0.676406    1.119248    0.293475    11.00000   -1.30000
H5B   2    0.592455    1.211641    0.312480    11.00000   -1.30000
AFIX   0
N6    3    0.432076    0.457938    0.420417    11.00000    0.02242    0.04056 =
         0.01995    0.00794    0.00276    0.00357
N7    3    0.590448    0.412252    0.419051    11.00000    0.02528    0.03301 =
         0.02299    0.00082    0.00103    0.00271
N8    3    0.504797    0.434621    0.512550    11.00000    0.03003    0.05438 =
         0.02142    0.00312   -0.00401    0.01034
C1    1    0.297212    0.322239    0.666032    11.00000    0.02109    0.02320 =
         0.02014   -0.00028   -0.00100    0.00000
C2    1    0.206988    0.319668    0.689653    11.00000    0.02466    0.02625 =
         0.01703    0.00013   -0.00177    0.00405
AFIX  43
H2    2    0.177876    0.416904    0.700346    11.00000   -1.30000
AFIX   0
C3    1    0.161852    0.173807    0.696941    11.00000    0.01761    0.03295 =
         0.01539   -0.00374    0.00362    0.00065
AFIX  43
H3    2    0.101886    0.172824    0.712290    11.00000   -1.30000
AFIX   0
C4    1    0.204790    0.026654    0.681607    11.00000    0.02322    0.03010 =
         0.01999   -0.00015    0.00005    0.00040
C5    1    0.294242    0.030653    0.657452    11.00000    0.02963    0.02314 =
         0.03805   -0.00381    0.00696    0.00260
AFIX  43
H5    2    0.323130   -0.066625    0.646547    11.00000   -1.30000
AFIX   0
C6    1    0.340346    0.176808    0.649542    11.00000    0.01935    0.03083 =
         0.02721    0.00156    0.00638    0.00404
AFIX  43
H6    2    0.399782    0.178047    0.633313    11.00000   -1.30000
AFIX   0
C7    1    0.263977    0.572256    0.550940    11.00000    0.02491    0.02522 =
         0.02453    0.00518   -0.00157   -0.00011
C8    1    0.193879    0.593378    0.459356    11.00000    0.03812    0.09784 =
         0.02882    0.00541   -0.00322    0.02187
AFIX  43
H8    2    0.195870    0.595394    0.416739    11.00000   -1.30000
AFIX   0
C9    1    0.110501    0.615151    0.488073    11.00000    0.02882    0.08557 =
         0.03320   -0.00145   -0.00957    0.01587
AFIX  43
H9    2    0.056716    0.631312    0.465525    11.00000   -1.30000
AFIX   0
C10   1    0.108525    0.612491    0.550414    11.00000    0.02271    0.03616 =
         0.03950   -0.00145   -0.00137    0.00389
C11   1    0.022185    0.631612    0.586661    11.00000    0.02766    0.05618 =
         0.04752   -0.00553    0.00281    0.00444
AFIX 137
H11A  2    0.020673    0.738560    0.604728    11.00000   -1.30000
H11B  2    0.020433    0.550501    0.618444    11.00000   -1.30000
H11C  2   -0.030310    0.618123    0.560219    11.00000   -1.30000
AFIX   0
C12   1    0.481214    0.683038    0.334063    11.00000    0.02418    0.02425 =
         0.01852    0.00284   -0.00072   -0.00157
C13   1    0.436426    0.830415    0.344218    11.00000    0.02158    0.02845 =
         0.03962   -0.00109    0.00732    0.00233
AFIX  43
H13   2    0.375184    0.830885    0.357166    11.00000   -1.30000
AFIX   0
C14   1    0.481865    0.975174    0.335289    11.00000    0.02981    0.02257 =
         0.04520   -0.00141    0.00169    0.00717
AFIX  43
H14   2    0.451708    1.073360    0.343095    11.00000   -1.30000
AFIX   0
C15   1    0.573808    0.976545    0.314399    11.00000    0.03065    0.02860 =
         0.02489   -0.00387    0.00328   -0.00214
C16   1    0.617948    0.826742    0.303494    11.00000    0.02472    0.02754 =
         0.02563   -0.00070    0.00446   -0.00431
AFIX  43
H16   2    0.678793    0.825252    0.289758    11.00000   -1.30000
AFIX   0
C17   1    0.571738    0.681934    0.313005    11.00000    0.02350    0.02255 =
         0.02603   -0.00435   -0.00017    0.00281
AFIX  43
H17   2    0.601246    0.583076    0.305301    11.00000   -1.30000
AFIX   0
C18   1    0.514393    0.432976    0.451593    11.00000    0.02326    0.02698 =
         0.02878    0.00537   -0.00504    0.00066
C19   1    0.582824    0.404248    0.543617    11.00000    0.03450    0.09467 =
         0.03173   -0.00247   -0.00819    0.01470
AFIX  43
H19   2    0.580793    0.401462    0.586227    11.00000   -1.30000
AFIX   0
C20   1    0.665699    0.377094    0.514655    11.00000    0.02815    0.08499 =
         0.04333   -0.00305   -0.00789    0.02293
AFIX  43
H20   2    0.718798    0.353860    0.537049    11.00000   -1.30000
AFIX   0
C21   1    0.668159    0.385165    0.451511    11.00000    0.02659    0.03892 =
         0.03379   -0.00284    0.00047    0.00510
C22   1    0.754444    0.363010    0.414105    11.00000    0.02521    0.06475 =
         0.05761   -0.00762    0.00112    0.00958
AFIX 137
H22A  2    0.807263    0.362589    0.440746    11.00000   -1.30000
H22B  2    0.759912    0.451158    0.385284    11.00000   -1.30000
H22C  2    0.751295    0.261125    0.392381    11.00000   -1.30000
AFIX   0
H1N1  2    0.109191   -0.116734    0.711326    11.00000    0.03881
H2N1  2    0.192778   -0.205078    0.681628    11.00000    0.06940
H1N2  2    0.392523    0.517273    0.558811    11.00000    0.02895
H1N6  2    0.378084    0.493741    0.438401    11.00000    0.05983
HKLF 4
REM  smz_f1_175_a.res in Pna2(1)
REM R1 =  0.0499 for    3065 Fo > 4sig(Fo)  and  0.0797 for all    4347 data
REM    343 parameters refined using      5 restraints
END
WGHT      0.0363      0.0000
REM Instructions for potential hydrogen bonds
EQIV $1 x, y+1, z
HTAB N5 O4_$1
HTAB C8 O3
HTAB C14 O4_$1
EQIV $2 x+1/2, -y+3/2, z
HTAB C16 O3_$2
HTAB C19 O2
EQIV $3 -x+1/2, y-1/2, z+1/2
HTAB N1 O4_$3
EQIV $4 x, y-1, z
HTAB N1 O1_$4
HTAB N2 N8
HTAB N6 N4
REM Highest difference peak  0.243,  deepest hole -0.349,  1-sigma level  0.053
Q1    1   0.4746  0.5852  0.3521  11.00000  0.05    0.24
Q2    1   0.3068  0.4156  0.6505  11.00000  0.05    0.22
Q3    1   0.3186  0.5972  0.4735  11.00000  0.05    0.21
Q4    1   0.4259  0.5290  0.6630  11.00000  0.05    0.20
Q5    1   0.7940  0.4732  0.3262  11.00000  0.05    0.20
Q6    1   0.4818  0.2689  0.6681  11.00000  0.05    0.19
Q7    1   0.5966  0.4562  0.3874  11.00000  0.05    0.19
Q8    1   0.1961  0.4986  0.4164  11.00000  0.05    0.19
Q9    1   0.2234  0.3125  0.6536  11.00000  0.05    0.19
Q10   1   0.4398  0.6174  0.3305  11.00000  0.05    0.19
Q11   1   0.1856  0.5356  0.6132  11.00000  0.05    0.19
Q12   1   0.5218  0.3859  0.6822  11.00000  0.05    0.18
Q13   1   0.7231  0.4873  0.2979  11.00000  0.05    0.18
Q14   1   0.3230  0.6766  0.3347  11.00000  0.05    0.18
Q15   1   0.2979  0.4862  0.3720  11.00000  0.05    0.17
Q16   1   0.4694  0.6363  0.6590  11.00000  0.05    0.17
Q17   1   0.8181  0.4445  0.2693  11.00000  0.05    0.17
Q18   1   0.6829  0.8105  0.2667  11.00000  0.05    0.17
Q19   1  -0.0407  0.5582  0.5919  11.00000  0.05    0.17
Q20   1   0.5267  0.5694  0.6721  11.00000  0.05    0.17
Q21   1   0.9421  0.3016  0.2491  11.00000  0.05    0.17
Q22   1  -0.0203  0.5026  0.6758  11.00000  0.05    0.17
Q23   1   0.2989 -0.1112  0.6196  11.00000  0.05    0.17
Q24   1   0.1732  0.1064  0.6813  11.00000  0.05    0.17
Q25   1   0.3402  0.3842  0.6685  11.00000  0.05    0.17
Q26   1   0.4415  0.4870  0.3909  11.00000  0.05    0.17
Q27   1   0.0805  0.2051  0.7319  11.00000  0.05    0.17
Q28   1   0.0122  0.5294  0.5784  11.00000  0.05    0.17
Q29   1   0.7617  0.3613  0.3663  11.00000  0.05    0.16
Q30   1   0.2799  0.6263  0.7482  11.00000  0.05    0.16
Q31   1   0.5356  0.4095  0.5224  11.00000  0.05    0.16
Q32   1   0.0417  0.8601  0.5816  11.00000  0.05    0.16
;
_shelx_res_checksum              23501
_shelx_hkl_file
;
   0   0   4 2067.02   14.11
   0   0   5   -0.28    1.42
   0   0   6 9999.00   37.64
   0   0   7   11.00    2.53
   0   0   8 7597.55   37.56
   0   0   9   32.85    3.63
   0   0  10  140.30    5.88
   0   0  11    2.22    1.81
   0   0  12 1996.10   23.47
   0   0  13   28.34    3.54
   0   0  14   23.11    3.20
   0   0  15    3.32    2.25
   0   0  16  202.24    8.54
   0   0 -17   43.12    9.42
   0   0  17    5.99    2.52
   0   0 -18   65.15   10.45
   0   0 -19   33.92    9.19
   0   0 -20  431.46   21.53
   0   0 -21   32.73    9.10
   0   0 -22   52.75   10.05
   0   0 -23   12.45    7.76
   0   0 -24    3.79    7.01
   0   0 -25   12.03    8.18
   0   0 -26  431.94   25.97
   0   0 -27   22.63    9.20
   1   0   4    2.40    1.60
  -1   0  -4   -0.14    1.74
  -1   0  -5   -0.76    2.13
   1   0   5    4.12    2.19
  -1   0  -6   -1.08    2.30
   1   0   6    1.70    1.98
   1   0   7    1.43    1.86
   1   0   8    0.16    1.77
   1   0   9    1.67    1.81
   1   0  10    2.10    2.10
   1   0  11    1.33    2.08
  -1   0  11   -0.81    1.62
   1   0  12    1.59    2.09
  -1   0  12   -0.86    1.62
   1   0  13    0.83    2.07
  -1   0  13   -1.05    1.69
   1   0  14    3.08    2.12
  -1   0  14    0.84    1.62
   1   0  15    4.07    2.69
  -1   0  15    0.64    1.61
  -1   0  16    0.89    1.76
  -1   0 -16   27.07    8.03
  -1   0 -17   16.54    7.70
  -1   0  17    0.65    1.73
  -1   0 -18    6.44    6.40
  -1   0 -19   13.65    6.20
   1   0 -19   22.43    8.83
  -1   0 -20   10.13    6.72
   1   0 -20   25.83    8.92
   1   0 -21   26.28    8.86
  -1   0 -21    8.95    7.07
  -1   0 -22    4.39    6.90
   1   0 -22   24.82    8.86
  -1   0 -23    3.13    6.63
   1   0 -23   11.36    7.96
  -1   0 -24    6.33    7.18
   1   0 -24   15.57    8.20
   1   0 -25    7.24    7.24
  -1   0 -25    3.47    7.20
   1   0 -26    4.85    6.78
  -1   0 -26    1.38    6.87
  -1   0 -27   -0.90    6.69
   1   0 -27    4.48    6.04
   2   0   2 3284.94   18.67
  -2   0  -3 3542.59   22.23
   2   0   3 3355.97   21.93
  -2   0  -3 3378.79   23.94
  -2   0  -4 4783.34   29.49
   2   0   4 4559.06   28.29
  -2   0  -4 4645.79   29.52
   2   0   5 1063.23   15.21
  -2   0  -5 1116.97   15.37
  -2   0  -5 1117.67   15.91
  -2   0  -6  383.71    9.75
  -2   0  -6  374.74   10.40
   2   0   6  379.10    9.63
   2   0   7 3897.73   31.25
  -2   0  -7 3912.46   35.00
  -2   0  -7 3995.58   31.95
  -2   0  -8  245.24    8.58
   2   0   8  261.14    8.64
  -2   0  -8  260.65   10.02
  -2   0  -9 1040.57   17.86
   2   0   9 1031.31   17.47
  -2   0  -9 1048.52   20.73
  -2   0 -10 1386.92   25.33
  -2   0 -10 1395.71   21.33
   2   0  10 1364.84   20.70
   2   0  11  178.57    8.05
  -2   0 -11  228.80   11.93
   2   0  12   51.95    5.02
  -2   0 -12   76.50    8.42
  -2   0 -13 2581.43   39.28
   2   0  13 2507.41   30.95
  -2   0  14   32.70    3.42
  -2   0 -14  122.74   11.55
  -2   0  15  389.90   10.51
  -2   0 -15  388.51   17.26
  -2   0 -16   47.76    8.79
  -2   0  16   21.87    3.16
  -2   0  17  163.66    7.23
  -2   0 -17  185.06   13.59
  -2   0 -18   24.55    6.83
  -2   0 -19  464.60   21.64
  -2   0 -20   56.71    9.86
   2   0 -21  151.83   14.36
  -2   0 -21  145.14   13.77
   2   0 -22   66.48   11.28
  -2   0 -22   40.20    8.34
   2   0 -23  147.15   14.75
  -2   0 -23  134.30   13.96
  -2   0 -24   67.51   11.26
   2   0 -24   67.70   11.07
   2   0 -25   88.57   12.91
  -2   0 -25   89.13   12.73
   2   0 -26   13.73    8.58
  -2   0 -26    7.53    7.33
   2   0 -27   20.34    8.79
  -2   0 -27   16.90    8.20
  -3   0   0    3.57    1.41
   3   0   0   -1.32    1.28
  -3   0   1    2.69    1.16
   3   0  -1    2.67    1.94
  -3   0   1    2.42    1.61
  -3   0   2    3.95    2.05
   3   0   2   -0.42    1.51
   3   0   3   -0.29    1.73
  -3   0  -3   -2.07    2.05
  -3   0  -4   -1.63    2.41
   3   0   4    2.76    2.27
  -3   0  -5   -0.23    2.72
   3   0   5    6.06    2.73
  -3   0  -5    5.60    3.68
  -3   0  -6    3.10    3.46
  -3   0  -6    0.16    2.66
  -3   0  -7    1.57    3.18
  -3   0  -7    3.16    3.44
  -3   0  -8    2.94    3.43
  -3   0  -8    1.13    2.75
  -3   0  -9    4.56    4.08
  -3   0  -9    0.56    2.80
  -3   0 -10   -1.95    3.06
  -3   0 -10    5.48    3.56
  -3   0 -11    5.24    4.73
  -3   0 -11   -4.36    3.27
  -3   0 -12    7.97    5.20
  -3   0 -12   -2.84    3.10
  -3   0 -13    7.39    5.54
  -3   0 -14   13.21    6.15
  -3   0 -15    4.08    5.23
  -3   0 -16    3.11    5.57
  -3   0  16   -1.89    1.82
  -3   0  17   -0.64    1.69
  -3   0 -17    1.55    6.17
  -3   0 -18    0.60    5.17
  -3   0 -19    1.25    6.09
  -3   0 -20    3.98    5.89
  -3   0 -21    0.96    4.99
   3   0 -22   15.30    8.16
  -3   0 -22   -1.73    6.04
   3   0 -23   22.26    9.08
  -3   0 -23   -0.37    5.98
  -3   0 -24    1.00    5.32
   3   0 -24   17.41    8.67
   3   0 -25    6.65    7.46
  -3   0 -25   -2.34    6.10
   3   0 -26   12.42    7.21
  -3   0 -26   -4.10    7.02
  -3   0 -27   -3.16    6.95
   3   0 -27    4.30    7.25
  -4   0   0  372.22    6.41
   4   0   0  397.57    7.93
   4   0   0  406.81    6.63
   4   0   1  283.80    6.32
   4   0  -1  287.06    6.95
  -4   0   1  271.39    5.52
  -4   0   2  519.73    9.55
  -4   0   2  524.86    7.81
   4   0  -2  497.81    9.21
   4   0   2  513.63    9.04
  -4   0   3  749.32   12.09
   4   0   3  746.95   11.62
  -4   0  -4   82.90    4.55
  -4   0   4   88.92    4.79
  -4   0  -4  105.65    7.21
   4   0   4   76.27    4.39
  -4   0  -5  161.61    6.78
   4   0   5  171.06    6.67
  -4   0  -5  174.31    8.34
   4   0   6   85.01    5.40
  -4   0  -6   91.73    6.58
  -4   0  -6   83.29    5.48
  -4   0  -7   26.75    3.91
  -4   0  -7   29.87    4.63
  -4   0  -8  181.62    8.99
  -4   0  -8  178.43    8.62
  -4   0  -9  618.15   16.28
  -4   0  -9  605.47   16.23
  -4   0 -10   51.95    5.63
  -4   0 -10   55.01    6.20
  -4   0 -11  646.05   17.44
  -4   0 -11  660.90   18.69
  -4   0 -12   81.32    7.92
  -4   0 -12   74.38    6.63
  -4   0 -13   88.15    7.14
  -4   0 -13   86.58    8.11
  -4   0 -14  135.48   10.42
  -4   0 -14  123.12    8.60
  -4   0 -15  153.12   11.49
  -4   0 -16   87.79    9.48
  -4   0 -17  426.78   19.51
  -4   0 -18  112.32   11.56
  -4   0 -19   90.22   10.52
  -4   0 -20   78.11   10.32
  -4   0 -21   66.47    9.88
  -4   0 -22   65.53   10.21
  -4   0 -23   51.33    9.40
   4   0 -23   72.77   11.38
  -4   0 -24   20.47    7.66
   4   0 -24   29.43    9.62
   4   0 -25   29.22    9.64
  -4   0 -25   13.67    7.04
  -4   0 -26   86.46   12.26
   4   0 -26  111.70   14.34
  -4   0 -27   42.19    9.74
   5   0   0    0.22    1.47
   5   0   0   -0.78    2.31
   5   0  -1   -0.98    2.30
  -5   0   1    0.38    1.35
   5   0   1   -0.32    1.77
  -5   0   2    0.17    1.27
  -5   0   2    0.45    1.85
   5   0   2    5.28    2.31
   5   0  -2    7.73    2.72
   5   0   3   -0.53    1.53
  -5   0   3   -1.12    1.43
  -5   0   3   -1.73    2.45
  -5   0   4    0.36    2.00
   5   0   4    0.14    1.63
  -5   0   5    5.37    2.69
  -5   0  -5    8.91    5.03
   5   0   5    1.06    1.77
  -5   0  -6   -1.42    2.54
   5   0   6    1.51    2.23
  -5   0  -7    5.68    4.43
  -5   0  -7   -0.71    2.66
   5   0   7    6.94    2.84
  -5   0  -8    1.63    2.75
  -5   0  -8    5.39    4.10
  -5   0  -9   -2.02    3.62
  -5   0  -9   -0.31    3.46
  -5   0 -10   -1.70    3.62
  -5   0 -10    1.36    3.20
  -5   0 -11    0.04    2.97
  -5   0 -11   -5.57    4.37
  -5   0 -12    0.79    3.31
  -5   0 -12   -2.75    4.49
  -5   0 -13   -1.57    3.72
  -5   0 -13    0.59    4.24
  -5   0 -14   -3.54    5.09
  -5   0 -14   -1.76    3.80
  -5   0 -15   -5.07    4.29
  -5   0 -15   -0.65    4.48
  -5   0 -16   -2.96    5.12
  -5   0 -17   -2.70    4.88
  -5   0 -18   -2.19    4.67
  -5   0 -19   -1.25    5.33
  -5   0 -20   -5.61    6.09
  -5   0 -21   -3.29    5.33
  -5   0 -22    0.69    5.78
  -5   0 -23   -1.38    5.83
   5   0 -24   19.18    8.92
  -5   0 -24   -4.28    6.80
  -5   0 -25   -3.95    6.06
   5   0 -25   26.99    9.52
  -5   0 -26   -2.60    6.70
   5   0 -26   15.13    7.97
  -5   0 -27  -10.06    7.70
   6   0   0  309.56    7.15
   6   0   0  310.16    8.68
   6   0  -1  969.10   14.90
  -6   0   1  959.68   11.95
   6   0   1  970.38   13.31
   6   0   2 2485.30   22.72
   6   0  -2 2436.08   23.62
  -6   0   2 2439.96   19.39
  -6   0   3  468.49    8.98
  -6   0   3  478.68   11.13
   6   0   3  469.25   10.33
   6   0   4  595.32   12.36
  -6   0   4  616.92   13.13
   6   0   5  992.93   16.72
  -6   0  -5 1020.00   21.86
  -6   0   5  995.17   17.43
   6   0   6  345.62   10.60
  -6   0   6  347.89   10.87
  -6   0  -6  342.41   13.30
  -6   0  -7   63.08    6.92
  -6   0   7   66.91    5.72
  -6   0  -7   54.42    4.97
   6   0   7   59.67    5.11
  -6   0  -8   83.02    6.10
  -6   0  -8   96.08    8.14
  -6   0  -9  267.19   11.01
  -6   0  -9  253.06   12.10
  -6   0 -10  353.89   13.39
  -6   0 -10  351.54   14.37
  -6   0 -11   76.90    7.17
  -6   0 -11   74.92    7.50
  -6   0 -12  102.37    8.49
  -6   0 -12   94.70    8.14
  -6   0 -13  125.17    9.69
  -6   0 -13  127.61    9.70
  -6   0 -14  565.29   19.64
  -6   0 -14  554.73   20.00
  -6   0 -15  241.56   13.52
  -6   0 -15  250.66   14.40
  -6   0 -16  938.12   26.24
  -6   0 -16  912.53   27.43
  -6   0 -17  102.52   10.35
  -6   0 -17   99.07    9.32
  -6   0 -18    1.79    5.12
  -6   0 -19   19.23    6.38
  -6   0 -20    0.18    4.80
  -6   0 -21   24.27    6.82
  -6   0 -22   96.35   11.67
  -6   0 -23    1.79    5.24
  -6   0 -24  111.70   13.22
   6   0 -25   53.33   11.38
  -6   0 -25   25.89    7.84
  -6   0 -26   -1.02    6.47
   6   0 -26   20.06    8.49
  -6   0 -27   52.42   10.39
   7   0   0    0.49    1.57
   7   0   0   -0.70    2.35
   7   0   1   -2.82    2.13
   7   0  -1   -1.48    2.60
  -7   0   1    2.04    1.68
  -7   0   2    0.18    1.38
   7   0   2   -0.41    2.03
   7   0   3    1.85    2.31
  -7   0   3   -2.59    2.24
   7   0   3   -0.29    1.46
  -7   0   3   -0.60    1.45
  -7   0   4    0.15    1.88
  -7   0   4    0.57    1.40
   7   0   4   -2.10    1.99
  -7   0   5   -0.80    1.64
   7   0   5   -0.34    1.73
  -7   0   5   -2.65    2.47
  -7   0   6   -0.44    2.36
   7   0   6    1.02    2.00
  -7   0  -7    7.72    4.93
   7   0   7    1.53    2.35
  -7   0   7    4.24    2.76
  -7   0  -8    3.60    4.69
  -7   0  -9   -0.53    3.05
  -7   0  -9    4.81    4.70
  -7   0 -10    3.31    4.04
  -7   0 -10   -1.94    3.13
  -7   0 -11   -0.32    3.40
  -7   0 -11    2.33    4.33
  -7   0 -12    0.30    3.45
  -7   0 -12   -1.94    3.80
  -7   0 -13   -1.66    4.31
  -7   0 -13   -1.41    3.95
  -7   0 -14   -0.66    3.98
  -7   0 -14    1.21    4.15
  -7   0 -15    0.59    4.15
  -7   0 -15   -1.14    4.14
  -7   0 -16    3.97    4.79
  -7   0 -16   -1.04    4.16
  -7   0 -17    0.70    4.24
  -7   0 -17   -0.05    3.66
  -7   0 -18   -3.29    4.33
  -7   0 -18   -1.98    5.01
  -7   0 -19   -2.84    5.35
  -7   0 -20   -2.00    5.51
  -7   0 -21   -1.94    5.59
  -7   0 -22   -0.21    5.06
  -7   0 -23    0.89    4.57
  -7   0 -24    1.14    5.22
   7   0 -25   15.39    7.72
  -7   0 -25    3.27    5.70
  -7   0 -26    1.70    5.61
   8   0   0  552.85   13.12
   8   0   0  539.97   10.70
   8   0   1   42.87    4.25
   8   0  -1   53.22    4.59
   8   0   1   48.21    3.74
   8   0   2  364.74    9.80
   8   0  -2  371.94   10.87
  -8   0   2  356.07    8.18
   8   0  -3  781.75   15.54
  -8   0   3  831.02   12.65
   8   0   3  796.31   15.52
   8   0   3  805.68   15.09
  -8   0   4  391.86   11.60
  -8   0   4  373.19    8.98
   8   0   4  372.06   11.25
   8   0   4  373.17   10.64
  -8   0   5   41.40    4.25
  -8   0   5   38.82    3.33
   8   0   5   37.17    3.83
  -8   0  -5   48.58    6.54
  -8   0   6  214.61    7.77
   8   0   6  223.72    9.08
  -8   0   6  209.25    9.36
  -8   0  -6  223.02   12.57
  -8   0  -7   16.13    5.87
   8   0   7    9.46    2.81
  -8   0  -8  482.95   18.21
  -8   0  -9  612.49   20.67
  -8   0 -10   41.72    6.63
  -8   0 -11  317.82   13.79
  -8   0 -11  337.90   16.17
  -8   0 -12  364.99   17.08
  -8   0 -12  344.94   14.84
  -8   0 -13   43.78    7.04
  -8   0 -13   47.09    6.54
  -8   0 -14   78.96    8.85
  -8   0 -14   80.45    8.33
  -8   0 -15  134.07   11.20
  -8   0 -15  130.28   10.46
  -8   0 -16   13.88    5.07
  -8   0 -16   13.57    4.89
  -8   0 -17  159.65   12.33
  -8   0 -17  165.78   12.74
  -8   0 -18  111.45   10.74
  -8   0 -18  116.03   10.95
  -8   0 -19   31.29    6.61
  -8   0 -19   29.65    7.08
  -8   0 -20   12.44    5.62
  -8   0 -21   46.42    8.42
  -8   0 -22   10.91    6.00
  -8   0 -23   -4.62    5.68
  -8   0 -24   20.33    7.21
  -8   0 -25   26.65    7.64
  -8   0 -26   52.95   10.30
   9   0   0    1.04    1.60
   9   0   0   -2.32    2.90
   9   0   1   -0.92    2.59
   9   0  -1   -0.59    2.70
   9   0   1    0.18    1.75
   9   0  -2    6.63    3.11
   9   0   2   -2.24    2.28
   9   0   3   -0.48    2.26
   9   0   3   -0.59    1.63
  -9   0   3    0.86    1.52
   9   0   4   -1.34    1.80
   9   0   4    1.36    2.44
  -9   0   4   -1.35    1.66
   9   0   5   -1.20    2.09
  -9   0   5    1.51    1.60
   9   0   5    4.13    3.31
  -9   0   5   -1.32    2.38
  -9   0   6   -0.54    1.56
   9   0   6   -0.33    1.92
   9   0   6    1.98    3.35
  -9   0   7   -0.41    1.63
  -9   0  -7    6.07    5.57
  -9   0  -8    7.20    5.75
  -9   0  -9    8.11    5.74
  -9   0 -10    5.91    5.40
  -9   0 -11    3.29    5.13
  -9   0 -12    2.56    5.04
  -9   0 -13    0.70    4.43
  -9   0 -14   -2.87    4.14
  -9   0 -14   -0.50    3.77
  -9   0 -15   -0.13    3.77
  -9   0 -15   -1.61    4.18
  -9   0 -16   -2.11    4.49
  -9   0 -16   -1.76    4.19
  -9   0 -17   -1.57    4.11
  -9   0 -17   -2.54    4.63
  -9   0 -18   -0.13    4.18
  -9   0 -18   -2.78    4.65
  -9   0 -19   -0.07    4.26
  -9   0 -19   -2.66    4.48
  -9   0 -20   -1.28    4.48
  -9   0 -21    0.52    4.33
  -9   0 -22   -0.33    4.56
  -9   0 -23   -1.52    4.96
  -9   0 -24    1.25    4.78
  -9   0 -25   -0.25    4.82
  -9   0 -26    1.77    5.39
  10   0   0   -0.71    3.15
  10   0  -1   78.06    6.05
  10   0   1   68.95    5.67
  10   0   1   69.23    4.65
  10   0   2  101.80    6.86
  10   0  -2  113.21    7.17
  10   0   2  109.81    5.98
 -10   0   3  114.37    5.14
  10   0   3  104.13    6.14
  10   0   3  111.51    6.42
  10   0   4  160.59    7.66
 -10   0   4  159.98    6.16
 -10   0  -4  183.66   12.64
  10   0   4  166.43    8.18
 -10   0  -5  132.46   11.03
  10   0   5  130.29    7.14
 -10   0   5  128.96    5.80
  10   0   5  133.87    7.76
 -10   0  -6   42.69    7.98
 -10   0   6   27.83    3.16
  10   0   6   30.65    4.64
 -10   0  -7   72.48    9.24
  10   0   7   67.33    6.63
 -10   0   7   61.62    4.54
 -10   0  -8  124.81   11.29
 -10   0   8  114.61    6.47
 -10   0  -9  125.89   11.21
 -10   0 -10   47.83    7.96
 -10   0 -11  171.27   13.14
 -10   0 -12  151.09   12.51
 -10   0 -13   92.84   10.26
 -10   0 -14   81.92    9.75
 -10   0 -15  164.03   13.38
 -10   0 -16   46.15    7.97
 -10   0 -17  165.75   13.76
 -10   0 -18  100.33   10.52
 -10   0 -18  101.12   11.24
 -10   0 -19   34.25    7.05
 -10   0 -19   38.24    7.77
 -10   0 -20   35.68    7.44
 -10   0 -20   35.46    7.39
 -10   0 -21  117.77   12.10
 -10   0 -22   22.06    6.75
 -10   0 -23   83.48   11.08
 -10   0 -24   39.47    8.40
 -10   0 -25   13.68    6.30
  11   0   0   -0.87    3.02
  11   0   1    0.71    2.64
  11   0   1   -0.80    2.00
  11   0  -1    2.58    3.37
  11   0   2   -1.39    2.85
  11   0   2   -0.42    1.85
  11   0   2    0.27    2.04
  11   0   3   -1.99    3.52
  11   0   3   -0.92    1.90
  11   0   3   -0.01    2.12
  11   0   4   -3.10    3.00
 -11   0   4    2.42    1.70
  11   0   4   -1.39    2.21
  11   0   5   -0.22    2.90
 -11   0   5   -0.09    1.51
  11   0   6    0.45    3.20
 -11   0   6   -1.52    1.77
  11   0   7    4.14    3.70
 -11   0  -7    5.31    4.97
 -11   0  -8    7.31    6.01
  11   0   8    3.71    4.00
 -11   0  -9    6.95    5.98
  11   0   9    4.18    4.14
 -11   0 -10    4.92    5.14
 -11   0 -11    3.89    4.65
 -11   0 -12    2.33    4.46
 -11   0 -13   -0.25    4.83
 -11   0 -14    2.80    5.09
 -11   0 -15    3.11    5.07
 -11   0 -16   -0.05    4.66
 -11   0 -17    1.04    4.58
 -11   0 -18   -1.06    4.64
 -11   0 -19    1.46    4.58
 -11   0 -20   -1.35    4.57
 -11   0 -21   -1.29    4.56
  12   0   0  214.44   10.52
  12   0   1  562.98   16.73
  12   0  -1  552.66   16.38
  12   0   2  303.96   12.58
  12   0   2  300.31   10.24
  12   0  -2  285.45   11.68
  12   0   3   25.50    4.59
  12   0   3   30.37    3.89
 -12   0  -4   80.67    9.48
  12   0   4   69.28    5.67
  12   0   4   60.70    6.40
 -12   0  -5  161.91   13.42
  12   0   5  129.66    8.02
 -12   0  -6   94.47   10.18
  12   0   6   98.28    7.38
 -12   0  -7   16.43    6.88
  12   0   7   10.23    3.91
 -12   0  -8  117.75   11.54
  12   0   8  127.65    9.02
 -12   0  -9   26.20    7.31
  12   0   9   25.77    5.22
  12   0  10  190.14   11.86
 -12   0 -10  200.45   15.11
 -12   0 -11  137.31   12.90
  12   0  11  141.58   10.61
 -12   0 -12  145.47   13.24
 -12   0 -13  295.43   18.65
 -12   0 -14  194.28   15.63
 -12   0 -15    9.13    5.64
 -12   0 -16   78.04   10.48
 -12   0 -17  134.52   13.63
 -12   0 -18   55.33    9.29
 -12   0 -19   55.76    9.43
 -12   0 -20   26.62    7.17
 -12   0 -21    1.24    4.34
  13   0   0    0.82    2.96
  13   0  -1   10.53    4.16
  13   0   1    0.49    3.47
  13   0  -2   16.31    4.56
 -13   0  -2   24.27    7.72
  13   0   3   -0.68    3.07
 -13   0  -3   16.27    7.31
 -13   0  -4    7.11    5.79
  13   0   4   -0.80    3.40
  13   0   4    0.39    2.26
  13   0   5    0.21    2.37
  13   0   5   -3.41    3.40
 -13   0  -6    3.53    5.45
  13   0   6   -1.21    2.90
 -13   0  -7    3.76    5.54
  13   0   7   -1.30    3.15
 -13   0  -8    3.13    5.49
  13   0   8    0.39    2.95
  13   0   9   -0.47    3.39
 -13   0  -9    5.36    5.64
  13   0  10    2.38    3.75
 -13   0 -10    2.16    4.76
  13   0  11    5.76    4.70
 -13   0 -11    2.75    5.47
 -13   0 -12    1.95    4.71
  13   0  12    4.26    4.56
  13   0  13    3.87    4.42
 -13   0 -13    1.07    4.68
  13   0  14    5.69    4.91
 -13   0 -14    4.60    5.66
 -13   0 -15   -2.06    4.94
 -13   0 -16   -1.08    4.28
 -13   0 -17   -2.59    5.15
 -13   0 -18   -1.10    4.88
 -13   0 -19   -2.29    5.12
 -13   0 -20   -1.79    4.87
 -13   0 -21    0.06    4.41
  14   0   0   86.49    7.36
 -14   0  -1   93.62   11.14
  14   0   1   80.15    7.17
  14   0  -1   82.87    7.21
 -14   0  -2   43.92    8.52
  14   0   2   32.08    4.93
 -14   0  -3   68.14    9.73
  14   0   3   42.09    5.52
 -14   0  -4  127.60   12.92
  14   0   4  124.52    9.01
 -14   0  -5  102.48   11.90
  14   0   5   94.17    8.21
 -14   0  -6  146.62   13.68
  14   0   6  174.02   11.13
 -14   0  -7  121.01   12.70
 -14   0  -8   21.17    7.33
 -14   0  -9   13.29    5.81
 -14   0 -10  107.84   12.41
 -14   0 -11    5.49    5.08
 -14   0 -12   91.15   11.90
 -14   0 -13   60.69    9.89
 -14   0 -14   29.55    7.89
 -14   0 -15   10.03    5.95
 -14   0 -16   45.45    9.04
 -14   0 -17    5.02    5.18
 -14   0 -18   -1.51    4.99
 -15   0   0   13.83    6.70
 -15   0   1   23.68    7.72
 -15   0  -1   15.49    7.19
 -15   0  -2   16.48    7.41
 -15   0  -3   13.89    6.99
 -15   0  -4   13.10    6.84
 -15   0  -5    9.57    6.58
 -15   0  -6    2.79    5.01
 -15   0  -7    3.54    5.53
 -15   0  -8    4.01    5.76
 -15   0  -9    0.15    5.28
 -15   0 -10    1.38    4.78
 -15   0 -11   -1.80    5.23
 -15   0 -12   -1.02    4.50
 -15   0 -13    2.88    5.47
 -15   0 -14    2.96    5.21
 -15   0 -15   -0.40    5.09
 -15   0 -16   -1.10    4.77
 -16   0   0   14.91    6.68
 -16   0  -1   22.21    7.26
 -16   0   1   20.80    7.29
 -16   0  -2   85.68   11.40
 -16   0   2  100.51   11.93
 -16   0   3  116.91   12.51
 -16   0  -3  104.51   12.38
 -16   0  -4   23.22    7.62
 -16   0   4   34.69    8.12
 -16   0  -5    5.55    5.90
 -16   0  -6   13.91    6.31
 -16   0  -7  115.87   13.34
 -16   0  -8   17.71    7.33
 -16   0  -9   34.31    8.52
 -16   0 -10   12.07    6.04
 -16   0 -11   17.90    7.20
 -16   0 -12   10.72    6.64
 -17   0   0    1.66    5.65
 -17   0  -1    7.63    6.37
 -17   0   1    9.74    6.04
 -17   0   2    9.72    6.25
 -17   0  -2    2.71    5.54
 -17   0   3   12.76    6.70
 -17   0  -3    3.08    5.61
 -17   0  -4    1.44    5.05
 -17   0   4    6.76    5.59
 -17   0   5   10.81    6.42
 -17   0  -5    1.08    4.90
 -17   0  -6    4.67    5.67
 -17   0   6   11.69    6.29
 -17   0   7   10.36    6.12
 -17   0  -7    1.46    5.61
 -17   0  -8    1.78    5.51
 -17   0   8   14.54    6.43
 -17   0  -9   -0.02    5.35
 -17   0   9   17.21    6.44
 -18   0   0   44.57    9.35
 -18   0  -1   34.81    8.58
 -18   0   1   33.08    8.59
 -18   0   2   30.22    8.22
 -18   0  -2   27.36    8.14
 -18   0   3   91.25   12.22
 -18   0  -3   91.93   12.60
 -18   0  -4  130.90   14.72
 -18   0   4  114.37   13.60
 -18   0   5   82.77   11.59
 -18   0   6    9.54    6.23
 -18   0   7   20.21    7.20
 -18   0   8   26.07    7.43
 -19   0   4    4.05    5.53
 -19   0   5    4.32    5.56
 -19   0   6    8.86    6.12
 -19   0   7    2.07    4.79
   0  -1  -3  688.71   11.01
   0   1   3  688.49   11.16
   0   1   4    1.97    2.38
   0  -1  -4   -1.52    3.19
   0   1   5 1296.38   17.90
   0  -1  -5 1275.41   18.19
   0  -1  -6    3.01    3.70
   0   1  -6    1.42    1.00
   0   1  -7  771.04    8.68
   0  -1  -7  773.81   16.63
   0   1  -8   -0.71    1.19
   0  -1  -8    4.08    4.41
   0  -1  -9  908.41   20.18
   0  -1 -10    9.99    4.58
   0  -1 -11   29.12    6.23
   0  -1 -12    4.44    5.39
   0   1  12   -1.19    2.26
   0  -1 -13   73.01    8.08
   0  -1 -14    5.94    5.61
   0  -1 -15   68.28    9.39
   0  -1 -16    7.86    5.99
   0  -1 -17   19.61    7.57
   0  -1 -18    1.73    5.27
   0  -1 -19   33.77    8.69
   0  -1 -20    2.86    5.60
   0  -1 -21   76.28   10.59
   0  -1 -22    5.62    7.11
   0   1 -23   18.86    7.51
   0  -1 -23    0.21    6.22
   0  -1 -24    3.40    5.59
   0   1 -24   11.48    7.77
   0   1 -25   24.42    9.03
   0  -1 -25    4.66    6.19
   0  -1 -26   -2.50    6.86
   0   1 -26   10.37    8.36
   0   1 -27    5.74    6.70
   0  -1 -27   -2.22    7.11
   1  -1  -2   25.81    2.16
   1   1   2   20.32    2.21
   1  -1  -3  979.72   12.56
  -1  -1  -3  964.74   13.71
  -1   1   3  936.60   12.45
   1   1   3  940.76   13.71
   1   1   4 1230.52   16.95
  -1  -1  -4 1203.93   16.73
   1  -1  -4 1197.19   15.63
   1  -1  -5  428.77   10.44
  -1  -1  -5  416.84   11.00
   1   1   5  439.50   11.01
   1  -1  -6  741.94   14.83
  -1  -1  -6  744.91   15.48
   1   1   6  728.77   15.28
  -1   1  -7  477.88    8.93
   1   1   7  484.59   11.86
   1   1   7  458.33   12.68
   1  -1  -7  480.09   12.79
  -1  -1  -7  480.76   13.44
   1   1   8  352.10   10.66
   1  -1  -8  384.43   12.54
  -1  -1  -8  365.75   12.53
  -1   1  -8  329.46    7.87
   1   1   9  474.59   12.78
  -1   1  -9  447.41    9.49
  -1  -1  -9  443.95   14.60
   1  -1  -9  451.59   14.30
  -1   1 -10  345.55    8.74
   1   1  10  347.47   11.28
   1  -1 -10  356.50   13.38
  -1  -1 -10  355.16   13.95
  -1  -1 -11  227.09   12.07
   1   1  11  218.65    9.35
   1  -1 -11  221.17   11.81
  -1   1 -11  215.28    7.25
   1  -1 -12  647.59   19.75
  -1  -1 -12  634.71   19.83
  -1  -1 -13  311.40   15.21
   1  -1 -13  311.81   14.84
   1  -1 -14   67.15    9.12
  -1  -1 -14   62.13    8.75
   1  -1 -15   30.22    7.68
  -1  -1 -15   19.14    7.02
   1  -1 -16  173.07   13.00
  -1  -1 -16  158.07   12.36
   1  -1 -17   89.68    9.87
  -1  -1 -17   80.73    9.59
  -1  -1 -18   30.85    8.44
   1  -1 -18   48.62    9.50
   1  -1 -19  108.64   11.96
  -1  -1 -19  101.59   11.16
   1  -1 -20   67.46    9.92
  -1  -1 -20   75.04   10.66
  -1  -1 -21    6.54    5.31
   1  -1 -21   14.56    6.79
  -1   1 -22   63.51   10.01
   1  -1 -22   55.62    9.99
  -1  -1 -22   56.38    9.93
  -1  -1 -23   43.16    9.55
  -1   1 -23   52.57   10.01
   1  -1 -23   47.84   10.04
  -1   1 -24   17.55    8.29
   1  -1 -24   10.24    7.67
  -1  -1 -24   -0.31    5.59
   1   1 -25  100.44   13.49
  -1  -1 -25   73.20   11.76
   1  -1 -25   90.33   12.77
  -1   1 -25   92.31   12.86
   1   1 -26  101.84   13.36
  -1  -1 -26   77.41   12.39
  -1   1 -26  100.82   13.54
   1  -1 -26   86.55   12.52
  -1   1 -27   16.44    8.61
  -1  -1 -27    3.00    6.66
   1  -1 -27    9.13    6.65
   1   1 -27   22.69    9.36
   2   1   0   -1.01    1.58
  -2  -1   0    0.24    1.72
   2  -1   0    0.29    1.83
  -2   1   0   -1.30    2.02
  -2  -1  -1   17.68    2.42
   2   1  -1   18.16    2.84
   2   1   1   18.57    2.28
   2  -1  -1   20.23    1.45
   2  -1  -1   18.65    2.59
   2  -1   1   16.53    2.27
  -2   1   1   17.34    2.35
  -2  -1   1   17.91    2.57
  -2  -1   1   17.47    2.12
  -2   1  -1   18.92    2.64
   2   1  -2   87.26    4.74
   2  -1  -2   81.92    3.29
   2  -1   2   82.06    4.84
  -2  -1  -2   77.21    4.29
  -2  -1   2   76.08    4.53
   2   1   2   77.96    4.44
   2   1  -2   74.40    3.15
  -2  -1   2   75.76    3.15
  -2  -1   3  546.40   11.22
   2  -1  -3  566.43    9.44
  -2  -1  -3  566.18   11.52
  -2  -1   3  562.24    7.02
   2   1   3  579.46   11.24
   2   1   3  564.29   11.38
  -2  -1  -4   65.68    4.98
   2   1   4   67.06    4.67
   2  -1  -4   80.68    4.80
   2   1   4   68.11    4.66
   2   1   5   16.31    3.29
  -2  -1  -5   15.51    3.85
   2   1   5   16.67    3.17
   2  -1  -5   26.38    4.13
  -2  -1  -6  471.50   12.64
   2   1   6  463.56   11.83
   2   1   6  460.95   12.22
  -2  -1  -7   51.98    5.36
   2   1   7   61.34    5.40
   2   1   7   61.79    4.86
  -2  -1  -8   91.81    6.77
   2   1   8   96.67    6.03
  -2   1  -8  101.96    5.38
  -2  -1  -9   43.69    5.56
  -2   1  -9   50.30    4.11
   2   1   9   50.22    4.71
  -2  -1 -10   23.86    5.10
  -2   1 -10   25.38    3.33
   2   1  10   29.32    4.04
  -2  -1 -11   18.59    4.60
  -2   1 -11   20.71    3.11
  -2  -1 -12  321.34   14.35
   2  -1 -12  352.21   14.93
  -2   1 -12  315.78   10.12
  -2   1 -13   28.13    3.56
  -2  -1 -13   29.73    5.80
   2  -1 -13   47.02    6.94
  -2  -1 -14   83.95    9.05
   2  -1 -14  110.01   10.32
  -2  -1 -15   35.44    7.39
   2  -1 -15   51.79    8.94
  -2  -1 -16   30.45    7.27
   2  -1 -16   37.09    7.23
  -2  -1 -17    6.90    5.61
   2  -1 -17   16.65    7.54
  -2  -1 -18   22.50    7.09
  -2   1 -18   41.94    8.51
   2  -1 -18   41.69    9.18
  -2  -1 -19    4.04    6.44
   2  -1 -19   15.45    7.81
  -2   1 -19   19.09    7.65
  -2   1 -20   39.02    8.86
   2  -1 -20   26.73    8.22
  -2  -1 -20   18.36    6.51
   2  -1 -21   11.21    6.43
  -2  -1 -21    8.03    6.61
  -2   1 -21   24.28    8.27
   2  -1 -22   19.98    7.26
  -2   1 -22   27.08    8.42
  -2  -1 -22   11.23    6.07
  -2   1 -23   17.25    8.05
  -2  -1 -23   -1.87    6.82
   2  -1 -23    7.94    6.61
   2  -1 -24    4.84    6.95
  -2   1 -24    8.27    7.28
  -2  -1 -24    0.50    6.00
   2   1 -25   19.00    8.60
  -2   1 -25    7.86    7.43
  -2  -1 -25   -3.42    7.34
   2  -1 -25    4.68    6.84
   2   1 -26   20.28    9.22
   2  -1 -26    1.17    6.73
  -2   1 -26    3.63    6.85
  -2  -1 -26   -7.85    8.00
   2   1 -27   18.86    8.96
   2  -1 -27    4.89    7.37
  -2  -1 -27    6.36    6.48
  -2   1 -27    1.68    6.03
   3   1   0  377.52    9.09
   3   1   0  402.18    9.50
  -3  -1   0  390.86    9.25
   3  -1   0  391.04    8.91
  -3   1   0  382.84    8.75
   3  -1   1  411.11    9.25
  -3  -1  -1  425.68   10.12
  -3   1  -1  408.79    9.25
   3   1  -1  416.56    9.76
   3   1   1  402.13    9.85
   3  -1  -1  408.91    8.95
  -3   1   1  402.32    9.02
  -3  -1   1  406.15    9.70
  -3  -1   1  402.81    8.99
   3   1  -2  690.25   12.73
  -3  -1   2  668.63   12.71
  -3  -1  -2  702.51   13.48
  -3   1   2  693.87   11.91
   3   1   2  690.55   13.33
   3  -1   2  703.86   12.51
  -3  -1   2  695.74   10.78
  -3  -1   3 1990.39   22.26
   3   1  -3 1882.72   21.12
   3  -1   3 1885.67   21.10
   3   1   3 1941.70   21.87
  -3  -1  -3 1883.26   22.98
   3   1   3 1945.15   22.97
  -3  -1   3 1898.55   16.65
   3   1   4  358.79   10.09
  -3  -1   4  385.04   10.34
  -3  -1  -4  373.11   10.89
  -3  -1   4  355.07    6.89
   3   1   4  373.10   10.58
  -3  -1  -5   50.62    4.83
   3   1   5   48.68    4.31
   3   1   5   44.09    4.35
  -3  -1  -5   47.12    4.61
  -3  -1   5   63.94    5.23
  -3  -1  -6  605.06   14.51
   3   1   6  628.38   14.66
  -3  -1  -6  612.29   14.68
   3   1   6  620.86   14.58
  -3  -1  -7  210.14    9.37
   3   1   7  207.90    9.01
  -3  -1  -7  207.57    9.26
   3   1   7  214.88    9.20
   3   1   8  134.77    7.45
  -3  -1  -8  130.84    8.13
  -3   1  -8  134.51    7.03
  -3  -1  -9  409.88   14.15
  -3   1  -9  397.37   11.59
  -3  -1 -10   99.33    8.05
  -3   1 -10  105.19    6.49
  -3   1 -11   65.15    5.34
  -3  -1 -11   59.81    6.94
  -3  -1 -12  227.55   12.42
  -3   1 -12  221.47    9.49
  -3  -1  13  237.17    4.34
  -3  -1 -13  269.33   13.89
  -3   1 -13  261.12   10.52
  -3  -1 -14   62.78    8.27
  -3   1 -14   63.24    5.51
  -3  -1  14   51.24    2.14
  -3  -1 -15   21.96    6.01
   3  -1 -15   34.28    7.60
  -3   1 -15   22.14    3.97
  -3   1 -16   64.26    9.16
  -3  -1 -16   38.25    6.99
   3  -1 -16   50.67    7.98
   3  -1 -17   99.33   10.90
  -3   1 -17  116.72   11.30
  -3  -1 -17   86.32    9.65
   3  -1 -18   30.26    8.65
  -3  -1 -18    9.98    5.76
  -3   1 -18   27.36    8.06
   3  -1 -19  110.47   12.02
  -3   1 -19  105.69   11.28
  -3  -1 -19   82.90   10.41
   3  -1 -20   58.27    9.98
  -3  -1 -20   38.40    8.52
  -3   1 -20   53.96    9.13
   3  -1 -21   16.98    7.92
  -3   1 -21   11.05    6.32
  -3  -1 -21    2.98    4.85
   3  -1 -22   35.63    9.15
  -3   1 -22   40.95    8.57
  -3  -1 -22   26.58    8.06
  -3   1 -23   92.03   11.60
   3  -1 -23  106.91   13.21
  -3  -1 -23   93.61   12.03
  -3  -1 -24   20.27    7.63
  -3   1 -24   18.37    7.14
   3  -1 -24   24.26    8.91
   3  -1 -25   37.05    9.56
  -3   1 -25   37.90    8.93
  -3  -1 -25   31.54    8.44
   3   1 -26   25.35    8.90
  -3  -1 -26    3.59    6.68
   3  -1 -26    8.21    6.89
  -3   1 -26    8.02    6.41
  -3   1 -27   17.59    7.40
  -3  -1 -27   11.92    7.35
  -4   1   0  128.40    5.57
  -4  -1   0  139.61    6.71
   4   1   0  134.57    6.47
   4  -1   0  131.24    5.72
  -4  -1   1   17.33    3.66
   4  -1   1    8.85    2.76
   4   1  -1    9.02    3.40
   4  -1  -1    8.52    2.42
  -4   1  -1   11.06    2.70
  -4   1   1   11.78    2.50
  -4  -1  -1   14.29    3.89
  -4   1   2   39.83    2.00
   4   1  -2   49.57    4.85
  -4  -1   2   48.92    4.16
  -4  -1  -2   44.78    4.86
  -4  -1   2   47.49    4.15
   4  -1   2   44.45    4.18
   4   1   2   48.29    4.47
  -4   1   2   40.76    3.53
  -4   1  -3   23.55    1.95
   4   1   3   27.75    3.64
   4  -1   3   28.25    4.19
   4   1  -3   35.84    4.46
  -4   1   3   22.38    2.93
  -4  -1   3   33.42    3.62
  -4  -1  -3   26.31    4.78
  -4  -1   3   21.56    3.22
   4   1   4  222.47    9.09
  -4   1  -4  216.03    6.05
  -4  -1   4  226.49    8.62
   4   1   4  225.52    8.36
  -4  -1  -4  220.12    9.33
  -4  -1   5   67.54    5.39
   4   1   5   57.90    4.77
  -4   1  -5   60.12    4.04
  -4  -1  -5   60.47    5.83
   4   1   5   66.71    5.65
   4   1   6   57.05    5.33
  -4  -1  -6   56.42    5.96
  -4   1  -6   63.62    4.56
  -4  -1  -6   59.52    5.34
   4   1   6   58.10    4.97
  -4  -1   6   65.73    5.58
  -4   1  -7   40.31    4.42
   4   1   7   38.51    4.43
  -4  -1  -7   33.59    5.08
  -4  -1  -7   36.38    4.70
  -4  -1  -8  113.22    7.74
  -4   1  -8  125.97    7.11
  -4  -1  -8  111.45    7.49
  -4   1  -9   16.30    4.50
  -4  -1  -9    2.46    2.93
  -4  -1  -9    1.60    3.92
  -4   1  -9   14.68    4.30
  -4  -1 -10  374.88   13.91
  -4   1 -10  379.43   13.09
  -4   1 -10  383.16   12.70
  -4  -1 -10  391.59   14.81
  -4   1 -11   71.83    6.87
  -4  -1 -11   58.63    6.45
  -4   1 -11   62.16    5.81
  -4   1 -12   52.05    5.50
  -4   1 -12   59.14    6.96
  -4  -1 -12   41.81    6.41
  -4   1 -13   41.54    6.83
  -4  -1 -13   32.13    6.05
  -4   1 -13   32.46    4.76
  -4  -1 -14   17.64    5.60
  -4   1 -14   33.35    6.92
  -4  -1  14   17.58    1.42
  -4   1 -14   18.42    4.04
  -4  -1 -15    6.58    5.68
  -4  -1  15    6.26    0.91
  -4   1 -15    7.13    3.28
  -4   1 -16  173.68    9.93
  -4  -1 -16  177.14   13.00
  -4   1 -16  194.15   13.12
  -4  -1 -17   14.95    6.64
  -4   1 -17    7.94    3.24
  -4   1 -17   20.32    6.59
  -4  -1 -18   37.65    7.69
   4  -1 -18   63.92    9.72
  -4   1 -18   47.40    8.58
   4  -1 -19   43.72    8.77
  -4   1 -19   49.89    8.69
  -4  -1 -19   29.65    7.44
   4  -1 -20   15.11    7.26
  -4  -1 -20   -1.79    6.30
  -4   1 -20   15.07    6.67
  -4  -1 -21   -2.06    6.28
   4  -1 -21   12.55    6.92
  -4   1 -21    9.05    5.80
  -4   1 -22    6.50    5.52
  -4  -1 -22    4.64    5.25
   4  -1 -22   14.79    7.03
   4  -1 -23    9.01    6.98
  -4  -1 -23    1.49    6.27
  -4   1 -23    9.44    6.57
  -4   1 -24   32.78    8.43
   4  -1 -24   36.91    9.02
  -4  -1 -24   30.09    8.13
  -4   1 -25    2.75    6.20
   4  -1 -25   13.63    7.53
  -4  -1 -25    1.29    6.48
   4  -1 -26    7.34    6.99
  -4  -1 -26   -2.73    6.73
  -4   1 -26    2.71    6.45
  -4   1 -27    0.13    6.45
   5  -1   0   19.16    1.56
   5  -1   0   19.51    3.24
   5   1   0   19.48    3.56
  -5  -1   0   27.15    4.18
  -5   1   0   20.64    2.93
   5   1  -1   18.10    3.68
  -5  -1   1   32.65    4.48
   5  -1   1   20.65    3.18
  -5  -1  -1   25.33    4.78
  -5   1  -1   26.32    3.32
  -5   1   1   22.86    2.97
   5  -1  -1   28.72    1.83
   5  -1  -1   21.19    3.08
  -5  -1  -2   18.98    4.73
  -5  -1   2   30.82    4.42
   5   1  -2   13.79    3.88
  -5   1   2   14.37    1.54
  -5   1   2   14.73    2.60
  -5  -1   2   13.89    2.92
   5  -1   2   11.86    3.17
   5  -1   3  122.70    6.74
  -5   1   3  120.50    5.91
  -5  -1  -3  126.54    7.90
  -5   1   3  120.68    4.21
   5   1  -3  128.76    7.12
  -5  -1   3  126.09    6.60
  -5  -1   4 1010.99   18.65
   5  -1   4  993.43   17.76
  -5  -1  -4 1003.24   20.39
  -5   1   4  951.54   12.29
   5   1   4 1010.59   17.98
  -5   1  -4  990.66   12.44
   5   1   5  170.09    7.98
  -5   1  -5  181.30    6.34
  -5  -1  -5  183.50    9.61
  -5  -1   5  168.50    8.17
  -5  -1   6  603.74   15.32
   5   1   6  606.26   15.36
  -5   1  -6  582.30   12.33
  -5  -1  -6  611.89   16.98
  -5  -1  -7    5.05    4.31
  -5   1  -7    5.11    2.60
  -5  -1  -8   13.97    4.03
  -5   1  -8   16.92    3.56
  -5  -1  -8   15.96    4.50
  -5   1  -9   23.04    4.86
  -5  -1  -9   13.23    4.20
  -5   1  -9   16.81    3.92
  -5  -1  -9    9.43    3.59
  -5  -1 -10  295.60   13.03
  -5   1 -10  307.67   11.83
  -5  -1 -10  292.13   12.97
  -5   1 -10  303.88   12.36
  -5   1 -11  122.85    8.33
  -5   1 -11  120.83    8.28
  -5  -1 -11  113.27    8.52
  -5  -1 -11  120.44    9.06
  -5  -1 -12   88.82    7.89
  -5   1 -12   92.08    7.97
  -5  -1 -12   90.79    8.49
  -5   1 -12   98.55    7.69
  -5   1 -13   53.59    6.80
  -5  -1 -13   52.44    7.13
  -5   1 -13   50.72    6.04
  -5   1 -14  106.65    8.33
  -5  -1 -14  109.47    9.96
  -5   1 -14  111.84    9.42
  -5  -1 -15  167.43   12.46
  -5   1 -15  167.14   10.24
  -5   1 -15  166.71   11.69
  -5   1 -16  359.91   15.08
  -5  -1 -16  360.10   17.78
  -5   1 -16  366.06   17.23
  -5   1 -17   30.25    5.25
  -5  -1 -17   22.60    6.57
  -5   1 -17   32.32    6.92
  -5  -1 -18   14.23    6.28
  -5   1 -18   27.33    7.13
  -5   1 -18   21.36    4.53
  -5  -1 -19   16.05    6.47
  -5   1 -19   25.49    6.65
   5  -1 -20   15.48    7.11
  -5  -1 -20   -4.78    6.49
  -5   1 -20    3.18    5.55
   5  -1 -21   37.79    8.61
  -5  -1 -21   16.08    7.00
  -5   1 -21   37.04    8.16
  -5   1 -22   17.37    6.50
   5  -1 -22   24.69    7.60
  -5  -1 -22    8.44    5.84
  -5  -1 -23   -0.27    5.37
   5  -1 -23    9.54    6.34
  -5   1 -23    3.69    5.66
  -5   1 -24    3.75    5.97
  -5  -1 -24    6.67    6.32
   5  -1 -24   18.52    7.72
   5  -1 -25   54.85   10.77
  -5  -1 -25   47.30    9.54
  -5   1 -25   51.71    9.87
  -5   1 -26   72.42   11.49
  -5  -1 -26   70.67   11.69
   5  -1 -26   72.74   12.20
  -5   1 -27   30.08    8.66
   6   1   0   -2.60    3.33
   6  -1   0    0.45    1.19
   6  -1   0    1.55    2.27
  -6   1   0    2.44    2.03
  -6  -1  -1   15.89    4.73
   6  -1   1    8.22    1.02
   6  -1  -1   14.11    1.86
   6  -1   1   11.77    3.04
   6  -1  -1    7.34    2.45
   6   1   1   10.94    1.50
   6   1  -1    3.62    3.38
  -6   1   1    8.56    2.37
  -6   1  -1   11.45    2.85
   6   1  -2    1.14    3.32
  -6   1   2    1.88    1.86
   6  -1   2   -2.18    2.81
   6  -1   2    3.04    1.01
  -6  -1  -2    4.56    4.35
   6  -1   3   61.63    5.20
  -6  -1  -3   71.02    6.94
   6   1  -3   65.65    5.77
  -6  -1   3   58.20    5.00
  -6   1   3   56.05    4.29
  -6   1   3   58.74    3.26
  -6  -1  -4   82.28    7.54
  -6  -1   4   77.60    5.87
   6   1  -4   90.67    6.78
  -6   1   4   74.32    4.04
   6  -1   4   86.34    6.19
  -6   1   4   74.63    5.02
   6   1   4   79.55    5.57
  -6  -1   5  340.45   11.84
  -6   1  -5  343.04    8.53
   6   1   5  348.49   11.60
  -6  -1  -5  342.46   13.68
  -6   1   5  339.69    8.75
   6  -1   5  333.11   11.54
  -6  -1  -6  279.16   12.61
  -6   1  -6  261.97    8.41
  -6  -1  -7  184.95   10.59
  -6   1  -7  174.30    7.52
  -6  -1  -8   26.65    5.29
  -6   1  -8   18.39    3.20
  -6  -1  -9   28.84    5.50
  -6   1  -9   28.62    4.18
  -6   1  -9   40.10    6.17
  -6   1 -10    2.05    2.89
  -6  -1 -10    2.68    3.74
  -6   1 -10   11.98    4.79
  -6  -1 -10    3.22    3.87
  -6  -1 -11   60.71    7.13
  -6   1 -11   69.99    7.35
  -6   1 -11   57.92    6.08
  -6  -1 -11   58.79    6.93
  -6  -1 -12   45.99    6.37
  -6  -1 -12   48.27    6.53
  -6   1 -12   48.75    6.17
  -6   1 -12   55.56    6.78
  -6  -1 -13   11.54    4.38
  -6   1 -13   12.75    4.80
  -6  -1 -13   14.69    5.47
  -6   1 -13   17.91    4.86
  -6  -1 -14  209.08   13.10
  -6   1 -14  189.47   11.73
  -6   1 -14  193.45   11.65
  -6   1 -15   72.81    8.32
  -6   1 -15   76.62    7.96
  -6  -1 -15   75.34    9.18
  -6   1 -16   13.03    5.15
  -6   1 -16   10.27    4.36
  -6  -1 -16   14.22    6.01
  -6   1 -17   17.98    5.94
  -6   1 -17   11.95    4.23
  -6  -1 -17   10.78    5.75
  -6   1 -18    6.76    3.80
  -6   1 -18    9.42    5.52
  -6  -1 -18   12.34    5.37
  -6   1 -19   33.34    5.74
  -6   1 -19   33.10    7.01
  -6  -1 -19   31.70    7.44
  -6  -1 -20   70.89   10.02
  -6   1 -20   74.20    9.60
   6  -1 -20   90.65   11.30
  -6   1 -21   19.83    6.50
  -6  -1 -21   16.73    6.83
   6  -1 -21   31.22    8.42
   6  -1 -22   24.36    7.71
  -6  -1 -22   18.90    7.27
  -6   1 -22   10.16    5.87
  -6   1 -23   24.57    7.19
   6  -1 -23   44.01    9.35
  -6  -1 -23   29.65    7.82
  -6   1 -24    5.48    6.08
  -6  -1 -24    8.40    6.13
   6  -1 -24   19.38    8.18
  -6   1 -25    7.43    5.76
   6  -1 -25   22.77    8.58
  -6  -1 -25   16.08    7.46
  -6  -1 -26   16.88    7.15
  -6   1 -26   15.48    6.60
   6  -1 -26   27.36    9.31
  -6   1 -27   -1.12    6.19
   7   1   0    0.67    3.05
   7  -1   0   -0.93    1.62
  -7   1   0    1.23    2.07
   7  -1   0    0.08    2.12
   7   1   1   11.60    1.48
  -7   1   1   10.84    2.49
   7  -1  -1   10.10    2.60
  -7  -1   1   26.20    5.43
   7   1   1    9.19    3.43
   7   1  -1    0.45    3.93
   7  -1   1   12.85    3.14
   7  -1  -1   18.87    2.37
   7  -1   1   10.90    1.32
  -7  -1  -1   19.51    5.19
  -7  -1   2  563.24   15.55
   7  -1   2  533.80    7.93
   7  -1   2  560.04   13.77
  -7   1   2  553.97   12.92
  -7  -1  -2  558.04   16.82
   7   1  -2  569.67   14.72
   7  -1   3  279.27   10.16
  -7  -1   3  277.12   10.64
  -7   1   3  270.65    9.18
   7  -1   3  266.42    6.12
   7   1  -3  277.33   10.90
  -7  -1  -3  270.14   12.08
   7   1   4  170.27    8.13
  -7   1   4  162.12    7.35
  -7   1   4  162.06    5.88
  -7  -1   4  148.45    3.72
  -7  -1  -4  166.64   10.13
   7  -1   4  161.48    8.21
   7   1  -4  170.03    8.88
  -7   1   5  221.75    8.79
  -7  -1  -5  237.75   12.06
   7  -1   5  226.09   10.00
  -7   1   5  228.22    7.52
   7  -1   6  174.67    9.37
  -7   1   6  180.41    7.26
  -7  -1  -6  184.20   11.00
  -7   1   7   97.93    5.79
  -7   1  -7   94.31    5.63
  -7  -1  -7   98.51    8.65
  -7  -1  -8   81.80    8.29
  -7   1  -8   76.44    5.54
  -7   1  -9    4.84    2.72
  -7  -1  -9    7.52    4.79
  -7   1 -10   47.38    5.23
  -7   1 -10   56.13    7.26
  -7  -1 -10   48.01    7.04
  -7  -1 -11  102.61    9.43
  -7   1 -11  106.29    9.20
  -7   1 -11   89.29    7.27
  -7  -1 -12   65.77    7.81
  -7   1 -12   70.99    6.90
  -7   1 -12   76.98    8.12
  -7  -1 -12   70.35    8.30
  -7  -1 -13   24.80    5.59
  -7  -1 -13   22.56    5.78
  -7   1 -13   25.79    5.23
  -7   1 -13   29.67    5.81
  -7  -1 -14  549.74   20.70
  -7  -1 -14  552.08   21.13
  -7   1 -14  534.70   19.72
  -7   1 -14  548.19   19.32
  -7  -1 -15   59.47    8.45
  -7  -1 -15   63.25    8.30
  -7   1 -15   65.63    7.86
  -7   1 -15   60.34    7.58
  -7   1 -16  311.38   15.73
  -7  -1 -16  323.52   17.11
  -7   1 -16  294.63   15.57
  -7   1 -17   35.62    6.18
  -7  -1 -17   35.74    7.11
  -7   1 -17   33.33    6.61
  -7  -1 -18   39.86    7.80
  -7   1 -18   39.75    7.19
  -7   1 -18   41.38    6.64
  -7   1 -19   40.68    7.37
  -7  -1 -19   44.73    8.04
  -7   1 -19   44.38    6.82
  -7   1 -20   60.90    9.00
  -7   1 -20   63.32    8.03
  -7  -1 -20   57.18    9.05
   7  -1 -21   42.59    9.36
  -7   1 -21   26.80    7.26
  -7  -1 -21   26.79    7.28
   7  -1 -22   64.35   10.67
  -7  -1 -22   45.98    8.89
  -7   1 -22   41.55    7.99
  -7  -1 -23   13.36    6.47
  -7   1 -23   10.39    5.80
  -7  -1 -24  143.19   14.71
   7  -1 -24  154.58   15.59
  -7   1 -24  130.53   13.74
  -7  -1 -25   26.70    8.04
   7  -1 -25   44.75   10.42
  -7   1 -25   24.23    7.91
  -7   1 -26    5.68    5.46
  -7  -1 -26    9.37    6.93
  -7   1 -27   -5.56    6.83
   8  -1   0   -0.81    1.83
   8   1   0    0.13    3.04
   8  -1   0    0.65    2.19
  -8   1   0    2.13    2.32
  -8  -1   1   62.28    6.84
  -8  -1  -1   53.58    6.69
   8  -1  -1   53.02    3.57
   8   1  -1   42.63    4.95
   8  -1   1   44.32    2.54
  -8   1   1   45.44    4.19
   8  -1   1   50.22    4.67
   8   1   1   45.30    5.10
   8   1   1   45.67    2.55
   8  -1   1   46.18    3.44
   8  -1  -1   45.52    4.36
   8   1   2   52.86    3.33
   8   1  -2   49.72    5.55
  -8   1   2   46.72    4.20
  -8  -1   2   67.71    6.97
  -8  -1  -2   57.37    7.22
   8  -1   2   46.85    4.77
   8  -1   2   46.09    2.68
   8  -1   3   26.10    4.02
  -8   1   3   27.26    3.30
   8  -1   3   28.40    2.39
  -8  -1  -3   32.12    5.88
   8   1  -3   36.30    5.25
   8   1  -4   24.60    4.98
  -8   1   4    8.42    2.01
  -8  -1  -4   15.03    4.89
  -8   1   4   10.10    2.46
   8  -1   4    9.54    3.52
  -8  -1   5    5.30    1.09
  -8   1   5    6.11    2.19
  -8   1   5    5.08    1.98
  -8  -1  -5   11.35    5.19
   8  -1   5    6.61    3.41
  -8   1   6    5.21    2.07
   8  -1   6    9.38    4.10
  -8   1   6    6.59    2.36
  -8  -1  -6   12.47    5.41
  -8   1   7   30.29    3.76
  -8  -1  -7   31.74    6.21
   8  -1   7   39.31    5.78
  -8  -1  -8   22.70    5.23
  -8   1   8   28.89    3.99
  -8   1  -9    7.40    2.94
  -8  -1  -9    6.95    4.30
  -8  -1 -10   16.51    5.52
  -8   1 -10   13.47    3.39
  -8   1 -11   30.94    6.21
  -8   1 -11   22.02    4.25
  -8  -1 -11   18.84    5.66
  -8   1 -12    8.87    5.26
  -8   1 -12    0.74    3.16
  -8  -1 -12   -0.07    4.79
  -8  -1 -13   -3.22    5.22
  -8   1 -13    5.07    4.58
  -8   1 -13    2.59    3.50
  -8   1 -14    0.19    3.47
  -8  -1 -14   -2.07    5.02
  -8   1 -14    2.03    4.27
  -8   1 -15    8.22    4.81
  -8  -1 -15    3.03    4.35
  -8   1 -15    5.76    4.19
  -8  -1 -15    4.89    4.26
  -8  -1 -16   23.14    6.01
  -8   1 -16   15.81    4.81
  -8  -1 -16   17.40    5.70
  -8   1 -16   22.55    5.63
  -8   1 -17   23.35    5.78
  -8   1 -17   35.96    6.73
  -8  -1 -17   32.70    6.73
  -8   1 -18   24.59    6.24
  -8   1 -18   22.79    5.75
  -8  -1 -18   23.99    6.46
  -8   1 -19   10.62    5.27
  -8   1 -19   10.88    4.69
  -8  -1 -19   12.48    5.85
  -8  -1 -20    0.76    5.06
  -8   1 -20    1.50    3.57
  -8   1 -20    0.74    4.93
  -8   1 -21    0.83    3.65
  -8  -1 -21   -0.17    4.98
  -8   1 -21   -1.48    5.31
  -8  -1 -22    5.93    5.15
  -8   1 -22   -1.80    5.25
  -8  -1 -23   -0.74    4.90
  -8   1 -23   -4.94    6.01
   8  -1 -23   12.28    7.04
  -8  -1 -24    5.64    5.61
   8  -1 -24   13.36    6.98
  -8   1 -24    9.00    5.91
  -8  -1 -25   -0.88    5.25
   8  -1 -25    8.58    7.02
  -8   1 -25   -2.05    5.32
  -8   1 -26    6.78    5.94
   9   1   0  504.58   15.41
   9  -1   0  483.16   13.24
   9  -1   0  481.92   10.65
  -9  -1   0  506.72   17.64
  -9   1   1  387.52   11.61
   9   1  -1  392.55   13.84
   9   1   1  405.49    7.36
   9  -1  -1  392.05    9.37
   9  -1   1  410.18   12.46
   9   1   1  398.33   13.84
   9  -1   1  402.31   10.07
   9  -1   1  399.26    7.89
  -9  -1  -1  409.37   16.24
  -9  -1   1  410.10   15.63
   9  -1   2  121.71    4.48
  -9  -1  -2  139.92   10.37
   9   1   2  131.26    8.35
   9   1  -2  123.89    8.13
  -9   1   2  124.22    6.73
  -9  -1   2  152.70   10.04
   9  -1   2  130.15    7.48
   9   1   2  135.78    5.08
  -9  -1  -3  243.44   13.11
  -9   1   3  237.43    9.16
   9   1   3  251.08    7.75
   9   1  -3  259.62   11.22
   9  -1   3  234.98    6.44
   9  -1   3  237.42   10.17
   9   1  -4  139.06    8.85
  -9  -1  -4  144.09   10.68
   9  -1   4  134.03    5.23
  -9   1   4  133.71    7.03
   9  -1   4  134.55    8.13
   9  -1   5  281.25   11.83
  -9   1   5  273.05   10.21
  -9   1   5  282.81    8.97
  -9  -1   5  246.76    5.04
  -9  -1  -5  276.29   14.04
  -9   1   6   92.28    5.59
  -9  -1  -6  101.35    9.60
   9  -1   6   91.26    7.56
  -9  -1   6   87.46    3.75
   9  -1   7  144.17    9.32
  -9   1   7  115.25    6.64
  -9  -1  -7  138.15   10.91
   9  -1   8  117.87    8.89
  -9  -1  -8  108.39    9.88
  -9   1   8   99.25    6.53
  -9   1  -9  315.88   16.07
   9  -1   9  286.79   13.95
  -9  -1  -9  291.21   15.71
  -9   1 -10   30.29    7.12
  -9  -1 -10    8.64    5.53
  -9   1 -11  518.35   16.35
  -9   1 -11  536.67   20.92
  -9  -1 -11  530.93   21.40
  -9  -1 -12   44.99    7.48
  -9   1 -12   54.83    8.12
  -9   1 -12   44.22    5.74
  -9   1 -13   -1.11    3.16
  -9  -1 -13    1.16    3.89
  -9   1 -13    9.69    5.42
  -9   1 -14    2.55    4.18
  -9   1 -14    0.13    3.30
  -9  -1 -14    1.09    4.45
  -9  -1 -15  161.25   13.01
  -9   1 -15  157.00   12.43
  -9   1 -15  146.84   10.78
  -9   1 -16   31.57    5.93
  -9   1 -16   32.56    6.64
  -9  -1 -16   24.55    6.51
  -9   1 -17  329.06   17.95
  -9   1 -17  326.82   16.84
  -9  -1 -17  326.11   18.80
  -9   1 -18    1.48    3.99
  -9   1 -18    0.64    3.91
  -9   1 -19   22.35    5.84
  -9  -1 -19   21.24    6.55
  -9   1 -19   24.74    5.99
  -9   1 -20   10.45    5.15
  -9  -1 -20    7.01    5.09
  -9   1 -20   10.99    4.93
  -9   1 -21   67.39    8.90
  -9  -1 -21   71.96   10.23
   9  -1 -21   90.90   12.01
  -9   1 -21   70.94    9.59
  -9   1 -22   28.18    7.14
  -9  -1 -22   29.67    7.68
   9  -1 -22   44.98    9.46
   9  -1 -23   32.43    8.96
  -9   1 -23   22.99    6.93
  -9  -1 -23   19.50    6.69
  -9   1 -24   -2.54    4.67
   9  -1 -24    8.08    6.78
  -9  -1 -24   -3.77    5.47
   9  -1 -25   14.09    7.43
  -9   1 -25    8.70    5.78
  -9  -1 -25    7.04    5.64
  -9   1 -26   21.63    7.17
  10   1   0    5.87    3.69
  10  -1   0   10.71    2.61
 -10  -1   0   19.57    5.98
  10  -1   0   12.17    3.08
  10  -1  -1   23.41    3.27
  10   1   1   16.55    1.75
 -10   1   1   20.75    3.47
  10   1  -1   14.45    4.16
 -10  -1  -1   23.53    6.08
  10  -1   1   14.60    1.90
  10  -1   1   15.11    2.73
 -10  -1   1   35.76    6.90
  10  -1   1   15.34    3.40
  10   1   1   13.43    4.08
  10  -1   2    3.29    1.23
  10  -1   2    4.67    2.78
  10   1  -2    5.20    3.87
  10  -1   2    2.57    2.07
 -10   1   2    4.91    2.48
  10   1   2    5.73    1.72
  10   1   2    4.37    3.47
 -10  -1  -2   15.47    5.94
 -10  -1  -3    4.88    4.80
  10   1   3    2.74    1.83
 -10   1   3    1.83    1.97
  10   1  -3    7.64    4.59
  10  -1   3    2.69    1.45
  10  -1   3    3.13    2.82
  10   1   4    3.65    2.36
  10  -1   4    0.53    3.49
  10  -1   4    8.90    2.08
 -10   1   4    1.79    2.00
 -10  -1  -4   10.50    5.73
  10  -1   5   -1.13    3.36
  10   1   5    3.36    2.93
 -10  -1  -5    1.48    4.85
 -10  -1   6   10.66    1.37
 -10   1   6   11.14    2.65
  10  -1   6   12.08    4.26
 -10  -1  -6   14.70    5.94
 -10  -1  -7   21.09    6.08
 -10  -1   7   20.30    2.11
  10  -1   7   20.86    4.89
 -10   1   7   18.42    3.25
  10  -1   8    1.69    4.12
 -10  -1  -8    4.32    5.71
 -10  -1   8    0.02    1.33
 -10   1  -9   19.84    7.23
  10  -1   9   17.63    5.54
 -10  -1  -9   10.88    5.34
  10  -1  10    7.24    5.09
 -10   1 -10   11.84    6.01
 -10  -1 -10    3.18    4.85
 -10   1 -11    6.17    5.24
 -10  -1 -11    0.06    5.08
  10  -1  11    8.73    5.39
 -10  -1 -12   14.13    5.75
 -10   1 -12   16.16    6.03
 -10  -1 -13   20.09    5.84
 -10   1 -13   22.71    6.50
 -10   1 -14    1.67    4.85
 -10  -1 -14    0.39    4.85
 -10   1 -14   -0.11    3.03
 -10   1 -15   10.30    4.18
 -10   1 -15   10.93    5.08
 -10  -1 -15    6.91    5.35
 -10  -1 -16    0.71    5.02
 -10   1 -16    4.46    4.79
 -10   1 -16    3.74    3.65
 -10  -1 -17    2.84    4.24
 -10   1 -17    6.57    4.90
 -10   1 -17    5.22    3.99
 -10   1 -18    4.00    4.03
 -10   1 -18    3.53    4.37
 -10   1 -19    1.30    3.89
 -10   1 -19    8.13    4.66
 -10   1 -20    0.91    4.06
 -10   1 -20    2.11    3.98
 -10   1 -21    3.33    4.28
 -10   1 -21    4.70    4.62
 -10   1 -22    0.23    4.04
 -10   1 -22    3.97    4.78
 -10   1 -23    2.40    4.41
  10  -1 -23   21.00    7.86
  10  -1 -24   12.50    7.20
 -11  -1   0   11.69    6.03
  11  -1   0    3.61    2.50
  11   1   0   -1.80    4.90
  11   1   1   20.46    4.81
 -11  -1   1   35.67    7.19
  11  -1   1   22.19    2.34
  11  -1  -1   34.06    3.98
  11   1  -1   15.59    4.60
  11  -1   1   19.30    3.63
  11  -1   1   20.90    3.21
 -11  -1  -1   32.54    7.19
  11  -1   2  445.24   14.23
  11   1  -2  440.39   15.62
  11   1   2  441.70   16.08
  11  -1   2  440.87   12.36
  11   1   2  454.68    9.35
 -11  -1   2  445.59   18.09
 -11  -1  -2  431.21   18.80
 -11  -1   3  154.32   11.26
  11  -1   3  132.23    8.23
  11  -1   3  136.64    7.24
  11   1   3  127.24    9.15
 -11  -1  -3  133.39   11.29
  11   1  -3  141.36    9.37
  11   1   3  137.13    5.97
  11  -1   4   22.61    4.41
  11   1  -4   49.02    6.80
 -11  -1   4   49.11    7.58
  11   1   4   26.90    3.46
 -11  -1  -4   39.88    7.78
  11  -1   5   24.80    4.63
  11   1   5   27.17    3.96
 -11  -1  -5   29.97    6.99
  11   1   6  105.91    6.94
 -11  -1  -6   99.15   10.33
  11  -1   6   96.53    7.95
  11  -1   7  129.56    9.36
 -11  -1  -7  134.10   11.94
 -11  -1  -8  140.33   12.29
 -11   1  -8  172.71   13.69
  11  -1   8  142.53   10.14
 -11  -1  -9  115.46   11.53
 -11   1  -9  133.91   12.33
  11  -1   9  112.99    9.43
  11  -1  10  147.68   11.16
 -11  -1 -10  140.72   12.48
 -11   1 -10  153.00   13.05
 -11   1 -11   34.61    7.90
  11  -1  11   27.44    6.45
 -11  -1 -11   18.43    5.81
  11  -1  12  286.98   15.78
 -11  -1 -12  293.79   18.08
 -11   1 -12  277.08   17.13
  11  -1  13  245.62   15.03
 -11  -1 -13  236.37   16.38
 -11   1 -13  243.86   16.23
 -11   1 -14  155.12   13.39
 -11  -1 -14  149.96   13.44
 -11  -1 -15   42.20    8.34
 -11   1 -15   51.64    8.52
 -11   1 -16    2.10    4.27
 -11  -1 -16    0.41    4.82
 -11  -1 -17   11.99    5.44
 -11   1 -17    8.19    4.99
 -11  -1 -18  168.19   14.93
 -11   1 -18  169.80   14.49
 -11   1 -19   36.15    7.65
 -11   1 -20   20.50    6.26
 -11   1 -21   14.53    5.57
  11  -1 -21   30.44    8.19
  11  -1 -22   25.97    8.35
 -11   1 -22   -2.05    4.60
  11  -1 -23   22.08    7.90
  11  -1 -24   68.29   11.30
 -12  -1   0   17.61    6.56
  12  -1   0   12.72    3.34
 -12  -1   1   37.99    7.57
  12   1  -1   28.86    5.70
  12   1   1   24.51    5.09
  12  -1   1   29.95    4.32
  12  -1   1   29.42    3.84
 -12  -1  -1   40.55    7.80
  12  -1   2   57.66    5.14
  12   1  -2   63.74    7.53
  12  -1   2   60.33    5.91
  12   1   2   60.84    6.96
  12   1   2   59.65    3.46
 -12  -1  -2   68.50    9.30
 -12  -1   2   69.62    8.95
  12   1   3  101.32    8.74
  12  -1   3  112.20    7.87
 -12  -1   3  119.36   10.75
  12   1   3  113.99    5.44
 -12  -1  -3  114.71   11.10
  12  -1   3  111.10    7.02
  12   1  -3  118.07    9.32
  12  -1   4   41.36    4.72
 -12  -1   4   55.04    8.02
 -12  -1  -4   42.35    7.82
  12  -1   4   41.86    5.41
  12   1   4   36.75    5.82
  12   1   4   39.35    3.83
  12  -1   5   16.48    4.01
 -12  -1   5   32.60    6.79
 -12  -1  -5   23.04    6.41
  12   1   5   22.08    3.48
  12  -1   6    5.74    3.52
  12   1   6    7.85    3.01
 -12  -1  -6    5.33    5.58
  12   1   7    4.65    3.18
 -12  -1  -7    3.41    5.03
  12  -1   7    0.05    3.38
 -12  -1  -8   11.44    5.72
  12   1   8   16.32    4.03
  12  -1   8   14.27    4.56
 -12   1  -9   37.61    8.28
  12  -1   9   24.87    5.38
 -12  -1  -9   27.90    7.36
  12  -1  10   27.65    6.11
 -12  -1 -10   30.27    7.02
 -12   1 -10   33.10    7.61
 -12  -1 -11   28.96    7.41
 -12   1 -11   27.86    6.99
  12  -1  11   34.56    6.70
  12  -1  12    8.47    4.92
 -12   1 -12    8.03    5.32
 -12  -1 -12    6.50    5.26
 -12  -1 -13    2.35    4.81
  12  -1  13    9.33    5.62
 -12   1 -13    8.49    5.82
 -12  -1 -14    5.28    5.61
  12  -1  14   13.48    5.77
 -12   1 -14   10.33    5.90
 -12  -1 -15   -0.11    4.30
  12  -1  15    5.84    5.16
 -12   1 -15    4.32    5.10
 -12   1 -16   10.45    5.43
  12  -1  16   15.99    6.34
 -12  -1 -16    4.04    5.39
 -12  -1 -17   13.70    6.14
 -12   1 -17   16.59    5.89
 -12  -1 -18   -2.80    4.84
 -12   1 -18    0.96    4.40
 -12   1 -19    0.76    4.26
 -12  -1 -19    3.40    4.56
 -12   1 -20    0.61    4.16
 -12   1 -21    6.05    4.90
  12  -1 -21   32.19    8.29
  12  -1 -22   25.83    7.83
 -12   1 -22   10.24    5.57
  12  -1 -23   11.51    6.94
  13   1   0  642.47   20.56
 -13  -1   0  630.01   24.33
  13  -1   1   71.12    5.58
 -13  -1  -1   70.47    9.40
  13   1   1   55.49    6.95
 -13  -1   1   74.99    9.53
  13   1  -1   60.69    7.17
 -13  -1   2   99.16   10.40
  13   1  -2   84.29    8.20
 -13  -1  -2   84.70   10.04
  13   1   2   85.82    8.04
  13  -1   2   92.50    6.39
  13  -1   2   90.93    7.00
  13  -1   3   42.74    5.24
  13  -1   3   46.90    4.87
  13   1   3   44.84    6.40
 -13  -1   3   53.24    8.36
  13   1  -3   52.39    6.81
 -13  -1  -3   46.62    8.22
 -13  -1  -4   38.36    7.90
  13   1   4   26.84    5.28
  13  -1   4   28.54    4.71
  13  -1   4   27.08    4.00
 -13  -1   4   36.83    7.22
 -13  -1  -5  189.21   14.58
  13   1   5  181.17   12.05
  13  -1   5  194.66   10.89
 -13  -1   5  198.80   13.39
 -13  -1  -6   30.30    7.31
 -13  -1   6   38.31    7.29
  13  -1   6   22.24    4.64
  13  -1   7   26.61    4.93
 -13   1  -7   44.34    8.48
 -13  -1   7   53.12    8.32
 -13  -1  -7   27.16    6.76
 -13  -1   8   27.95    6.07
 -13  -1  -8   18.47    6.86
  13  -1   8   10.95    3.99
 -13   1  -9  102.14   11.95
  13  -1   9   82.60    8.39
 -13  -1  -9   83.29   10.69
 -13  -1   9   96.86    9.41
  13  -1  10   73.04    8.29
 -13  -1 -10   62.72    9.50
 -13   1 -10   82.08   10.73
 -13  -1  10   75.26    8.46
 -13   1 -11   12.39    6.41
 -13  -1 -11    9.33    5.90
  13  -1  11    8.56    4.58
 -13  -1  11   18.10    5.35
 -13   1 -12   42.92    8.60
  13  -1  12   40.87    7.09
 -13  -1 -12   38.18    8.00
 -13  -1 -13    8.04    6.01
  13  -1  13   15.91    5.83
 -13   1 -13   18.16    6.43
  13  -1  14   59.74    8.66
 -13  -1 -14   54.73    9.24
 -13   1 -14   55.31    9.19
 -13  -1 -15   35.05    8.20
  13  -1  15   39.32    7.89
 -13   1 -15   31.50    7.50
 -13  -1 -16   71.14   10.71
 -13   1 -16   77.03   10.69
  13  -1  16   73.15    9.99
  13  -1  17   20.22    6.78
 -13   1 -17   19.90    6.53
 -13  -1 -17   17.67    6.48
 -13  -1 -18   -1.26    5.32
 -13   1 -18   -0.67    4.44
  13  -1  18    3.64    5.30
 -13  -1 -19   -2.68    5.55
 -13   1 -19    2.02    4.63
 -13   1 -20   59.16    9.92
  13  -1  20   63.88   10.72
 -13   1 -21   53.04    9.63
  13  -1  21   58.25   10.37
  14   1   0   40.11    6.27
 -14  -1   0   43.36    8.11
  14   1  -1   45.19    6.81
 -14  -1   1   53.12    8.65
  14   1   1   33.19    5.84
 -14  -1  -1   41.62    7.71
 -14  -1   2   37.75    7.65
  14   1  -2   40.30    6.57
 -14  -1  -2   37.18    7.50
  14   1   2   25.71    5.07
 -14  -1   3    9.93    5.42
 -14  -1  -3    8.59    5.01
  14   1  -3   24.16    5.66
  14   1   3    6.12    3.95
 -14  -1   4   20.35    6.33
  14   1   4   12.29    4.39
 -14  -1  -4   11.07    5.33
  14   1   5   -0.34    3.79
 -14  -1   5    8.72    5.44
 -14  -1  -5    1.67    4.93
 -14  -1  -6    3.97    5.49
 -14  -1   6   11.52    5.54
  14   1   6   -0.33    3.98
 -14   1  -6   19.28    7.83
 -14   1  -7   27.65    7.92
 -14  -1   7   33.62    6.99
 -14  -1  -7   22.14    7.21
 -14   1  -8   14.25    7.10
 -14  -1  -8    5.39    5.77
 -14  -1   8   13.09    5.58
 -14   1  -9   20.77    7.27
  14  -1   9   12.36    4.39
 -14  -1   9   23.61    6.03
 -14  -1  -9   17.13    6.18
 -14  -1  10   12.67    5.21
 -14   1 -10    6.62    5.90
 -14  -1 -10    4.70    5.44
  14  -1  10    6.74    4.28
 -14  -1 -11   -2.23    5.12
 -14   1 -11    4.76    5.86
  14  -1  11    1.83    3.84
 -14  -1 -12    2.28    4.82
 -14   1 -12    0.83    4.66
  14  -1  12   -0.52    3.92
 -14   1 -13    4.03    5.22
  14  -1  13   -1.48    3.96
 -14  -1 -13   -0.43    5.14
 -14   1 -14    9.09    6.15
  14  -1  14    0.77    4.11
 -14  -1 -14    3.31    4.61
 -14   1 -15   12.66    6.13
  14  -1  15   11.94    5.49
 -14  -1 -15    4.51    5.54
  14  -1  16    4.60    5.07
 -14  -1 -16    0.11    4.43
 -14   1 -16   -0.81    4.54
 -14  -1 -17   -2.80    5.71
 -14   1 -17    2.15    4.57
  14  -1  17    1.64    4.57
 -14   1 -18    7.72    5.20
 -14  -1 -18    6.14    5.16
 -14   1 -19    4.07    5.05
 -15  -1   0    3.26    5.43
  15   1   0    2.81    3.82
 -15  -1   1    4.81    5.34
  15   1   1    0.39    3.61
  15   1  -1    9.24    4.38
 -15  -1  -1    7.86    5.58
  15   1   2    1.55    3.54
 -15  -1  -2    6.24    5.10
 -15  -1   2    7.56    5.17
 -15  -1  -3   48.40    8.65
  15   1   3   36.48    6.10
 -15  -1   3   42.27    8.01
  15   1   4   32.19    6.11
 -15  -1  -4   36.41    7.79
 -15  -1   4   36.87    7.60
 -15   1  -5   39.27    9.10
 -15  -1  -5   27.90    7.10
 -15  -1   5   30.64    6.96
  15   1   5   26.89    5.81
 -15  -1   6    7.13    5.26
 -15   1  -6   13.45    6.88
  15   1   6    2.41    3.65
 -15  -1  -6    6.63    5.03
 -15   1  -7   90.77   11.95
 -15  -1   7   75.91    9.39
  15   1   7   70.49    8.35
 -15  -1  -7   70.45   10.41
 -15  -1   8   39.82    7.32
 -15   1  -8   35.77    8.51
 -15  -1  -8   22.99    7.36
 -15  -1   9    9.39    4.91
 -15   1  -9    8.27    6.51
 -15  -1  -9    9.26    6.40
 -15  -1 -10   12.33    6.25
 -15   1 -10   15.28    6.46
 -15  -1  10   19.38    5.56
 -15   1 -11    5.02    5.93
 -15  -1 -11    0.76    4.30
 -15   1 -12   17.29    6.58
 -15  -1 -12   19.73    7.35
 -15  -1 -13  113.60   13.53
 -15   1 -13  124.31   14.03
 -15  -1 -14    9.01    5.74
 -15   1 -14   13.86    6.46
 -15   1 -15    8.12    5.62
 -15  -1 -15    3.56    5.53
 -15   1 -16   32.06    8.43
 -16  -1   0    7.95    5.92
 -16  -1   1    9.96    5.65
 -16  -1  -1    9.99    6.00
 -16  -1   2    2.51    4.89
 -16  -1  -2    4.50    4.86
 -16  -1   3   21.70    6.70
 -16  -1  -3   18.62    6.43
 -16  -1  -4    1.65    5.07
 -16   1  -4   11.98    6.84
 -16  -1   4    0.32    4.38
 -16  -1  -5   16.17    6.71
 -16  -1   5   13.38    5.61
 -16   1  -5   26.08    8.06
 -16   1  -6   16.89    7.60
 -16  -1  -6    3.08    4.96
 -16  -1   6    9.34    5.27
 -16  -1   7    3.44    4.59
 -16  -1  -7    0.68    4.66
 -16   1  -7    5.75    6.18
 -16  -1  -8   -1.63    4.28
 -16  -1   8    3.11    4.45
 -16   1  -8    1.49    5.35
 -16  -1   9    5.45    4.68
 -16  -1  -9    5.89    5.00
 -16   1  -9    9.14    6.67
 -16   1 -10    4.91    5.20
 -16  -1 -10    0.09    5.22
 -16   1 -11    3.64    5.63
 -16  -1 -11   -0.54    5.47
 -16  -1 -12    1.82    5.19
 -16   1 -12    2.86    5.47
 -17  -1   0   48.96    9.08
 -17  -1   1   13.37    6.10
 -17  -1  -1   18.23    6.95
 -17  -1   2   35.04    8.10
 -17   1  -2   43.85    9.59
 -17  -1  -2   29.34    7.90
 -17  -1  -3   63.58   10.30
 -17  -1   3   61.12    9.69
 -17   1  -3   87.70   12.37
 -17   1  -4   55.04   10.20
 -17  -1   4   43.00    8.29
 -17  -1  -4   48.06    9.24
 -17  -1  -5    8.60    5.84
 -17  -1   5    8.15    5.53
 -17   1  -5   16.13    7.03
 -17   1  -6   14.98    6.82
 -17  -1   6   11.14    5.60
 -17  -1  -6   11.10    6.20
 -17  -1  -7    6.37    6.09
 -17   1  -7    8.09    6.41
 -17  -1   7    5.25    4.71
 -17   1  -8   30.97    8.80
 -17  -1   8   17.62    6.19
 -17  -1  -8   16.82    6.73
 -18  -1   0    6.51    5.65
 -18   1   0   13.96    7.25
 -18   1  -1   22.95    8.18
 -18  -1   1    3.99    5.43
 -18  -1  -1    0.81    5.05
 -18   1   1   11.70    6.69
 -18  -1  -2    2.54    5.63
 -18  -1   2    1.27    4.47
 -18   1  -3   15.08    7.64
 -18  -1  -3    2.88    5.07
 -18  -1   3    5.58    5.40
 -18  -1  -4    0.63    4.72
 -18  -1   4    3.69    5.11
 -18  -1   5    5.23    5.13
 -18  -1   6   29.39    7.30
 -18  -1   7    5.58    4.94
 -19  -1   2   36.12    8.69
 -19  -1   3   12.15    6.12
 -19  -1   4   17.10    6.64
 -19  -1   5   42.89    8.92
 -19  -1   6   33.53    7.87
   0   2   0 8475.55   43.30
   0   2   0 8512.46   40.43
   0  -2   0 8253.99   42.28
   0  -2   1   -1.57    3.21
   0   2  -1    0.42    3.22
   0  -2   1   -0.44    2.47
   0   2  -1   -0.01    2.63
   0   2   1   -0.56    2.26
   0   2  -2  344.19    9.23
   0   2  -2  322.62    8.94
   0  -2   2  319.82    8.99
   0  -2   2  330.96    8.89
   0   2   3    1.13    2.43
   0  -2   3    4.45    3.55
   0  -2   3    5.85    3.22
   0   2  -3    5.61    3.20
   0  -2   4  766.90   14.28
   0  -2   4  777.33   14.70
   0   2   4  824.12   15.32
   0  -2  -5   -0.65    3.02
   0   2   5    0.12    2.51
   0   2   6  917.74   18.15
   0  -2  -6  897.58   18.02
   0  -2  -7    1.41    3.74
   0  -2  -8   75.55    6.44
   0  -2  -9   -2.16    3.91
   0   2  -9    5.50    1.50
   0  -2 -10 1098.30   24.45
   0   2 -10 1033.76   11.28
   0   2 -11   -0.37    0.94
   0  -2 -11    2.57    5.50
   0  -2 -12 1008.12   25.37
   0  -2 -13    0.19    4.01
   0  -2 -14  151.05   11.57
   0  -2 -15    1.35    6.52
   0  -2 -16  514.71   21.22
   0  -2 -17    4.18    7.34
   0  -2 -18   69.32   10.10
   0  -2 -19    3.21    6.21
   0  -2 -20   78.62   10.33
   0  -2 -21    3.74    6.85
   0  -2 -22   79.27   11.34
   0  -2 -23   -1.06    6.31
   0  -2 -24   10.39    6.38
   0  -2 -25   -1.55    7.08
   0   2 -26  132.64   15.46
   0  -2 -26  102.06   13.54
   0   2 -27   25.64   10.04
  -1  -2   0 3634.07   26.37
   1   2   0 3481.77   26.25
   1   2   0 3662.66   29.12
  -1   2   0 3695.77   30.03
  -1   2   0 3698.96   24.01
   1  -2   0 3583.61   29.62
   1  -2   1 2033.60   18.80
   1   2   1 2013.67   20.45
   1  -2  -1 2060.09   22.80
  -1  -2   1 2083.70   20.00
  -1  -2   1 2010.61   22.36
  -1   2  -1 2090.42   22.79
   1   2  -1 2034.69   20.02
   1   2  -1 2082.00   22.45
   1  -2   1 2060.87   22.61
  -1   2   1 2050.02   22.73
  -1   2  -1 2007.92   18.25
  -1   2   2 2124.73   23.81
   1   2  -2 2122.02   23.26
   1   2  -2 2072.54   20.55
  -1  -2   2 2089.50   23.55
  -1   2  -2 2081.49   23.38
   1  -2   2 2086.05   23.59
  -1  -2   2 2123.22   20.76
   1  -2   2 2065.33   20.03
  -1   2   2 2145.27   21.07
  -1   2   3  657.43   12.48
  -1   2  -3  652.60   13.51
  -1  -2   3  640.14   13.53
  -1  -2   3  639.36   12.05
   1  -2   3  654.65   13.87
   1   2  -3  646.16   13.38
   1  -2   3  628.19   11.59
  -1  -2   4   94.44    5.61
  -1  -2   4   91.07    5.82
   1   2   4   84.97    5.73
   1  -2  -4   88.92    5.37
   1  -2   4   97.22    6.61
  -1   2   4   87.20    5.30
  -1  -2   5   27.51    4.34
  -1  -2  -5   16.27    3.36
   1  -2  -5   16.88    3.64
   1   2   5   17.68    3.31
   1  -2   5   24.40    5.13
  -1   2   5   16.27    3.36
  -1  -2  -6  120.64    7.55
   1  -2  -6  124.99    7.09
  -1   2   6  134.02    7.16
   1   2   6  122.65    7.14
  -1   2   7   96.07    6.47
  -1  -2  -7   85.05    6.53
   1  -2  -7   87.04    6.51
  -1  -2  -8   56.66    6.23
   1  -2  -8   57.74    5.76
  -1  -2  -9   80.02    7.02
   1  -2  -9   78.52    7.12
  -1  -2 -10   17.68    5.10
  -1   2 -10   28.14    3.00
   1  -2 -10   19.02    4.90
   1  -2 -11    2.43    4.54
  -1   2 -11    3.86    1.84
  -1  -2 -11   -2.54    4.83
  -1  -2 -12    3.44    4.55
   1  -2 -12    4.18    5.03
  -1   2 -12    6.51    1.87
  -1  -2 -13   14.34    5.05
   1  -2 -13   16.81    5.85
  -1   2 -13   15.56    2.31
  -1  -2 -14   53.29    8.29
  -1   2 -14   56.30    3.89
   1  -2 -14   59.78    7.58
  -1  -2 -15    3.38    5.15
   1  -2 -15   10.79    5.45
  -1  -2 -16   25.60    6.44
   1  -2 -16   29.49    6.41
  -1  -2 -17   21.49    6.81
   1  -2 -17   19.57    6.67
   1  -2 -18   10.42    6.59
  -1  -2 -18    8.31    5.67
   1  -2 -19   18.90    7.31
  -1  -2 -19   16.57    5.92
   1  -2 -20   41.96    8.25
  -1  -2 -20   37.95    8.15
  -1  -2 -21    3.05    6.43
   1  -2 -21    9.19    7.05
  -1  -2 -22   11.31    6.40
   1  -2 -22   10.70    6.11
  -1  -2 -23    4.31    6.05
   1  -2 -23    7.15    7.02
   1  -2 -24   10.55    6.86
  -1  -2 -24    7.82    6.42
  -1  -2 -25   19.72    7.95
  -1   2 -25   35.96    9.50
   1  -2 -25   17.09    7.42
   1  -2 -26    1.13    6.78
  -1  -2 -26   -6.09    7.86
  -1   2 -27   23.80    9.19
   2   2   0  108.81    4.71
   2  -2   0  100.03    6.30
   2   2   0  104.32    6.34
  -2   2   0  103.95    5.68
  -2   2   0  106.91    3.94
  -2  -2   1  523.29    9.41
   2  -2  -1  524.87   12.35
   2  -2   1  539.00   12.55
  -2   2   1  526.77    7.98
  -2  -2   1  543.43   12.53
  -2   2  -1  525.50   12.24
   2   2  -1  533.04    9.55
   2   2   1  513.22    9.87
   2   2  -1  512.44   12.44
   2  -2   1  518.34    8.54
  -2   2   1  521.82   12.18
  -2   2   2  181.99    7.56
   2   2  -2  195.54    8.54
  -2   2   2  187.68    6.11
   2  -2   2  184.42    5.76
   2   2  -2  182.94    5.97
  -2   2  -2  189.09    7.76
   2  -2   2  181.10    7.73
  -2  -2   2  191.25    7.81
  -2  -2   2  189.89    6.00
  -2   2   3 1573.46   18.24
   2   2  -3 1588.76   21.83
  -2   2  -3 1565.95   21.68
  -2  -2   3 1574.22   17.44
   2  -2   3 1587.09   22.24
   2  -2  -3 1576.57   18.15
  -2  -2   3 1613.99   22.51
   2  -2  -4  118.45    5.82
  -2   2   4  123.83    5.87
   2  -2   4  119.61    7.03
   2   2  -4  110.18    4.12
  -2  -2   4  120.85    6.96
  -2  -2   4  124.26    5.65
   2   2   4  120.01    6.71
  -2   2   5   47.63    4.37
   2   2   5   47.68    4.73
   2  -2  -5   44.59    4.42
  -2  -2   5   51.86    4.85
   2  -2   5   72.42    6.94
   2   2  -5   46.42    2.47
  -2   2   6   36.60    4.25
   2  -2  -6   26.82    3.79
  -2  -2   6   42.58    5.08
   2  -2  -7  314.33   11.26
  -2  -2  -7  344.75   12.55
  -2  -2  -8   28.47    5.45
   2  -2  -8   31.33    5.14
  -2  -2  -9  394.86   14.60
   2  -2  -9  381.77   13.66
  -2  -2 -10   82.79    7.58
   2  -2 -10   84.48    7.23
  -2  -2 -11    1.22    4.83
   2  -2 -11    3.99    4.77
  -2   2 -11    7.52    2.69
  -2  -2 -12  114.31    9.73
   2  -2 -12  119.14    9.41
  -2   2 -12  113.49    6.01
   2  -2 -13  538.39   19.27
  -2  -2 -13  536.84   19.87
  -2   2 -13  534.40   12.85
  -2   2 -14    3.64    2.05
   2  -2 -14    8.39    6.20
  -2  -2 -14   -1.36    5.92
  -2   2 -15   42.91    4.14
  -2  -2 -15   35.79    6.63
   2  -2 -15   43.35    7.86
  -2  -2 -16   -5.50    7.05
   2  -2 -16    4.66    5.58
  -2  -2 -17  160.01   13.18
   2  -2 -17  152.75   12.67
   2  -2 -18   36.75    8.57
  -2  -2 -18   26.73    7.75
   2  -2 -19  170.27   14.07
  -2  -2 -19  171.70   14.20
  -2  -2 -20    9.66    7.14
   2  -2 -20   11.95    7.29
  -2  -2 -21   -1.32    6.77
   2  -2 -21    6.43    5.82
  -2  -2 -22    3.24    5.63
   2  -2 -22    3.73    6.66
  -2  -2 -23  142.25   14.65
  -2   2 -23  180.81   15.92
   2  -2 -23  142.92   14.35
  -2  -2 -24    5.66    6.75
  -2   2 -24   26.33    8.82
   2  -2 -24    8.31    7.09
  -2  -2 -25   81.38   12.04
  -2   2 -25  108.49   13.21
   2  -2 -25  103.55   13.54
  -2   2 -26   25.02    8.88
  -2  -2 -26    6.30    7.23
   2  -2 -26    5.15    6.43
  -2   2 -27   15.51    8.35
   3   2   0  156.67    4.92
   3   2   0  158.87    6.78
   3  -2   0  157.32    7.39
   3   2   0  163.08    7.82
  -3   2   0  160.10    7.24
   3  -2  -1  176.50    8.05
  -3  -2   1  177.28    5.11
  -3   2   1  177.13    4.92
   3   2  -1  175.79    7.97
   3   2   1  183.25    7.61
   3  -2   1  190.92    8.37
  -3  -2   1  182.24    7.97
  -3   2   1  187.32    7.84
  -3   2  -1  181.74    7.77
   3   2  -1  181.24    5.11
  -3   2   1  180.02    3.73
   3  -2   1  179.60    4.49
   3   2  -1  185.32    6.92
  -3   2   2  446.86    8.45
  -3   2   2  446.50   11.95
   3   2   2  442.81   12.14
  -3   2  -2  449.67   12.14
   3   2  -2  443.60    8.02
   3   2  -2  445.40   10.07
  -3  -2   2  450.72   12.40
   3  -2   2  455.52   12.44
   3   2  -2  441.97   12.49
  -3  -2   2  438.67    8.08
   3  -2  -3  817.97   12.55
   3   2   3  843.11   17.07
  -3   2  -3  827.65   16.45
  -3   2   3  830.19   16.53
  -3   2   3  799.97   12.41
   3  -2   3  824.22   16.91
  -3  -2   3  795.46   11.55
  -3  -2   3  813.36   16.86
   3   2  -3  797.41   12.67
   3   2  -3  807.61   16.80
   3   2  -4   44.47    5.89
   3   2   4   29.67    3.96
   3  -2  -4   28.18    3.27
   3  -2   4   25.36    4.26
  -3  -2   4   22.93    3.95
  -3  -2   4   30.77    3.09
   3   2   4   27.48    3.85
   3   2  -4   28.23    2.63
   3  -2  -5  143.58    6.65
   3   2   5  142.63    7.78
   3  -2   5  149.09    8.46
   3   2  -5  147.23    4.69
   3   2   5  142.59    7.70
  -3  -2   5  146.59    7.80
   3  -2  -6  104.56    6.28
   3  -2   6  121.05    8.37
   3  -2  -7   21.62    4.17
   3  -2  -8   42.58    5.16
  -3  -2  -8   43.46    5.99
  -3  -2  -9    7.84    3.94
   3  -2  -9   11.29    4.37
  -3  -2 -10   45.90    6.00
   3  -2 -10   44.89    5.85
  -3   2 -11  141.39    7.54
   3  -2 -11  141.40    9.73
  -3  -2 -11  141.07   10.15
  -3  -2 -12   21.88    5.86
  -3   2 -12   24.83    4.05
   3  -2 -12   25.38    6.12
   3  -2 -13    3.54    5.14
  -3  -2 -13    1.21    5.08
  -3   2 -13    3.39    2.80
  -3  -2 -14    1.21    4.93
   3  -2 -14    5.59    5.75
  -3   2 -14    3.74    2.67
  -3  -2 -15   29.84    6.63
   3  -2 -15   33.17    7.31
  -3   2 -15   28.85    4.05
  -3  -2 -16    8.17    6.14
   3  -2 -16   12.30    6.03
  -3   2 -16    8.51    2.75
   3  -2 -17    5.22    6.11
  -3  -2 -17   -7.67    6.69
  -3   2 -17   -0.86    2.42
  -3  -2 -18    1.68    4.88
   3  -2 -18    8.98    6.32
   3  -2 -19   14.41    6.76
  -3  -2 -19   11.34    5.56
  -3  -2 -20    7.22    5.30
   3  -2 -20   13.86    6.72
  -3  -2 -21   22.67    6.93
   3  -2 -21   30.76    8.41
   3  -2 -22    3.52    5.37
  -3  -2 -22   -4.53    6.41
  -3   2 -22   13.97    6.98
   3  -2 -23   14.71    7.33
  -3  -2 -23   10.18    6.77
  -3   2 -23   28.69    7.87
   3  -2 -24   -1.06    6.94
  -3   2 -24   12.30    7.00
  -3  -2 -24    0.83    6.09
  -3  -2 -25    1.97    5.55
   3  -2 -25   -2.76    6.50
  -3   2 -25   10.85    7.30
  -3  -2 -26    1.11    6.69
  -3   2 -26    7.91    7.28
   3  -2 -26    0.67    5.71
  -3   2 -27   14.05    7.33
   4   2   0   51.12    2.70
  -4  -2   0   51.96    4.73
   4   2   0   53.78    4.57
   4  -2   0   50.89    4.75
   4   2   0   49.85    5.63
  -4   2   0   54.44    4.72
   4  -2  -1   32.07    4.17
  -4  -2  -1   35.81    4.61
  -4   2   1   36.29    2.13
   4   2   1   35.96    4.11
   4   2  -1   34.14    2.18
  -4   2  -1   34.39    4.14
   4   2  -1   32.28    5.35
  -4   2   1   36.38    4.02
   4   2  -1   36.04    3.80
   4  -2   1   34.08    1.83
   4  -2   1   39.29    4.96
  -4  -2   1   35.38    3.93
  -4   2   2   64.76    5.14
  -4  -2   2   59.77    2.74
  -4  -2   2   59.67    4.55
   4  -2  -2   54.87    3.00
  -4  -2  -2   60.94    5.64
   4   2  -2   57.25    4.37
  -4   2  -2   62.40    5.18
  -4  -2   2   59.20    5.19
   4   2   2   58.42    4.92
   4  -2   2   53.53    5.30
   4   2  -2   54.84    5.75
   4  -2   3  139.06    7.84
  -4   2   3  143.78    7.27
   4   2  -3  140.75    6.05
   4   2   3  142.33    7.70
  -4  -2   3  136.06    6.09
  -4   2  -3  142.02    7.62
  -4  -2   3  138.23    4.36
  -4  -2   3  139.64    7.62
   4   2  -3  148.21    8.36
   4  -2  -3  135.73    5.15
  -4  -2   4  421.03    9.81
  -4  -2   4  411.35    8.21
  -4   2   4  436.84   12.71
   4  -2   4  420.46   13.10
   4  -2  -4  431.23    9.95
   4   2  -4  456.36   13.83
  -4  -2   5   22.37    2.59
   4  -2   5   22.85    4.85
   4  -2  -5   15.46    2.98
   4  -2   6    9.62    3.89
   4  -2  -6    4.15    2.91
   4  -2  -7    5.67    3.32
   4  -2  -8   14.15    3.99
  -4  -2  -9   52.16    6.51
   4  -2  -9   55.94    6.02
   4  -2 -10  138.04    9.15
  -4  -2 -10  139.32    9.55
   4  -2 -11   37.24    6.18
  -4  -2 -11   28.84    5.47
  -4   2 -12  144.01    8.35
  -4  -2 -12  133.69   10.42
   4  -2 -12  139.94   10.08
  -4  -2 -13   65.86    8.09
   4  -2 -13   79.61    8.59
  -4   2 -13   72.82    6.37
  -4   2 -14   27.81    4.55
  -4  -2 -14   28.62    6.54
   4  -2 -14   34.80    7.45
  -4  -2 -15   86.94    9.77
   4  -2 -15   89.82    9.75
  -4   2 -15   86.04    6.99
  -4   2 -16  145.12    8.82
  -4  -2 -16  148.02   12.48
   4  -2 -16  158.41   12.50
  -4   2 -17    7.82    3.08
   4  -2 -17   16.38    6.89
  -4  -2 -17    9.91    5.99
  -4  -2 -18   12.78    5.99
  -4   2 -18    9.59    3.12
   4  -2 -18   17.02    6.65
   4  -2 -19   82.41   10.45
  -4  -2 -19   89.39   10.98
  -4   2 -19   83.78    7.03
  -4   2 -19  101.47   11.01
  -4  -2 -20    4.35    6.14
   4  -2 -20    8.87    6.71
  -4   2 -20   18.52    7.22
   4  -2 -21   48.53    8.94
  -4   2 -21   57.11    9.39
  -4  -2 -21   48.50    9.50
  -4  -2 -22   38.89    9.00
  -4   2 -22   44.65    9.04
   4  -2 -22   41.02    9.13
   4  -2 -23    2.15    6.25
  -4   2 -23   11.95    6.59
  -4  -2 -23    4.15    5.98
   4  -2 -24    7.72    6.71
  -4   2 -24   10.52    6.56
  -4  -2 -24    3.59    5.26
  -4  -2 -25   46.00   10.06
   4  -2 -25   44.66    9.46
  -4   2 -25   50.44    9.70
  -4   2 -26   42.93    9.52
  -4  -2 -26   38.69    9.78
   4  -2 -26   43.07    9.84
  -4   2 -27   49.18   10.48
   5  -2   0  230.85    9.51
   5   2   0  228.35    9.29
  -5  -2   0  232.61    9.42
   5   2   0  208.36    4.44
  -5   2   0  229.80    9.22
   5   2   0  231.52    9.88
   5   2  -1   23.45    4.83
   5  -2  -1   25.12    3.87
   5  -2   1   28.86    4.61
  -5  -2  -1   32.67    4.67
  -5   2   1   25.99    3.65
   5   2   1   27.82    4.06
  -5   2  -1   28.68    3.99
   5   2   1   24.76    4.93
   5   2  -1   36.79    4.23
  -5  -2   1   27.23    3.89
   5  -2  -2   74.99    3.11
  -5  -2   2   82.64    5.59
  -5   2  -2   83.93    6.07
   5  -2   2   74.33    5.99
   5   2  -2   71.98    6.41
  -5   2   2   80.55    5.74
  -5  -2  -2   79.02    6.44
  -5   2   3  169.11    8.16
   5  -2  -3  157.52    5.30
  -5   2  -3  152.04    3.69
  -5  -2   3  157.75    3.93
  -5  -2  -3  162.60    8.85
   5  -2   3  164.73    8.58
   5   2  -3  174.86    9.43
  -5  -2   3  168.19    7.36
   5   2  -4   33.85    5.47
  -5  -2  -4   25.02    4.81
   5  -2  -4   27.91    2.99
   5  -2   4   29.86    5.00
  -5   2   4   26.44    3.78
  -5  -2   4   25.53    2.15
  -5  -2   4   26.35    3.41
  -5  -2  -5   53.37    6.45
   5  -2  -5   58.89    4.50
  -5  -2   5   57.12    4.24
   5  -2   5   60.10    6.51
  -5  -2  -6  180.66   10.27
  -5  -2   6  173.23    6.57
   5  -2  -6  187.79    7.95
   5  -2   6  176.31   10.25
   5  -2  -7  322.83   11.07
   5  -2   7  320.76   13.02
  -5  -2   7  310.59    8.16
   5  -2  -8   52.52    5.56
  -5  -2   8   50.91    3.32
  -5  -2   9    5.85    1.39
   5  -2  -9   16.40    4.54
   5  -2 -10    7.22    4.30
   5  -2 -11   54.28    6.72
  -5  -2 -11   40.63    6.07
  -5  -2 -12    5.52    4.87
  -5   2 -12   12.71    4.75
   5  -2 -12   14.47    5.63
  -5   2 -13  226.63   11.31
   5  -2 -13  236.73   13.24
  -5  -2 -13  220.37   13.32
  -5   2 -14   77.20    7.14
   5  -2 -14   87.55    9.39
  -5   2 -14   83.31    8.67
  -5  -2 -14   78.01    9.26
  -5  -2 -15  474.42   20.40
  -5   2 -15  459.78   18.05
  -5   2 -15  440.46   15.96
   5  -2 -15  474.27   19.70
  -5  -2 -16   44.61    7.88
   5  -2 -16   59.38    9.09
  -5   2 -16   73.50    9.10
  -5   2 -16   53.56    6.45
  -5   2 -17   24.13    4.62
  -5   2 -17   41.92    7.71
   5  -2 -17   35.91    8.07
  -5  -2 -17   23.57    7.00
  -5   2 -18   19.54    4.29
   5  -2 -18   26.70    7.08
  -5   2 -18   35.06    7.47
  -5  -2 -18   19.55    6.41
  -5  -2 -19  102.58   11.69
  -5   2 -19  113.48   11.24
  -5   2 -19   96.80    8.15
   5  -2 -19  112.02   11.99
  -5   2 -20    8.36    3.37
  -5  -2 -20    6.05    5.87
   5  -2 -20   11.00    6.46
  -5   2 -20   18.30    6.62
  -5  -2 -21   -2.78    5.89
   5  -2 -21    3.40    5.46
  -5   2 -21    6.27    5.42
  -5  -2 -22    6.90    5.70
   5  -2 -22   13.72    6.78
  -5   2 -22   17.06    6.48
  -5  -2 -23   28.82    8.27
   5  -2 -23   37.27    9.15
  -5   2 -23   37.37    8.36
  -5  -2 -24    4.24    6.34
   5  -2 -24    3.77    5.97
  -5   2 -24    5.93    5.76
  -5  -2 -25   29.57    8.60
   5  -2 -25   27.27    8.15
  -5   2 -25   21.74    7.35
  -5  -2 -26   15.31    6.75
  -5   2 -26   20.74    7.34
   5  -2 -26   22.66    8.06
  -5   2 -27    2.44    5.83
   6   2   0    2.13    3.61
  -6  -2   0    1.66    3.13
   6  -2   0    0.90    3.00
  -6   2   0    1.18    2.32
  -6  -2  -1   37.39    5.07
   6  -2  -1   37.26    4.78
  -6  -2   1   43.20    5.00
   6   2   1   39.77    5.29
  -6   2   1   37.83    4.33
   6   2  -1   29.39    4.63
   6  -2   1   40.87    4.87
   6  -2  -2  189.99    4.59
  -6  -2  -2  208.68   10.13
   6   2  -2  194.47    9.80
   6  -2   2  200.22    9.30
  -6   2   2  200.63    9.00
  -6  -2   2  205.23    9.08
   6  -2   3   23.68    4.23
   6   2  -3   23.33    5.02
   6  -2  -3   24.85    2.35
  -6  -2  -3   21.75    4.66
  -6  -2   3   25.33    3.91
  -6   2  -4    3.20    1.05
  -6   2   4    7.65    1.50
   6   2  -4   12.80    4.44
   6  -2  -4    5.78    2.07
   6  -2   4    3.68    3.42
  -6  -2   4    5.91    2.77
  -6  -2  -4    4.92    4.37
  -6  -2   4    2.91    0.72
  -6   2  -5   41.06    2.89
   6  -2  -5   43.59    3.92
  -6  -2   5   41.33    2.60
   6  -2   5   46.24    5.89
  -6  -2  -5   41.59    5.92
  -6  -2   5   42.00    4.23
   6  -2  -6  115.73    6.34
  -6   2  -6  112.69    5.15
  -6  -2   6  110.83    6.07
  -6  -2  -6  112.12    8.77
   6  -2   6  120.39    8.55
  -6  -2  -7    5.66    4.39
   6  -2   7   12.42    4.61
  -6   2  -7   12.38    2.72
  -6  -2   7    9.78    2.40
   6  -2  -7   16.76    3.69
   6  -2   8   15.12    4.78
  -6  -2  -8    8.43    3.77
  -6   2  -8   13.86    3.32
   6  -2  -8   17.78    4.19
  -6  -2   8   10.03    2.24
  -6   2  -9    7.21    3.34
   6  -2  -9   12.32    4.18
  -6  -2  -9   -1.34    4.70
  -6  -2   9    4.58    1.78
   6  -2 -10   44.10    6.15
  -6   2 -10   38.57    4.99
  -6  -2  10   29.34    2.73
   6  -2 -11   59.13    6.97
  -6   2 -11   52.14    5.84
  -6  -2  11   44.48    2.91
  -6  -2  12   37.04    2.28
  -6   2 -12   45.05    5.99
  -6   2 -12   54.39    6.87
   6  -2 -12   52.00    7.12
  -6  -2 -13   28.91    6.60
  -6   2 -13   39.49    6.36
   6  -2 -13   40.75    6.94
  -6   2 -13   46.80    6.55
  -6   2 -14  308.13   14.24
  -6  -2 -14  302.64   16.19
  -6   2 -14  316.67   14.50
   6  -2 -14  329.50   15.94
   6  -2 -15  100.38   10.10
  -6  -2 -15   95.26   10.22
  -6   2 -15   98.16    9.23
  -6   2 -15  109.45    9.02
  -6  -2 -16  113.83   11.18
  -6   2 -16  121.69   10.33
   6  -2 -16  134.41   11.81
  -6   2 -16  117.31    9.33
  -6   2 -17    3.28    4.86
  -6  -2 -17    0.75    5.32
   6  -2 -17    4.48    5.58
  -6   2 -17    3.58    3.56
  -6  -2 -18   13.52    5.33
  -6   2 -18   11.54    3.96
  -6   2 -18   17.93    6.15
   6  -2 -18   18.41    6.72
  -6   2 -19    2.02    3.23
  -6  -2 -19   -0.45    5.50
   6  -2 -19   10.75    6.83
  -6   2 -19    2.45    4.87
  -6   2 -20   21.91    4.77
  -6  -2 -20   21.68    6.83
  -6   2 -20   23.07    6.65
   6  -2 -20   21.84    7.21
  -6  -2 -21    3.85    5.09
  -6   2 -21    8.33    5.71
   6  -2 -21    5.83    5.49
  -6  -2 -22    0.45    4.93
   6  -2 -22    4.01    5.96
  -6   2 -22    5.04    5.70
  -6  -2 -23    2.61    4.76
  -6   2 -23    4.45    5.74
   6  -2 -23    1.84    6.24
  -6  -2 -24   39.33    8.70
  -6   2 -24   37.18    8.58
   6  -2 -24   48.47   10.15
   6  -2 -25    2.24    6.17
  -6  -2 -25   -1.86    5.52
  -6   2 -25   -1.16    5.21
  -6   2 -26   -0.82    5.47
   6  -2 -26    5.95    6.43
  -6   2 -27    2.50    5.59
   7   2   0    1.53    3.92
  -7  -2   0    1.39    2.92
   7  -2   0   -0.24    2.84
   7   2   1    0.56    3.23
  -7  -2  -1    1.25    3.28
   7   2  -1   -4.53    4.36
   7  -2  -1    1.19    2.89
   7  -2   1    1.40    3.08
  -7  -2   1    1.28    2.96
  -7  -2  -2   59.69    6.60
  -7  -2   2   60.96    5.81
   7  -2  -2   50.25    2.33
   7   2  -2   52.23    6.34
   7  -2   2   55.52    5.66
  -7  -2   3  146.92    8.24
   7  -2  -3  143.68    4.86
   7  -2   3  149.26    8.82
   7   2  -3  145.43    9.18
  -7  -2  -3  142.07    9.68
  -7   2   4   19.05    1.59
   7  -2  -4   22.45    2.81
  -7  -2   4   24.04    4.01
  -7  -2  -4   22.72    5.09
   7  -2   4   18.95    4.50
   7   2  -5  153.25    9.82
  -7   2  -5  122.63    4.35
   7  -2  -5  137.40    6.22
  -7  -2  -5  124.51    9.17
  -7  -2   5  106.76    3.17
   7  -2   5  127.73    8.57
  -7  -2   5  133.54    7.41
  -7   2   5  128.39    4.59
  -7  -2  -6   26.93    5.81
  -7   2  -6   24.20    2.64
   7  -2  -6   31.92    4.05
  -7   2   6   31.96    3.09
   7  -2   6   26.75    5.19
  -7  -2   6   26.31    3.95
  -7  -2   7    7.46    2.82
   7  -2  -7   17.10    3.68
   7  -2   7   14.49    5.17
  -7  -2  -7    5.46    4.09
  -7   2  -7    7.04    2.06
  -7   2  -8  250.34    9.06
  -7  -2   8  259.20    9.30
   7  -2  -8  252.13   10.62
  -7  -2  -8  267.43   13.92
   7  -2   8  256.81   12.85
  -7  -2  -9  101.72    9.32
  -7   2  -9   97.16    6.41
   7  -2  -9  108.80    7.89
  -7  -2   9  103.68    5.87
   7  -2   9  111.06    9.41
  -7  -2 -10   32.19    6.16
   7  -2 -10   39.82    6.10
  -7   2 -10   30.74    4.39
   7  -2  10   38.52    6.62
  -7  -2  10   35.15    3.48
   7  -2 -11   15.98    5.17
  -7   2 -11    8.85    3.65
  -7  -2 -11    5.60    4.17
  -7  -2  11    9.07    2.18
  -7   2 -12  131.36    8.82
  -7   2 -12  139.49   10.50
   7  -2 -12  144.94   10.28
  -7  -2  12  130.50    5.40
   7  -2 -13   58.94    7.96
  -7   2 -13   52.38    6.37
  -7  -2  13   50.55    3.14
  -7   2 -13   56.18    7.57
  -7   2 -14   79.89    7.97
   7  -2 -14  100.30    9.86
  -7   2 -14   87.04    8.71
  -7   2 -15   61.39    7.54
  -7   2 -15   69.70    7.87
   7  -2 -15   74.37    9.09
   7  -2 -16  327.48   17.24
  -7  -2 -16  317.74   17.65
  -7   2 -16  305.28   15.44
  -7   2 -16  328.77   15.79
  -7  -2 -17   30.96    6.96
  -7   2 -17   22.08    5.81
   7  -2 -17   31.38    7.61
  -7   2 -17   26.02    5.52
   7  -2 -18   46.50    8.45
  -7  -2 -18   42.83    8.11
  -7   2 -18   41.51    7.28
  -7   2 -18   42.85    6.63
  -7   2 -19   -2.91    3.55
  -7  -2 -19    1.42    5.28
   7  -2 -19    4.50    6.06
  -7   2 -19    1.98    4.73
  -7   2 -20   12.87    4.33
  -7  -2 -20   14.57    6.54
  -7   2 -20   12.06    5.45
   7  -2 -20   24.03    7.70
  -7  -2 -21   21.50    6.85
  -7   2 -21   20.22    6.54
   7  -2 -21   27.66    7.95
  -7  -2 -22    7.31    5.93
  -7   2 -22    5.11    4.81
   7  -2 -22    9.30    5.99
  -7  -2 -23   11.53    6.28
  -7   2 -23   12.21    5.80
   7  -2 -23   22.32    7.67
  -7  -2 -24    7.57    6.38
  -7   2 -24   -0.07    5.29
   7  -2 -24    7.74    6.48
  -7   2 -25   13.60    6.20
   7  -2 -25   15.58    7.33
  -7  -2 -25   14.18    7.16
  -7   2 -26   -3.71    5.83
  -7   2 -27    1.06    5.33
  -8  -2   0   81.88    7.46
   8  -2   0   81.86    6.52
   8   2   0   74.02    6.95
   8  -2   1  243.15   10.74
   8   2   1  235.55   11.50
   8  -2   1  203.46    4.31
   8   2  -1  231.48   11.46
   8  -2  -1  236.59   10.49
  -8  -2   1  250.16   11.83
  -8  -2  -1  248.20   12.35
  -8  -2   2  281.57   12.24
  -8  -2  -2  279.88   13.33
   8  -2  -2  247.77    4.81
   8   2   2  276.61   12.57
   8   2  -2  285.73   12.69
   8  -2   2  276.84   11.64
   8   2  -3  142.11    9.45
   8  -2  -3  130.27    4.59
  -8  -2  -3  134.08    9.90
  -8  -2   3  143.19    8.70
   8  -2   3  130.35    8.52
  -8  -2  -4  142.06   10.18
   8   2  -4  150.57    9.91
   8  -2  -4  144.58    5.64
  -8  -2   4  142.49    8.71
   8  -2   4  139.36    8.94
  -8  -2  -5  131.64    9.93
   8   2  -5  162.30   10.27
   8  -2   5  124.67    8.72
  -8  -2   5  126.47    8.02
  -8   2   5  124.94    4.50
   8  -2  -5  133.56    6.15
  -8  -2   6    7.74    3.22
  -8  -2  -6    4.34    4.74
   8  -2  -6   14.87    3.32
  -8   2   6    4.21    1.68
  -8  -2   6    4.72    0.95
   8  -2   6    4.81    3.70
  -8   2   7   78.25    4.76
  -8  -2   7   74.55    6.17
  -8  -2  -7   73.57    8.19
   8  -2   7   86.98    8.28
   8  -2  -7   83.00    6.22
  -8   2  -7   73.74    4.43
   8  -2  -8  122.53    7.58
  -8   2  -8  104.90    5.88
   8  -2   8  112.85    9.47
  -8  -2  -8  105.13    9.62
  -8  -2   8  107.88    6.92
  -8   2   8  115.05    6.11
  -8  -2  -9   56.48    7.77
  -8   2  -9   53.31    4.82
  -8  -2   9   61.43    5.25
   8  -2   9   63.79    7.92
   8  -2  -9   74.72    6.68
  -8  -2 -10   23.32    5.77
   8  -2  10   25.77    6.17
  -8  -2  10   25.55    3.68
   8  -2 -10   34.31    5.87
  -8   2 -10   20.51    3.62
  -8  -2  11  155.86    7.31
  -8  -2 -11  148.41   11.78
   8  -2  11  154.47   11.51
  -8   2 -11  140.55    8.35
   8  -2 -11  157.44   10.21
  -8  -2 -12   80.52    9.17
   8  -2 -12  105.34    8.99
  -8   2 -12   85.32    7.20
  -8  -2  12   88.00    5.31
  -8   2 -12  100.38    9.78
  -8   2 -13   26.00    6.58
   8  -2 -13   27.13    6.65
  -8   2 -13   12.55    4.13
  -8  -2  13   15.16    2.48
  -8   2 -14   50.73    7.55
  -8   2 -14   55.92    6.67
   8  -2 -14   62.30    8.06
  -8   2 -15  101.13    9.00
   8  -2 -15  107.74   10.26
  -8   2 -15  113.55   10.20
   8  -2 -16   43.48    7.74
  -8   2 -16   38.41    6.71
  -8   2 -16   36.60    6.13
   8  -2 -17   51.70    8.44
  -8   2 -17   42.88    6.96
  -8   2 -17   37.91    6.51
  -8   2 -18   56.17    7.76
  -8   2 -18   51.39    7.56
   8  -2 -18   56.97    8.95
  -8   2 -19    7.40    4.80
  -8   2 -19    7.11    4.11
   8  -2 -19   11.57    5.92
  -8   2 -20    9.11    4.23
  -8   2 -20    6.14    4.72
   8  -2 -20   12.73    6.27
   8  -2 -21   62.00   10.12
  -8   2 -21   57.20    7.81
  -8   2 -21   54.53    8.57
  -8  -2 -22   15.40    6.89
  -8   2 -22   15.13    6.00
   8  -2 -22   19.46    7.23
   8  -2 -23   13.09    7.12
  -8   2 -23   12.94    6.00
  -8  -2 -23   10.43    6.72
  -8   2 -24   38.30    8.06
   8  -2 -24   54.81   10.50
  -8  -2 -24   42.40    9.51
  -8   2 -25    7.79    5.33
   8  -2 -25   13.96    7.13
  -8  -2 -25   12.51    7.05
  -8   2 -26    5.11    5.78
  -9  -2   0   12.13    4.36
   9   2   0    7.09    4.15
   9  -2   0   10.92    3.51
   9   2  -1   25.13    5.46
   9  -2  -1   37.53    5.00
  -9  -2  -1   39.21    6.18
   9   2   1   38.88    5.86
   9  -2   1   33.34    2.11
   9  -2   1   40.48    5.31
  -9  -2   1   42.15    6.16
  -9  -2   2   12.02    4.52
  -9  -2  -2    8.19    4.30
   9   2   2    4.84    4.04
   9   2  -2    0.44    4.37
   9   2   2    7.83    1.32
   9  -2  -2    6.32    0.92
   9  -2   2    6.44    1.46
   9  -2   2    8.91    3.58
  -9  -2   3    7.88    4.05
  -9  -2  -3    9.47    5.01
   9   2  -3    6.12    4.43
   9  -2   3    7.61    3.73
   9  -2  -3    7.95    1.64
  -9  -2   4    9.41    4.10
   9  -2  -4   11.57    2.38
  -9  -2  -4    7.92    5.05
   9  -2   4    4.03    3.67
   9   2  -4   13.02    5.08
  -9  -2   5    3.17    3.45
  -9  -2  -5    2.37    4.66
   9  -2  -5    7.80    2.78
   9  -2   5    2.70    3.70
  -9  -2   6    5.90    3.33
  -9  -2  -6    4.19    3.75
  -9   2   6    2.62    1.45
   9  -2   6    1.23    3.76
  -9   2   7   16.60    2.50
  -9  -2   7   16.07    4.09
  -9  -2  -7   20.78    6.23
   9  -2   7   16.95    5.12
  -9  -2   7   15.34    1.44
  -9  -2   8   30.04    4.67
  -9  -2  -8   29.34    6.56
   9  -2   8   27.12    5.75
  -9   2   8   28.11    3.35
  -9  -2  -9   -1.37    4.44
  -9   2  -9    1.48    2.02
   9  -2   9    5.40    4.84
  -9   2   9    4.84    2.72
  -9  -2   9    3.59    2.85
  -9  -2  10    3.40    2.75
  -9  -2 -10   -1.34    5.29
   9  -2  10    3.50    4.72
  -9   2 -10   -1.05    2.35
  -9  -2  11    7.25    2.84
  -9  -2 -11    1.60    3.93
   9  -2  11   11.19    5.67
  -9   2 -11    3.89    2.66
   9  -2  12   23.19    6.89
   9  -2 -12   30.27    6.39
  -9  -2  12   19.21    3.28
  -9   2 -12   18.53    3.94
  -9  -2 -12   12.82    5.84
  -9   2 -13    8.96    5.59
  -9  -2 -13   -3.02    4.72
   9  -2  13    8.24    5.77
   9  -2 -13   12.62    5.15
  -9   2 -13    1.69    2.80
  -9   2 -14   15.50    5.87
   9  -2 -14   14.96    5.70
  -9   2 -14    4.09    3.19
  -9   2 -15    4.84    4.59
   9  -2 -15    9.62    5.35
  -9   2 -15   -4.04    4.16
  -9   2 -16    2.80    3.71
  -9   2 -16   10.53    4.92
  -9   2 -17    3.93    4.44
  -9   2 -17   -1.72    4.47
   9  -2 -17    8.42    5.62
   9  -2 -18    9.75    5.79
  -9   2 -18   13.96    5.16
  -9   2 -18    5.05    3.98
  -9   2 -19   -1.21    3.72
  -9   2 -19   -4.52    4.81
   9  -2 -19    4.37    5.58
  -9   2 -20   -2.67    4.11
  -9   2 -20   -2.13    4.77
   9  -2 -20    6.18    6.03
  -9   2 -21    2.09    3.65
   9  -2 -21    7.72    6.29
  -9   2 -21   -1.69    5.01
  -9   2 -22   -0.80    4.83
   9  -2 -22   12.05    6.68
  -9   2 -23   -1.09    4.83
   9  -2 -23    3.61    5.91
   9  -2 -24   -1.06    5.34
   9  -2 -25   -1.04    5.43
  10   2   0    5.92    4.95
  10  -2   0   19.78    4.24
 -10  -2   0   23.15    5.86
 -10  -2   1  174.64   11.34
  10  -2   1  159.66    4.67
  10   2   1  171.86   10.98
  10   2  -1  165.27   10.68
 -10  -2  -1  182.23   12.07
  10  -2   1  168.06    9.82
 -10  -2  -2  202.69   12.92
  10   2   2  200.25   11.73
  10  -2   2  201.56    6.04
  10   2  -2  196.95   11.87
 -10  -2   2  197.28   11.70
  10  -2   2  205.13   10.83
  10  -2  -3  108.85    4.13
  10   2   3  114.64    4.57
  10   2   3  111.65    9.12
  10  -2   3  115.46    8.55
 -10  -2   3  109.80    9.00
 -10  -2  -3  108.45   10.19
  10   2  -3  110.60    9.34
 -10  -2  -4   74.73    8.85
  10  -2  -4   78.45    4.27
  10  -2   4   80.23    7.51
 -10  -2   4   76.54    7.60
  10   2  -4   89.16    8.87
 -10  -2   5  159.21   10.14
 -10  -2  -5  151.18   11.83
  10  -2  -5  159.26    6.68
  10  -2   5  146.87   10.04
  10   2  -5  162.04   11.14
 -10  -2   6   34.53    5.52
 -10  -2  -6   30.28    6.12
  10  -2   6   31.96    5.60
 -10  -2  -7   52.17    8.06
  10  -2   7   46.72    6.70
 -10   2   7   42.00    3.50
 -10  -2   7   46.38    5.86
 -10  -2   8   86.02    3.07
 -10  -2  -8  101.84   10.55
  10  -2   8   98.73    9.25
 -10  -2   8  102.16    7.99
  10  -2   9   87.42    9.14
 -10  -2  -9   82.22    9.57
 -10  -2   9   87.91    7.33
  10  -2  10   59.72    8.19
 -10  -2  10   60.27    6.02
 -10  -2 -10   54.49    8.53
 -10  -2 -11  251.45   16.10
  10  -2  11  227.26   14.43
 -10  -2  11  246.43   10.91
 -10  -2 -12   97.53   10.68
 -10   2 -12  100.39    7.38
  10  -2 -12  119.43    9.45
  10  -2  12  110.17   10.71
 -10  -2  12  110.61    7.28
 -10   2 -12  119.27   11.56
  10  -2  13   37.94    8.07
  10  -2 -13   47.17    6.95
 -10  -2 -13   28.42    6.91
 -10   2 -13   40.21    7.68
 -10   2 -13   35.74    5.00
 -10   2 -14   61.71    6.57
 -10   2 -14   70.41    9.31
  10  -2 -14   77.57    8.88
 -10  -2 -14   61.93    9.25
  10  -2  14   72.47    9.54
 -10   2 -15   92.54    8.33
  10  -2  15   96.81   10.92
 -10   2 -15   88.32   10.12
  10  -2 -15  101.89    9.93
 -10   2 -16   26.89    5.31
 -10   2 -16   29.16    6.73
  10  -2  16   35.45    7.98
  10  -2 -16   32.86    6.93
 -10   2 -17   91.92    9.02
  10  -2 -17   91.62   10.55
 -10   2 -17   94.10   10.53
 -10   2 -18   71.76    9.46
 -10   2 -18   65.09    7.98
  10  -2 -18   71.13    9.72
  10  -2 -19   29.33    7.53
 -10   2 -19   22.23    6.13
 -10   2 -20   14.64    5.47
  10  -2 -20   18.01    6.78
  10  -2 -21   41.57    8.76
 -10   2 -21   35.07    7.06
  10  -2 -22   21.52    7.50
  10  -2 -23   18.05    6.89
  10  -2 -24   23.45    7.60
 -11  -2   0    1.91    4.51
  11   2   0   -5.72    5.91
  11  -2   0   -1.27    3.21
 -11  -2   1  154.71   11.53
  11  -2   1  159.30    9.79
  11  -2   1  147.76    4.77
  11   2   1  148.65   10.76
 -11  -2  -1  157.99   11.86
  11   2  -1  146.25   10.73
 -11  -2   2   14.13    5.18
  11   2   2    9.31    4.77
  11   2  -2    8.67    4.93
  11  -2   2   11.22    3.92
  11  -2   2    8.31    1.80
 -11  -2  -2   16.10    5.29
  11   2  -3  190.62   12.04
 -11  -2  -3  194.80   13.28
  11  -2  -3  186.12    5.22
  11  -2   3  195.49    6.98
  11   2   3  191.76   12.13
  11   2   3  192.52    5.39
 -11  -2   3  198.59   12.31
  11  -2   3  198.86   11.25
 -11  -2   4    4.26    4.27
  11   2   4    4.03    1.92
 -11  -2  -4    4.52    4.52
  11  -2   4    2.97    3.72
  11  -2  -4    5.85    1.97
  11   2   4   -4.29    5.40
  11   2  -4   13.32    5.95
 -11  -2   5   19.64    5.09
  11  -2  -5   25.98    3.36
 -11  -2  -5   18.61    5.99
  11  -2   5   15.36    4.66
 -11  -2  -6    0.64    5.20
 -11  -2   6    1.99    3.68
  11  -2   6   -1.29    4.19
 -11  -2   7   12.24    4.36
 -11  -2  -7   10.80    6.02
  11  -2   7    6.58    4.05
 -11  -2  -8   39.79    7.51
  11  -2   8   42.97    6.70
 -11  -2   8   48.05    6.23
 -11  -2   9    2.76    3.43
  11  -2   9    0.81    4.26
 -11  -2  -9    0.83    4.18
  11  -2  10    2.16    4.20
 -11  -2  10    3.98    3.02
 -11  -2 -10    4.02    5.17
 -11  -2  11    3.28    3.01
  11  -2  11    4.62    4.56
 -11  -2 -11    2.23    4.78
 -11   2 -12   15.50    6.69
 -11  -2 -12    1.19    4.77
  11  -2  12    4.41    5.04
  11  -2 -12   12.19    5.06
  11  -2 -13   29.08    5.78
  11  -2  13   15.19    6.02
 -11   2 -13   23.94    7.01
 -11  -2 -13    8.62    5.62
 -11   2 -14   11.68    5.83
  11  -2  14   13.93    6.10
  11  -2 -14   15.51    5.63
 -11  -2 -14    8.40    4.91
 -11   2 -15    2.62    4.54
  11  -2  15    6.86    5.38
  11  -2 -15   10.46    5.28
 -11  -2 -15   -6.30    6.10
  11  -2  16    5.99    5.58
 -11   2 -16    0.69    4.27
  11  -2 -16   14.72    5.80
  11  -2  17    4.29    5.92
  11  -2 -17    6.79    5.29
 -11   2 -17    2.76    4.42
  11  -2  18    7.16    6.28
 -11   2 -18    1.91    4.48
  11  -2 -18   11.20    6.08
 -11   2 -19   -0.78    4.15
  11  -2  19    9.96    6.50
  11  -2 -19    6.01    5.63
  11  -2  20   21.82    7.70
  11  -2 -20   15.48    6.38
 -11   2 -20    8.80    4.75
 -11   2 -21   -0.48    3.99
  11  -2 -21    9.20    6.13
  11  -2 -22    5.01    5.69
  11  -2 -23   23.36    7.65
  11  -2 -24    1.49    5.27
  12   2   0   75.55    8.60
 -12  -2   0   99.24   10.18
  12  -2   1  261.41   12.71
 -12  -2  -1  246.43   15.21
  12   2   1  232.35   13.72
  12   2  -1  256.71   14.38
 -12  -2   1  267.70   15.45
  12  -2   2  215.56   11.71
 -12  -2   2  198.57   13.20
  12   2  -2  191.34   12.56
  12   2   2  202.71   12.81
 -12  -2  -2  203.68   14.08
  12   2  -3   20.28    6.06
  12   2   3    9.26    4.56
 -12  -2   3   17.39    5.53
  12  -2   3   16.27    4.47
 -12  -2  -3   16.80    5.75
  12   2  -4  156.48   11.61
 -12  -2   4  148.78   11.17
  12  -2   4  157.35    6.98
  12   2   4  143.45   11.14
 -12  -2  -4  152.14   12.64
  12  -2   4  156.79   10.47
 -12  -2  -5   70.34    9.09
  12   2   5   59.27    7.85
  12  -2   5   73.28    7.70
 -12  -2   5   73.09    8.13
 -12  -2  -6   27.56    6.29
 -12  -2   6   32.15    5.83
  12  -2   6   27.00    5.33
  12  -2   7   33.86    6.13
 -12  -2  -7   39.90    7.76
 -12  -2   7   38.52    6.08
 -12  -2   8  130.99    9.86
  12  -2   8  126.73   10.41
 -12  -2  -8  145.08   13.01
 -12  -2  -9   51.71    8.78
  12  -2   9   54.96    7.65
 -12  -2   9   55.89    6.60
 -12  -2  10   53.20    6.51
  12  -2  10   43.38    7.19
 -12  -2 -10   42.51    8.14
 -12   2 -11   51.14    9.17
 -12  -2 -11   32.08    7.49
  12  -2 -11   38.27    5.97
  12  -2  11   32.96    6.88
 -12  -2  11   40.93    5.73
 -12  -2 -12   65.97   10.09
  12  -2 -12   78.47    7.90
  12  -2  12   72.92    9.23
 -12   2 -12   78.53   10.62
 -12  -2 -13   77.60   10.48
  12  -2 -13   88.40    8.76
  12  -2  13   78.18    9.93
 -12   2 -13   81.93   10.60
 -12  -2 -14   56.17    9.39
  12  -2 -14   72.83    8.21
  12  -2  14   68.27    9.51
 -12   2 -14   61.94    9.59
 -12  -2 -15   12.68    5.58
  12  -2  15   17.74    6.57
 -12   2 -15   22.78    6.88
  12  -2 -15   22.06    6.24
 -12   2 -16   16.52    6.29
  12  -2  16   12.43    5.93
  12  -2 -16   19.82    6.30
 -12   2 -17   24.85    6.64
  12  -2  17   35.40    8.16
  12  -2 -17   42.07    7.52
  12  -2 -18   63.22    9.08
 -12   2 -18   52.29    8.89
  12  -2  18   63.77   10.18
  12  -2  19   27.57    8.00
 -12   2 -19   10.04    5.38
  12  -2  20   21.36    7.61
 -12   2 -20   15.85    6.05
  12  -2  21   15.40    7.26
 -12   2 -21   10.50    5.10
 -13  -2   0  307.00   17.41
  13   2   0  295.28   15.65
 -13  -2  -1   35.75    7.55
  13   2   1   22.06    5.47
  13   2  -1   28.12    6.32
  13  -2   1   31.00    5.18
 -13  -2   1   34.87    6.96
 -13  -2   2   26.39    6.42
  13  -2   2   24.29    4.87
  13   2  -2   24.20    6.05
  13   2   2   21.03    5.17
 -13  -2  -2   24.56    6.61
  13  -2   3   54.65    6.59
  13   2   3   50.05    7.28
  13   2  -3   55.73    7.83
 -13  -2   3   47.81    7.35
 -13  -2  -3   48.03    7.95
  13   2   4    3.72    4.13
 -13  -2   4   11.47    4.99
 -13  -2  -4    7.39    4.82
  13   2  -4   14.76    6.03
  13  -2   4    8.95    3.90
  13   2   5   -1.43    4.60
 -13  -2   5   -0.62    3.77
 -13  -2  -5    2.81    4.40
  13  -2   5    1.28    3.42
 -13  -2  -6    2.95    4.50
 -13  -2   6    7.27    4.20
  13  -2   6    4.98    3.83
 -13  -2  -7   14.63    5.41
  13  -2   7   13.25    4.64
 -13  -2   7   19.75    5.18
 -13  -2   8   35.16    5.95
 -13  -2  -8   35.11    7.61
  13  -2   8   29.01    6.07
 -13  -2  -9    9.57    5.78
 -13  -2   9    7.71    4.09
  13  -2   9    5.66    4.09
 -13  -2  10   11.78    4.24
 -13  -2 -10    1.17    5.22
  13  -2  10    5.24    4.24
  13  -2  11  114.58   10.99
 -13   2 -11  128.83   13.18
 -13  -2 -11  115.97   12.63
 -13   2 -12   37.33    8.26
 -13  -2 -12   31.11    7.63
  13  -2  12   25.63    6.53
 -13   2 -13   11.19    5.94
 -13  -2 -13    0.28    5.13
  13  -2  13    6.44    5.07
 -13   2 -14    8.15    5.66
  13  -2  14    2.57    4.74
 -13  -2 -14    1.27    5.03
 -13   2 -15    6.92    5.22
 -13  -2 -15   -0.07    4.83
  13  -2  15    3.22    5.13
 -13  -2 -16   -0.26    5.48
  13  -2  16    9.17    5.90
 -13   2 -16    4.28    4.80
 -13   2 -17   43.76    8.57
  13  -2  17   45.35    8.75
 -13   2 -18    2.94    4.63
  13  -2  18    3.72    5.40
  13  -2  19    2.57    5.72
 -13   2 -19    0.17    4.44
 -13   2 -20   -0.68    4.40
  13  -2  20    8.82    6.25
 -13   2 -21    7.33    5.19
  13  -2  21   15.98    7.08
 -14  -2   0  134.73   12.35
  14   2   0  156.12   11.77
 -14  -2  -1    9.31    5.45
  14   2   1    3.64    4.40
  14   2  -1   10.34    5.14
 -14  -2   1   12.85    5.90
  14   2   2    0.72    5.03
 -14  -2   2    5.83    4.77
  14   2  -2    9.51    5.14
 -14  -2  -2    8.25    5.54
  14  -2   2    8.42    3.56
  14  -2   3   10.31    3.75
  14   2   3    8.78    4.73
 -14  -2  -3   11.28    5.79
  14   2  -3   17.23    6.18
 -14  -2   3   14.30    5.57
  14   2  -4   79.97    9.05
  14  -2   4   62.81    7.22
 -14  -2   4   58.65    8.36
  14   2   4   60.39    8.06
 -14  -2  -4   65.40    9.74
 -14  -2  -5   63.26    9.43
  14  -2   5   59.41    7.13
  14   2   5   62.98    8.23
 -14  -2   5   63.29    8.40
 -14  -2  -6   36.89    7.64
  14   2   6   46.88    7.35
 -14  -2   6   52.31    7.64
  14  -2   6   46.50    6.60
 -14  -2  -7   11.77    5.62
 -14  -2   7   13.70    4.89
  14  -2   7   12.30    4.45
  14   2   7    5.89    4.60
 -14  -2   8   12.05    4.57
  14  -2   8   12.20    4.63
 -14  -2  -8   17.31    6.48
 -14  -2   9   81.57    8.66
  14  -2   9   70.88    8.55
 -14  -2  -9   76.00   10.72
  14  -2  10   33.93    6.58
 -14  -2 -10   32.43    8.11
 -14   2 -11   23.98    7.90
 -14  -2 -11   14.80    6.53
  14  -2  11    8.81    4.88
 -14  -2 -12   40.81    8.57
 -14   2 -12   42.91    8.66
  14  -2  12   37.09    7.20
 -14  -2 -13    6.06    5.20
 -14   2 -13   11.91    6.10
  14  -2  13    9.34    4.98
 -14   2 -14   42.85    8.92
  14  -2  14   40.83    7.93
 -14  -2 -14   38.10    8.93
 -14   2 -15   33.81    8.01
 -14  -2 -15   23.21    7.23
  14  -2  15   25.43    6.69
 -14  -2 -16   35.63    8.39
  14  -2  16   43.38    8.57
 -14   2 -16   49.64    9.47
 -14   2 -17   19.58    6.97
  14  -2  17   15.84    6.35
 -14   2 -18   10.14    6.26
  14  -2  18    2.82    5.08
  14  -2  19    3.59    5.42
  14  -2  20   24.64    7.75
  15   2   0    2.37    4.47
 -15  -2   0    0.20    4.49
 -15  -2  -1    0.21    4.67
  15   2   1   -2.55    4.63
 -15  -2   1    1.88    4.39
  15   2  -1    7.55    4.96
 -15  -2  -2    3.33    4.75
  15   2   2   -2.60    4.58
  15   2  -2    7.61    5.15
 -15  -2   2    1.14    4.40
  15   2   3   -3.21    5.07
 -15  -2   3    1.46    4.09
 -15  -2  -3    0.08    4.54
  15   2  -3   13.39    5.61
 -15  -2  -4    7.95    5.77
  15   2   4    6.30    4.65
 -15  -2   4    6.61    4.74
 -15  -2   5    8.24    4.78
  15   2   5    9.83    4.89
 -15  -2  -5    7.62    5.86
  15   2   6    5.60    4.26
 -15  -2  -6    4.01    5.45
 -15  -2   6    7.74    4.63
 -15  -2  -7   10.80    6.07
  15   2   7    8.94    4.92
 -15  -2   7   16.02    5.30
 -15  -2  -8    0.93    5.15
 -15  -2   8    6.05    4.12
  15   2   8   -0.31    4.59
 -15   2  -9   24.19    8.34
 -15  -2  -9    3.56    5.78
 -15   2 -10   16.22    7.03
 -15  -2 -10    8.77    6.15
 -15   2 -11   15.48    7.33
 -15  -2 -11    1.07    5.06
 -15  -2 -12    2.45    4.84
 -15   2 -12    4.10    5.76
 -15   2 -13   27.76    7.86
 -15  -2 -13   24.55    7.52
 -15  -2 -14   13.82    6.69
 -15   2 -14   20.77    7.49
 -15   2 -15   20.27    7.29
  16   2   0    0.82    4.19
 -16  -2   0    1.99    4.93
 -16  -2   1    6.56    5.00
 -16  -2  -1    5.59    4.82
  16   2   1    3.92    4.33
 -16  -2   2    1.98    4.56
 -16  -2  -2   -0.23    4.61
  16   2   2    0.47    4.67
 -16  -2   3   71.42    9.78
 -16  -2  -3   72.45   10.71
  16   2   3   65.64    8.74
 -16  -2  -4    6.32    5.35
 -16  -2   4    4.27    4.73
  16   2   4   -0.93    5.25
 -16  -2   5    7.67    4.74
  16   2   5    8.48    4.69
 -16  -2  -5    6.82    5.07
 -16  -2   6    4.26    4.45
  16   2   6    1.25    3.97
 -16  -2  -6    0.86    4.76
 -16  -2   7   52.23    8.12
  16   2   7   51.35    8.12
 -16  -2  -7   53.61    9.63
 -16  -2  -8    4.28    5.54
  16   2   8    0.82    4.04
  16   2   9   14.82    5.63
 -16  -2  -9   14.67    6.62
 -16   2  -9   26.02    8.37
 -16   2 -10   10.18    6.99
 -16  -2 -10    1.86    5.07
 -16   2 -11   15.79    6.99
 -16  -2 -11   11.76    5.93
 -16   2 -12   13.96    7.11
 -17  -2   0    0.19    4.71
 -17  -2   1    1.17    4.41
 -17  -2  -1    3.40    4.72
 -17  -2  -2    5.02    5.61
 -17  -2   2    1.68    4.81
 -17  -2   3   -0.80    4.15
 -17  -2  -3   -0.08    4.75
 -17  -2   4    4.47    4.75
 -17  -2  -4    3.06    4.89
 -17  -2  -5    3.92    5.45
 -17  -2   5    3.58    4.59
 -17  -2  -6    3.13    5.53
 -17  -2   6    7.06    4.69
 -17  -2  -7    6.07    6.02
 -17   2  -7   30.42    9.02
 -17  -2  -8   15.76    7.04
 -18  -2   0   63.80   10.66
 -18  -2   1   48.80    9.22
 -18  -2  -1   46.54    9.21
 -18  -2   2   19.07    6.73
 -18  -2  -2   25.41    7.87
 -18  -2   3    6.23    5.09
 -18  -2  -3   11.60    5.98
 -18  -2   4   36.39    8.17
 -18  -2   5   35.55    7.86
 -19  -2   2    4.51    5.04
 -19  -2   3    5.77    5.31
 -19  -2   4   14.63    6.26
   0   3   0   -0.02    3.15
   0  -3   0   -1.07    3.85
   0   3   0    2.49    2.68
   0  -3   1  793.09   16.54
   0  -3   1  821.18   15.94
   0   3   1  821.82   16.77
   0   3   1  816.24   15.70
   0   3  -1  809.38   16.66
   0   3  -1  823.08   16.03
   0   3   2   -0.30    2.13
   0  -3   2   -0.10    2.23
   0   3  -2    7.22    4.25
   0  -3   2    1.49    3.77
   0   3  -2   -1.32    2.50
   0   3   3  431.90   12.63
   0   3  -3  441.00   12.50
   0  -3   3  395.98   12.20
   0  -3   3  415.24   12.06
   0   3  -3  421.20   12.02
   0  -3   4    0.51    2.76
   0   3   4   -1.61    2.44
   0   3  -4    4.13    3.13
   0  -3   4   -0.25    3.57
   0  -3   5  268.50   10.31
   0  -3   5  267.47   10.74
   0  -3   6    3.08    4.17
   0  -3   7   25.12    5.52
   0  -3  -8   -1.08    4.37
   0  -3   8    8.98    4.79
   0  -3  -9 1480.95   28.59
   0  -3 -10    0.11    4.28
   0  -3 -11   87.91    8.29
   0   3 -12    1.72    1.25
   0  -3 -12   -2.23    5.18
   0  -3 -13   92.95    9.70
   0   3 -13   87.19    3.57
   0   3 -14   -0.77    0.84
   0  -3 -14   -0.83    5.16
   0  -3 -15   53.70    8.15
   0  -3 -16   -2.43    6.30
   0  -3 -17   24.26    7.49
   0  -3 -18   -3.98    5.28
   0  -3 -19  101.09   11.25
   0  -3 -20   -3.88    5.58
   0  -3 -21   51.21    9.28
   0  -3 -22   -4.43    6.01
   0  -3 -23   -6.43    7.56
   0  -3 -24   -0.11    6.09
   0  -3 -25    4.01    5.88
   0  -3 -26   -8.48    7.46
   1  -3   0  967.79   18.95
   1   3   0  955.72   18.10
  -1   3   0  966.51   15.92
  -1   3   0  954.44   18.52
   1   3   0  938.87   16.91
  -1  -3   0  917.45   17.09
   1   3   1  491.32   12.66
  -1  -3   1  479.19   12.30
   1  -3   1  493.54   13.83
   1  -3  -1  492.84   13.93
  -1  -3   1  482.83   13.06
   1   3   1  487.04   13.12
   1  -3   1  478.98   11.54
  -1   3   1  485.11   11.45
  -1   3  -1  511.56   13.69
   1   3  -1  495.37   12.46
   1   3  -1  479.13   13.27
  -1   3  -1  499.68   11.70
  -1   3   1  499.91   13.65
  -1   3   2  125.55    7.31
   1   3   2  124.56    6.67
   1   3  -2  121.07    6.57
  -1   3  -2  124.76    7.26
  -1  -3   2  125.97    7.00
   1  -3   2  124.01    6.27
   1   3  -2  136.94    7.96
   1  -3   2  127.73    7.79
  -1  -3   2  126.16    6.96
  -1   3  -2  134.77    6.85
  -1   3   3  120.02    7.16
  -1   3   3  127.07    6.69
   1   3  -3  116.75    6.48
  -1   3  -3  118.74    7.14
  -1  -3   3  118.01    6.97
   1  -3   3  116.39    7.62
  -1  -3   3  115.18    6.63
   1  -3   3  118.26    6.31
   1   3  -3  122.56    8.04
  -1   3   4  491.76   13.23
   1  -3   4  473.07   14.10
  -1  -3   4  486.65   13.01
  -1  -3   4  490.98   14.07
   1  -3   4  488.01   12.77
  -1   3   5  141.06    7.63
  -1  -3   5  135.32    7.61
   1  -3   5  134.74    8.53
   1  -3   5  149.59    7.53
  -1  -3   6   58.56    5.91
   1  -3   6   48.13    6.05
   1  -3  -7  304.34   12.04
  -1  -3   7  303.33   11.58
   1  -3   7  321.42   12.83
   1  -3  -8  103.26    7.91
  -1  -3   8  102.86    7.78
   1  -3   8  106.04    8.32
  -1  -3  -9  169.84   10.54
   1  -3  -9  173.83   10.03
   1  -3 -10  702.11   20.35
  -1  -3 -10  706.41   21.03
  -1  -3 -11  129.04    9.88
   1  -3 -11  142.62   10.30
  -1  -3 -12  228.66   13.27
   1  -3 -12  228.95   13.13
  -1   3 -13  463.99   10.45
  -1  -3 -13  506.46   19.87
   1  -3 -13  489.04   19.37
  -1  -3 -14  319.82   16.75
   1  -3 -14  307.92   16.13
  -1   3 -14  308.46    8.46
  -1  -3 -15   56.12    9.11
   1  -3 -15   54.62    8.20
  -1   3 -15   52.78    3.64
  -1   3 -16  450.70   10.01
  -1  -3 -16  444.33   20.67
   1  -3 -16  451.77   20.67
  -1  -3 -17  114.66   12.07
   1  -3 -17  107.07   11.57
  -1  -3 -18   39.95    8.33
   1  -3 -18   31.61    7.63
  -1  -3 -19  106.12   11.48
   1  -3 -19   99.63   11.37
  -1  -3 -20  103.85   11.97
   1  -3 -20  105.80   12.24
   1  -3 -21   26.54    8.48
  -1  -3 -21   23.05    7.30
  -1  -3 -22  102.09   12.36
   1  -3 -22   91.62   12.28
  -1  -3 -23   42.79    9.62
   1  -3 -23   38.41    8.74
  -1  -3 -24   18.21    7.73
   1  -3 -24   13.69    7.21
  -1  -3 -25   34.98    9.44
   1  -3 -25   27.46    8.61
  -1  -3 -26   55.86   11.01
   1  -3 -26   45.20    9.97
   2  -3   0   88.69    6.73
   2   3   0   84.81    7.03
  -2   3   0   88.04    6.24
  -2   3   0   89.23    4.93
   2   3   0   88.09    5.34
   2   3   1  840.14   15.65
  -2  -3   1  835.09   15.41
   2  -3  -1  861.14   18.67
   2   3   1  857.35   18.18
   2  -3   1  818.41   13.84
   2  -3   1  823.49   18.42
  -2   3  -1  825.59   18.04
  -2   3   1  827.15   13.48
   2   3  -1  837.70   15.33
   2   3  -1  849.57   18.36
  -2   3  -1  805.80   13.43
  -2   3   1  861.32   18.29
  -2  -3   2   25.84    4.03
   2   3   2   26.33    3.44
  -2   3   2   26.18    3.23
   2   3  -2   25.05    4.42
   2  -3   2   23.43    5.10
   2   3  -2   26.76    3.38
   2  -3   2   23.30    2.95
  -2  -3   2   26.35    3.72
   2  -3   3   14.44    4.97
   2   3  -3   17.14    3.13
   2  -3   3   13.07    2.74
  -2  -3   3   12.27    3.10
   2   3  -3   19.24    5.51
  -2   3   3   14.02    2.77
   2  -3   4   13.15    4.37
  -2  -3   4    7.97    3.06
  -2   3   4   13.02    2.76
   2  -3   4   18.60    3.36
  -2   3   5  114.79    6.75
  -2  -3   5  119.31    6.88
   2  -3   5  125.27    8.51
   2  -3   5  117.71    6.69
   2  -3  -6    1.87    2.97
  -2  -3   6    2.75    3.32
   2  -3   6    2.79    4.30
  -2  -3   7   29.89    4.60
   2  -3  -7   26.21    4.73
   2  -3   7   31.79    6.37
   2  -3   8   17.78    5.88
   2  -3  -8    7.41    3.93
  -2  -3   8   15.24    4.47
   2  -3  -9   37.57    5.67
   2  -3   9   41.80    7.01
   2   3  -9   28.22    1.74
  -2  -3 -10   32.59    6.15
   2  -3 -10   34.93    5.91
  -2  -3 -11   27.12    6.06
   2  -3 -11   23.70    4.97
  -2  -3 -12   20.04    5.91
   2  -3 -12   18.98    5.19
  -2  -3 -13    1.78    4.19
   2  -3 -13   -0.69    4.11
  -2   3 -13   10.23    3.09
  -2  -3 -14    5.46    5.06
   2  -3 -14    1.72    5.71
  -2   3 -14   11.84    2.82
  -2   3 -15    8.51    2.48
  -2  -3 -15    8.33    4.91
   2  -3 -15    4.18    4.91
  -2   3 -16    5.10    2.23
  -2  -3 -16    1.53    5.83
   2  -3 -16    0.43    5.93
  -2  -3 -17   -0.74    5.71
   2  -3 -17   -5.05    6.57
  -2   3 -17    0.21    1.76
  -2  -3 -18    0.59    5.70
   2  -3 -18   -0.28    6.22
  -2  -3 -19    1.43    5.07
   2  -3 -19    1.07    5.85
  -2  -3 -20    4.34    4.86
   2  -3 -20   -0.52    6.31
  -2  -3 -21   10.44    6.10
   2  -3 -21   11.43    5.97
  -2  -3 -22    0.93    4.78
   2  -3 -22   -0.93    5.51
  -2  -3 -23   -0.55    5.24
   2  -3 -23   -4.03    7.31
  -2  -3 -24    0.94    6.14
   2  -3 -24   -2.13    6.54
  -2  -3 -25   11.42    7.36
   2  -3 -25    9.77    7.16
  -2  -3 -26   -3.67    6.02
   2  -3 -26   -5.73    6.99
   3  -3   0  323.60   12.15
  -3   3   0  333.61    7.65
   3   3   0  322.68   12.01
   3   3   0  327.11    9.25
   3   3   1  452.08   11.08
   3  -3  -1  456.26   14.17
  -3  -3   1  444.88   10.69
   3   3   1  453.72   14.20
   3  -3   1  443.63    9.33
   3   3  -1  435.51   10.61
   3   3  -1  435.23   14.03
  -3   3   1  457.04    9.01
   3  -3   1  459.13   14.39
  -3   3   2  336.68    9.15
  -3  -3   2  335.87    9.43
   3   3  -2  326.71    9.23
  -3   3   2  333.39    7.89
   3   3  -2  341.57   10.39
   3  -3   2  331.46    8.58
   3   3  -2  317.93   12.43
   3  -3   2  342.83   12.68
   3   3   2  336.92    9.94
   3   3  -3 1731.63   22.36
  -3   3   3 1757.05   22.01
   3   3  -3 1791.36   28.45
   3   3  -3 1823.25   21.58
   3  -3   3 1778.37   28.20
   3  -3   3 1708.95   20.48
  -3  -3   3 1773.38   21.40
   3   3  -4  936.63   15.65
  -3   3   4  937.58   16.85
   3  -3   4  930.13   20.79
  -3  -3   4  933.43   16.31
   3   3  -4  945.32   20.90
   3  -3   4  904.80   15.50
  -3   3   5   65.98    5.16
  -3  -3   5   56.17    4.76
   3  -3   5   65.85    7.17
   3   3  -5   64.40    4.08
   3   3  -6  510.66   10.15
   3  -3  -6  512.93   14.05
  -3   3   6  509.09   13.82
  -3  -3   6  511.43   13.29
   3  -3   6  515.73   16.66
   3  -3  -7  443.71   13.80
  -3  -3   7  445.30   12.83
   3  -3   7  444.34   15.70
   3   3  -7  428.93    8.56
   3  -3  -8   22.15    4.50
   3  -3   8   24.29    5.43
  -3  -3   8   30.25    4.72
   3   3  -8   17.45    1.80
   3  -3  -9  651.56   18.25
   3  -3   9  632.40   19.52
   3  -3 -10  137.07    9.29
   3  -3  10  144.31   10.03
  -3  -3 -11   43.44    6.78
   3  -3 -11   40.48    6.20
  -3  -3 -12  429.86   18.28
   3  -3 -12  435.79   17.28
  -3  -3 -13  260.66   14.91
   3  -3 -13  263.65   14.15
  -3  -3 -14   14.35    6.36
   3  -3 -14    8.14    5.65
  -3   3 -14   20.04    3.98
  -3  -3 -15   81.46    9.82
   3  -3 -15   75.58    8.99
  -3   3 -15   81.37    6.09
  -3   3 -16   41.87    4.63
  -3  -3 -16   42.07    7.99
   3  -3 -16   35.13    7.18
  -3  -3 -17   49.66    8.71
   3  -3 -17   41.42    7.84
  -3   3 -17   47.87    4.78
  -3  -3 -18   56.07    9.07
   3  -3 -18   55.31    8.72
  -3   3 -18   63.50    5.40
  -3  -3 -19   46.48    9.02
   3  -3 -19   41.77    7.88
  -3  -3 -20    4.33    6.09
   3  -3 -20    4.21    5.13
  -3  -3 -21   -4.46    5.91
   3  -3 -21   -3.43    6.46
  -3  -3 -22   14.34    6.64
   3  -3 -22    8.32    5.99
  -3  -3 -23   67.85   10.88
   3  -3 -23   63.45   10.37
  -3  -3 -24    1.41    6.12
   3  -3 -24   -1.43    6.63
  -3   3 -25   59.01   10.92
  -3  -3 -25   37.35    9.60
   3  -3 -25   45.40    9.84
   3  -3 -26   27.68    8.83
  -3   3 -26   48.72   10.42
   4  -3   0  208.98   10.20
   4   3   0  216.97    9.31
   4   3   0  208.74   10.28
   4   3   0  214.31    7.09
   4   3   1   75.53    4.56
   4  -3  -1   76.68    6.78
  -4   3   1   73.54    3.94
   4   3   1   77.42    7.24
   4  -3   1   78.07    3.64
   4   3  -1   74.03    4.29
   4   3  -1   70.77    6.83
   4  -3   1   76.88    7.16
  -4   3   1   83.32    3.42
   4   3  -1   80.77    5.69
   4   3   2   31.75    3.26
   4   3  -2   24.86    5.63
  -4   3   2   32.16    2.94
  -4  -3   2   31.01    3.08
   4   3  -2   34.41    3.19
  -4   3   2   35.54    2.40
   4  -3   2   33.38    2.88
   4  -3   2   36.57    4.99
   4   3  -2   36.16    3.95
   4  -3   3   29.29    5.09
  -4   3   3   33.20    3.18
   4   3  -3   35.71    5.72
   4  -3   3   39.38    3.42
   4   3  -3   36.42    3.76
  -4  -3   3   33.08    3.24
   4   3  -4   10.74    2.48
  -4  -3   4    7.12    2.18
  -4   3   4   13.57    2.90
   4  -3   4    9.14    3.93
   4  -3  -5   36.91    4.07
  -4   3   5   47.18    4.26
   4  -3   5   35.15    5.64
  -4  -3   5   36.92    3.75
   4   3  -5   39.23    3.54
   4  -3  -6  213.91    9.08
  -4  -3   6  213.41    8.17
   4  -3   6  216.17   11.25
   4   3  -6  213.41    7.04
   4  -3   7   31.59    6.37
   4  -3  -7   26.51    4.26
  -4  -3   7   28.09    3.96
   4   3  -7   32.69    2.94
   4  -3   8    5.95    5.23
   4  -3  -8    0.98    3.15
  -4  -3   8    5.99    3.27
   4  -3  -9   19.51    4.39
   4  -3   9   33.74    5.81
   4  -3  10   17.15    6.37
   4  -3 -10   11.64    3.89
   4  -3 -11    3.50    4.10
   4  -3 -12   20.92    5.10
  -4  -3 -13   20.78    6.19
   4  -3 -13   17.94    5.46
  -4   3 -14   10.94    4.16
  -4  -3 -14   -4.14    6.15
   4  -3 -14   -1.00    4.93
   4  -3 -15   25.08    6.93
  -4  -3 -15   28.06    7.44
  -4   3 -15   37.43    5.00
  -4   3 -16   17.92    3.95
  -4  -3 -16    6.41    6.03
   4  -3 -16   11.32    6.17
  -4   3 -17   25.02    4.22
  -4  -3 -17   15.10    5.83
   4  -3 -17   22.74    6.58
  -4   3 -18    7.18    2.75
  -4  -3 -18    6.76    6.07
   4  -3 -18    8.41    6.09
  -4  -3 -19    0.20    4.93
   4  -3 -19    2.42    5.52
  -4  -3 -20   -5.94    6.53
   4  -3 -20   -1.22    4.93
  -4  -3 -21    0.20    5.91
   4  -3 -21   -3.70    5.97
   4  -3 -22   -0.29    6.02
  -4  -3 -22   -0.59    5.94
  -4  -3 -23    3.31    5.80
   4  -3 -23   -0.25    5.47
  -4  -3 -24    2.48    6.34
   4  -3 -24   -4.29    6.99
  -4  -3 -25   -0.70    6.56
   4  -3 -25   -7.89    7.21
  -4   3 -25    5.05    6.19
   4  -3 -26   -6.04    7.54
  -4   3 -26    9.84    7.03
  -4   3 -27    9.81    7.27
   5  -3   0  564.44   16.71
  -5   3   0  552.76    8.49
   5   3   0  588.99   17.52
   5   3   0  551.86   10.53
   5  -3   1  689.25   18.42
   5   3   1  701.84   12.34
  -5   3   1  676.20   10.09
   5   3  -1  675.80   11.34
   5  -3   1  671.56    8.60
   5  -3  -1  698.41   18.41
   5   3   1  687.63   18.96
   5   3  -1  719.46   19.23
   5   3  -2  209.49    9.07
  -5   3   2  208.76    6.14
   5   3  -2  203.62    6.17
   5  -3   2  205.42    5.63
   5   3  -2  209.51   10.90
   5  -3   2  206.39   10.48
  -5  -3   3   82.35    4.27
  -5   3   3   83.10    2.99
   5  -3   3   79.13    6.91
   5   3  -3   89.38    8.29
   5   3  -3   90.48    5.87
   5  -3   3   92.81    4.44
   5  -3   4  121.14    8.87
   5   3  -4  132.27    6.76
  -5  -3   4  126.56    5.38
   5   3  -4  146.52   10.11
   5  -3  -5  255.23    8.94
   5  -3   5  264.59   12.49
  -5  -3   5  254.34    7.98
   5   3  -5  252.53    8.83
   5   3  -5  278.33   13.11
   5  -3  -6  337.16   11.01
  -5  -3   6  324.54    9.56
   5  -3   6  340.39   14.49
   5  -3  -7   70.07    5.73
  -5  -3   7   65.98    5.11
   5  -3   7   76.55    8.06
  -5  -3   8   14.46    3.22
   5  -3   8   16.55    5.95
   5  -3  -8   11.30    3.44
   5  -3  -9   27.81    4.69
   5  -3   9   33.61    6.37
   5  -3 -10  138.14    9.12
   5  -3  10  139.24   11.27
   5  -3 -11   62.93    6.95
   5  -3  11   72.98    9.19
   5  -3  12   43.45    7.47
   5  -3 -12   35.04    5.96
   5  -3 -13    9.02    4.84
  -5   3 -14   72.69    7.20
   5  -3 -14   62.12    8.23
   5  -3 -15  305.12   16.21
  -5   3 -15  316.24   13.57
  -5  -3 -16  106.86   11.40
   5  -3 -16   94.73   10.07
  -5   3 -16  106.46    8.30
  -5   3 -17   14.28    4.11
  -5  -3 -17   10.52    6.29
   5  -3 -17   10.45    5.40
  -5   3 -18   19.25    4.24
  -5  -3 -18   17.35    6.09
   5  -3 -18   16.99    6.37
  -5  -3 -19   92.46   11.62
   5  -3 -19   78.35   10.46
  -5  -3 -20   52.34    9.37
   5  -3 -20   54.85    9.09
  -5   3 -20   73.07   10.12
   5  -3 -21   84.21   11.25
  -5   3 -21   96.62   11.29
  -5  -3 -21   76.65   11.04
  -5  -3 -22  101.14   12.72
   5  -3 -22  106.41   12.58
  -5   3 -22  119.79   12.58
  -5  -3 -23    0.71    6.34
  -5   3 -23   15.56    6.96
   5  -3 -23   -0.13    5.40
  -5  -3 -24    7.33    7.03
   5  -3 -24    3.65    6.31
  -5   3 -24   12.67    6.96
  -5  -3 -25   87.64   12.75
  -5   3 -25   87.98   11.94
   5  -3 -25   82.88   12.44
  -5   3 -26   21.43    7.70
  -5   3 -27   69.65   11.45
   6   3   0   33.32    5.77
   6  -3   0   30.29    4.97
   6   3   0   31.80    2.53
   6  -3   1   39.11    5.35
   6   3   1   41.71    3.07
   6   3   1   41.40    6.14
   6  -3  -1   40.95    5.76
   6   3  -1   31.40    5.20
   6   3  -1   40.47    2.70
   6   3  -2   36.34    5.64
   6   3   2   51.44    6.49
   6  -3   2   44.87    2.44
   6  -3   2   50.84    6.08
   6  -3   3  379.88   14.59
   6   3  -3  372.22   14.90
   6  -3   3  369.44    7.69
  -6  -3   4  164.83    5.38
   6   3  -4  180.13   11.02
   6  -3   4  172.97   10.30
   6  -3  -5  224.26    8.14
   6  -3   5  224.58   11.80
  -6  -3   5  214.82    6.70
   6   3  -5  266.03   13.11
   6  -3  -6  183.85    8.12
   6  -3   6  183.78   11.37
  -6  -3   6  167.77    6.52
   6  -3  -7  178.44    8.58
  -6  -3   7  183.59    7.30
   6  -3   7  190.09   11.59
   6  -3  -8   39.38    4.97
  -6  -3   8   43.08    4.29
   6  -3   8   48.60    7.41
   6  -3  -9   35.12    4.97
   6  -3   9   38.20    6.61
   6  -3  10   18.01    6.47
   6  -3 -10   11.43    4.04
   6  -3 -11   93.77    8.11
   6  -3  11  102.03   10.10
   6  -3 -12   43.36    6.58
   6  -3  12   50.71    7.99
   6  -3  13   43.58    8.86
   6  -3 -13   27.45    6.02
   6  -3 -14  124.62   10.46
   6  -3 -15   25.92    6.23
  -6   3 -15   34.79    5.87
  -6   3 -16   55.76    7.74
   6  -3 -16   35.44    6.97
  -6   3 -16   39.87    5.97
  -6   3 -17  102.09    8.85
  -6   3 -17   98.51    9.82
   6  -3 -17   94.23   10.27
  -6   3 -18   58.83    8.42
   6  -3 -18   38.65    7.80
  -6   3 -18   52.01    6.62
   6  -3 -19   70.59   10.18
  -6   3 -19   82.04    9.78
  -6   3 -19   80.01    7.88
  -6  -3 -20   21.16    7.25
  -6   3 -20   31.33    7.45
   6  -3 -20   22.63    6.74
  -6  -3 -21    1.52    5.87
   6  -3 -21    5.43    5.79
  -6   3 -21   11.88    6.22
  -6  -3 -22   -0.66    5.57
  -6   3 -22    7.80    5.97
   6  -3 -22    0.36    5.02
  -6  -3 -23    1.87    4.99
   6  -3 -23   -1.02    6.12
  -6   3 -23    7.61    5.87
   6  -3 -24    2.41    5.33
  -6   3 -24    7.05    5.88
  -6  -3 -24    5.37    5.71
   6  -3 -25   31.16    8.92
  -6   3 -25   43.03    9.21
  -6   3 -26   23.07    7.83
   7   3   0   -1.77    3.85
  -7  -3   0   -2.02    3.76
   7   3   0   -0.21    0.92
   7  -3   0    0.35    3.44
   7   3   1   10.94    4.79
  -7  -3  -1    9.35    4.02
   7  -3   1    8.06    4.09
  -7  -3   1   12.31    3.80
   7  -3  -1    7.69    3.63
   7   3   1    8.67    1.56
   7   3  -1   -0.43    5.63
  -7  -3  -2  560.22   18.34
   7   3   2  546.05   10.47
  -7  -3   2  562.91   16.76
   7   3   2  588.23   18.96
   7   3  -2  556.96   18.71
   7  -3   2  557.66   17.84
  -7  -3  -3    9.66    3.91
   7   3  -3   13.25    4.89
   7  -3   3   14.89    4.36
  -7  -3   3   14.07    3.67
  -7  -3   4    0.27    2.87
   7  -3   4   -0.24    3.90
   7   3  -4    7.89    5.91
   7  -3   5   31.89    5.49
   7  -3  -5   30.85    3.32
  -7   3  -5   31.60    2.27
  -7  -3   5   30.19    2.30
  -7  -3   5   29.93    4.24
   7   3  -5   44.44    6.78
   7  -3  -6  358.91   10.83
  -7   3  -6  337.80    8.13
   7  -3   6  340.11   15.19
  -7  -3   6  336.79    8.01
  -7   3  -7   17.34    2.94
   7  -3  -7    8.37    2.86
  -7  -3   7   10.22    2.16
   7  -3   7    9.43    5.22
   7  -3  -8  571.77   15.65
  -7   3  -8  564.06   12.92
  -7  -3   8  555.43   12.50
   7  -3   8  547.35   20.17
  -7  -3   9   14.49    3.06
  -7   3  -9   20.07    3.78
   7  -3   9   15.51    5.76
   7  -3  -9   12.95    4.14
  -7   3 -10   33.29    4.59
   7  -3  10   26.99    6.53
   7  -3 -10   25.10    4.88
   7  -3 -11   53.42    6.65
  -7   3 -11   57.50    5.92
   7  -3  11   55.96    8.09
   7  -3 -12  657.95   20.67
  -7   3 -12  628.13   17.97
   7  -3  12  622.80   23.08
   7  -3  13   18.99    7.52
   7  -3 -13    4.45    4.90
  -7   3 -13   15.30    4.89
   7  -3 -14  710.95   23.24
  -7   3 -14  682.54   20.70
   7  -3  14  711.89   25.54
  -7   3 -15   22.69    5.74
   7  -3  15   33.18    8.71
   7  -3 -15   16.26    5.62
  -7   3 -15   24.39    5.46
   7  -3 -16    7.32    4.97
  -7   3 -16    9.90    5.16
  -7   3 -16    7.51    4.23
  -7   3 -17   15.82    4.95
   7  -3 -17    9.32    5.54
  -7   3 -17   17.61    5.51
   7  -3 -18  322.62   18.54
  -7   3 -18  341.37   17.34
  -7   3 -18  344.69   16.44
   7  -3 -19   15.38    6.23
  -7   3 -19   15.22    5.72
  -7   3 -19   13.68    4.47
   7  -3 -20  161.44   14.26
  -7   3 -20  156.43   13.04
   7  -3 -21    1.17    5.10
  -7   3 -21   -0.67    4.42
   7  -3 -22    0.70    5.35
  -7   3 -22   -0.37    4.48
   7  -3 -23    3.42    5.48
  -7   3 -23    8.24    5.78
   7  -3 -24  100.83   13.09
  -7   3 -24  107.92   12.53
   7  -3 -25   -2.24    6.08
  -7   3 -25    3.91    5.70
  -7   3 -26   21.23    7.41
   8  -3   0    2.48    3.68
   8   3   0    3.74    4.85
  -8  -3   0    2.59    3.79
   8   3   1    7.20    4.26
   8   3  -1    2.08    5.50
  -8  -3   1    6.55    3.59
   8  -3   1   10.91    4.26
   8  -3  -1    8.99    3.95
  -8  -3  -1    6.91    3.54
   8   3   1    7.91    1.21
   8   3   2   20.21    4.97
   8   3   2   23.49    2.23
  -8  -3  -2   21.58    5.23
   8   3  -2   25.19    5.64
  -8  -3   2   21.95    4.44
   8  -3   2   26.43    5.29
  -8  -3  -3   18.54    5.06
   8   3  -3   24.47    6.26
   8  -3   3   25.94    5.26
  -8  -3   3   23.23    4.51
   8   3   3   16.52    4.93
  -8  -3   4   -1.29    3.27
  -8  -3  -4   -2.51    4.40
   8  -3   4    3.16    3.70
   8   3  -4    5.63    5.68
   8  -3   5    5.87    4.04
  -8  -3   5    7.23    3.11
  -8  -3  -5    2.64    3.74
   8  -3  -5    7.01    2.13
   8   3  -5   15.87    6.08
   8   3  -6   30.81    6.94
  -8  -3   6   16.34    3.67
  -8  -3  -6   13.74    5.12
  -8   3  -6   16.16    1.72
  -8  -3   6   14.81    1.52
   8  -3  -6   16.41    2.93
  -8   3   6   15.63    1.57
   8  -3   6   12.75    4.65
  -8  -3   7   41.64    4.75
   8  -3  -7   45.24    4.65
   8  -3   7   40.14    6.75
  -8  -3   7   42.27    2.92
  -8   3  -7   45.46    3.34
  -8  -3   8   37.02    4.39
   8  -3  -8   36.41    4.73
  -8   3  -8   35.92    3.51
   8  -3   8   31.60    6.29
  -8  -3   8   36.27    3.21
   8  -3  -9   30.40    4.83
  -8   3  -9   30.74    3.71
   8  -3   9   36.93    7.34
  -8  -3   9   33.25    3.63
  -8   3 -10   31.25    4.16
   8  -3  10   36.62    7.43
  -8  -3  10   37.30    4.22
   8  -3 -10   29.70    5.11
  -8   3 -11   27.06    4.30
   8  -3  11   25.38    6.87
   8  -3 -11   24.01    5.05
   8  -3  12   11.50    6.51
   8  -3 -12    3.85    3.91
  -8   3 -12    3.02    3.28
   8  -3  13   29.09    7.13
   8  -3 -13   28.44    5.82
  -8   3 -13   25.78    4.67
  -8   3 -14   35.62    5.47
   8  -3  14   47.24    8.69
   8  -3 -14   35.30    6.34
   8  -3  15   50.46    9.04
  -8   3 -15   43.02    6.19
   8  -3 -15   39.04    6.98
  -8   3 -15   46.00    7.54
  -8   3 -16   76.84    8.81
   8  -3 -16   79.22    9.28
  -8   3 -16   76.54    8.14
   8  -3  16   91.59   11.33
  -8   3 -17   92.24    9.49
  -8   3 -17   83.64    9.08
   8  -3  17   90.87   11.43
   8  -3 -17   88.62   10.07
  -8   3 -18   17.21    5.38
   8  -3  18   21.62    7.43
   8  -3 -18   12.22    5.70
  -8   3 -18   16.09    5.40
  -8   3 -19    9.58    4.33
   8  -3 -19    8.15    5.64
  -8   3 -19    9.33    4.78
   8  -3 -20    2.19    4.73
  -8   3 -20    3.27    4.44
   8  -3 -21    2.37    5.15
  -8   3 -21   -1.31    4.74
   8  -3 -22   -0.26    5.21
  -8   3 -22   -1.87    4.76
   8  -3 -23   -1.42    5.65
  -8   3 -23    3.17    4.89
   8  -3 -24    1.38    5.26
   8  -3 -25   -2.29    6.18
   9  -3   0    0.82    3.73
   9   3   0   -4.89    5.91
   9  -3   1 1376.82   28.94
  -9  -3   1 1362.33   29.47
   9  -3  -1 1359.43   28.65
   9   3   1 1375.06   30.91
   9   3  -1 1406.48   31.22
  -9  -3  -1 1360.33   30.67
   9   3   2   11.26    1.45
   9   3   2    9.38    4.95
  -9  -3   2   20.29    5.17
  -9  -3  -2   22.61    6.32
   9   3  -2    8.01    5.44
   9  -3   2   12.62    4.79
   9   3   3   -5.54    5.46
  -9  -3   3    0.50    3.44
  -9  -3  -3    1.90    4.81
   9   3  -3   -2.63    5.15
   9  -3   3   -0.39    3.75
  -9  -3  -4  343.64   16.72
  -9  -3   4  340.71   14.26
   9  -3   4  339.69   15.36
   9   3  -4  343.13   16.15
  -9  -3  -5  943.51   27.44
   9  -3  -5  957.67   14.88
   9  -3   5  953.56   25.57
   9   3  -5  886.49   25.07
  -9  -3   5  925.41   22.70
   9  -3   6   23.04    5.66
  -9  -3  -6   23.83    6.08
   9  -3  -6   26.50    3.33
  -9  -3   6   29.05    4.99
   9  -3  -7  730.28   16.16
   9  -3   7  738.62   23.37
  -9   3   7  697.27   10.10
  -9  -3  -7  733.62   25.12
  -9  -3   7  729.62   19.24
  -9  -3   8   72.43    6.38
  -9  -3  -8   83.86    9.47
  -9   3  -8   77.58    4.31
   9  -3  -8   70.02    5.93
   9  -3   8   77.22    8.81
  -9  -3   8   71.18    3.51
  -9  -3   9    1.97    2.48
  -9   3  -9    2.75    2.00
  -9  -3   9    3.59    1.69
   9  -3  -9    2.01    2.87
   9  -3   9    0.12    4.71
  -9  -3  10  387.09   12.82
  -9   3 -10  402.94   12.02
   9  -3 -10  381.32   14.39
  -9  -3  10  382.97   10.41
   9  -3  10  377.43   18.73
  -9   3 -11  368.98   12.44
   9  -3 -11  367.70   14.86
  -9  -3  11  351.34   10.88
   9  -3  11  355.71   18.51
  -9   3 -12  225.50   10.53
   9  -3 -12  229.38   12.45
   9  -3  12  222.40   14.84
   9  -3 -13   55.13    7.06
  -9   3 -13   54.14    5.92
   9  -3  13   64.60    9.44
  -9   3 -14   48.79    5.93
  -9   3 -14   77.34    9.44
   9  -3 -14   53.54    7.20
   9  -3  14   49.99    8.48
  -9   3 -15   44.81    6.05
   9  -3 -15   44.33    7.05
   9  -3  15   53.65    9.08
  -9   3 -15   51.96    8.07
  -9   3 -16  301.28   14.88
   9  -3 -16  297.62   16.55
   9  -3  16  298.18   18.53
  -9   3 -16  291.80   16.63
  -9   3 -17   46.91    6.69
  -9   3 -17   54.68    7.94
   9  -3  17   51.05    9.28
   9  -3 -17   43.84    7.73
  -9   3 -18   59.33    7.69
   9  -3 -18   67.69    9.27
   9  -3  18   65.56   10.42
  -9   3 -18   73.43    8.95
  -9   3 -19   20.45    5.57
   9  -3  19   29.81    8.62
   9  -3 -19   18.58    6.07
  -9   3 -20    4.47    3.91
   9  -3  20    4.24    6.11
   9  -3 -20   -1.55    4.88
   9  -3 -21   97.88   11.70
   9  -3  21   92.68   12.98
   9  -3 -22   58.78    9.91
   9  -3  22   78.67   12.03
   9  -3 -23    9.30    6.41
   9  -3 -24   19.10    7.34
 -10  -3   0    2.10    3.79
  10   3   0   -4.17    5.50
  10  -3   0    0.74    3.81
  10   3   1    9.59    5.53
 -10  -3   1   11.37    4.86
 -10  -3  -1   11.96    5.22
  10   3  -1    6.36    4.96
  10  -3   1   10.11    4.43
  10   3   2    2.29    4.79
 -10  -3   2    2.25    4.24
 -10  -3  -2    1.25    4.42
  10   3  -2    0.38    5.01
  10  -3   2    2.99    3.89
 -10  -3   3    2.49    3.78
 -10  -3  -3    0.16    4.15
  10   3  -3    6.93    5.55
  10   3   3    0.59    0.90
  10   3   3   -4.09    5.66
  10  -3   3    2.57    4.14
 -10  -3   4    6.44    3.86
 -10  -3  -4    5.35    5.03
  10  -3   4   11.87    4.88
  10   3   4    5.07    4.60
 -10  -3  -5   -2.38    5.36
 -10  -3   5    1.12    3.34
  10  -3   5    1.39    4.14
  10  -3  -5    0.80    1.28
 -10  -3   6    5.88    3.44
  10  -3   6    3.08    4.71
 -10  -3  -6    5.58    5.32
  10  -3  -6    8.60    2.29
  10  -3   7   17.65    5.87
 -10  -3   7   17.11    4.24
 -10  -3  -7   19.47    6.23
  10  -3  -7   17.40    3.12
 -10  -3   8   -0.04    2.65
 -10  -3  -8   -7.42    6.01
  10  -3  -8   -1.50    2.56
  10  -3   8   -2.45    4.68
 -10  -3   9    2.42    2.53
 -10  -3  -9    3.72    5.13
  10  -3  -9    3.45    2.77
  10  -3   9    1.88    4.92
 -10  -3  10   10.35    3.13
  10  -3 -10    9.71    3.51
  10  -3  10    8.44    5.31
 -10  -3  11   -0.30    2.37
  10  -3  11   -0.12    4.49
  10  -3 -11    1.08    2.89
  10  -3  12    2.40    5.18
  10  -3 -12    3.85    3.59
  10  -3  13   11.94    5.90
  10  -3 -13    7.37    3.83
  10  -3  14    5.20    5.94
  10  -3 -14   -0.32    3.85
 -10   3 -15   10.30    5.58
  10  -3  15   -0.98    4.98
  10  -3 -15    1.09    3.86
 -10   3 -16    8.80    5.18
  10  -3  16    9.14    6.07
  10  -3 -16    5.04    4.23
 -10   3 -17    3.84    4.36
  10  -3  17    7.28    6.24
  10  -3 -17   -1.04    4.45
 -10   3 -18    3.04    4.39
  10  -3  18    7.46    6.40
  10  -3 -18    0.29    4.34
 -10   3 -19    1.54    4.02
  10  -3  19    4.12    6.24
  10  -3 -19    0.33    4.53
 -10   3 -20    3.44    3.97
  10  -3  20    7.83    6.49
  10  -3 -20    4.39    5.92
  10  -3  21    9.66    6.36
  10  -3 -21   -1.49    5.18
  10  -3 -22    1.22    4.97
  10  -3  22   15.68    7.64
  10  -3 -23    1.82    5.25
  10  -3 -24    1.22    5.05
  11  -3   0   72.47    7.98
 -11  -3   0   75.65    8.99
  11   3   0   54.78    8.17
  11  -3   1  760.01   22.91
 -11  -3  -1  730.75   24.96
 -11  -3   1  746.92   24.29
  11   3   1  728.42   24.53
  11   3  -1  725.18   24.61
  11  -3   2  220.62   12.91
  11   3   2  204.22   13.50
  11   3  -2  201.48   13.63
 -11  -3   2  231.12   13.82
 -11  -3  -2  227.03   14.68
  11  -3   3  861.30   24.94
  11   3   3  867.72   26.88
  11   3  -3  844.07   26.26
 -11  -3   3  863.59   25.38
 -11  -3  -3  874.52   28.10
  11  -3   4  188.63   12.22
 -11  -3   4  190.35   12.13
  11   3   4  171.40   12.72
  11   3  -4  174.14   13.00
 -11  -3  -4  190.55   13.94
 -11  -3  -5  245.98   15.93
  11   3   5  236.42   14.94
  11  -3   5  253.66   14.22
  11   3  -5  253.50   15.05
 -11  -3   5  252.70   13.55
 -11  -3  -6   37.41    7.64
  11  -3   6   41.46    7.02
 -11  -3   6   40.28    6.09
  11  -3   7   29.80    6.16
 -11  -3  -7   33.78    7.36
 -11  -3   7   33.24    5.50
 -11  -3   8  165.63   10.51
  11  -3   8  160.05   12.29
 -11  -3  -8  165.84   13.75
 -11  -3   9  364.82   14.83
 -11  -3  -9  384.29   20.36
  11  -3   9  357.98   18.04
 -11  -3 -10   22.42    6.90
 -11  -3  10   32.22    4.90
  11  -3  10   33.72    6.83
  11  -3 -11  106.76    8.20
  11  -3  11   97.82   10.54
  11  -3 -12   62.23    7.02
  11  -3  12   61.58    8.95
  11  -3 -13   50.26    6.64
  11  -3  13   56.26    8.86
  11  -3 -14   65.89    7.70
 -11   3 -14   85.07   10.56
  11  -3  14   66.54    9.85
 -11   3 -15   20.16    6.53
  11  -3  15   16.67    6.82
  11  -3 -15    9.99    4.38
 -11   3 -16    1.28    4.56
  11  -3  16    5.86    5.89
  11  -3 -16    0.72    3.83
 -11   3 -17   40.81    7.72
  11  -3  17   39.17    9.03
  11  -3 -17   40.23    7.17
  11  -3 -18   75.00    9.65
  11  -3  18   80.42   11.28
 -11   3 -18   89.84   10.77
 -11   3 -19   20.74    6.29
  11  -3  19   16.21    6.70
  11  -3 -19   18.98    6.25
 -11   3 -20   23.33    6.48
  11  -3  20   32.84    8.76
  11  -3  21   21.22    7.73
  12   3   0   -5.30    6.27
 -12  -3   0   10.25    5.22
 -12  -3  -1   24.50    6.08
  12   3   1   14.50    5.02
  12  -3   1   25.03    5.34
  12   3  -1   18.93    5.90
 -12  -3   1   24.17    5.82
  12  -3   2  100.37    9.04
 -12  -3  -2   95.25   10.41
  12   3   2  100.92   10.07
  12   3  -2  103.96   10.51
 -12  -3   2   90.62    9.32
  12  -3   3  198.17   12.63
  12   3   3  184.83   13.47
 -12  -3   3  187.44   12.83
  12   3  -3  198.86   13.77
 -12  -3  -3  189.39   14.12
 -12  -3  -4   90.47   10.13
  12   3   4   90.45   10.04
  12   3  -4  100.05   10.39
 -12  -3   4   92.54    9.12
  12  -3   4   90.47    9.03
 -12  -3   5   18.91    5.06
 -12  -3  -5   14.21    5.69
  12   3   5   17.52    5.88
  12  -3   5   14.85    4.97
  12   3  -5   35.55    7.77
 -12  -3   6    4.06    3.62
 -12  -3  -6    6.46    5.44
  12  -3   6    3.54    4.12
 -12  -3  -7    2.86    5.02
  12  -3   7    2.77    4.02
 -12  -3   7    4.84    3.56
 -12  -3  -8    8.88    5.71
 -12  -3   8   17.67    4.43
  12  -3   8   14.54    5.22
  12  -3   9   12.66    5.20
 -12  -3   9   16.46    4.40
 -12  -3  -9    9.38    5.62
 -12  -3 -10   34.19    7.93
  12  -3  10   35.69    7.31
  12  -3  11   26.14    6.81
 -12  -3 -11   26.70    7.28
  12  -3  12   48.95    8.44
 -12   3 -13   14.22    6.99
  12  -3  13    0.10    4.75
 -12   3 -14   16.59    6.73
  12  -3  14    3.46    5.39
 -12   3 -15    2.31    5.01
  12  -3  15   -2.15    5.32
 -12   3 -16    5.88    5.03
  12  -3  16    1.32    5.05
 -12   3 -17    5.99    5.15
  12  -3  17    5.82    5.50
 -12   3 -18   20.49    6.43
  12  -3  18   32.87    8.71
 -12   3 -19    8.17    5.33
  12  -3  19    6.83    6.33
  12  -3  20    6.56    6.21
 -12   3 -20    6.84    4.93
  13   3   0   47.03    7.77
 -13  -3   0   50.29    7.89
 -13  -3   1    3.07    4.14
 -13  -3  -1    6.48    4.88
  13   3   1    2.81    4.96
  13   3  -1    7.25    5.35
  13  -3   1    6.12    3.88
 -13  -3  -2    2.32    4.45
 -13  -3   2    0.85    4.12
  13   3   2   -3.29    5.22
  13   3  -2    2.29    5.02
  13  -3   2    3.14    3.50
  13   3   3   25.80    6.24
 -13  -3   3   27.79    6.18
 -13  -3  -3   24.52    6.45
  13   3  -3   41.06    7.80
  13  -3   3   25.36    5.48
  13  -3   4  137.78   11.06
 -13  -3   4  132.93   11.24
  13   3   4  132.41   11.82
  13   3  -4  145.67   12.25
 -13  -3  -4  137.99   12.90
  13   3   5    4.38    4.71
 -13  -3   5    4.38    4.04
 -13  -3  -5    5.72    5.36
  13   3  -5   20.35    7.17
  13  -3   5    7.16    4.35
  13   3   6   31.15    6.94
 -13  -3  -6   38.28    7.79
  13  -3   6   48.69    7.34
 -13  -3   6   44.55    6.85
 -13  -3   7   22.68    5.24
 -13  -3  -7   25.24    6.78
  13  -3   7   25.43    6.06
 -13  -3   8   32.75    5.84
 -13  -3  -8   23.95    6.69
  13  -3   8   33.61    6.62
  13  -3   9   26.27    6.37
 -13  -3  -9   23.22    6.66
 -13  -3   9   29.75    5.41
 -13  -3 -10  180.13   15.47
  13  -3  10  180.72   14.00
 -13  -3 -11   13.67    5.77
  13  -3  11   10.78    5.68
  13  -3  12   94.13   10.91
  13  -3  13   26.85    7.06
 -13   3 -13   51.16    9.46
  13  -3  14   70.52    9.92
 -13   3 -14   85.88   11.40
 -13   3 -15   41.67    8.73
  13  -3  15   33.93    7.96
  13  -3  16  147.59   14.54
 -13   3 -16  150.06   14.54
  13  -3  17   19.18    6.99
 -13   3 -17   21.11    6.78
 -13   3 -18   13.51    5.99
  13  -3  18    9.18    5.63
  13  -3  19   11.66    6.52
 -13   3 -19   15.06    6.22
 -13   3 -20   17.59    6.45
 -14  -3   0   76.98    9.95
  14   3   0   70.07    9.33
 -14  -3  -1   12.78    5.77
  14   3   1    6.79    5.17
  14   3  -1    6.45    5.56
 -14  -3   1   14.80    5.73
  14  -3   2  103.90    9.68
  14   3   2   97.78   10.44
  14   3  -2  100.61   10.65
 -14  -3   2   95.94   10.50
 -14  -3  -2   99.52   11.14
 -14  -3   3    9.13    5.02
 -14  -3  -3    6.16    5.05
  14   3   3    9.92    4.83
  14  -3   3    9.27    4.06
  14   3  -3   11.29    5.93
 -14  -3   4    0.56    3.81
  14   3   4    1.23    4.52
 -14  -3  -4   -0.52    5.07
  14   3  -4   14.23    6.32
  14  -3   4    2.59    4.01
  14   3   5    9.32    5.07
 -14  -3   5    9.90    4.44
 -14  -3  -5    8.37    5.29
  14  -3   5   11.93    4.55
  14  -3   6    5.34    4.14
  14   3   6    2.40    4.78
 -14  -3   6    8.90    4.29
 -14  -3  -6    7.72    5.15
  14   3   7   -1.41    5.15
 -14  -3   7    1.51    3.34
 -14  -3  -7    1.53    4.71
  14  -3   7    4.21    4.28
 -14  -3   8   -0.95    3.52
 -14  -3  -8    0.10    4.94
  14  -3   8    0.83    3.81
  14   3   8   -2.81    5.11
 -14  -3  -9    3.79    5.14
  14  -3   9    9.44    4.97
 -14  -3 -10   29.90    7.87
  14  -3  10   31.45    6.92
  14  -3  11    5.92    4.68
 -14  -3 -11    7.61    5.58
  14  -3  12    0.92    4.47
 -14  -3 -12   -0.70    5.31
 -14   3 -13   19.92    7.47
  14  -3  13    0.57    4.61
 -14   3 -14   12.58    6.63
  14  -3  14    4.98    4.77
 -14   3 -15   17.69    7.02
  14  -3  15    2.76    4.93
 -14   3 -16   12.52    6.33
  14  -3  16    4.85    5.44
 -14   3 -17    8.71    5.69
  14  -3  17    1.13    5.22
 -14   3 -18    7.67    5.56
  14  -3  18    6.81    6.02
  15   3   0   35.11    7.44
 -15  -3   0   37.21    7.67
 -15  -3   1   22.32    6.41
 -15  -3  -1   20.64    6.28
  15   3   1    9.32    5.50
  15   3  -1   20.80    6.51
 -15  -3   2   13.14    5.47
 -15  -3  -2   12.55    5.85
  15   3   2    2.11    5.27
  15   3  -2   21.88    6.62
  15   3   3   65.02    9.05
  15   3  -3   76.86   10.02
 -15  -3   3   70.85    9.47
 -15  -3  -3   67.82   10.00
  15   3   4   18.43    5.92
 -15  -3  -4   17.82    6.67
 -15  -3   4   15.00    5.46
  15   3  -4   30.48    7.73
  15   3   5   21.24    6.32
 -15  -3   5   15.62    5.33
 -15  -3  -5   14.95    6.06
  15   3   6   28.79    7.14
 -15  -3   6   27.47    6.17
 -15  -3  -6   25.45    7.09
  15   3   7    5.31    4.99
 -15  -3   7   15.44    5.07
 -15  -3  -7    9.75    5.74
  15   3   8   15.74    5.81
 -15  -3  -8   10.93    6.04
  15  -3   8   17.36    5.48
 -15  -3  -9    9.65    6.51
  15  -3   9   14.85    5.42
  15   3   9    7.87    4.98
 -15  -3 -10   -0.19    5.59
  15  -3  10    5.31    4.57
 -15  -3 -11   16.73    7.03
 -15   3 -11   30.88    8.86
  15  -3  11   14.94    5.64
  15  -3  12   40.96    7.90
 -15  -3 -12   44.19    9.54
 -15   3 -12   50.08    9.89
 -15   3 -13   14.51    7.13
  15  -3  13    2.74    4.50
  15  -3  14    4.87    4.91
 -15   3 -14   13.21    6.75
 -16  -3   0   -1.15    4.74
  16   3   0    2.45    4.80
 -16  -3   1   -0.63    4.52
 -16  -3  -1   -1.14    4.48
  16   3   1   -1.67    4.78
  16   3  -1    1.59    4.59
 -16  -3   2   -2.24    4.37
 -16  -3  -2   -1.70    4.98
  16   3   2   -0.80    5.39
  16   3  -2   13.23    5.88
 -16  -3   3    1.15    4.05
 -16  -3  -3   -0.92    4.62
  16   3   3   -0.82    5.45
 -16  -3   4   -0.63    4.15
 -16  -3  -4    5.07    5.30
  16   3   4   -7.36    5.96
 -16  -3   5    2.19    3.89
  16   3   5    4.29    4.60
 -16  -3  -5   -4.36    5.88
  16   3   6    3.82    4.79
 -16  -3   6    3.73    4.15
 -16  -3  -6    0.63    4.90
  16   3   7    1.73    4.35
 -16  -3  -7    0.74    4.45
  16   3   8    0.51    4.47
 -16  -3  -8   -0.28    5.23
  16   3   9    2.49    4.75
 -16  -3  -9    2.05    5.47
  16   3  10   -1.45    4.83
 -16  -3 -10   -2.39    5.90
 -16   3 -10   14.78    7.18
 -17  -3   0   -0.45    4.81
 -17  -3   1   77.86   10.90
 -17  -3  -1   88.30   11.83
 -17  -3   2   54.73    9.19
 -17  -3  -2   49.98    9.27
 -17  -3   3   10.41    5.63
 -17  -3  -3    5.91    5.54
 -17  -3   4   44.01    8.30
 -17  -3  -4   39.69    8.74
 -17  -3   5   30.38    7.10
 -17  -3  -5   33.71    8.47
  17   3   5   26.03    6.95
  17   3   6    2.18    4.65
 -17  -3  -6   -2.72    5.69
  17   3   7   15.57    5.92
  17   3   8   -0.68    4.69
  17   3   9   13.71    6.03
 -18  -3   0    6.77    5.24
 -18  -3   1    3.05    4.95
 -18  -3  -1   -1.68    5.15
 -18  -3   2   -2.93    5.13
 -18  -3  -2    0.80    4.97
 -18  -3   3   -4.96    5.42
 -18  -3   4   12.15    5.49
   0  -4   0  186.39    9.72
   0   4   0  192.43    9.31
   0   4   1   -0.28    3.57
   0   4  -1   -1.00    3.71
   0  -4   1   -0.30    3.86
   0   4  -2  359.47   12.81
   0  -4   2  337.81   12.72
   0   4   2  349.30   12.13
   0  -4   3    0.90    3.58
   0   4  -3   17.67    5.60
   0  -4   4 1074.90   22.70
   0  -4   5   -0.75    4.09
   0  -4   6  600.77   17.79
   0  -4   7   -1.17    4.28
   0  -4   8  320.31   13.93
   0  -4   9    6.10    4.76
   0  -4  10 1126.50   27.23
   0  -4  11   17.79    6.69
   0  -4 -12  488.43   19.75
   0  -4  12  487.57   18.69
   0  -4 -13   -2.85    5.84
   0  -4  13   11.83    6.05
   0  -4 -14   84.12    9.80
   0   4 -14   84.16    3.89
   0  -4 -15   -0.69    5.81
   0  -4 -16  537.80   22.97
   0  -4 -17    2.37    5.02
   0  -4 -18  181.42   14.71
   0  -4 -19   -2.46    4.69
   0  -4 -20   16.20    6.72
   0  -4 -21    2.40    6.36
   0  -4 -22  225.98   18.17
   0  -4 -23    0.27    6.04
   0  -4 -24   -1.72    6.06
   0  -4 -25   -2.04    5.48
   1  -4   0  760.21   19.39
  -1  -4   0  772.07   18.37
   1   4   0  765.62   18.68
  -1   4   0  784.40   16.92
   1  -4   1  330.95   13.09
  -1  -4   1  324.28   12.02
   1   4   1  319.69   12.30
  -1   4   1  326.71   11.08
   1   4  -1  324.06   12.39
  -1   4  -1  326.74   11.31
  -1  -4   2  166.66    8.89
   1   4   2  158.55    9.11
  -1   4   2  161.68    8.02
   1  -4   2  168.33    8.24
   1   4  -2  168.48    9.70
  -1   4  -2  172.64    8.71
   1  -4   2  166.37    9.46
   1  -4   3   54.08    5.88
   1   4  -3   59.77    6.78
  -1  -4   3   50.14    5.58
   1  -4   4   37.76    5.82
  -1  -4   4   43.70    5.38
   1  -4   5   59.41    6.36
  -1  -4   5   58.12    5.95
   1  -4   6   53.65    6.44
  -1  -4   6   49.17    6.11
  -1  -4   7    0.73    3.90
   1  -4   7    2.34    4.53
  -1  -4   8   94.18    7.91
   1  -4   8  101.30    8.83
  -1  -4   9  223.07   11.78
   1  -4   9  222.20   12.68
  -1  -4  10  144.17   10.11
   1  -4  10  132.77   10.42
   1  -4 -11   29.15    6.32
  -1  -4  11   39.88    6.53
   1  -4  11   38.05    6.47
   1  -4 -12   92.57    9.26
  -1  -4  12   96.65    9.08
   1  -4  12  101.42    9.91
  -1  -4 -13    1.16    5.73
   1  -4  13   22.20    7.07
   1  -4 -13    5.82    5.52
   1   4 -13    2.95    0.68
  -1  -4  13   18.22    6.46
  -1  -4 -14    4.82    5.79
   1  -4 -14    6.92    5.54
   1  -4  14   17.92    6.88
  -1  -4 -15   16.26    6.59
   1  -4 -15   16.71    6.61
  -1   4 -15   21.31    2.76
  -1  -4 -16    9.80    6.48
   1  -4 -16   12.16    6.29
  -1  -4 -17   14.54    6.29
   1  -4 -17   18.28    6.19
  -1  -4 -18   17.76    6.50
   1  -4 -18   19.51    7.14
  -1  -4 -19    4.41    5.46
   1  -4 -19    4.56    6.07
  -1  -4 -20    2.59    5.95
   1  -4 -20   -0.88    5.28
  -1  -4 -21   33.70    8.42
   1  -4 -21   38.48    8.52
  -1  -4 -22   20.88    7.77
   1  -4 -22   24.77    7.74
  -1  -4 -23   23.47    8.11
   1  -4 -23   19.99    7.41
  -1  -4 -24    4.49    6.53
   1  -4 -24    0.89    6.12
  -1  -4 -25    3.85    6.72
   1  -4 -25    0.06    6.34
   2  -4   0  134.84    9.21
   2   4   0  144.46    9.24
  -2   4   0  140.10    7.24
   2  -4   1 1321.73   26.12
  -2  -4   1 1303.48   22.74
   2  -4  -1 1306.29   26.06
   2   4   1 1349.67   25.63
  -2   4   1 1326.06   20.52
   2   4  -1 1286.41   25.39
  -2   4  -1 1253.79   20.21
   2   4   2   16.07    4.46
  -2   4   2   20.63    3.49
   2   4  -2   11.98    5.42
  -2  -4   2   21.23    4.04
   2  -4   2   21.30    3.55
   2  -4   2   22.18    5.38
   2   4  -3  266.28   12.26
   2  -4   3  278.05   10.18
   2  -4   3  273.43   12.60
  -2  -4   3  269.15   10.67
   2  -4   4  117.86    7.04
   2  -4   4  102.20    8.29
  -2  -4   4  108.61    7.27
   2   4  -4  119.39    8.98
   2  -4   5   30.73    5.25
  -2  -4   5   29.45    4.39
   2  -4   6   52.99    6.82
  -2  -4   6   51.16    5.77
   2  -4   7   97.40    8.21
  -2  -4   7   97.30    7.48
  -2  -4   8   37.19    5.69
   2  -4   8   35.48    5.79
  -2  -4   9  389.81   14.72
   2  -4   9  402.11   16.69
  -2  -4  10   13.76    5.03
   2  -4 -10    2.99    4.40
   2  -4  10   10.42    5.03
   2   4 -11   28.60    2.08
   2  -4 -11   28.00    6.16
  -2  -4  11   34.48    6.04
   2  -4  11   37.36    6.96
   2  -4 -12  106.10    9.47
  -2  -4  12  105.15    9.15
   2  -4  12  112.57   10.14
   2  -4 -13  356.61   17.07
  -2  -4  13  359.83   16.16
   2  -4  13  375.74   17.77
   2  -4 -14   60.97    8.75
   2  -4  14   76.93    9.64
  -2  -4 -15   47.45    8.57
   2  -4 -15   47.19    7.91
  -2   4 -15   57.54    5.01
  -2   4 -16    6.51    2.40
  -2  -4 -16    2.07    6.17
   2  -4 -16    8.31    5.32
  -2  -4 -17  119.33   12.26
   2  -4 -17  134.95   12.60
  -2  -4 -18   41.08    8.38
   2  -4 -18   40.53    7.90
  -2  -4 -19  176.61   15.20
   2  -4 -19  172.23   14.56
  -2  -4 -20    6.09    6.59
   2  -4 -20    7.59    6.01
  -2  -4 -21   -1.25    5.62
   2  -4 -21    0.48    5.73
  -2  -4 -22    0.08    4.77
   2  -4 -22    1.13    5.76
  -2  -4 -23   48.10    9.50
   2  -4 -23   41.41    8.94
  -2  -4 -24   -1.88    5.66
   2  -4 -24    0.88    5.37
  -2  -4 -25   83.30   12.66
   2  -4 -25   94.94   13.25
   3  -4   0   91.58    8.02
   3   4   0   85.04    7.65
   3   4   0   95.30    6.25
  -3   4   0   96.94    5.65
   3  -4   1  239.11   11.89
   3  -4  -1  234.48   11.98
   3   4   1  232.08   11.71
   3   4  -1  246.67    9.65
   3   4  -1  224.04   11.47
  -3   4   1  241.21    8.35
   3   4   1  241.78    9.81
  -3   4  -1  249.69    8.55
  -3  -4   2  173.43    8.24
  -3   4   2  179.04    7.95
   3   4  -2  173.76    8.18
   3   4   2  169.59   10.26
   3  -4   2  174.72    7.45
  -3   4   2  175.38    7.15
   3   4  -2  165.92   10.37
   3  -4   2  169.16   10.24
  -3  -4   3   77.23    5.81
  -3   4   3   84.08    5.83
   3   4  -3   89.48    6.15
  -3   4   3   79.78    5.14
   3  -4   3   85.98    5.59
   3   4  -3   84.45    8.16
   3  -4   3   89.17    8.06
   3  -4   4  116.70    6.81
   3  -4   4  113.10    9.07
  -3  -4   4  118.03    7.22
   3   4  -4  127.15    9.26
   3  -4   5  163.04   10.73
  -3  -4   5  179.54    8.88
   3   4  -5  215.94   12.31
   3  -4   6   38.89    5.82
  -3  -4   6   38.41    4.87
   3   4  -7   27.57    3.09
   3  -4   7   26.57    5.90
  -3  -4   7   32.97    4.78
   3   4  -8   26.25    2.72
  -3  -4   8   29.47    4.84
   3  -4   8   28.67    5.93
   3  -4  -9   34.04    5.40
   3  -4   9   42.29    7.15
  -3  -4   9   40.54    5.70
   3   4  -9   38.94    2.94
   3  -4 -10   66.50    7.23
  -3  -4  10   70.06    7.11
   3  -4  10   73.11    8.39
   3   4 -10   66.39    3.35
   3  -4 -11   39.14    6.20
  -3  -4  11   43.97    6.25
   3  -4  11   46.33    7.47
  -3  -4  12   12.47    4.99
   3  -4  12   15.10    6.27
   3  -4 -12    8.51    5.02
   3  -4  13   31.66    8.02
   3  -4 -13   21.11    5.56
  -3  -4  13   27.85    6.26
   3  -4  14    8.00    6.79
   3  -4 -14    0.32    4.10
   3  -4 -15   18.86    6.18
   3  -4  15   27.93    7.27
  -3   4 -16   14.38    3.40
   3  -4 -16   11.41    6.01
   3  -4  16   17.01    6.79
  -3  -4 -17   -1.90    4.59
   3  -4 -17   -1.81    4.67
  -3  -4 -18    7.26    6.19
   3  -4 -18    5.48    5.22
  -3  -4 -19   25.55    7.34
   3  -4 -19   28.21    7.60
  -3  -4 -20    2.05    6.08
   3  -4 -20    1.27    5.57
  -3  -4 -21    7.52    5.64
   3  -4 -21   17.51    7.23
  -3  -4 -22    7.08    5.68
   3  -4 -22    7.30    6.35
  -3  -4 -23    5.42    6.27
   3  -4 -23    5.81    5.93
  -3  -4 -24    3.17    6.59
   3  -4 -24    5.82    5.70
   3  -4 -25   29.01    8.90
   4   4   0    4.92    3.97
   4  -4   0    5.14    4.11
   4   4   0    5.84    2.32
   4   4   1    1.91    4.74
   4   4  -1   -5.77    5.72
   4  -4  -1    2.30    3.03
  -4   4   1    9.91    2.62
  -4   4   1    5.64    1.90
   4  -4   1    7.25    4.33
   4   4   1    4.71    2.24
   4   4  -1    2.92    2.09
   4   4   2    2.10    4.27
   4  -4   2    4.61    1.77
  -4  -4   2    4.71    2.21
   4   4  -2    4.30    4.92
   4  -4   2    9.14    4.73
  -4   4   2    5.29    2.02
   4   4  -2    5.24    2.27
   4   4   2    5.76    2.37
  -4   4   2    5.22    1.95
  -4  -4   3   69.38    5.28
  -4   4   3   70.90    5.13
   4   4  -3   76.85    5.39
  -4   4   3   72.87    4.48
   4  -4   3   70.21    4.89
   4   4  -3   81.68    7.70
   4  -4   3   80.30    7.61
  -4   4   4  194.47    8.51
   4  -4   4  197.28    8.21
   4  -4   4  193.75   11.19
   4   4  -4  230.57   12.57
  -4  -4   4  192.96    8.47
   4   4  -4  190.68    8.64
   4   4  -5   54.26    4.63
   4  -4   5   57.23    7.34
  -4  -4   5   58.98    5.27
   4  -4   5   61.03    5.20
   4   4  -5   75.84    7.67
  -4  -4   6   10.22    3.02
   4   4  -6   14.43    2.62
   4  -4   6   10.70    4.60
   4  -4   7  102.22    9.22
  -4  -4   7  107.52    7.01
   4   4  -7   99.96    5.59
  -4  -4   8    8.42    3.51
   4  -4   8    9.88    4.51
   4   4  -8   13.92    2.34
   4  -4  -9   65.47    6.86
  -4  -4   9   65.56    6.40
   4  -4   9   66.09    8.44
   4   4  -9   63.29    3.84
   4  -4 -10  104.45    8.48
  -4  -4  10   95.55    7.81
   4  -4  10   94.70    9.71
   4  -4 -11   92.33    8.49
  -4  -4  11   97.98    8.28
   4  -4  11   95.64    9.97
  -4  -4  12  106.73    8.75
   4  -4  12  124.79   11.50
   4  -4 -12  104.56    9.24
   4  -4 -13   36.25    6.75
  -4  -4  13   44.24    6.74
   4  -4  13   42.71    8.15
   4  -4 -14   65.89    8.53
   4  -4  14   79.74   10.39
   4  -4 -15  359.36   18.12
   4  -4  15  373.78   19.24
   4  -4 -16  107.68   10.92
   4  -4  16  115.12   12.16
  -4   4 -16  110.16    7.82
  -4   4 -17    9.01    3.21
   4  -4 -17    5.55    4.88
   4  -4 -18    7.98    5.81
   4  -4 -19    1.73    5.44
   4  -4 -20   32.38    7.99
   4  -4 -21   59.87   10.09
  -4  -4 -22   10.65    5.96
   4  -4 -22   16.72    7.27
  -4  -4 -23   16.16    7.47
   4  -4 -23   17.14    7.37
  -4  -4 -24    6.42    6.96
   4  -4 -24    5.25    5.36
   4  -4 -25   10.09    7.04
  -4   4 -25   38.69    9.41
  -4   4 -26   46.10    9.93
   5  -4   0   49.68    6.69
  -5   4   0   49.10    3.56
   5   4   0   55.90    6.71
   5   4   0   48.41    4.22
   5   4   1    1.53    4.39
   5   4  -1   -3.82    5.60
   5  -4  -1   -1.69    3.76
  -5   4   1    1.83    1.42
   5  -4   1    1.34    3.34
   5   4  -1    0.74    1.87
   5   4   1    2.24    1.86
   5   4   2   13.48    5.20
   5  -4   2   16.76    4.92
   5   4  -2   18.79    5.42
   5   4   2   17.16    2.92
  -5   4   2   14.65    2.42
   5   4  -2   18.98    3.13
   5  -4   2   16.71    2.30
  -5   4   2   20.90    2.35
  -5  -4   3    2.32    1.93
   5  -4   3    0.73    1.83
  -5   4   3    0.54    1.64
   5   4  -3   10.18    5.79
  -5   4   3    3.07    1.83
   5  -4   3    4.88    4.64
   5   4   3    3.60    2.25
  -5  -4   4   63.11    4.84
  -5   4   4   68.33    5.04
  -5   4   4   67.52    3.90
   5  -4   4   64.25    4.64
   5  -4   4   67.11    7.45
   5   4  -4   85.32    8.90
   5  -4   5   30.02    6.04
  -5   4   5   39.95    4.39
   5   4  -5   36.45    4.13
   5  -4   5   38.64    4.07
  -5  -4   5   35.58    4.10
   5   4  -5   57.26    7.79
   5   4  -6  149.71   10.39
   5  -4   6  110.73    9.25
  -5  -4   6  114.11    6.79
   5   4  -6  123.86    6.76
   5  -4   6  127.27    7.04
  -5  -4   7   36.75    4.44
   5  -4   7   37.65    6.07
   5   4  -7   43.07    4.03
   5  -4   8   11.35    5.35
  -5  -4   8   13.76    3.59
   5  -4  -8   10.12    3.55
   5   4  -8   18.03    2.82
   5  -4  -9   72.63    6.85
  -5  -4   9   62.80    6.05
   5  -4   9   71.12    8.71
   5  -4 -10   11.07    4.20
  -5  -4  10   10.41    3.76
   5  -4  10   15.88    6.59
   5  -4 -11   26.10    5.40
   5  -4  11   33.06    7.79
  -5  -4  11   31.16    5.17
   5  -4 -12   97.02    9.06
  -5  -4  12  107.84    8.59
   5  -4  12  103.08   10.78
   5  -4 -13   68.79    8.36
  -5  -4  13   74.55    7.60
   5  -4  13   76.34   10.13
   5  -4  14   21.47    6.54
   5  -4 -14    8.46    5.10
   5  -4 -15   33.02    6.72
   5  -4  15   48.37    9.06
   5  -4 -16   68.53    9.01
  -5   4 -16   73.90    7.29
   5  -4  16   67.49   10.16
   5  -4 -17  160.73   13.14
   5  -4  17  160.15   13.81
  -5   4 -17  171.33   10.31
   5  -4 -18    3.48    5.17
   5  -4  18   17.88    7.97
   5  -4 -19    2.82    5.47
   5  -4  19   19.16    8.08
   5  -4 -20   43.10    8.68
   5  -4  20   51.52   10.03
   5  -4 -21   13.39    6.59
   5  -4 -22    5.65    5.63
   5  -4 -23   15.40    6.44
  -5   4 -23   39.29    8.81
  -5   4 -24   52.82    9.96
   5  -4 -24   44.84    9.66
   5  -4 -25   16.39    7.79
  -5   4 -25   26.98    8.20
  -5   4 -26    8.89    6.69
   6  -4   0   85.72    8.01
  -6   4   0   82.01    4.00
   6   4   0   77.87    4.97
   6   4   0   84.19    8.73
   6   4   1   32.58    6.50
   6  -4  -1   40.73    6.17
   6   4  -1   34.39    6.47
  -6   4  -1   42.65    2.89
  -6   4   1   43.20    3.18
   6  -4   1   39.70    6.23
   6   4  -1   42.27    3.70
   6   4   1   43.85    3.94
   6  -4   2   50.22    7.11
   6   4   2   49.88    4.28
   6   4   2   46.00    7.13
   6   4  -2   49.81    7.22
  -6   4   2   53.39    3.74
   6   4  -2   51.31    4.00
   6   4   3  107.15    6.34
  -6   4   3  112.22    5.74
   6   4   3  115.07    9.43
   6  -4   3  109.44    5.03
   6   4  -3  102.95    8.96
  -6   4   3  106.37    3.44
   6  -4   3  116.38    9.54
  -6   4   4   -0.11    1.20
   6  -4   4    0.44    1.83
  -6  -4   4   -0.17    1.93
  -6  -4   5  265.14    9.08
   6  -4   5  270.14   14.40
   6  -4   5  264.25    9.09
   6   4  -5  283.88   14.88
   6  -4   6   42.85    7.08
  -6  -4   6   44.08    4.17
   6  -4   6   51.50    4.82
   6   4  -6   73.68    9.29
  -6  -4   7   17.62    3.18
   6  -4   7   17.87    5.92
   6  -4  -8  271.58   11.56
   6  -4   8  267.09   14.76
  -6  -4   8  253.90   10.06
   6  -4  -9   75.29    6.80
  -6  -4   9   75.81    6.07
   6  -4   9   75.68    9.22
   6  -4 -10   21.39    4.70
  -6  -4  10   24.28    4.17
   6  -4  10   21.98    6.30
   6  -4 -11   87.07    7.96
  -6  -4  11   89.65    7.40
   6  -4  11   92.11   10.21
   6  -4 -12  230.76   12.92
  -6  -4  12  232.75   11.39
   6  -4  12  237.74   15.36
   6  -4 -13   51.66    7.28
  -6  -4  13   49.78    6.44
   6  -4  13   57.95    8.92
   6  -4  14   11.79    6.73
   6  -4 -14    0.51    4.15
  -6  -4  14    6.94    4.40
   6  -4  15   40.16    8.54
   6  -4 -15   31.73    6.47
   6  -4 -16   35.19    7.12
   6  -4  16   49.08    9.34
  -6   4 -16   50.02    6.73
   6  -4 -17   47.43    8.06
   6  -4  17   66.75   10.34
  -6   4 -17   56.16    6.80
   6  -4 -18  129.96   12.38
   6  -4  18  150.40   14.60
   6  -4  19    7.15    6.68
   6  -4 -19   -3.05    5.53
   6  -4  20   30.27    8.74
  -6   4 -20   38.03    7.78
   6  -4 -20   17.63    5.96
  -6   4 -21   45.38    8.28
   6  -4 -21   19.71    6.42
   6  -4  21   33.41    9.21
   6  -4 -22   11.33    5.91
   6  -4  22   20.19    7.81
  -6   4 -22   30.08    7.62
   6  -4 -23   17.65    7.07
   6  -4  23   27.35    8.82
  -6   4 -23   31.74    7.96
   6  -4 -24   44.25    9.62
  -6   4 -24   48.67    9.24
   6  -4 -25    3.87    5.56
  -6   4 -25   14.25    6.69
  -6   4 -26   12.29    6.67
   7   4   0   -1.31    5.59
   7  -4   0   -5.40    4.96
   7   4   0   -0.45    1.69
   7   4   1    3.76    5.32
   7   4  -1   -1.84    5.01
   7   4   1    5.25    1.96
   7   4  -1    6.91    2.01
   7  -4   1    4.53    4.63
   7  -4  -1    1.93    4.32
   7   4   2    8.97    5.35
   7   4   2    9.16    2.26
   7  -4   2    5.95    4.65
   7   4  -2    5.89    4.59
  -7   4  -2    4.47    0.81
   7   4   3   49.53    4.27
   7   4   3   50.61    7.23
   7  -4   3   50.61    3.12
   7   4  -3   50.67    7.19
   7  -4   3   54.61    7.25
   7  -4   4    3.81    1.75
   7   4  -4   14.55    5.78
   7  -4   4    6.75    4.96
  -7   4   5    3.88    0.89
   7  -4   5    8.38    4.50
   7  -4   5   10.36    2.61
  -7  -4   5    3.98    1.72
   7  -4   6   30.81    6.26
  -7  -4   6   37.98    3.55
   7  -4   6   45.60    4.34
   7  -4   7  299.71   15.57
  -7  -4   7  294.58    9.52
   7  -4  -8   33.13    4.68
  -7  -4   8   33.24    3.95
   7  -4   8   31.35    6.98
   7  -4  -9    0.29    2.98
   7  -4   9    1.00    4.28
  -7  -4   9    1.70    2.39
   7  -4 -10   10.57    3.78
  -7  -4  10   11.05    3.23
   7  -4  10   12.27    6.09
   7  -4 -11  116.95    9.07
  -7  -4  11  110.02    7.64
   7  -4  11  112.31   11.15
  -7  -4  12   17.34    3.96
   7  -4 -12   12.65    4.71
   7  -4  12   12.56    5.99
   7  -4 -13   60.94    7.52
  -7  -4  13   59.44    6.46
   7  -4  13   60.67    9.46
   7  -4 -14   75.31    8.47
  -7  -4  14   79.32    7.48
   7  -4  14   74.03   10.38
   7  -4  15   30.25    7.37
   7  -4 -15   24.43    6.11
  -7  -4  15   29.57    5.66
   7  -4  16   15.81    6.38
   7  -4 -16    5.95    4.40
  -7   4 -17   15.96    5.11
   7  -4  17   18.14    7.31
   7  -4 -17    6.88    5.05
  -7   4 -17   23.16    6.08
  -7   4 -18   57.34    8.06
   7  -4 -18   43.52    7.96
   7  -4  18   54.84   10.19
  -7   4 -18   48.33    6.80
   7  -4 -19  128.23   12.62
  -7   4 -19  140.12   11.86
   7  -4  19  129.40   14.23
   7  -4  20    7.86    7.16
   7  -4 -20   -4.71    5.82
  -7   4 -20   14.73    5.79
   7  -4  21   16.80    7.47
   7  -4 -21    5.95    5.57
  -7   4 -21   18.12    6.30
   7  -4  22   37.23    9.57
   7  -4 -22   14.18    6.60
  -7   4 -22   36.02    7.62
   7  -4 -23   -1.71    5.95
  -7   4 -23    7.16    5.66
   7  -4 -24   -2.55    6.16
   8   4   0   17.55    5.32
   8   4   0   25.89    2.53
   8  -4   0   24.03    5.84
   8  -4   1  298.59   14.95
   8  -4  -1  307.44   15.16
   8   4   1  300.96   15.86
   8   4   1  296.91    8.19
   8   4  -1  315.88   15.84
   8  -4   2  212.68   12.78
   8   4   2  206.19   13.03
   8   4  -2  194.83   13.36
   8   4   2  201.18    7.32
   8   4   3   20.60    6.26
   8   4   3   27.74    3.21
   8   4  -3   21.79    6.72
   8  -4   3   23.87    1.80
   8  -4   3   31.85    6.33
   8   4   4  131.68   11.00
   8  -4   4  119.98    4.86
   8   4  -4  124.28   10.90
   8  -4   4  130.74   10.55
  -8   4  -5  178.34    3.98
   8  -4   5  205.26   13.22
   8  -4   5  205.47    7.14
   8   4  -5  213.05   13.84
   8  -4   6    4.81    5.25
  -8   4  -6   13.33    1.80
  -8   4  -7   71.30    4.14
  -8  -4   7   66.44    4.28
   8  -4   7   67.33    8.57
  -8   4  -8   16.61    2.95
   8  -4  -8    7.97    3.10
  -8  -4   8   11.04    2.46
   8  -4   8    8.23    5.32
  -8  -4   9   17.52    2.89
  -8   4  -9   22.23    3.54
   8  -4  -9   13.89    3.74
   8  -4   9   14.53    5.64
  -8   4 -10   30.98    4.26
   8  -4 -10   28.15    4.83
   8  -4  10   19.33    6.71
  -8  -4  10   22.08    3.45
   8  -4 -11   67.67    7.09
  -8   4 -11   68.37    6.04
  -8  -4  11   72.51    5.90
   8  -4  11   69.06    9.53
  -8   4 -12   23.71    4.44
  -8  -4  12   18.26    3.76
   8  -4 -12   25.63    5.01
   8  -4  12   13.59    5.78
  -8   4 -13   40.96    5.72
   8  -4 -13   31.42    5.74
   8  -4  13   37.85    7.97
  -8  -4  13   38.73    5.02
  -8   4 -14   49.06    6.31
   8  -4  14   41.35    8.19
   8  -4 -14   38.98    6.38
  -8  -4  14   47.85    5.84
   8  -4 -15  107.08   10.30
  -8   4 -15  112.79    9.17
   8  -4  15  111.06   12.10
   8  -4 -16   68.85    8.84
  -8   4 -16   76.95    8.23
  -8   4 -16   91.51    9.56
   8  -4  16   78.05   10.83
  -8   4 -17   17.40    5.41
   8  -4  17   12.33    6.54
   8  -4 -17    3.36    4.39
  -8   4 -17   10.90    4.71
  -8   4 -18   28.14    6.11
   8  -4  18   21.09    7.39
   8  -4 -18   17.51    5.68
   8  -4  19   18.39    7.51
   8  -4 -19    7.25    4.91
   8  -4  20    3.46    5.85
   8  -4 -20   -4.27    6.27
   8  -4  21   46.22   10.02
   8  -4 -21   28.67    7.07
   8  -4  22   28.32    8.27
   8  -4 -22   15.56    6.43
   8  -4 -23    0.09    5.48
   8  -4 -24   33.90    8.47
   9  -4   0  215.86   13.00
   9   4   0  201.19   13.55
   9  -4   1   -1.45    4.33
   9   4   1   -0.41    5.15
   9   4  -1   -9.15    7.02
   9   4   1    1.14    1.10
   9  -4   2   72.10    8.41
   9   4   2   76.17    9.29
   9   4   2   71.66    4.00
   9   4  -2   71.47    9.05
   9   4   3   12.58    5.60
   9  -4   3   12.11    5.12
   9   4   3   13.45    2.38
   9   4  -3   15.19    6.25
   9   4   4   33.96    6.89
   9   4   4   32.73    3.47
   9   4  -4   47.52    8.65
   9  -4   4   40.14    7.21
   9  -4   5   49.94    7.77
   9   4  -5   59.17    8.83
   9  -4   6  114.98   10.71
   9   4  -6  146.30   12.61
   9  -4   7   -9.37    6.33
   9  -4  -8   61.83    5.50
   9  -4   8   55.24    8.01
   9  -4  -9   87.13    6.85
   9  -4   9   83.54    9.69
   9  -4 -10    1.54    2.75
   9  -4  10   -6.30    6.08
   9  -4 -11  142.83    9.57
   9  -4  11  128.79   12.21
   9  -4 -12   35.98    5.65
   9  -4  12   34.59    7.47
   9  -4 -13    1.20    3.26
   9  -4  13    6.98    6.10
   9  -4 -14   15.73    4.76
   9  -4  14   15.43    6.17
   9  -4  15    7.91    5.90
   9  -4 -15    7.73    4.34
   9  -4  16    7.92    6.59
   9  -4 -16   -3.23    4.50
  -9   4 -16   16.57    6.10
   9  -4 -17  128.82   11.82
   9  -4  17  117.39   13.15
  -9   4 -17  134.10   11.86
  -9   4 -18    5.94    4.41
   9  -4  18    0.01    5.10
   9  -4 -18   -1.78    4.88
   9  -4  19    6.49    6.30
   9  -4 -19    0.91    4.88
   9  -4  20    3.10    6.23
   9  -4 -20   -2.66    5.24
   9  -4  21    7.18    7.00
   9  -4 -21    3.36    4.78
   9  -4 -22   -4.32    5.86
   9  -4 -23    2.59    5.31
   9  -4 -24   -3.42    5.89
  10  -4   0   63.86    7.93
  10   4   0   52.03    8.48
  10  -4   1  133.63   10.96
  10   4   1  138.12   11.78
  10   4  -1  135.66   11.99
  10  -4   2  129.13   10.68
  10   4   2  121.80   11.14
  10   4  -2  119.17   11.45
  10   4   3   34.59    7.09
  10  -4   3   35.60    6.91
  10   4  -3   35.53    8.13
  10   4   4   28.82    6.59
  10   4  -4   37.10    7.83
  10  -4   4   33.25    6.76
  10   4   5  103.51   10.63
  10  -4   5  102.13   10.06
  10   4  -5  117.93   11.77
  10  -4   6   20.63    6.03
  10   4  -6   34.18    8.66
  10  -4   7   13.98    5.66
  10  -4   8   51.13    7.98
  10  -4   9   38.69    7.32
  10  -4  10   47.21    8.03
  10  -4 -11  159.04    9.88
  10  -4  11  155.76   13.24
  10  -4 -12   64.45    7.06
  10  -4  12   62.40    9.12
  10  -4 -13   30.13    5.54
  10  -4  13   29.79    7.74
  10  -4 -14   49.96    6.86
  10  -4  14   47.45    8.83
  10  -4 -15   62.93    7.95
  10  -4  15   75.52   10.46
  10  -4 -16   23.41    5.79
  10  -4  16   24.82    7.43
 -10   4 -16   34.27    7.23
  10  -4 -17   56.51    8.11
  10  -4  17   52.35    9.78
 -10   4 -17   59.43    8.90
  10  -4 -18   49.64    8.22
  10  -4  18   53.75    9.91
 -10   4 -18   64.22    9.03
  10  -4  19   24.55    7.97
  10  -4  20   15.28    7.58
  11   4   0   -6.17    7.23
  11  -4   0    4.30    4.33
  11  -4   1  118.26   10.48
  11   4   1  125.81   11.56
  11   4  -1  127.21   11.74
  11  -4   2   87.36    9.22
  11   4   2   87.98   10.24
  11   4  -2   79.06   10.00
  11  -4   3   47.67    7.46
  11   4   3   40.91    7.77
  11   4  -3   41.20    8.54
  11  -4   4  391.76   18.64
  11   4   4  382.99   19.60
  11   4  -4  383.25   19.37
  11   4   5   -1.37    5.02
  11   4  -5   14.36    6.96
  11  -4   5    0.79    4.36
  11  -4   6    8.63    5.22
  11   4   6   -7.10    6.46
  11  -4   7   10.56    5.22
  11  -4   8   46.32    7.92
  11  -4   9    1.50    4.81
  11  -4  10   18.29    5.84
  11  -4  11    2.69    4.57
  11  -4  12   20.67    6.56
  11  -4  13   -1.48    5.13
  11  -4  14   -2.37    5.75
  11  -4  15    2.52    4.88
 -11   4 -16   10.77    6.03
  11  -4  16    4.34    5.30
 -11   4 -17   10.78    5.51
  11  -4  17    0.84    4.92
 -11   4 -18    3.86    4.89
  11  -4  18    0.84    5.17
  11  -4  19    1.25    5.74
 -12  -4   0    6.87    4.95
  12   4   0   -4.86    7.14
 -12  -4  -1   72.31    9.17
  12  -4   1   74.27    8.88
  12   4   1   59.89    8.86
  12   4  -1   64.08    9.35
 -12  -4   1   81.97    9.55
 -12  -4   2  211.50   14.07
  12  -4   2  212.22   14.01
  12   4   2  207.19   15.01
  12   4  -2  215.55   15.46
 -12  -4   3  146.35   11.67
  12  -4   3  138.40   11.71
  12   4   3  129.60   12.40
  12   4  -3  135.05   12.64
  12  -4   4  263.66   15.77
 -12  -4   4  267.26   15.16
  12   4   4  247.45   16.34
  12   4  -4  278.89   17.02
  12  -4   5   92.43   10.04
  12   4   5   96.04   11.13
  12   4  -5   99.88   11.39
  12   4   6   25.61    6.75
  12  -4   6   32.69    6.95
  12   4   7  125.81   12.49
  12  -4   7  123.58   11.73
  12  -4   8  154.52   13.04
  12  -4   9   34.31    7.41
  12  -4  10   13.11    5.54
  12  -4  11    0.20    5.47
  12  -4  12   -3.63    5.85
  12  -4  13   15.79    6.02
  12  -4  14   19.27    6.90
  12  -4  15    4.05    5.27
 -12   4 -15   27.65    7.60
 -12   4 -16   19.07    6.68
  12  -4  16    5.57    5.82
 -12   4 -17    9.26    5.64
  12  -4  17    6.44    6.12
 -12   4 -18   12.70    5.85
  12  -4  18    9.70    6.25
 -12   4 -19    8.65    5.19
  12  -4  19    7.72    6.62
 -13  -4   0    4.66    4.68
  13   4   0   -3.68    6.40
 -13  -4  -1   44.83    7.80
 -13  -4   1   44.70    7.80
  13   4   1   37.52    7.52
  13   4  -1   43.21    8.12
 -13  -4   2   89.71   10.12
 -13  -4  -2   92.12   10.72
  13  -4   2   97.82   10.06
  13   4   2   76.97    9.92
  13   4  -2   90.54   10.84
  13   4   3    6.14    5.71
 -13  -4  -3    8.32    5.66
  13  -4   3    4.11    4.19
  13   4  -3   14.52    6.79
 -13  -4   3   10.37    4.88
  13   4   4   20.79    6.49
 -13  -4   4   17.16    5.20
  13   4  -4   22.82    7.63
  13  -4   4   15.36    5.39
  13   4   5    0.61    5.20
  13  -4   5    5.72    4.67
  13   4  -5   17.11    7.09
 -13  -4   5    4.20    3.79
 -13  -4   6   58.10    7.67
  13   4   6   52.74    8.83
  13  -4   6   55.94    8.43
  13   4   7    0.09    5.44
  13  -4   7    8.45    5.22
  13  -4   8    1.14    4.19
  13   4   8   -4.92    6.07
  13  -4   9  110.66   11.57
  13  -4  10    6.83    4.71
  13  -4  11   -3.84    5.64
  13  -4  12    6.52    4.81
  13  -4  13   -3.02    5.53
  13  -4  14    4.28    5.19
 -13   4 -15   22.49    7.44
  13  -4  15    4.13    5.20
 -13   4 -16   11.19    6.25
  13  -4  16   -0.34    5.47
 -13   4 -17   21.43    7.04
  13  -4  17   10.29    6.47
 -13   4 -18    1.83    4.69
  13  -4  18   -3.95    6.09
 -13   4 -19   18.95    6.56
 -14  -4   0  320.82   19.17
  14   4   0  344.31   19.60
 -14  -4   1   19.28    5.91
 -14  -4  -1   20.78    6.78
  14   4   1   13.19    5.79
  14   4  -1   13.77    6.80
  14  -4   2   12.19    5.15
 -14  -4   2    5.17    4.31
 -14  -4  -2   11.59    5.73
  14   4   2    1.37    5.69
  14   4  -2    7.15    6.19
  14   4   3   13.76    6.17
 -14  -4   3   27.89    6.46
 -14  -4  -3   26.90    7.08
  14   4  -3   44.19    8.91
  14  -4   3   29.91    6.57
 -14  -4   4   43.71    7.37
  14  -4   4   41.27    7.37
  14   4   4   44.82    8.41
 -14  -4  -4   37.77    8.01
  14   4  -4   47.10    9.12
  14   4   5   17.56    6.67
 -14  -4   5   16.97    5.24
  14  -4   5   20.44    5.97
  14   4  -5   37.46    8.57
  14  -4   6   53.59    8.32
 -14  -4   6   56.25    7.83
  14   4   6   57.26    9.19
  14   4   7    5.42    5.17
  14  -4   7    4.71    4.71
  14   4   8   21.93    6.72
  14  -4   8   23.02    6.39
  14   4   9   46.13    8.78
  14  -4   9   52.62    8.57
  14  -4  10   15.94    5.96
  14  -4  11   62.06    9.54
  14  -4  12   26.17    7.26
  14  -4  13    4.19    4.90
  14  -4  14   17.76    6.86
 -14   4 -14   49.67    9.80
  14  -4  15   18.64    7.16
 -14   4 -15   33.86    8.50
 -14   4 -16   27.23    8.09
  14  -4  16   17.33    6.60
  14  -4  17   32.34    8.12
 -15  -4   0   11.70    5.32
  15   4   0   10.41    6.21
 -15  -4   1    6.95    4.83
 -15  -4  -1    5.84    5.11
  15   4   1    3.50    5.17
  15   4  -1   11.65    6.51
 -15  -4   2    2.63    4.22
 -15  -4  -2   -0.05    4.85
  15   4   2   -3.79    6.24
  15   4  -2    8.23    6.30
 -15  -4   3    4.53    4.42
 -15  -4  -3    5.84    4.71
  15   4  -3   17.49    7.26
  15  -4   3    7.74    4.55
  15   4   3   -3.81    6.36
  15   4   4   -3.65    6.23
 -15  -4  -4    1.06    4.88
 -15  -4   4    8.57    4.82
  15  -4   4    3.49    3.79
  15  -4   5   15.07    5.32
  15   4   5   15.36    6.10
 -15  -4   5   14.46    5.01
  15   4   6    3.48    5.01
  15  -4   6    6.35    4.39
  15   4   7   27.91    7.57
  15  -4   7   24.20    6.31
  15   4   8   26.07    7.51
  15  -4   8   21.14    6.20
  15   4   9   14.33    6.55
  15  -4   9   20.68    6.22
  15   4  10    5.54    5.65
  15  -4  10   12.90    5.78
  15  -4  11   24.63    7.13
  15  -4  12    5.13    5.25
  15  -4  13   16.40    6.18
  15  -4  14   17.35    6.39
  15  -4  15   12.01    5.80
  15  -4  16    7.72    5.86
 -16  -4   0   -1.43    4.50
  16   4   0    3.75    5.61
 -16  -4   1    8.62    4.87
 -16  -4  -1   13.09    5.86
  16   4   1   16.35    6.52
  16   4  -1   21.47    7.10
 -16  -4   2    3.33    4.31
 -16  -4  -2    3.37    5.09
  16   4   2   -2.62    5.71
  16   4  -2    9.77    6.18
 -16  -4   3   67.27    9.67
 -16  -4  -3   69.00   10.52
  16   4   3   67.88   10.10
  16   4  -3   88.75   11.56
 -16  -4   4    3.38    4.37
 -16  -4  -4    1.01    5.08
  16   4   4   -3.45    6.01
  16   4   5    7.90    5.52
  16   4   6    3.36    4.93
  16   4   7   37.12    8.21
  16   4   8   -1.44    5.17
  16   4   9   35.21    8.31
  16   4  10    4.63    5.56
  16   4  11    7.61    5.81
 -17  -4   0    6.49    5.07
  17   4   0   13.69    6.22
 -17  -4   1   12.37    5.78
 -17  -4  -1   10.36    5.82
  17   4   1   14.82    6.66
  17   4  -1   20.41    7.17
 -17  -4   2    6.80    5.01
 -17  -4  -2   12.29    5.96
  17   4   2    9.47    6.18
  17   4  -2   26.20    7.85
 -17  -4   3    1.93    4.47
 -17  -4  -3    3.86    4.86
  17   4   3    3.67    5.30
 -17  -4  -4    0.73    5.27
  17   4   4   -1.41    6.12
  17   4   5   15.64    6.36
  17   4   6    0.91    5.46
  17   4   7    1.29    4.84
  17   4   8   -0.03    5.06
  17   4   9    2.84    5.09
 -18  -4   0   67.27   10.91
 -18  -4   1   42.42    8.94
 -18  -4   2   -2.20    4.75
   0  -5   0   -1.17    3.44
   0   5   0   -4.70    4.40
   0   5   1   21.87    4.65
   0   5  -1   22.64    4.89
   0  -5   1   20.73    4.99
   0   5   2    0.06    3.45
   0   5  -2    4.07    4.28
   0  -5   2    1.40    3.24
   0  -5   3   98.58    8.25
   0   5   3   90.39    7.53
   0   5  -3  101.93    8.49
   0  -5   4    0.91    4.00
   0  -5   5   68.00    7.26
   0  -5   6   -3.39    4.18
   0  -5   7   73.08    7.73
   0  -5   8   -2.22    4.35
   0  -5   9   -1.11    4.15
   0  -5  10    2.52    5.06
   0  -5  11   18.72    6.04
   0  -5  12    2.94    5.28
   0  -5  13   30.89    7.25
   0  -5  14    2.31    4.74
   0  -5  15   12.75    6.15
   0  -5  16    7.21    5.76
   0  -5  17   11.05    6.31
   0  -5  18    6.66    6.15
   0  -5 -19    3.86    5.23
   0  -5  19    7.46    5.68
   0  -5 -20   -2.16    6.03
   0  -5  20    8.40    6.37
   0  -5 -21    4.01    5.22
   0  -5  21   12.15    6.56
   0  -5 -22   -1.25    5.55
   0  -5  22    8.29    6.39
   0  -5  23   19.21    7.51
   0  -5 -23   13.46    7.23
   0  -5  24   10.58    7.17
   0  -5 -24   -3.67    6.49
   1  -5   0  139.74    9.99
   1   5   0  137.41    9.32
  -1   5   0  137.09    8.69
   1   5   1   20.11    5.12
  -1   5   1   13.24    3.76
   1   5  -1   17.96    4.71
  -1   5  -1   22.89    4.94
   1  -5   1   17.77    4.59
  -1  -5   1   14.03    4.28
   1  -5   2   44.96    6.31
  -1  -5   2   48.18    6.09
   1   5   2   48.51    6.14
  -1   5   2   43.96    5.52
   1   5  -2   60.12    7.23
  -1   5  -2   68.73    6.91
  -1   5  -3  268.15   11.90
   1  -5   3  249.16   12.80
  -1  -5   3  253.67   12.22
   1   5   3  274.83   12.69
  -1   5   3  260.66   11.40
   1   5  -3  269.99   12.96
  -1   5   4  193.35   10.10
   1  -5   4  186.49   11.33
   1   5  -4  206.76   11.63
  -1  -5   4  191.40   10.77
   1  -5   5   36.00    6.28
  -1  -5   5   34.80    5.70
   1  -5   6  143.71   10.39
  -1  -5   6  140.99    9.65
   1  -5   7  141.20   10.70
  -1  -5   7  143.15   10.02
   1  -5   8   29.45    6.19
  -1  -5   8   30.01    5.83
   1  -5   9  140.85   10.93
  -1  -5   9  153.07   10.82
  -1  -5  10  246.77   13.83
   1  -5  10  237.42   14.35
  -1  -5  11   21.79    6.10
   1  -5  11   23.02    6.83
  -1  -5  12  123.07   10.65
   1  -5  12  106.54   11.23
  -1  -5  13  139.53   11.64
   1  -5  13  130.78   11.55
   1  -5  14   48.80    8.42
  -1  -5  14   37.69    7.29
  -1  -5  15   53.00    8.51
   1  -5  15   55.37    8.86
  -1  -5  16  182.62   13.62
   1  -5  16  161.06   13.45
   1  -5 -17    7.83    5.98
  -1  -5  17   21.55    6.91
   1  -5  17   14.56    6.19
   1  -5 -18   24.56    6.96
  -1  -5  18   35.14    7.73
   1  -5  18   29.95    7.95
   1  -5 -19   53.41    9.65
  -1  -5  19   57.76    9.43
   1  -5  19   74.02   10.65
  -1  -5  20   24.99    7.68
   1  -5  20   25.70    7.51
   1  -5 -20   22.20    7.26
  -1  -5  21   21.60    7.36
   1  -5  21   23.15    7.91
   1  -5 -21   14.62    7.14
   1  -5 -22   63.39   11.04
  -1  -5  22   76.46   10.81
   1  -5  22   71.85   11.10
   1  -5  23   27.36    8.17
   1  -5 -23   25.62    8.48
  -1  -5  23   24.54    7.97
   1  -5  24    8.01    7.00
   1  -5 -24   -3.20    6.65
  -1  -5  24    7.22    6.60
   2   5   0   18.93    4.71
  -2   5   0   25.05    4.65
   2  -5   0   26.82    5.81
   2  -5   1  327.64   14.87
  -2  -5   1  325.62   13.18
   2   5   1  319.09   14.32
  -2   5   1  330.22   12.12
   2   5  -1  318.05   14.51
  -2   5  -1  320.73   12.04
   2   5   2   10.78    4.69
  -2   5   2   12.34    3.41
   2   5  -2   16.53    5.28
   2  -5   2   13.71    4.75
  -2  -5   2   13.98    3.94
   2  -5   3   72.50    8.02
  -2  -5   3   74.96    6.89
   2   5   3   70.94    7.31
  -2   5   3   74.26    6.16
   2   5  -3   90.14    8.98
  -2  -5   4   67.01    6.85
  -2   5   4   68.04    6.14
   2  -5   4   74.45    8.38
   2   5  -4   92.12    9.22
   2  -5   5   18.16    4.93
  -2  -5   5   18.47    4.54
   2  -5   6    3.03    4.95
  -2  -5   6    8.76    3.92
   2  -5   7   -6.67    5.87
  -2  -5   7   -4.27    4.39
   2  -5   8   -3.34    4.65
  -2  -5   8   -1.94    4.17
   2  -5   9    9.80    5.39
  -2  -5   9   12.25    4.49
   2  -5  10   14.92    5.48
  -2  -5  10   17.85    5.24
  -2  -5  11    2.68    4.21
   2  -5  11    4.03    4.39
  -2  -5  12   36.52    7.04
   2  -5  12   41.05    7.77
  -2  -5  13   72.53    8.90
   2  -5  13   87.85   10.43
  -2  -5  14    9.61    5.11
   2  -5  14    8.04    5.17
  -2  -5  15    9.18    5.44
   2  -5  15    5.57    5.77
   2  -5 -16    9.44    5.54
  -2  -5  16   15.95    6.04
   2  -5  16   10.43    6.67
  -2  -5  17    7.45    5.62
   2  -5  17   10.82    6.61
   2  -5 -17    3.51    5.28
  -2  -5  18    8.57    5.72
   2  -5  18    5.04    5.65
   2  -5 -18   -3.70    5.68
  -2  -5  19   17.73    6.53
   2  -5  19   16.62    6.90
   2  -5 -19   14.57    6.29
  -2  -5  20    5.54    5.68
   2  -5  20   10.28    6.86
   2  -5 -20    0.37    5.15
  -2  -5  21    8.21    5.93
   2  -5  21    5.83    6.16
   2  -5 -21   -0.63    5.71
   2  -5  22   20.20    7.61
   2  -5 -22   11.87    6.78
  -2  -5  22   18.49    6.95
   2  -5  23   16.97    7.69
   2  -5 -23    2.53    5.77
  -2  -5  23   12.07    6.75
   2  -5 -24   -1.33    6.22
  -2  -5  24    6.89    6.08
  -2  -5  25   20.48    7.64
   3  -5   0   85.16    8.50
   3   5   0   69.44    7.65
  -3   5   0   92.78    6.56
   3  -5   1  185.97   11.78
   3   5   1  172.46   11.09
   3   5  -1  156.60   11.02
  -3   5   1  183.18    8.58
  -3   5  -1  182.57    8.83
   3   5   2    3.10    3.95
  -3   5   2    0.24    3.25
   3   5  -2   -3.57    5.85
   3  -5   2    4.15    4.30
  -3  -5   2    1.96    2.98
   3  -5   3  133.54   10.16
  -3  -5   3  141.24    8.68
   3   5   3  132.71    9.97
  -3   5   3  145.83    7.76
   3   5  -3  137.01   10.41
  -3  -5   4   39.61    5.35
   3  -5   4   42.72    7.11
  -3   5   4   36.85    4.46
   3   5  -4   51.30    7.16
   3  -5   5    4.80    4.41
  -3  -5   5    4.10    3.33
   3  -5   6   48.11    6.92
  -3  -5   6   53.41    6.18
   3  -5   7   69.24    8.11
  -3  -5   7   68.55    6.88
  -3  -5   8    7.71    3.87
   3  -5   8    4.64    5.46
   3   5  -9  152.74    7.19
   3  -5   9  157.98   11.85
  -3  -5   9  150.71   10.07
   3  -5  10   40.59    7.86
  -3  -5  10   35.94    6.15
   3   5 -10   39.51    3.52
  -3  -5  11   28.59    5.90
   3  -5  11   31.74    7.78
  -3  -5  12   78.11    8.33
   3  -5  12   78.01    9.78
  -3  -5  13  170.91   11.88
   3  -5  13  173.98   13.70
  -3  -5  14   53.21    7.66
   3  -5  14   50.54    8.81
   3  -5 -15   47.60    7.99
  -3  -5  15   51.58    7.87
   3  -5  15   59.28    9.60
  -3  -5  16   30.86    6.96
   3  -5  16   33.42    8.20
   3  -5 -16   29.62    6.92
   3  -5  17   51.62    9.35
   3  -5 -17   35.12    7.58
  -3  -5  17   49.31    8.06
  -3  -5  18   22.76    6.67
   3  -5  18   15.61    7.48
   3  -5 -18   16.01    6.57
   3  -5 -19   57.54    9.41
  -3  -5  19   56.11    9.06
   3  -5  19   50.98    9.25
  -3  -5  20   30.80    7.62
   3  -5  20   35.98    8.86
   3  -5 -20   26.37    7.38
  -3  -5  21    8.72    5.83
   3  -5  21    6.93    6.41
   3  -5 -21    1.99    5.57
  -3  -5  22   17.08    6.80
   3  -5  22   18.46    7.82
   3  -5 -22    7.61    6.22
   3  -5  23   17.65    7.75
   3  -5 -23   14.79    7.12
  -3  -5  23   20.82    7.12
   3  -5 -24    5.08    6.09
  -3  -5  24   15.08    6.88
  -3  -5  25   42.77    9.53
   4   5   0    9.28    4.84
   4  -5   0   11.55    4.88
   4  -5   1   41.94    6.96
   4   5  -1   35.42    6.50
   4   5   1   43.74    6.39
  -4   5   1   47.45    4.69
   4   5   2   -2.01    5.20
  -4   5   2    1.05    2.57
   4   5  -2    0.83    5.08
   4  -5   2    1.08    4.26
  -4  -5   3   16.82    3.65
   4   5   3   10.35    5.40
   4  -5   3   15.26    3.05
   4  -5   3   14.51    4.90
  -4   5   3   16.62    3.19
   4   5  -3   23.07    6.31
  -4  -5   4   62.94    6.01
  -4   5   4   62.74    5.16
   4   5  -4   82.07    9.45
   4  -5   4   66.92    8.26
  -4  -5   5   14.68    3.92
   4  -5   5   19.44    6.18
  -4   5   5   13.16    3.20
   4  -5   6    7.68    5.52
  -4  -5   6    7.64    3.41
   4  -5   7   11.00    5.42
  -4  -5   7   20.84    4.48
   4  -5   8    8.53    4.63
   4   5  -8    9.33    2.41
  -4  -5   8    6.06    3.48
   4  -5   9    9.44    5.69
  -4  -5   9   13.10    4.29
   4   5  -9   17.51    2.73
  -4  -5  10   41.24    6.00
   4  -5  10   38.26    7.87
   4   5 -10   43.77    3.71
  -4  -5  11   -0.74    3.68
   4  -5  11   -4.27    6.20
  -4  -5  12   86.03    8.48
   4  -5  12   87.05   10.43
  -4  -5  13   74.90    8.24
   4  -5  13   72.95    9.78
   4  -5 -14    8.40    4.88
  -4  -5  14   12.19    5.07
   4  -5  14   16.51    6.92
   4  -5 -15  116.16   11.17
  -4  -5  15  115.60   10.48
   4  -5  15  128.13   12.72
   4  -5 -16   54.49    8.44
  -4  -5  16   53.98    7.88
   4  -5  16   68.10   10.31
   4  -5  17   51.86    9.47
   4  -5 -17   43.96    8.09
  -4  -5  17   44.22    7.70
  -4  -5  18   20.01    6.06
   4  -5  18   17.42    7.59
   4  -5 -18   13.85    6.13
  -4  -5  19    9.94    5.54
   4  -5  19    7.00    5.66
   4  -5 -19   -0.26    5.07
  -4  -5  20   15.94    5.97
   4  -5  20   15.16    7.46
   4  -5 -20   10.56    5.78
  -4  -5  21   10.23    5.67
   4  -5  21    8.26    6.55
   4  -5 -21    3.68    5.50
  -4  -5  22   10.21    5.89
   4  -5  22   12.58    7.19
   4  -5 -22    6.51    6.00
  -4  -5  23   13.14    6.36
   4  -5  23    4.07    6.95
   4  -5 -23   -1.72    5.98
   4  -5 -24   14.95    7.20
  -4  -5  24   27.45    7.73
  -4  -5  25    5.55    5.94
   5  -5   0  108.02    9.77
  -5   5   0  108.59    6.33
   5   5   0   97.01    9.15
   5  -5   1   32.61    6.63
   5   5   1   33.41    6.52
  -5   5   1   27.80    3.55
   5   5  -1   14.25    6.22
   5   5   2    7.94    5.45
   5   5  -2   13.78    6.42
  -5   5   2   14.67    2.82
   5  -5   2   13.35    4.59
  -5   5   2   19.16    3.16
   5  -5   3   17.50    2.94
   5   5   3   18.23    5.35
   5  -5   3   22.67    6.22
  -5   5   3   17.49    3.09
   5   5  -3   22.58    6.65
   5  -5   4    9.02    2.69
  -5   5   4    6.73    2.34
   5   5  -4   16.76    5.65
  -5  -5   4    6.78    2.81
   5   5   4    2.59    5.33
   5  -5   4    5.99    4.89
  -5  -5   5   90.54    6.89
  -5   5   5  109.49    6.10
   5  -5   5  106.50    9.96
   5   5  -5  129.44   11.24
   5   5  -6  247.30   14.57
   5  -5   6  206.58   13.50
  -5  -5   6  189.22    9.75
   5  -5   7    6.56    5.72
  -5  -5   7   13.38    3.73
   5  -5   8    8.34    5.06
   5   5  -8   13.81    2.85
  -5  -5   8   13.59    3.79
  -5  -5   9   61.13    6.48
   5  -5   9   47.04    8.47
   5   5  -9   56.12    4.63
  -5  -5  10   36.21    5.34
   5  -5  10   26.82    7.28
   5  -5  11   95.53   10.96
  -5  -5  11   97.08    8.23
  -5  -5  12   10.36    4.16
   5  -5  12    9.00    5.89
   5  -5 -13    0.56    4.10
  -5  -5  13    2.99    3.84
   5  -5  13    1.71    5.46
   5  -5 -14   34.45    6.63
  -5  -5  14   36.94    6.12
   5  -5  14   34.18    7.73
   5  -5 -15   76.10    9.27
  -5  -5  15   83.27    8.77
   5  -5  15   69.04   10.70
  -5  -5  16    4.50    4.49
   5  -5 -16   -1.22    4.71
   5  -5  16    4.45    6.04
   5  -5 -17   31.90    7.11
   5  -5  17   41.51    8.96
  -5  -5  17   44.37    7.43
  -5  -5  18    8.80    5.05
   5  -5  18   10.91    6.89
   5  -5 -18    7.53    5.00
  -5  -5  19   10.43    5.54
   5  -5  19   10.60    6.39
   5  -5 -19    3.70    5.15
   5  -5 -20   79.61   10.76
  -5  -5  20   89.80   10.23
   5  -5  20   92.35   12.49
  -5  -5  21   34.50    7.48
   5  -5  21   32.12    8.91
   5  -5 -21   31.29    7.76
  -5  -5  22   13.24    5.89
   5  -5  22   13.07    7.61
   5  -5 -22    6.08    5.24
  -5  -5  23    7.60    5.91
   5  -5 -23    6.18    5.88
   5  -5 -24   39.15    9.12
  -5   5 -25   25.08    7.91
   6   5   0    1.38    5.45
   6  -5   0    5.53    5.04
  -6   5   0    9.85    2.21
   6  -5   1   14.88    4.75
   6   5   1   16.13    6.33
  -6   5  -1   16.04    2.54
   6   5  -1    7.45    6.31
  -6   5   1   14.38    2.47
   6   5  -1   16.45    3.24
   6   5   2   47.27    7.44
  -6   5   2   38.93    3.90
   6   5  -2   37.11    7.26
   6  -5   2   37.54    7.12
   6   5  -2   41.88    4.54
   6  -5   3   46.66    7.34
   6   5   3   42.92    6.93
  -6   5   3   45.58    4.39
   6   5  -3   46.11    7.80
  -6   5   3   55.49    3.74
   6   5   4   57.42    8.07
   6  -5   4   59.02    4.67
  -6   5   4   59.26    3.92
   6   5  -4   81.29   10.05
   6  -5   4   59.34    7.65
  -6  -5   5   23.97    3.72
   6  -5   5   16.58    3.01
   6  -5   5   20.84    5.55
  -6   5   5   21.66    2.89
   6   5  -5   39.03    7.74
  -6  -5   6    5.62    2.76
   6  -5   6    6.75    4.85
   6  -5   7    3.25    6.09
  -6  -5   7   14.10    3.53
   6  -5   8   11.43    5.03
  -6  -5   8   16.83    3.92
  -6  -5   9   15.98    3.91
   6  -5   9   16.40    6.23
  -6  -5  10    6.12    3.23
   6  -5  10   -0.18    5.84
   6  -5  11   -2.20    5.53
  -6  -5  11    0.79    2.89
   6  -5  12    4.20    4.69
  -6  -5  12    4.92    3.42
   6  -5 -13   37.26    6.33
   6  -5  13   40.23    8.50
  -6  -5  13   40.45    6.13
   6  -5 -14    5.64    4.49
  -6  -5  14   12.58    4.59
   6  -5  14    8.30    5.49
   6  -5 -15   11.11    5.17
  -6  -5  15   10.78    4.58
   6  -5  15    7.45    5.53
   6  -5 -16    3.21    4.59
  -6  -5  16   15.94    5.06
   6  -5  16   16.56    6.89
  -6  -5  17   21.50    5.77
   6  -5 -17   14.79    5.90
   6  -5  17   19.67    7.22
  -6  -5  18    8.56    5.03
   6  -5 -18    8.27    5.25
   6  -5  18    6.82    5.96
  -6  -5  19    3.25    4.42
   6  -5  19    3.87    6.35
   6  -5 -19    0.14    4.60
  -6  -5  20    3.84    4.53
   6  -5  20    6.77    6.86
   6  -5 -20    0.84    4.94
   6  -5  21   12.64    7.13
   6  -5 -21   11.53    6.16
   6  -5 -22   16.63    6.95
   6  -5 -23   -0.63    5.33
   6  -5 -24    5.19    6.07
   7  -5   0   -1.68    4.26
  -7   5   0   -0.39    1.41
   7   5   0   -0.61    2.11
   7   5   1    3.58    2.14
   7   5   1    8.74    6.05
   7  -5   1    1.53    4.82
   7   5  -1    8.40    2.74
  -7   5  -1    4.03    1.45
  -7   5   1    5.85    1.92
   7  -5   2  155.72   11.93
   7   5  -2  148.72    7.29
   7   5   2  158.76   12.12
   7   5  -2  162.41   12.60
   7   5   3   34.52    6.76
   7  -5   3   36.27    6.64
   7   5  -3   37.83    7.63
   7   5   4   28.69    6.50
   7   5  -4   41.54    8.64
   7  -5   4   29.95    3.24
   7  -5   4   31.27    6.44
   7  -5   5   15.50    2.93
   7   5  -5   37.52    8.42
   7  -5   5   25.47    6.14
  -7   5   5   20.25    2.17
  -7  -5   6    7.07    2.53
   7  -5   6   11.46    5.94
  -7  -5   7   34.42    4.25
   7  -5   7   36.77    7.42
  -7   5   7   33.01    3.23
   7  -5   8  158.75   13.14
  -7  -5   8  167.87    8.74
   7  -5   9    4.70    4.47
  -7  -5   9    9.38    3.09
  -7  -5  10    2.23    2.57
   7  -5  10    2.79    4.47
   7  -5  11   22.05    6.59
  -7  -5  11   23.89    4.18
   7  -5  12  141.68   13.04
  -7  -5  12  136.48    9.00
   7  -5 -13    0.40    3.51
   7  -5  13    0.55    4.94
  -7  -5  13    0.52    2.76
   7  -5 -14    5.53    4.06
  -7  -5  14    6.15    3.70
   7  -5  14    6.56    6.15
   7  -5 -15    4.95    4.12
  -7  -5  15    5.13    3.53
   7  -5  15    9.05    6.15
   7  -5 -16    0.08    4.25
   7  -5  16    1.19    5.45
   7  -5 -17   57.30    8.66
   7  -5  17   56.95   10.36
   7  -5 -18  170.38   14.12
   7  -5  18  184.58   16.41
   7  -5 -19   24.11    6.94
   7  -5  19   27.01    8.75
   7  -5 -20    5.97    5.38
   7  -5  20   11.83    6.83
   7  -5  21   15.48    7.93
   7  -5 -21    6.88    5.54
   7  -5 -22   44.10    8.97
   7  -5 -23    0.85    4.86
   7  -5 -24   61.49   10.53
   8  -5   0   13.32    5.12
   8   5   0    7.09    6.22
   8   5   1    9.33    5.17
   8   5  -1   -0.41    6.61
   8  -5   1    7.53    5.20
   8   5   2   12.82    5.46
   8   5  -2    8.93    6.02
   8  -5   2   15.01    5.44
   8   5   3   34.27    7.01
   8   5  -3   39.95    7.97
   8  -5   3   35.87    6.84
   8  -5   4   42.79    7.30
   8   5   4   34.49    7.20
   8   5   5   11.07    6.46
   8  -5   5    9.81    5.47
   8  -5   6   17.55    6.50
   8   5  -6   38.17    8.13
  -8  -5   7   41.16    4.15
   8  -5   7   42.71    7.40
   8  -5   8    8.81    5.64
  -8  -5   8   12.69    2.81
   8  -5   9   -0.64    5.77
   8  -5  10   -3.67    6.07
   8  -5  11    1.10    5.42
   8  -5  12    8.47    5.41
   8  -5 -13    7.86    3.89
   8  -5  13    9.48    6.25
   8  -5 -14   22.66    5.39
   8  -5  14   18.04    6.57
   8  -5 -15   29.38    6.27
   8  -5  15   31.58    7.96
   8  -5 -16   26.44    6.30
   8  -5  16   30.69    8.55
   8  -5 -17    9.82    4.83
   8  -5  17   10.50    6.77
   8  -5 -18    8.58    5.25
   8  -5  18    7.67    6.03
   8  -5 -19    6.14    4.98
   8  -5  19    4.18    5.77
   8  -5 -20   -0.42    4.46
   8  -5  20    0.99    6.43
   8  -5 -21    2.96    4.81
   8  -5 -22   -1.22    5.14
   8  -5 -23    0.19    4.51
   9   5   0    7.19    5.57
   9  -5   0   14.17    5.53
   9  -5   1  243.28   15.35
   9   5   1  243.40   15.67
   9   5  -1  230.38   15.54
   9  -5   2    3.16    4.91
   9   5   2    3.64    5.44
   9   5  -2   -1.32    6.87
   9   5   3   -0.32    6.29
   9   5  -3    5.68    6.98
   9  -5   3    3.54    4.77
   9   5   4    9.57    6.31
   9  -5   4   19.30    6.29
   9   5  -4   22.96    7.77
   9   5   5  256.76   16.22
   9   5  -5  257.73   16.28
   9  -5   5  270.73   16.35
   9   5  -6   27.43    7.76
   9  -5   6   16.23    5.77
   9   5   6    3.49    5.89
   9  -5   7   37.04    7.69
   9  -5   8    1.45    4.69
   9  -5   9   -0.65    5.26
   9  -5  10    4.75    4.67
   9  -5  11  152.71   13.85
   9  -5  12   19.21    7.23
   9  -5 -13    6.06    3.62
   9  -5  13    4.22    4.93
   9  -5 -14   12.99    4.52
   9  -5  14    7.94    6.03
   9  -5 -15  134.36   11.11
   9  -5  15  124.68   13.54
   9  -5 -16   16.21    5.26
   9  -5  16    6.79    6.23
   9  -5 -17    6.34    4.42
   9  -5  17   11.13    6.75
   9  -5  18    0.31    5.93
   9  -5  19    4.95    6.18
  10  -5   0   82.35    9.40
  10   5   0   76.35    9.95
  10  -5   1   72.75    9.05
  10   5   1   52.15    8.57
  10   5  -1   63.05    9.24
  10   5   2   27.26    7.32
  10  -5   2   28.26    6.52
  10   5  -2   23.55    7.19
  10   5   3    8.33    6.09
  10   5  -3    3.97    6.06
  10  -5   3    8.57    5.07
  10   5   4   20.39    6.43
  10  -5   4   19.66    5.88
  10   5  -4   22.77    7.80
  10   5   5   -1.43    5.92
  10  -5   5    3.11    4.37
  10   5   6    0.62    4.99
  10  -5   6    1.97    4.79
  10  -5   7   10.93    5.45
  10  -5   8   17.99    5.91
  10  -5   9    3.55    4.98
  10  -5  10    9.79    5.21
  10  -5  11   -1.15    5.16
  10  -5  12   -3.94    6.19
  10  -5  13   -1.70    5.24
  10  -5  14   -8.18    6.81
  10  -5  15    8.65    5.77
  10  -5  16    5.41    5.64
  10  -5  17    2.43    5.07
  10  -5  18    2.30    6.11
  11   5   0   -6.48    7.55
  11  -5   1   93.75   10.29
  11   5   1   86.33   11.12
  11   5  -1   82.16   10.56
  11  -5   2   66.35    8.98
  11   5   2   59.63    9.46
  11   5  -2   64.65    9.62
  11   5   3   27.51    7.47
  11   5  -3   18.64    6.80
  11  -5   3   21.38    5.93
  11  -5   4  186.91   14.26
  11   5   4  184.45   14.91
  11   5  -4  186.07   15.00
  11   5   5    6.81    5.85
  11  -5   5    6.71    5.02
  11   5  -5   19.75    7.43
  11  -5   6   17.94    6.31
  11   5   6   12.82    6.12
  11   5   7   19.72    7.16
  11  -5   7   19.71    6.27
  11  -5   8  203.41   15.48
  11  -5   9   52.03    8.80
  11  -5  10    0.38    5.04
  11  -5  11   -1.66    5.38
  11  -5  12    9.53    6.02
  11  -5  13   31.31    7.98
  11  -5  14   58.37    9.84
  11  -5  15   12.01    6.25
  11  -5  16    1.62    5.41
 -11   5 -17   25.04    6.92
  11  -5  17    5.97    5.78
  11  -5  18   27.65    8.04
  12   5   0   -2.94    6.92
  12   5   1   10.37    5.59
  12   5  -1   14.96    6.90
  12  -5   1   20.27    5.89
  12   5   2   33.99    7.99
  12   5  -2   46.01    8.78
  12  -5   2   39.37    7.36
  12   5   3    9.95    6.18
  12  -5   3   10.91    5.18
  12   5  -3   13.50    6.81
  12   5   4    0.99    5.43
  12   5  -4   14.39    7.00
  12  -5   4    4.14    4.85
  12   5   5   -0.60    5.00
  12  -5   5    1.38    4.60
  12   5   6   -1.88    5.89
  12  -5   6    1.66    4.76
  12   5   7    1.13    5.55
  12  -5   7    4.56    4.89
  12   5   8   -3.99    6.31
  12  -5   8    3.47    4.98
  12  -5   9    6.17    5.30
  12  -5  10   26.58    7.39
  12  -5  11    5.96    5.10
  12  -5  12    4.46    5.26
  12  -5  13    2.71    5.40
  12  -5  14   -4.09    6.18
  12  -5  15   -0.22    5.27
  12  -5  16   -3.41    5.59
 -12   5 -17   16.83    6.31
  12  -5  17    3.11    5.16
  13   5   0   -2.31    6.48
  13   5   1   74.29   10.85
  13   5  -1   83.58   10.99
  13  -5   2  118.42   11.82
  13   5   2  100.54   11.88
  13   5  -2  127.35   13.44
  13   5   3   29.58    8.00
  13   5  -3   42.43    9.11
  13  -5   3   39.84    7.96
  13  -5   4   46.61    8.29
  13   5   4   38.78    8.60
  13   5  -4   53.50    9.74
  13   5   5   20.23    6.75
  13   5  -5   35.69    9.15
  13  -5   5   14.19    5.66
  13  -5   6   47.82    8.38
  13   5   6   44.44    9.03
  13   5   7   30.33    8.18
  13  -5   7   30.41    7.34
  13   5   8    6.42    5.95
  13  -5   8    7.83    5.54
  13   5   9   -2.33    5.86
  13  -5   9    3.87    5.02
  13  -5  10   17.61    6.45
  13  -5  11   59.00    9.87
  13  -5  12   14.87    6.50
  13  -5  13    0.30    4.89
  13  -5  14   12.77    6.41
  13  -5  15    6.14    5.84
 -13   5 -16   30.66    8.04
 -13   5 -17   32.89    8.10
  14   5   0   53.48    9.86
  14   5   1   26.20    7.37
  14   5  -1   37.26    8.55
  14   5   2   -2.67    6.86
  14   5  -2   10.53    6.40
  14  -5   3    8.38    5.05
  14   5   3   -0.15    6.26
  14   5  -3   14.50    7.22
  14   5   4   -0.62    5.98
  14  -5   4    7.41    4.94
  14  -5   5    0.68    4.28
  14   5   5    1.32    4.97
  14   5   6   -3.65    5.95
  14  -5   6   -0.06    4.46
  14   5   7    8.27    6.14
  14  -5   7    4.14    4.67
  14   5   8    0.35    5.29
  14  -5   8    4.75    4.89
  14   5   9    7.13    5.51
  14  -5   9   11.85    5.72
  14   5  10    3.72    5.33
  14  -5  10    3.89    4.81
  14  -5  11   12.09    6.18
  14   5  11    4.15    5.89
  14  -5  12   10.59    5.95
  14  -5  13    6.52    5.79
  14  -5  14    8.66    5.41
  15   5   0   49.09    9.70
  15   5   1   43.89    9.05
  15   5  -1   45.97    9.30
  15   5   2   -6.52    7.07
  15   5  -2    4.38    6.31
  15   5   3   27.54    7.60
  15   5  -3   52.78    9.93
  15   5   4    7.99    5.67
  15  -5   4    8.30    5.05
  15   5   5   -0.54    5.50
  15  -5   5    1.67    4.40
  15  -5   6   23.66    6.66
  15   5   6   23.03    7.45
  15   5   7    6.48    5.59
  15  -5   7    8.59    5.25
  15   5   8    5.77    5.78
  15  -5   8    7.09    5.14
  15  -5   9   58.29    9.63
  15   5   9   58.32   10.46
  15  -5  10   18.24    6.70
  15   5  10   13.91    6.91
  15  -5  11    6.36    5.34
  15  -5  12    7.41    5.82
  15  -5  13   18.87    6.90
  16   5   0    4.69    6.14
  16   5   1    9.42    6.09
  16   5  -1   16.85    7.40
  16   5   2    2.53    5.98
  16   5  -2   12.97    7.01
  16   5   3    0.01    6.34
  16   5  -3   24.07    7.84
  16   5   4    2.19    6.38
  16   5  -4   25.70    8.53
  16   5   5   10.18    6.21
  16   5   6   -7.98    6.75
  16   5   7   -1.38    5.00
  17   5   0   19.75    7.48
  17   5   1   11.66    6.98
  17   5  -1   24.08    8.08
  17   5   2    2.26    5.73
  17   5  -2   17.28    7.46
  17   5   3    3.45    5.59
  17   5  -3   24.65    8.35
   0   6   0  602.60   19.69
   0  -6   1    1.77    3.98
   0   6   1   -4.72    5.34
   0   6  -1   -0.61    5.03
   0  -6   2  974.53   26.41
   0   6   2  974.31   24.75
   0   6  -2  922.38   24.43
   0   6   3   -2.19    4.68
   0  -6   3    3.15    4.92
   0  -6   4  535.40   19.93
   0   6   4  512.88   18.55
   0   6   5    0.35    4.45
   0  -6   5    3.87    4.67
   0  -6   6 1228.21   30.52
   0  -6   7    3.91    4.51
   0  -6   8   33.13    6.76
   0  -6   9   -2.91    5.42
   0  -6  10  210.09   14.04
   0  -6  11   -0.54    4.42
   0  -6  12  187.63   13.68
   0  -6  13    0.40    4.84
   0  -6  14    3.99    4.84
   0  -6  15   -0.54    5.05
   0  -6  16  151.04   13.46
   0  -6  17   -0.47    4.63
   0  -6  18    4.37    5.31
   0  -6  19    1.52    5.33
   0  -6  20   70.41   10.72
   0  -6  21    3.56    5.80
   0  -6  22  169.23   15.95
   0  -6  23    7.49    6.56
   1   6   0    7.95    5.25
  -1   6   0   16.83    5.30
   1  -6   1   13.08    5.26
   1   6   1    0.65    5.81
  -1   6   1    5.55    4.90
   1   6  -1    3.95    5.58
  -1   6  -1   17.55    5.59
   1  -6   2   58.00    7.78
  -1  -6   2   66.46    7.61
  -1   6   2   45.41    6.45
   1   6   2   64.86    8.07
   1   6  -2   69.61    8.71
  -1   6  -2   80.42    8.23
  -1   6  -3   90.93    8.80
   1  -6   3   69.88    8.35
  -1  -6   3   66.03    7.74
   1   6   3   60.57    7.66
  -1   6   3   65.42    7.08
   1   6  -3   92.21    9.70
   1  -6   4   71.81    8.70
  -1  -6   4   61.13    7.74
   1   6   4   58.08    7.47
  -1   6   4   63.28    7.15
   1   6  -4   86.36    9.66
  -1  -6   5   63.26    7.59
   1   6   5   52.50    7.61
  -1   6   5   56.08    6.81
   1  -6   5   61.20    8.18
   1  -6   6   66.29    8.68
  -1  -6   6   70.67    8.24
   1  -6   7   32.81    6.98
  -1  -6   7   31.68    6.32
   1  -6   8    3.99    4.98
  -1  -6   8    1.32    4.24
   1  -6   9   -1.74    5.55
  -1  -6   9    1.76    4.63
   1  -6  10    1.97    4.59
  -1  -6  10    3.94    4.67
   1  -6  11   10.53    5.17
  -1  -6  11   13.71    5.51
   1  -6  12   21.12    6.39
  -1  -6  12   18.38    5.70
   1  -6  13    9.82    5.81
  -1  -6  13   10.01    5.41
  -1  -6  14    3.62    4.51
   1  -6  14    7.63    5.19
  -1  -6  15    6.31    5.39
   1  -6  15    4.70    5.73
  -1  -6  16    0.20    4.46
   1  -6  16    6.62    5.88
  -1  -6  17    6.57    4.98
   1  -6  17    2.07    5.29
  -1  -6  18    1.44    4.45
   1  -6  18    1.44    5.42
  -1  -6  19    5.88    5.36
   1  -6  19    5.87    5.93
  -1  -6  20    5.14    5.94
   1  -6  20    1.26    4.76
  -1  -6  21   12.95    6.56
   1  -6  21    8.00    6.60
  -1  -6  22   16.78    7.23
   1  -6  22    8.49    6.65
  -1  -6  23    7.70    6.08
   2   6   0   14.06    5.26
  -2   6   0   21.39    5.11
   2  -6   1  278.13   15.13
   2   6   1  267.96   14.49
  -2   6   1  266.35   12.38
   2   6  -1  265.04   14.40
  -2   6  -1  286.31   12.74
   2  -6   2  121.44   10.65
  -2  -6   2  107.92    9.03
   2   6   2  107.71    9.77
  -2   6   2   99.21    8.05
   2   6  -2  107.30   10.08
  -2   6  -2  118.59    9.37
   2  -6   3  233.26   14.00
  -2  -6   3  231.10   12.74
   2   6   3  234.71   13.65
  -2   6   3  232.04   11.54
   2   6  -3  241.09   14.30
   2  -6   4  328.28   16.52
  -2  -6   4  340.69   15.22
   2   6   4  322.53   15.90
  -2   6   4  328.55   13.88
   2   6  -4  352.92   16.60
   2   6   5   18.54    5.96
  -2   6   5   23.64    4.88
  -2  -6   5   27.66    5.96
   2  -6   5   26.83    6.33
   2  -6   6    7.22    4.70
  -2  -6   6    7.44    4.55
   2  -6   7  314.29   16.80
  -2  -6   7  295.03   14.90
   2  -6   8  187.04   13.45
  -2  -6   8  181.91   12.01
   2  -6   9  328.39   17.70
  -2  -6   9  317.59   16.02
   2  -6  10   22.77    6.46
  -2  -6  10   24.85    5.95
   2  -6  11   52.34    8.43
  -2  -6  11   53.72    7.65
   2  -6  12   16.46    6.61
  -2  -6  12    8.87    4.81
   2  -6  13  408.36   21.24
  -2  -6  13  416.16   19.61
   2  -6  14   29.37    7.56
  -2  -6  14   29.82    6.80
  -2  -6  15  111.98   11.19
   2  -6  15  115.46   12.16
  -2  -6  16    7.98    5.42
   2  -6  16   12.41    6.67
  -2  -6  17   58.52    8.94
   2  -6  17   51.30    9.78
  -2  -6  18    5.76    5.35
   2  -6  18    5.80    6.00
  -2  -6  19  152.86   13.89
   2  -6  19  150.96   14.75
  -2  -6  20   21.42    7.28
   2  -6  20   17.35    7.55
  -2  -6  21   15.38    6.68
   2  -6  21   15.43    7.24
  -2  -6  22   30.64    8.04
   2  -6  22   26.27    8.20
  -2  -6  23   20.14    7.28
  -3   6   0    5.13    4.22
   3  -6   0   -2.20    5.33
   3  -6   1   73.74    8.85
   3   6   1   71.51    8.49
   3   6  -1   71.75    8.54
  -3   6   1   81.66    7.07
  -3   6  -1   90.94    7.61
   3  -6   2   76.20    8.64
   3   6   2   75.21    8.86
  -3   6   2   66.28    6.47
   3   6  -2   73.98    9.40
   3  -6   3   65.02    8.44
  -3  -6   3   64.04    6.98
   3   6   3   63.43    8.07
  -3   6   3   55.37    5.88
   3   6  -3   74.38    9.68
   3   6   4    5.57    5.20
  -3   6   4   10.11    3.72
  -3  -6   4    9.07    4.11
   3  -6   4    8.45    5.46
   3   6   5   37.23    7.31
  -3  -6   5   41.89    6.29
  -3   6   5   45.93    5.61
   3  -6   5   51.93    8.08
  -3   6   6    8.95    3.76
  -3  -6   6   12.68    4.55
   3  -6   6   16.09    5.63
   3  -6   7   91.25   10.16
  -3  -6   7   75.92    7.98
   3  -6   8   21.38    6.22
  -3  -6   8   21.61    5.40
   3  -6   9   23.48    6.94
  -3  -6   9   31.12    6.07
   3  -6  10   20.25    6.63
  -3  -6  10   27.26    6.02
  -3  -6  11   46.78    7.17
   3  -6  11   47.80    8.52
   3  -6  12    7.85    5.48
  -3  -6  12    7.78    4.67
   3  -6  13  123.12   12.37
  -3  -6  13  133.39   11.28
   3  -6  14   19.40    7.28
  -3  -6  14   15.82    5.58
  -3  -6  15   58.23    8.41
   3  -6  15   58.38    9.80
  -3  -6  16   24.14    6.51
   3  -6  16   19.12    7.10
  -3  -6  17    1.84    4.48
   3  -6  17    4.78    5.75
  -3  -6  18   18.99    6.54
   3  -6  18   23.05    7.56
  -3  -6  19   39.01    8.10
   3  -6  19   43.67    9.47
  -3  -6  20    3.34    5.38
   3  -6  20    6.53    6.13
  -3  -6  21   13.48    6.07
   3  -6  21   15.97    7.37
  -3  -6  22    7.97    5.89
  -3  -6  23   12.06    6.30
  -3  -6  24    6.83    5.88
   4  -6   0  111.69   10.58
   4   6   0  107.24   10.33
  -4   6   0  123.99    8.05
   4  -6   1   80.21    8.91
   4   6   1   57.84    8.66
   4   6  -1   75.53    9.37
  -4   6   1   84.82    6.78
   4  -6   2    9.46    5.31
   4   6   2   14.27    6.06
   4   6  -2   10.68    5.87
  -4   6   2   13.91    4.15
   4  -6   3   56.14    8.22
   4   6   3   52.72    7.76
  -4   6   3   52.36    5.52
   4   6  -3   66.93    9.52
   4   6   4    2.60    4.61
  -4  -6   4    5.42    3.59
  -4   6   4   -0.91    3.79
   4  -6   4    3.48    5.04
  -4  -6   5  156.43   10.11
   4   6   5  160.41   12.28
  -4   6   5  150.30    8.73
   4   6  -5  180.39   13.58
   4  -6   5  147.32   12.05
  -4  -6   6  120.17    9.13
  -4   6   6  114.18    7.89
   4  -6   6  116.53   11.26
  -4  -6   7   13.11    4.31
   4  -6   7   14.93    6.38
   4  -6   8   28.47    7.10
  -4  -6   8   26.54    5.32
   4  -6   9   82.04    9.70
  -4  -6   9   88.71    8.66
   4  -6  10   53.07    8.29
  -4  -6  10   59.94    7.50
   4  -6  11  210.16   15.24
  -4  -6  11  231.75   13.58
   4  -6  12   15.74    6.78
  -4  -6  12   13.89    4.63
   4  -6  13   16.18    6.44
  -4  -6  13   11.19    4.66
   4  -6  14   82.66   11.12
  -4  -6  14   72.24    8.89
   4  -6  15  281.85   18.79
  -4  -6  15  285.96   16.42
  -4  -6  16   18.15    6.02
   4  -6  16   20.32    7.04
   4  -6  17   48.95    9.26
  -4  -6  17   50.17    8.07
  -4  -6  18    4.34    4.53
   4  -6  18    7.63    5.78
  -4  -6  19   12.82    5.83
   4  -6  19    7.29    6.11
  -4  -6  20  101.19   11.82
   4  -6  20  106.04   13.84
  -4  -6  21   40.92    8.40
   4  -6  21   49.62    9.96
  -4  -6  22   24.17    6.99
  -4  -6  23   33.32    8.36
   5   6   0   41.27    7.99
   5  -6   0   47.62    7.62
   5  -6   1   48.04    7.56
   5   6   1   29.04    7.51
   5   6  -1   41.26    7.47
   5  -6   2   33.91    6.86
   5   6   2   39.17    7.86
   5   6  -2   36.60    7.96
  -5   6   2   44.97    5.01
   5   6   3   12.32    6.17
  -5   6   3   19.22    3.80
   5   6  -3   26.28    7.81
   5  -6   3   16.91    5.75
   5  -6   4   86.77    9.57
   5   6   4   84.53    9.86
  -5   6   4   83.05    6.24
   5   6  -4   98.79   10.29
   5  -6   5   10.22    5.76
   5   6   5   -1.56    6.17
  -5   6   5    2.66    2.89
  -5  -6   5   10.03    3.67
  -5   6   6    4.11    2.87
   5  -6   6    2.83    5.44
  -5  -6   7   69.65    6.91
  -5   6   7   63.92    5.93
   5  -6   7   66.90    9.16
   5  -6   8   26.41    6.95
  -5  -6   8   23.00    4.89
   5  -6   9   10.09    5.62
  -5  -6   9   22.23    4.76
   5  -6  10   -2.20    6.12
  -5  -6  10    3.97    3.59
   5  -6  11    1.67    5.57
  -5  -6  11    4.18    3.57
  -5  -6  12   54.19    7.17
   5  -6  12   51.24    8.79
   5  -6  13    4.63    5.98
  -5  -6  13    7.56    4.02
   5  -6  14    3.44    5.56
  -5  -6  14    5.61    4.06
   5  -6  15   27.08    7.34
  -5  -6  15   22.64    5.64
  -5  -6  16   27.63    6.19
   5  -6  16   30.64    8.07
  -5  -6  17   11.93    5.37
   5  -6  17    8.43    6.19
  -5  -6  18    0.80    4.03
   5  -6  18   -1.22    4.91
  -5  -6  19   -1.34    4.24
   5  -6  19    2.91    5.84
  -5  -6  20    2.84    4.39
   5  -6  20    0.50    6.00
   6   6   0  -11.10    8.02
   6  -6   0   -3.09    5.70
   6  -6   1   40.27    7.59
   6   6   1   33.90    7.50
   6   6  -1   40.02    7.62
   6  -6   2  163.96   12.89
   6   6   2  183.14   13.51
   6   6  -2  179.27   13.50
   6   6   3   -1.21    5.29
   6   6  -3   10.82    7.31
   6  -6   3    1.56    5.20
  -6   6   3   11.46    3.41
   6  -6   4  107.70   11.17
   6   6   4  103.85   10.59
  -6   6   4  104.31    6.10
   6   6  -4  135.08   12.49
   6   6   5   31.12    7.36
   6  -6   5   33.46    7.15
  -6   6   5   30.88    3.81
  -6   6   6    0.25    2.53
  -6  -6   6   -0.88    2.84
   6   6   6   -7.09    6.30
   6  -6   6    1.38    5.11
  -6  -6   7   50.88    5.90
  -6   6   7   50.85    4.89
   6  -6   7   52.09    8.35
  -6  -6   8  224.98   11.74
  -6   6   8  223.35    9.92
   6  -6   8  229.31   15.84
   6  -6   9   25.23    7.55
  -6  -6   9   21.31    4.49
   6  -6  10   -5.96    6.71
  -6  -6  10    3.48    3.29
   6  -6  11   20.18    6.60
  -6  -6  11   25.31    5.01
   6  -6  12   91.08   11.13
  -6  -6  12   90.35    8.46
  -6  -6  13    7.98    3.82
   6  -6  13    2.40    5.87
   6  -6  14   -0.66    5.74
  -6  -6  14    2.72    3.30
   6  -6  15    5.46    5.15
  -6  -6  15    2.80    3.38
   6  -6  16    3.17    5.79
   6  -6  17   17.12    7.17
   6  -6  18  134.12   14.61
   6  -6  19   11.56    7.19
   6  -6  20   -2.16    6.71
   7   6   0   -5.84    6.22
   7  -6   0   -2.70    5.54
   7   6   1   -0.95    6.55
   7   6  -1    8.81    5.89
   7  -6   1    7.56    5.52
   7   6   2   16.85    6.74
   7  -6   2   16.12    5.98
   7   6  -2   11.21    6.62
   7   6   3   -2.04    6.09
   7   6  -3   10.02    7.21
   7  -6   3    2.57    4.42
   7   6   4    8.71    5.46
   7  -6   4   10.34    5.62
   7   6   5   21.71    6.79
   7  -6   5   33.14    7.71
   7   6   6    3.80    5.28
   7  -6   6    1.47    4.76
  -7  -6   7    4.78    2.67
   7  -6   7    5.99    5.76
   7  -6   8    2.31    5.43
  -7  -6   8    0.56    2.34
  -7  -6   9    3.79    2.75
   7  -6   9    2.94    5.45
   7  -6  10    2.83    5.72
  -7  -6  10   11.21    3.52
   7  -6  11    5.62    5.19
   7  -6  12    3.21    5.37
   7  -6  13   21.04    7.49
   7  -6  14    7.10    6.50
   7  -6  15    6.38    5.74
   7  -6  16   -1.79    5.51
   7  -6  17    2.34    5.25
   7  -6  18   -2.82    5.74
   7  -6  19   -1.05    6.42
   8   6   0   47.05    8.75
   8  -6   1   50.74    8.53
   8   6   1   40.66    7.66
   8   6  -1   37.55    8.65
   8   6   2   43.90    7.99
   8   6  -2   38.76    8.57
   8  -6   2   39.56    7.86
   8   6   3   24.54    7.26
   8   6  -3   38.16    8.87
   8  -6   3   28.18    6.99
   8   6   4   12.74    5.82
   8  -6   4   13.93    5.66
   8  -6   5  148.21   13.27
   8   6   5  159.10   13.60
   8   6  -5  170.32   14.31
   8   6   6  107.40   11.32
   8   6  -6  143.97   13.58
   8  -6   6  116.55   11.99
   8   6   7   16.32    6.61
   8  -6   7   20.45    6.45
   8  -6   8   39.94    8.17
   8  -6   9   63.31    9.71
   8  -6  10   12.40    6.05
   8  -6  11   86.25   10.97
   8  -6  12   45.81    9.22
   8  -6  13   -0.97    5.38
   8  -6  14   41.16    9.20
   8  -6  15   76.11   11.29
   8  -6  16    8.29    6.62
   8  -6  17   30.58    8.93
   8  -6  18   31.63    8.71
   9   6   0   43.25    8.68
   9   6   1   22.61    7.27
   9   6  -1   28.20    7.31
   9  -6   1   33.80    7.21
   9   6   2   -1.32    5.48
   9   6  -2    0.55    5.46
   9  -6   2    0.18    4.85
   9  -6   3    3.49    4.95
   9   6   3    4.68    6.04
   9   6  -3    7.25    6.37
   9   6   4    9.22    5.48
   9   6  -4   16.50    7.69
   9  -6   4    9.14    5.14
   9   6   5    4.87    5.98
   9  -6   5    6.86    5.48
   9   6   6   -6.59    6.61
   9  -6   6    1.23    5.25
   9   6   7   34.16    7.78
   9  -6   7   41.85    8.15
   9  -6   8   33.72    7.61
   9  -6   9    5.29    4.96
   9  -6  10   15.57    6.55
   9  -6  11   -0.76    5.68
   9  -6  12   -0.17    5.75
   9  -6  13    8.27    6.24
   9  -6  14   -1.62    5.43
   9  -6  15   46.43    9.58
   9  -6  16   11.09    6.77
   9  -6  17    3.47    5.88
  10   6   0   58.30    9.61
  10  -6   1   61.56    9.14
  10   6   1   50.16    9.54
  10   6  -1   55.96    9.48
  10   6   2   21.59    6.60
  10  -6   2   22.77    6.83
  10   6  -2   27.09    8.21
  10   6   3    0.58    5.78
  10  -6   3    0.48    4.33
  10   6  -3    1.25    6.50
  10   6   4   35.73    8.19
  10  -6   4   39.35    8.03
  10   6  -4   45.07    9.05
  10  -6   5   78.30   10.12
  10   6   5   78.84   10.59
  10   6  -5   90.68   11.52
  10   6   6   18.64    7.04
  10  -6   6   22.11    6.87
  10  -6   7   11.02    6.31
  10   6   7    6.61    6.47
  10   6   8   37.77    8.67
  10  -6   8   49.63    9.15
  10  -6   9   55.53    9.53
  10  -6  10   28.55    7.99
  10  -6  11   36.65    8.14
  10  -6  12   31.40    8.52
  10  -6  13   31.21    8.13
  10  -6  14   41.22    9.45
  10  -6  15   88.46   12.51
  10  -6  16   41.80    9.39
  11   6   0   -5.38    6.59
  11   6   1   -6.83    7.50
  11   6  -1    6.53    6.11
  11  -6   2   57.23    8.93
  11   6   2   47.69    9.06
  11   6  -2   51.71    9.86
  11   6   3   -4.74    6.10
  11   6  -3    3.37    5.99
  11  -6   3   -2.22    5.00
  11  -6   4    2.51    4.90
  11   6   4    0.83    5.76
  11   6  -4    9.67    7.19
  11   6   5    4.35    6.03
  11  -6   5    4.83    5.00
  11   6   6   21.45    7.10
  11  -6   6   21.27    6.68
  11   6  -6   33.69    8.89
  11   6   7    5.68    5.59
  11  -6   7    3.17    4.54
  11   6   8   21.11    7.23
  11  -6   8   20.00    6.71
  11   6   9   -0.49    5.76
  11  -6   9    9.29    5.60
  11  -6  10   34.95    8.36
  11  -6  11    6.98    6.22
  11  -6  12    3.24    4.96
  11  -6  13    6.31    5.99
  11  -6  14    3.35    5.53
  11  -6  15    6.03    6.04
  12   6   0  -10.91    8.50
  12   6   1   13.87    6.46
  12   6  -1   14.39    6.75
  12  -6   2   88.92   11.07
  12   6   2   75.63   11.46
  12   6  -2   95.81   12.31
  12  -6   3   85.19   10.89
  12   6   3   71.00   10.85
  12   6  -3   86.87   11.81
  12  -6   4   67.03   10.02
  12   6   4   73.01   10.88
  12   6  -4   91.88   12.25
  12   6   5   27.71    7.44
  12   6  -5   37.21    9.00
  12  -6   5   24.19    6.85
  12   6   6   13.63    6.77
  12  -6   6   12.94    6.07
  12  -6   7   97.46   12.05
  12   6   7  100.69   12.59
  12  -6   8  106.54   12.72
  12   6   8  103.71   12.74
  12   6   9   13.46    6.70
  12  -6   9   16.47    6.64
  12   6  10   32.88    8.71
  12  -6  10   34.16    8.22
  12  -6  11   28.46    7.70
  12  -6  12    5.42    5.58
  12  -6  13   64.69   10.85
  12  -6  14   48.77    9.52
  13   6   0   -8.07    7.13
  13   6   1    3.32    6.01
  13   6  -1   10.00    6.41
  13   6   2    6.74    5.90
  13   6  -2   16.27    7.81
  13   6   3    3.80    6.17
  13   6  -3   15.61    7.30
  13  -6   3    5.59    5.04
  13  -6   4   -1.99    4.57
  13   6   4   -8.47    7.57
  13   6   5    0.88    5.65
  13  -6   5    4.82    4.95
  13   6  -5   14.11    7.67
  13   6   6    0.94    5.72
  13  -6   6    1.66    5.08
  13   6   7    0.06    5.73
  13  -6   7    3.26    5.37
  13   6   8   -1.89    5.94
  13  -6   8    7.47    6.03
  13   6   9   -3.27    5.79
  13  -6   9    2.83    5.18
  13   6  10    0.78    5.72
  13  -6  10    4.05    5.13
  13  -6  11   11.68    6.08
  13  -6  12    5.70    6.02
  14   6   0  140.64   15.01
  14   6   1   32.34    8.66
  14   6  -1   38.09    9.41
  14   6   2   17.93    7.74
  14   6  -2   26.65    8.42
  14   6   3    9.59    6.25
  14   6  -3   34.91    8.91
  14  -6   4   51.66    9.12
  14   6   4   44.80    9.35
  14   6  -4   75.22   11.65
  14   6   5   -4.82    7.09
  14  -6   5   -0.66    4.85
  14  -6   6   84.52   11.48
  14   6   6   81.42   12.14
  14   6   7   16.85    7.36
  14  -6   7   15.82    6.50
  14   6   8    2.99    5.95
  14  -6   8    8.04    5.65
  14  -6   9   12.54    6.52
  14  -6  10   77.57   11.38
  14  -6  11   17.01    6.99
  15   6   0   22.33    7.93
  15   6   1   22.10    7.87
  15   6  -1   34.21    8.95
  15   6   2   16.92    7.35
  15   6  -2   25.49    8.74
  15   6   3   -4.02    7.02
  15   6  -3   16.89    8.16
  15   6   4   13.37    6.79
  15   6  -4   34.13    9.14
  15  -6   4   18.38    6.58
  15  -6   5    5.28    5.20
  15  -6   6   -0.56    5.11
  15  -6   7    3.12    5.17
  15  -6   8    0.58    4.80
  15  -6   9    4.27    5.21
   0   7   0   -3.80    6.04
   0   7   1  804.03   24.72
   0   7  -1  768.20   24.30
   0   7   2  -10.98    7.00
   0   7  -2    5.87    6.12
   0  -7   2    0.12    4.59
   0  -7   3   30.20    6.58
   0   7  -3   45.73    8.40
   0   7   4    0.71    4.64
   0  -7   4    1.30    4.58
   0  -7   5  263.76   15.68
   0   7   5  242.08   14.31
   0   7   6    0.98    4.41
   0  -7   6    5.01    5.19
   0   7   7  427.74   19.01
   0  -7   7  419.47   19.95
   0  -7   8    5.44    5.27
   0  -7   9  111.91   11.22
   0  -7  10    5.12    4.84
   0  -7  11    9.19    5.01
   0  -7  12   -3.06    5.09
   0  -7  13   14.73    5.72
   0  -7  14   -2.62    5.23
   0  -7  15   22.34    6.90
   0  -7  16   -1.90    5.26
   0  -7  17    0.56    4.82
   0  -7  18   -1.41    5.14
   0  -7  19   12.93    6.04
   0  -7  20    2.56    5.67
   0  -7  21   13.42    6.98
   1   7   0   38.36    7.31
  -1   7   0   33.89    6.77
   1   7   1   -1.61    5.59
  -1   7   1   -1.95    4.95
   1   7  -1    7.07    6.04
  -1   7  -1   12.86    5.89
   1  -7   2   76.26    9.24
   1   7   2   80.99    9.11
  -1   7   2   81.30    8.77
   1   7  -2  109.47   10.93
  -1   7  -2   98.99    9.65
   1  -7   3  168.75   13.01
  -1  -7   3  178.77   12.85
   1   7   3  179.83   12.97
  -1   7   3  182.66   11.96
   1   7  -3  197.21   13.67
   1  -7   4   69.65    9.20
  -1  -7   4   71.94    8.81
   1   7   4   80.51    9.28
  -1   7   4   72.74    8.11
   1   7   5   29.82    6.64
  -1   7   5   28.76    5.89
   1  -7   5   31.30    7.27
  -1  -7   5   34.00    6.89
   1  -7   6  147.56   12.34
  -1  -7   6  146.61   12.05
   1   7   6  153.44   12.05
  -1   7   6  152.10   11.32
  -1  -7   7   56.20    7.93
   1   7   7   58.29    8.36
  -1   7   7   57.13    7.58
   1  -7   7   60.53    8.78
   1  -7   8    2.15    4.40
  -1  -7   8    3.46    4.64
   1  -7   9   56.06    8.70
  -1  -7   9   47.32    7.60
   1  -7  10   88.68   10.50
  -1  -7  10   84.65    9.96
   1  -7  11    1.61    4.93
  -1  -7  11    7.15    5.15
   1  -7  12   12.92    5.76
  -1  -7  12   11.51    5.60
   1  -7  13   16.11    5.84
  -1  -7  13   17.08    5.68
   1  -7  14    1.89    5.22
  -1  -7  14    7.83    4.86
   1  -7  15    4.27    5.27
  -1  -7  15    3.89    5.01
   1  -7  16   33.92    7.69
  -1  -7  16   38.59    7.99
   1  -7  17   16.72    6.77
  -1  -7  17   13.59    6.11
   1  -7  18    1.53    5.03
  -1  -7  18   -0.50    4.90
   1  -7  19   21.33    7.15
  -1  -7  19   18.66    6.92
   1  -7  20   27.57    8.48
  -1  -7  20   19.65    7.08
  -1  -7  21    5.91    5.80
   2   7   0   -4.69    6.10
  -2   7   0    6.20    4.99
   2   7   1   13.30    5.81
   2   7  -1   14.90    6.59
  -2   7   1   12.74    5.17
  -2   7  -1   32.03    6.45
   2   7   2   17.28    5.65
  -2   7   2   14.90    5.08
   2   7  -2   36.49    7.85
   2  -7   2   26.98    6.90
   2  -7   3  205.01   14.43
  -2  -7   3  195.72   12.87
   2   7   3  194.36   13.53
  -2   7   3  181.11   11.67
   2   7  -3  229.26   14.83
  -2  -7   4    2.56    4.13
   2   7   4    3.47    4.71
  -2   7   4   -5.95    5.13
   2  -7   4    3.12    5.01
   2  -7   5   90.19    9.99
  -2  -7   5   88.22    9.18
   2   7   5   82.42    9.35
  -2   7   5   86.17    8.52
   2  -7   6  110.02   11.16
  -2  -7   6  104.26   10.04
   2   7   6   98.05   10.24
  -2   7   6  101.64    8.95
   2   7   7   -5.15    5.72
  -2   7   7   -0.66    4.07
  -2  -7   7    3.37    4.29
   2  -7   7    1.86    4.39
  -2   7   8   99.33    9.26
   2  -7   8  113.93   11.68
  -2  -7   8  113.24   10.51
   2  -7   9   50.28    8.67
  -2  -7   9   48.18    7.43
   2  -7  10   42.18    8.29
  -2  -7  10   43.01    7.49
   2  -7  11   43.44    8.50
  -2  -7  11   45.24    7.70
   2  -7  12   43.38    8.22
  -2  -7  12   45.97    7.81
   2  -7  13    9.72    5.81
  -2  -7  13   12.83    5.39
   2  -7  14   51.07    9.04
  -2  -7  14   54.68    8.50
  -2  -7  15   -4.61    5.06
   2  -7  15   -1.82    5.87
   2  -7  16    9.70    5.79
  -2  -7  16    5.61    4.83
   2  -7  17    1.01    4.97
  -2  -7  17   -0.50    4.86
   2  -7  18   13.07    6.27
  -2  -7  18   22.64    6.93
   2  -7  19   10.41    6.84
  -2  -7  19    5.36    5.26
   2  -7  20   49.48   10.08
  -2  -7  20   40.36    8.67
  -2  -7  21    3.34    5.25
  -2  -7  22   -0.21    5.16
   3   7   0  113.79   11.51
  -3   7   0  142.40   10.16
   3  -7   1  211.02   14.89
   3   7   1  179.14   13.69
   3   7  -1  199.24   14.18
  -3   7   1  213.34   11.92
   3  -7   2   54.84    8.83
   3   7   2   38.31    7.38
   3   7  -2   46.01    8.16
  -3   7   2   49.43    6.50
   3  -7   3   87.87    9.99
   3   7   3  102.65   10.69
  -3   7   3   88.35    8.00
   3   7  -3  106.63   11.07
   3  -7   4   95.27   10.58
  -3  -7   4   96.99    9.35
   3   7   4   94.17   10.39
  -3   7   4   92.77    8.18
   3   7  -4  110.80   11.66
   3   7   5   18.25    5.90
  -3   7   5   20.79    4.77
   3  -7   5   23.11    6.52
  -3  -7   5   19.89    5.40
   3  -7   6   46.15    8.36
   3   7   6   39.68    7.27
  -3  -7   6   43.93    6.67
  -3   7   6   47.86    6.27
   3   7   7   18.38    6.45
  -3   7   7   26.79    5.31
  -3  -7   7   23.92    5.70
   3  -7   7   31.30    7.21
  -3   7   8    7.94    3.94
  -3  -7   8    9.67    4.65
   3  -7   8   12.74    6.24
   3  -7   9   93.90   11.10
  -3  -7   9   89.60    9.37
   3  -7  10   30.45    7.60
  -3  -7  10   30.57    6.38
   3  -7  11    2.07    5.34
  -3  -7  11    1.21    3.84
   3  -7  12   13.16    5.64
  -3  -7  12   20.02    5.84
   3  -7  13   47.62    8.90
  -3  -7  13   48.01    7.76
   3  -7  14   10.87    5.51
  -3  -7  14    7.76    4.86
  -3  -7  15   11.23    5.25
   3  -7  15    6.35    5.97
   3  -7  16   44.24    9.36
  -3  -7  16   44.16    8.08
   3  -7  17   25.20    7.94
  -3  -7  17   28.37    7.09
   3  -7  18    5.59    6.25
  -3  -7  18   -0.14    4.83
   3  -7  19   39.08    9.36
  -3  -7  19   35.03    7.97
  -3  -7  20    7.88    5.46
  -3  -7  21    7.64    5.66
  -3  -7  22   17.49    6.69
   4   7   0   22.55    6.64
   4  -7   1    5.52    5.30
   4   7   1   -1.59    5.65
   4   7  -1    4.90    5.22
  -4   7   1   17.32    4.79
   4   7   2   -0.76    5.62
   4  -7   2    2.66    5.16
   4   7  -2    6.68    6.18
  -4   7   2   10.34    4.47
   4   7   3    9.12    5.91
  -4   7   3   10.70    4.04
   4  -7   3    9.42    4.99
   4   7  -3   17.40    7.48
   4   7   4    0.93    5.56
  -4   7   4    3.23    3.25
   4   7  -4   17.87    7.73
   4  -7   4    5.24    5.15
   4   7   5   17.16    5.95
  -4   7   5   13.57    3.91
   4  -7   5   18.82    6.42
  -4  -7   5   20.97    5.14
   4   7   6   13.12    5.78
  -4   7   6   13.34    4.17
   4  -7   6   11.23    5.78
  -4  -7   6   13.12    4.60
   4   7   7   -1.52    5.22
  -4   7   7    3.68    3.58
  -4  -7   7    2.44    3.79
   4  -7   7    0.62    4.04
  -4  -7   8   54.18    7.36
  -4   7   8   59.44    6.74
   4  -7   8   52.26    8.91
  -4  -7   9    4.72    4.00
   4  -7   9   13.29    6.31
  -4   7   9    4.00    3.32
   4  -7  10   52.90    8.89
  -4  -7  10   53.46    7.50
   4  -7  11   27.35    7.09
  -4  -7  11   26.80    6.21
   4  -7  12    0.06    6.45
  -4  -7  12    9.40    4.72
   4  -7  13   35.90    8.09
  -4  -7  13   43.36    7.22
   4  -7  14    6.59    6.39
  -4  -7  14    7.51    4.53
   4  -7  15   11.82    6.45
  -4  -7  15    7.90    4.66
  -4  -7  16   11.24    5.30
   4  -7  16   12.56    6.26
   4  -7  17   13.35    6.44
  -4  -7  17    9.58    5.02
   4  -7  18   31.64    8.25
  -4  -7  18   32.15    7.34
   4  -7  19   21.19    7.71
  -4  -7  19   15.62    5.74
   5   7   0    0.43    6.65
   5   7   1   42.46    7.88
   5   7  -1   52.25    8.98
   5  -7   1   48.20    8.27
   5   7   2   11.25    5.44
   5  -7   2   16.99    6.42
   5   7  -2   24.23    7.75
  -5   7   2   30.73    4.93
   5   7   3   -1.04    5.52
   5  -7   3   -0.72    4.79
  -5   7   3    5.23    3.57
   5   7  -3   10.77    6.98
   5   7   4   21.07    6.70
  -5   7   4   22.30    4.28
   5  -7   4   19.02    6.44
   5  -7   5   72.42    9.76
   5   7   5   59.69    8.97
  -5   7   5   66.61    6.39
   5   7   6   33.03    7.47
   5  -7   6   40.33    8.36
  -5  -7   6   32.78    5.67
  -5  -7   7   66.94    7.61
   5   7   7   71.20    9.84
   5  -7   7   69.88   10.13
  -5  -7   8   59.34    7.27
   5   7   8   62.83    9.50
   5  -7   8   57.52    9.47
  -5  -7   9   52.69    7.01
   5  -7   9   59.41    9.66
   5  -7  10  108.36   12.26
  -5  -7  10  110.10    9.91
   5  -7  11   75.57   10.80
  -5  -7  11   64.07    8.11
   5  -7  12   20.11    6.84
  -5  -7  12   27.01    5.92
   5  -7  13   12.29    6.49
  -5  -7  13   21.14    5.37
   5  -7  14   15.69    6.48
  -5  -7  14   19.56    5.40
   5  -7  15    1.16    5.49
  -5  -7  15   -0.48    4.19
   5  -7  16   38.42    9.04
   5  -7  17   28.11    8.45
   5  -7  18   36.08    9.18
   6   7   0   -4.59    6.89
   6  -7   1   12.29    5.95
   6   7   1    2.97    5.38
   6   7  -1    6.46    6.72
   6  -7   2   81.11   10.34
   6   7   2   71.12    9.95
   6   7  -2   86.67   11.00
   6   7   3   23.73    7.26
   6   7  -3   25.24    7.97
   6  -7   3   17.26    6.15
   6  -7   4   63.26    9.52
   6   7   4   60.83    9.34
   6   7  -4   66.60    9.79
   6   7   5   10.20    6.10
   6  -7   5   15.11    6.22
   6   7   6   -0.14    5.99
   6  -7   6    5.74    4.77
   6   7   7   17.72    6.49
   6  -7   7   17.55    6.62
  -6  -7   7   16.76    4.34
  -6  -7   8   55.78    6.74
   6   7   8   45.02    8.46
   6  -7   8   60.55    9.66
  -6  -7   9    5.24    3.38
   6  -7   9    6.92    5.56
  -6  -7  10   39.30    5.99
   6  -7  10   41.52    8.37
   6  -7  11   10.74    6.26
   6  -7  12   10.86    6.46
   6  -7  13   19.98    7.01
   6  -7  14    3.76    5.35
   6  -7  15    9.57    6.60
   6  -7  16    4.36    6.23
   6  -7  17    3.74    6.05
   7   7   0   -4.84    6.82
   7   7   1    2.56    6.33
   7  -7   1    8.29    5.83
   7   7  -1    1.73    6.59
   7  -7   2   77.06   10.23
   7   7   2   81.71   10.79
   7   7  -2   81.24   10.98
   7   7   3    1.30    5.43
   7   7  -3    4.87    6.11
   7  -7   3   -3.20    5.60
   7  -7   4   68.84   10.08
   7   7   4   71.73   10.22
   7   7  -4   88.34   11.31
   7   7   5    8.54    6.50
   7  -7   5    9.75    5.71
   7   7   6   15.44    6.22
   7  -7   6   15.68    6.76
   7   7   7    5.47    5.23
   7  -7   7   14.01    6.81
   7   7   8  175.67   14.98
   7  -7   8  196.46   16.06
   7  -7   9    9.36    6.52
   7  -7  10    3.99    5.63
   7  -7  11    8.03    6.11
   7  -7  12  105.70   12.79
   7  -7  13    2.78    5.32
   7  -7  14   22.58    7.48
   7  -7  15   -2.41    6.62
   7  -7  16    1.82    6.19
   8   7   0   47.44    9.25
   8   7   1   35.04    8.19
   8   7  -1   36.83    8.52
   8   7   2   13.38    6.18
   8   7  -2   27.13    8.55
   8  -7   2   21.87    7.07
   8   7   3   25.91    7.64
   8   7  -3   45.58    9.33
   8  -7   3   35.25    7.96
   8  -7   4   28.56    7.26
   8   7   4   28.19    8.10
   8   7  -4   29.01    8.51
   8   7   5   46.31    9.05
   8  -7   5   51.87    9.30
   8   7  -5   71.32   11.13
   8   7   6   12.61    6.08
   8  -7   6    7.57    6.15
   8   7   7   27.45    7.40
   8  -7   7   24.72    7.57
   8  -7   8   35.23    8.58
   8   7   8   29.40    7.47
   8   7   9    1.06    5.29
   8  -7   9    3.53    6.08
   8  -7  10   22.93    7.60
   8  -7  11   39.98    8.92
   8  -7  12   30.92    8.46
   8  -7  13    9.01    6.15
   8  -7  14   -0.80    6.12
   8  -7  15   -7.26    7.21
   9   7   0  156.37   14.80
   9   7   1   75.16   10.95
   9   7  -1   77.33   11.24
   9   7   2   -5.50    7.00
   9   7  -2   -0.16    6.05
   9  -7   2   -1.54    5.59
   9  -7   3   18.29    6.11
   9   7   3    0.33    7.27
   9   7  -3   17.11    7.85
   9   7   4    0.36    5.98
   9  -7   4   -1.39    5.54
   9   7  -4    9.49    6.81
   9  -7   5  152.53   14.51
   9   7   5  150.39   14.47
   9   7  -5  156.73   15.07
   9   7  -6   57.36   10.79
   9   7   6   35.58    8.39
   9  -7   6   38.12    8.75
   9   7   7    1.96    5.44
   9  -7   7    2.60    5.47
   9   7   8    2.04    5.49
   9  -7   8   10.20    6.42
   9   7   9   29.90    8.25
   9  -7   9   31.62    8.31
   9   7  10    4.74    6.30
   9  -7  10   10.99    6.22
   9  -7  11  134.51   14.53
   9  -7  12    6.42    6.30
   9  -7  13   12.65    7.16
   9  -7  14    4.94    5.87
  10   7   0   18.02    7.71
  10   7   1   21.34    7.19
  10   7  -1   32.59    8.27
  10   7   2    4.38    6.49
  10   7  -2   15.19    7.88
  10  -7   2    9.63    5.54
  10   7   3   -6.60    7.80
  10   7  -3   10.50    6.48
  10  -7   3    5.59    5.03
  10   7   4    2.87    6.58
  10   7  -4   17.19    8.30
  10  -7   4    0.89    4.95
  10  -7   5    0.55    5.18
  10   7   5    3.72    6.14
  10   7   6    2.62    6.06
  10  -7   6    1.88    5.26
  10   7   7   -4.06    6.70
  10  -7   7   -0.61    5.46
  10   7   8   15.98    7.43
  10  -7   8   13.91    6.88
  10   7   9   14.88    7.14
  10  -7   9   18.93    7.26
  10   7  10   17.05    6.75
  10  -7  10   19.71    6.97
  10   7  11   15.75    7.29
  10  -7  11   19.33    7.58
  10  -7  12    2.10    4.88
  10  -7  13    9.77    6.68
  11   7   0   -6.20    7.36
  11   7   1   -3.37    6.47
  11   7  -1    5.60    6.47
  11   7   2   13.42    6.86
  11   7  -2   21.83    7.85
  11  -7   3   58.07    9.94
  11   7   3   60.45   10.74
  11   7  -3   85.40   12.26
  11  -7   4   35.42    8.03
  11   7   4   25.72    8.26
  11   7  -4   45.27    9.72
  11   7   5    3.22    6.18
  11  -7   5    2.19    5.06
  11   7   6   26.71    8.36
  11  -7   6   32.78    8.10
  11  -7   7   84.23   11.58
  11   7   7   80.23   12.19
  11  -7   8   98.20   12.64
  11   7   8   96.51   12.75
  11   7   9   22.68    7.54
  11  -7   9   26.10    7.97
  11  -7  10   -1.18    5.43
  11   7  10   -3.56    6.59
  11  -7  11    9.05    6.25
  11  -7  12   34.71    9.18
  12   7   0    6.69    6.85
  12   7   1   21.13    7.55
  12   7  -1   22.93    8.38
  12   7   2   11.04    6.52
  12   7  -2   19.93    7.68
  12   7   3   -5.31    7.84
  12  -7   3    5.72    5.78
  12   7  -3   16.32    8.54
  12   7   4   26.53    8.19
  12   7  -4   44.45   10.16
  12  -7   4   32.50    8.06
  12   7   5   -4.96    6.46
  12  -7   5    0.72    4.69
  12  -7   6   -0.81    4.97
  12   7   6   -0.78    5.41
  12   7   7   15.46    7.09
  12  -7   7   12.90    6.38
  12   7   8   11.96    7.46
  12  -7   8   10.77    6.57
  12  -7   9   38.47    9.11
  12  -7  10   19.29    7.13
  13   7   0    0.71    6.86
  13   7   1    7.67    6.80
  13   7  -1   12.44    7.68
  13   7   2   13.09    6.89
  13   7  -2   25.27    8.27
  13   7   3    3.59    5.90
  13   7  -3   19.79    8.47
  13   7   4   15.56    6.77
  13  -7   4   21.08    7.05
  13  -7   5    5.71    5.56
  13   7  -5   33.90    9.79
  13  -7   6   38.29    8.80
  13  -7   7    9.93    5.93
  13  -7   8   11.21    6.19
  14  -7   5    5.71    5.28
  14  -7   6   16.03    6.88
   0   8   0  100.25   10.31
   0   8   1   -0.73    4.76
   0   8  -1   10.87    5.97
   0   8   2   47.55    7.79
   0   8  -2   62.48    9.13
   0   8   3   -5.49    5.55
   0  -8   4   48.77    8.29
   0   8   4   40.10    7.26
   0   8   5   -4.32    5.22
   0  -8   5   -1.49    4.34
   0  -8   6   97.09   10.86
   0   8   6   98.18   10.30
   0   8   7   -0.40    4.55
   0  -8   7    1.61    4.77
   0   8   8   -2.09    4.69
   0  -8   8   -0.22    4.11
   0   8   9   -0.02    4.47
   0  -8   9    2.16    4.37
   0   8  10   47.30    7.84
   0  -8  10   42.50    8.10
   0  -8  11   -0.43    4.25
   0  -8  12   10.84    5.89
   0  -8  13    2.62    4.68
   0  -8  14    4.67    5.11
   0  -8  15   -1.50    4.99
   0  -8  16   34.03    8.09
   0  -8  17   -5.88    6.68
   0  -8  18   -4.55    6.16
   1   8   0   16.33    6.18
  -1   8   0   17.37    5.95
   1   8   1    3.51    4.77
  -1   8   1    3.93    4.81
   1   8  -1   12.98    6.05
  -1   8  -1   14.55    6.15
  -1   8  -2   74.42    9.03
   1   8   2   51.69    8.20
  -1   8   2   50.55    7.53
   1   8  -2   66.62    9.37
   1   8   3   10.28    5.18
  -1   8   3   15.95    5.38
   1  -8   3   16.59    5.89
  -1  -8   4   11.88    5.19
   1   8   4    4.09    5.11
  -1   8   4    5.37    4.85
   1  -8   4    7.30    5.01
  -1  -8   5   12.49    5.29
   1   8   5   17.36    6.07
  -1   8   5    9.83    4.63
   1  -8   5   18.10    6.38
   1  -8   6   51.92    8.45
  -1  -8   6   54.60    8.31
   1   8   6   55.68    8.28
  -1   8   6   52.27    7.71
   1   8   7   -0.27    4.99
  -1   8   7   -0.32    4.58
   1  -8   7    3.59    5.00
  -1  -8   7   -0.02    4.51
   1   8   8    4.00    4.53
  -1   8   8    7.49    4.86
   1  -8   8    5.69    5.32
  -1  -8   8    4.49    4.60
   1   8   9   -3.83    5.19
  -1   8   9   -2.13    4.34
   1  -8   9   -0.13    4.74
  -1  -8   9    0.66    4.11
  -1  -8  10    0.83    4.19
   1   8  10   -2.79    5.30
  -1   8  10   -1.50    4.40
   1  -8  10    0.73    4.84
   1  -8  11   10.26    5.72
  -1  -8  11    7.68    5.11
   1  -8  12    3.11    4.61
  -1  -8  12    3.62    4.68
   1  -8  13    4.42    5.27
  -1  -8  13    1.95    4.66
   1  -8  14    0.46    4.36
  -1  -8  14    5.63    5.25
   1  -8  15   -5.85    5.89
  -1  -8  15    0.57    4.46
   1  -8  16   -4.04    6.64
  -1  -8  16   -2.07    5.04
   1  -8  17   -3.69    6.24
  -1  -8  17   -2.56    5.69
   1  -8  18   -1.85    6.22
  -1  -8  18   -3.43    5.54
  -1  -8  19   -2.58    5.47
   2   8   0   10.24    5.85
  -2   8   0   15.11    5.44
   2   8   1   -0.68    5.35
   2   8  -1   10.62    6.20
  -2   8   1    6.46    4.87
  -2   8  -1   15.44    6.20
   2   8   2   -0.07    5.46
  -2   8   2    2.21    4.32
   2  -8   3  162.79   13.97
   2   8   3  156.02   13.02
  -2   8   3  165.66   11.74
   2   8  -3  184.82   14.26
   2  -8   4   53.92    8.74
   2   8   4   33.26    7.58
  -2   8   4   46.19    6.98
   2   8   5   18.85    6.24
  -2   8   5    7.68    4.48
   2  -8   5   18.04    6.22
  -2  -8   5   18.38    5.68
   2   8   6    7.76    5.44
  -2   8   6    8.10    4.47
  -2  -8   6   11.85    5.14
   2  -8   6   11.96    5.99
  -2  -8   7   38.90    7.38
   2  -8   7   47.04    8.50
   2   8   7   43.99    7.78
  -2   8   7   46.95    7.18
   2   8   8   -0.09    5.09
  -2   8   8    4.70    4.18
   2  -8   8    6.47    5.21
  -2  -8   8    8.34    4.98
   2   8   9   31.70    7.41
  -2   8   9   37.49    6.76
   2  -8   9   35.15    7.48
  -2  -8   9   34.52    7.07
  -2   8  10    8.79    4.62
  -2  -8  10    6.75    4.58
   2   8  10    3.70    5.04
   2  -8  10    2.93    4.85
   2  -8  11    1.80    5.16
  -2  -8  11    4.17    4.39
   2  -8  12    0.70    4.85
  -2  -8  12    3.40    4.33
   2  -8  13   19.06    7.02
  -2  -8  13   24.75    6.76
   2  -8  14    8.75    5.58
  -2  -8  14    6.67    5.02
   2  -8  15    1.96    5.69
  -2  -8  15    3.99    4.62
   2  -8  16    7.38    6.06
  -2  -8  16   19.44    6.43
   2  -8  17   14.54    6.42
  -2  -8  17   11.90    5.70
  -2  -8  18   -3.56    5.72
  -2  -8  19   17.44    6.48
  -2  -8  20    2.65    4.87
   3   8   0   10.10    5.84
  -3   8   0   19.82    5.98
   3   8   1   25.85    6.80
   3   8  -1   27.95    7.68
  -3   8   1   33.60    6.23
   3   8   2   -3.29    6.66
  -3   8   2    9.22    4.79
   3   8  -2   13.98    7.03
   3   8   3    7.89    5.76
   3  -8   3   23.48    6.47
  -3   8   3   19.66    5.35
   3   8   4   22.07    6.64
  -3   8   4   23.38    5.33
   3  -8   4   29.42    7.47
   3   8  -4   42.70    8.90
   3   8   5   10.72    6.04
   3  -8   5    7.10    5.36
  -3   8   5    6.02    4.06
  -3  -8   5    8.01    4.71
   3   8   6    0.74    4.86
  -3   8   6   -2.05    4.37
  -3  -8   6    2.17    3.87
   3  -8   6    0.92    4.37
   3   8   7   12.68    5.51
  -3   8   7   12.56    4.53
  -3  -8   7   11.90    4.90
   3  -8   7   12.83    5.80
   3   8   8    5.15    5.44
  -3   8   8    7.79    4.17
   3  -8   8    9.17    5.51
  -3  -8   8    8.43    4.66
   3   8   9   25.95    7.25
   3  -8   9   29.70    7.62
  -3   8   9   27.43    5.73
  -3  -8   9   34.83    6.92
  -3  -8  10   12.79    5.22
   3   8  10    7.25    5.72
   3  -8  10   12.73    6.18
  -3  -8  11    2.61    4.40
   3  -8  11    3.51    5.47
   3  -8  12   14.97    6.77
  -3  -8  12   13.33    5.46
   3  -8  13   54.90    9.94
  -3  -8  13   56.21    8.68
   3  -8  14   13.89    6.30
  -3  -8  14   13.92    5.76
   3  -8  15   24.93    8.01
  -3  -8  15   23.34    6.86
   3  -8  16    4.55    5.95
  -3  -8  16   14.77    5.89
   3  -8  17    6.61    6.30
  -3  -8  17    9.29    5.78
  -3  -8  18   -2.63    5.36
  -3  -8  19    5.94    5.26
   4   8   0  110.51   11.95
   4   8   1   75.82   10.53
   4   8  -1   80.12   10.32
   4   8   2   -0.74    6.06
   4   8  -2   14.04    7.02
   4  -8   3    7.83    5.93
   4   8   3   -2.70    6.60
   4   8   4    0.41    5.74
   4  -8   4    8.45    6.31
   4   8  -5   40.21    9.08
   4   8   5   25.22    7.31
   4  -8   5   21.81    6.67
   4  -8   6   94.38   11.51
  -4  -8   6   99.93   10.11
   4   8   6   97.34   11.37
   4  -8   7   52.94    9.07
  -4  -8   7   60.59    8.12
   4   8   7   51.48    8.86
   4   8   8    2.49    4.94
  -4  -8   8    5.83    4.25
   4  -8   8    7.16    5.43
   4   8   9   14.75    6.37
   4  -8   9   17.69    6.47
  -4  -8   9   17.63    5.29
  -4  -8  10   83.88    9.79
   4   8  10   81.91   10.92
   4  -8  10   88.27   11.76
  -4  -8  11    4.72    4.35
   4  -8  11    9.43    6.26
  -4  -8  12    3.99    4.19
   4  -8  12    0.82    4.68
   4  -8  13   20.70    7.57
  -4  -8  13   14.37    5.52
   4  -8  14   -0.81    5.11
  -4  -8  14    3.00    4.14
   4  -8  15    1.47    4.61
  -4  -8  15    5.70    4.50
   4  -8  16    6.76    5.78
   5   8   0   72.41   10.28
   5   8   1   -3.37    6.70
   5   8  -1    3.65    6.44
   5   8   2   11.39    6.48
   5   8  -2   13.97    7.10
   5   8   3   -3.26    7.20
   5   8  -3   13.58    7.36
   5  -8   3    0.32    5.46
   5   8   4    7.97    5.83
   5  -8   4   16.78    6.58
   5   8   5    1.60    5.45
   5  -8   5   -1.55    5.17
   5   8  -5   16.55    7.80
   5   8   6   26.17    7.60
   5  -8   6   24.76    7.08
   5   8   7   16.49    6.81
   5  -8   7   15.86    6.41
  -5  -8   7   11.60    4.64
   5   8   8   12.48    6.41
  -5  -8   8   12.70    4.79
   5  -8   8   17.41    6.42
   5   8   9   -4.40    6.00
   5  -8   9    0.43    5.05
  -5  -8   9    0.28    3.45
   5   8  10    8.13    6.08
  -5  -8  10    8.96    4.41
   5  -8  10   12.36    6.85
   5  -8  11    1.97    4.99
   5  -8  12   14.12    6.67
   5  -8  13    0.26    4.70
   5  -8  14   11.76    6.78
   5  -8  15   25.93    8.36
   6   8   0   -3.85    6.87
   6   8   1   13.17    6.47
   6   8  -1   16.56    7.31
   6   8   2   44.92    8.70
   6   8  -2   55.91   10.08
   6  -8   3   -1.08    5.27
   6   8   3   -9.00    7.80
   6   8  -3   12.05    7.92
   6   8   4   31.40    7.66
   6  -8   4   43.40    8.89
   6   8  -4   50.79    9.47
   6   8   5   25.75    7.09
   6  -8   5   29.33    8.00
   6   8   6    6.34    5.80
   6  -8   6    6.37    5.84
   6   8   7   30.37    7.95
   6  -8   7   36.83    8.56
   6  -8   8   81.29   11.46
   6   8   8   74.27   10.85
   6   8   9    7.59    5.60
   6  -8   9   12.04    6.74
   6   8  10   14.78    6.32
   6  -8  10   19.16    6.72
   6   8  11   19.71    7.51
   6  -8  11   24.13    8.00
   6  -8  12   35.74    8.50
   6  -8  13   49.00    9.87
   6  -8  14   25.92    8.41
   7   8   0   -0.89    6.15
   7   8   1    0.35    6.15
   7   8  -1    5.06    6.02
   7   8   2   -0.88    6.03
   7   8  -2   14.64    7.74
   7   8   3   -3.05    6.64
   7  -8   3   -1.21    5.02
   7   8  -3    8.96    7.05
   7  -8   4   -0.16    4.70
   7   8   4  -11.63    7.82
   7   8   5    4.88    6.15
   7  -8   5    0.68    4.86
   7   8   6   11.84    6.57
   7  -8   6    6.92    5.43
   7   8   7    2.40    5.65
   7  -8   7    0.07    4.57
   7   8   8   -0.87    5.87
   7  -8   8    0.70    4.84
   7   8   9    3.50    5.92
   7  -8   9   12.07    6.67
   7   8  10   -0.98    5.14
   7  -8  10    3.91    6.08
   7   8  11    2.42    5.90
   7  -8  11    7.68    5.89
   7  -8  12    3.63    6.17
   7  -8  13    8.78    6.87
   8   8   0    0.46    5.95
   8   8   1    7.10    6.65
   8   8  -1   19.57    7.91
   8   8   2   20.22    7.40
   8   8  -2   29.11    8.58
   8   8  -3   12.45    7.40
   8  -8   3    2.02    5.30
   8   8   4   12.86    6.33
   8  -8   4    7.78    5.86
   8  -8   5   59.08   10.26
   8   8   5   63.64   10.33
   8   8  -5   69.85   11.11
   8  -8   6   18.30    7.39
   8   8   6    7.46    5.87
   8   8   7   17.03    6.98
   8  -8   7   13.94    7.15
   8   8   8   43.84    9.38
   8  -8   8   39.55    9.03
   8   8   9   35.63    9.14
   8  -8   9   40.84    8.94
   8   8  10    2.59    5.33
   8  -8  10    7.75    6.57
   8   8  11   75.35   11.63
   8  -8  11   66.89   11.13
   8   8  12   36.38    8.90
   9   8   0    4.63    6.56
   9   8   1   -2.19    6.37
   9   8  -1    1.18    6.54
   9   8   2    5.86    5.65
   9   8  -2   14.82    7.26
   9   8   3    2.50    6.51
   9   8  -3   14.24    7.98
   9  -8   3    4.47    5.68
   9   8   4   -5.27    7.56
   9   8  -4   14.74    7.77
   9  -8   4    0.10    5.08
   9   8   5   -6.77    7.05
   9  -8   5    0.07    5.05
   9   8   6   20.77    7.78
   9  -8   6   16.30    7.23
   9   8   7    5.63    5.88
   9  -8   7    4.04    5.88
   9   8   8    0.41    6.12
   9  -8   8    2.67    5.61
   9   8   9    0.25    6.19
   9  -8   9   -0.07    4.78
   9   8  10   -2.83    6.24
   9  -8  10    3.58    6.03
  10   8   0   15.64    7.27
  10   8   1   21.67    7.90
  10   8  -1   18.25    8.13
  10   8   2    4.20    6.88
  10   8  -2   25.55    8.90
  10   8   3   -5.21    7.77
  10   8  -3   20.41    8.19
  10   8   4   35.43    9.46
  10  -8   4   48.70    9.54
  10   8  -4   61.24   10.86
  10  -8   5   79.73   11.93
  10   8   5   78.40   12.02
  10   8  -5  107.09   13.76
  10   8   6   46.39    9.92
  10  -8   6   42.74    9.55
  10  -8   7   11.84    7.03
  10   8   7    8.18    6.33
  10  -8   8   45.79    9.84
  11   8   0    5.21    6.73
  11   8   1   21.59    8.64
  11   8  -1   19.96    8.02
  11   8   2   -4.29    7.59
  11   8  -2    6.95    6.74
  11   8   3  -13.92    8.12
  11   8  -3    8.13    7.50
  11  -8   4   -1.60    5.19
  11  -8   5   -1.01    5.21
  11  -8   6    0.68    5.58
   0   9   0    5.20    5.67
   0   9   1   10.81    5.84
   0   9  -1   19.02    6.72
   0   9   2    0.29    4.83
   0   9  -2   27.67    7.36
   0   9   3   15.75    5.81
   0   9   4   -1.54    5.16
   0   9   5   -6.11    5.61
   0  -9   5   -0.25    4.70
   0   9   6   -5.81    5.81
   0  -9   6    0.22    4.71
   0   9   7    5.13    4.88
   0  -9   7    6.49    5.04
   0   9   8   -1.96    4.51
   0  -9   8    0.70    4.65
   0   9   9   16.96    6.00
   0  -9   9   15.09    6.13
   0   9  10    1.69    4.33
   0  -9  10    0.05    4.66
   0   9  11   17.65    6.08
   0  -9  11   26.39    7.28
   0   9  12   -1.11    4.62
   0  -9  12    1.01    4.50
   0  -9  13    1.52    4.82
   0   9  13    4.30    5.03
   0  -9  14    0.02    4.40
   0  -9  15    5.78    5.21
   1   9   0   35.39    7.98
  -1   9   0   42.42    7.88
   1   9   1    6.84    5.48
  -1   9   1   13.04    5.87
   1   9  -1   13.44    6.39
  -1   9  -1   20.93    7.20
   1   9   2   39.12    7.84
  -1   9   2   35.02    7.28
   1   9  -2   49.51    8.96
   1   9   3   46.05    8.51
  -1   9   3   48.58    8.00
   1   9   4   41.32    8.02
  -1   9   4   42.05    7.63
   1   9   5   -7.29    6.38
  -1   9   5   -3.76    5.51
   1  -9   5    3.33    5.27
   1  -9   6   77.08   10.78
  -1  -9   6   75.04   10.35
   1   9   6   65.57    9.57
  -1   9   6   67.99    9.06
  -1  -9   7   41.08    8.45
  -1   9   7   33.31    6.91
   1  -9   7   34.24    7.92
   1   9   7   46.34    8.37
   1  -9   8    1.58    4.84
   1   9   8   -0.91    4.86
  -1   9   8    1.49    4.20
  -1  -9   8    4.15    4.73
   1   9   9   17.50    6.56
  -1   9   9   17.66    6.14
   1  -9   9   18.02    6.87
  -1  -9   9   19.18    6.62
   1  -9  10   49.11    9.10
  -1  -9  10   53.32    9.19
   1   9  10   53.01    9.17
  -1   9  10   49.26    8.18
   1   9  11    1.91    4.75
  -1   9  11   10.41    5.37
   1  -9  11    8.35    5.59
  -1  -9  11   10.16    5.85
   1   9  12   13.15    5.71
   1  -9  12   15.96    6.68
  -1  -9  12   15.99    6.41
  -1  -9  13   26.33    7.46
   1   9  13   25.57    6.87
   1  -9  13   26.14    7.54
   1  -9  14   15.45    6.51
  -1  -9  14   14.94    6.27
  -1  -9  15   10.45    5.99
  -1  -9  16   32.55    8.36
   2   9   0   13.37    6.62
  -2   9   0   12.66    5.89
   2   9   1    3.12    5.56
   2   9  -1   19.57    7.13
  -2   9   1    9.98    5.46
   2   9   2    5.03    5.13
  -2   9   2   11.81    5.55
   2   9   3   22.41    7.19
  -2   9   3   24.66    6.42
   2   9  -3   43.94    9.08
   2   9   4    0.30    5.54
  -2   9   4    0.54    4.90
   2  -9   5   12.36    6.06
   2   9   5    7.58    5.50
   2  -9   6   12.08    5.67
   2   9   6    3.14    5.49
   2   9   7   -0.19    4.90
   2  -9   7    4.22    4.77
  -2  -9   7   -1.61    4.17
   2   9   8    1.56    4.83
  -2  -9   8   -0.05    4.13
   2  -9   8    0.40    4.40
   2   9   9   -1.27    5.01
  -2  -9   9    2.72    4.52
   2  -9   9   -0.31    5.23
   2   9  10    4.50    5.05
   2  -9  10    8.62    5.95
  -2  -9  10    9.27    5.20
   2   9  11   -3.96    5.58
   2  -9  11    1.47    4.82
  -2  -9  11    3.02    4.46
   2   9  12   -1.82    5.42
   2  -9  12    2.22    5.58
  -2  -9  12   -1.37    4.21
  -2  -9  13    1.54    4.39
   2   9  13   -0.89    5.29
   2  -9  13    0.90    4.81
  -2  -9  14   11.45    5.68
   2  -9  14    4.84    5.74
  -2  -9  15   -1.14    4.36
  -2  -9  16    6.18    5.02
  -2  -9  17   -0.46    4.24
   3   9   0   38.98    8.72
   3   9   1   60.65    9.88
   3   9  -1   63.86   10.24
   3   9   2   17.07    6.99
   3   9  -2   34.18    8.72
   3   9   3   82.69   10.82
   3   9  -3  111.51   12.58
   3  -9   4   75.18   11.14
   3   9   4   57.10    9.77
   3   9   5   40.39    8.58
   3  -9   5   46.79    9.42
   3   9   6   32.00    7.70
   3  -9   6   45.19    9.29
   3  -9   7   62.17   10.48
  -3  -9   7   59.27    8.98
   3   9   7   60.04    9.63
   3   9   8   22.61    7.12
  -3  -9   8   22.20    6.38
   3  -9   8   33.76    8.50
   3  -9   9   61.72   10.34
  -3  -9   9   62.23    9.30
   3   9   9   64.72    9.96
   3   9  10   22.36    7.35
  -3  -9  10   20.31    6.33
   3  -9  10   20.19    7.50
   3   9  11    3.61    5.31
   3  -9  11    4.75    5.54
  -3  -9  11    2.85    4.31
   3   9  12   -2.31    5.44
   3  -9  12    2.71    4.94
  -3  -9  12   -1.66    4.28
  -3  -9  13    9.94    5.13
   3   9  13   10.97    6.00
   3  -9  13   18.39    7.16
  -3  -9  14    9.69    5.26
   4   9   0   48.77    9.62
   4   9   1   13.91    6.78
   4   9  -1   22.58    7.71
   4   9   2   -7.98    7.32
   4   9  -2   17.44    7.92
   4   9   3    2.14    6.44
   4   9  -3   30.87    8.43
   4   9   4    2.53    6.14
   4  -9   4   10.01    6.33
   4   9   5   -4.90    6.43
   4  -9   5    0.02    5.15
   4   9   6   -2.54    5.69
   4  -9   6    0.16    5.25
   4   9   7    9.57    6.14
   4  -9   7   13.76    6.63
  -4  -9   8   15.58    5.58
   4   9   8   16.44    6.35
   4  -9   8   16.35    7.21
   4   9   9    8.71    5.63
  -4  -9   9   14.77    5.53
   4  -9   9   10.85    6.11
   4   9  10    0.33    5.11
   4  -9  10    3.73    5.82
   4   9  11   -0.16    5.41
   4  -9  11    2.26    5.44
   4   9  12   19.38    6.91
   4  -9  12   17.28    7.11
   4   9  13   10.08    6.30
   5   9   0   28.95    8.23
   5   9   1   79.61   11.46
   5   9  -1   96.49   12.52
   5   9   2    7.17    6.35
   5   9  -2   24.00    8.16
   5   9   3   -5.41    6.81
   5   9  -3   10.52    7.60
   5   9   4   23.15    7.15
   5  -9   4   38.97    8.96
   5  -9   5   62.68   10.69
   5   9   5   57.68    9.93
   5   9   6   13.23    6.62
   5  -9   6   15.54    7.15
   5  -9   7   59.47   10.53
   5   9   7   57.23    9.88
   5   9   8   20.13    7.11
   5  -9   8   22.22    7.54
   5   9   9   25.65    7.59
   5  -9   9   28.26    7.84
   5   9  10   37.78    9.06
   5  -9  10   47.97   10.13
   5   9  11   37.91    8.83
   5   9  12   25.31    8.02
   6   9   0   13.39    7.15
   6   9   1   11.59    7.28
   6   9  -1   11.44    6.75
   6   9   2   -5.41    7.30
   6   9  -2   17.82    8.15
   6   9   3    1.35    5.96
   6   9  -3   19.95    8.12
   6  -9   4    6.10    6.01
   6   9   4   -2.91    6.52
   6   9  -4   17.16    7.86
   6   9   5    2.81    6.35
   6  -9   5    9.80    6.77
   6   9   6    7.93    5.85
   6  -9   6   15.41    7.10
   6   9   7    8.33    5.80
   6  -9   7    1.99    5.51
   6   9   8    6.67    6.16
   6  -9   8   12.34    6.64
   6   9   9    5.48    5.99
   6  -9   9    1.04    5.45
   6   9  10    3.79    5.43
   6   9  11   -5.00    6.50
   7   9   0   -0.96    6.32
   7   9   1   -1.94    6.77
   7   9  -1    8.19    6.61
   7   9   2   71.39   11.55
   7   9  -2   81.94   12.38
   7   9   3   -7.13    7.70
   7   9  -3   24.09    8.78
   7  -9   4   54.76   10.46
   7   9   4   37.70    9.29
   7  -9   5    7.03    6.37
   7   9   5   -6.13    7.79
   7  -9   6   28.55    8.43
   7   9   6   31.99    8.81
   7   9   7    9.40    7.10
   7  -9   7    6.46    6.07
   7   9   8  145.80   15.33
   8   9   0    4.29    6.05
   8   9   1    7.19    7.09
   8   9  -1    8.45    7.07
   8   9   2    0.37    6.48
   8   9  -2   14.51    8.27
   8   9   3   -6.53    7.63
   8   9  -3   26.88    9.26
   8   9   4   -7.69    7.84
   8   9  -4   20.58    8.72
   8   9   5    6.52    6.59
   0  10   0  100.53   11.38
   0  10   1   10.66    6.41
   0  10   2   27.97    7.36
   0  10   3    1.09    4.93
   0  10   4   39.06    8.08
   0  10   5    0.84    4.89
   0 -10   8    2.94    4.81
   0 -10   9   -1.35    4.89
   0 -10  10   47.52    9.49
   1  10   0   18.64    7.16
   1  10   1   16.94    7.00
   1  10  -1   21.76    7.46
   1  10   2   10.13    6.30
   1  10   3    5.28    5.48
   1  10   4   23.73    7.24
   1  10   5    2.83    5.33
   1  10   6   18.38    6.64
   1 -10   7    7.19    5.52
   1  10   7    7.00    5.20
   1  10   8   -3.03    6.21
  -1 -10   8    1.27    4.81
   1 -10   8    4.60    5.25
   1  10   9    6.05    5.74
  -1 -10   9    8.20    5.86
   1 -10   9    8.82    5.84
   1  10  10   11.67    6.27
  -1 -10  10   11.72    6.03
   1  10  11    6.53    5.42
  -1 -10  11   10.09    5.88
   2  10   0   14.96    7.06
   2  10   1    6.07    6.19
   2  10  -1   13.26    7.38
   2  10   2   20.34    7.46
   2  10  -2   40.81    9.33
   2  10   3   39.25    8.62
   2  10   4    5.34    5.95
   2  10   5   -3.61    6.25
   2  10   6    9.05    5.66
   2 -10   7   90.20   12.46
   2  10   7   71.73   10.89
   2  10   8   -4.17    6.58
   2 -10   8    8.96    6.02
   2  10   9   10.75    6.17
  -2 -10   9   15.60    6.17
   2  10  10    4.88    5.51
  -2 -10  10    5.68    4.80
   2  10  11   15.94    6.54
  -2 -10  11   14.28    6.27
   2  10  12    7.76    5.93
  -2 -10  12    4.99    5.10
   3  10   0   21.40    7.77
   3  10   1   12.93    7.15
   3  10  -1   15.59    7.51
   3  10   2   19.81    7.32
   3  10  -2   33.29    9.04
   3  10   3  104.98   12.96
   3  10   4   30.64    8.18
   3  10   5   21.11    7.36
   3  10   6   -6.90    6.71
   3 -10   6    0.53    5.03
   3  10   7   -6.52    6.39
   3  10   8   11.54    6.19
   3  10   9   20.34    7.07
   3  10  10    7.64    5.97
   3  10  11   29.39    7.99
   4  10   0   52.50   10.10
   4  10   1   18.52    7.90
   4  10  -1   17.81    7.65
   4  10   2    2.89    6.36
   4  10  -2   15.76    7.97
   4  10   3   -3.55    6.58
   4  10  -3   38.53    9.38
   4  10   4   10.66    6.88
   4  10   5   19.94    7.29
   4  10   6   12.34    6.65
   4  10   7   -1.52    6.45
   4  10   8    0.65    6.22
   4  10   9   48.35    9.78
   5  10   0    3.84    6.98
   5  10   1   17.80    7.75
   5  10  -1   25.18    8.66
   5  10   2    8.61    6.42
   5  10  -2   26.03    8.67
   5  10   3   -2.01    6.27
   5  10  -3   26.87    8.90
   5  10   4   -3.05    6.32
   5  10   5    1.43    6.46
   5  10   6   -7.16    7.05
   2  11   0   13.48    7.09
   2  11   1   15.19    7.54
   2  11   2   13.59    6.97
   2  11   3   13.01    6.68
   2  11   4    5.91    5.77
TITL smz_f1_175 in Pnma
REM Pnma (#62, found as Pbnm in bca setting)
CELL 0.71073  14.468718  21.808418   8.182857  90.0000  90.0000  90.0000
ZERR    7.00   0.000573   0.000943   0.000353   0.0000   0.0000   0.0000
LATT  1
SYMM -x+1/2,-y, z+1/2
SYMM -x, y+1/2,-z
SYMM  x+1/2,-y+1/2,-z+1/2
SFAC C H N O S
UNIT 105.00 105.00 21.00 14.00 7.00
TREF
HKLF 4
END
_computing_structure_solution     'SHELXT 2014/4 (Sheldrick, 2014)'
;
_shelx_hkl_checksum              47451
loop_
_space_group_symop_operation_xyz
'x, y, z'
'-x, -y, z+1/2'
'x+1/2, -y+1/2, z'
'-x+1/2, y+1/2, z+1/2'
loop_
_atom_site_label
_atom_site_type_symbol
_atom_site_fract_x
_atom_site_fract_y
_atom_site_fract_z
_atom_site_U_iso_or_equiv
_atom_site_adp_type
_atom_site_occupancy
_atom_site_site_symmetry_order
_atom_site_calc_flag
_atom_site_refinement_flags_posn
_atom_site_refinement_flags_adp
_atom_site_refinement_flags_occupancy
_atom_site_disorder_assembly
_atom_site_disorder_group
S1 S 0.35581(7) 0.50535(15) 0.65638(6) 0.0229(3) Uani 1 1 d . . . . .
S2 S 0.42199(7) 0.50216(17) 0.34683(6) 0.0222(3) Uani 1 1 d . . . . .
O1 O 0.3128(2) 0.6302(4) 0.69216(17) 0.0301(8) Uani 1 1 d . . . . .
O2 O 0.45326(19) 0.4778(4) 0.66268(17) 0.0287(8) Uani 1 1 d . . . . .
O3 O 0.32428(19) 0.5295(4) 0.34015(18) 0.0297(8) Uani 1 1 d . . . . .
O4 O 0.4644(2) 0.3745(4) 0.31106(17) 0.0280(8) Uani 1 1 d . . . . .
N1 N 0.1590(3) -0.1167(5) 0.6879(3) 0.0352(12) Uani 1 1 d D . . . .
N2 N 0.3463(3) 0.5528(5) 0.5829(2) 0.0249(10) Uani 1 1 d D . . . .
N3 N 0.1870(3) 0.5921(5) 0.5834(2) 0.0269(10) Uani 1 1 d . . . . .
N4 N 0.2725(3) 0.5693(6) 0.4904(2) 0.0368(12) Uani 1 1 d . . . . .
N5 N 0.6199(3) 1.1202(5) 0.3057(2) 0.0422(13) Uani 1 1 d . . . . .
H5A H 0.6764 1.1192 0.2935 0.055 Uiso 1 1 calc R U . . .
H5B H 0.5925 1.2116 0.3125 0.055 Uiso 1 1 calc R U . . .
N6 N 0.4321(3) 0.4579(5) 0.4204(2) 0.0276(11) Uani 1 1 d D . . . .
N7 N 0.5904(3) 0.4123(5) 0.4191(2) 0.0271(10) Uani 1 1 d . . . . .
N8 N 0.5048(3) 0.4346(6) 0.5125(2) 0.0353(11) Uani 1 1 d . . . . .
C1 C 0.2972(3) 0.3222(6) 0.6660(3) 0.0215(12) Uani 1 1 d . . . . .
C2 C 0.2070(3) 0.3197(6) 0.6897(2) 0.0226(11) Uani 1 1 d . . . . .
H2 H 0.1779 0.4169 0.7003 0.029 Uiso 1 1 calc R U . . .
C3 C 0.1619(3) 0.1738(6) 0.6969(3) 0.0220(12) Uani 1 1 d . . . . .
H3 H 0.1019 0.1728 0.7123 0.029 Uiso 1 1 calc R U . . .
C4 C 0.2048(3) 0.0267(6) 0.6816(2) 0.0244(11) Uani 1 1 d . . . . .
C5 C 0.2942(3) 0.0307(6) 0.6575(3) 0.0303(13) Uani 1 1 d . . . . .
H5 H 0.3231 -0.0666 0.6465 0.039 Uiso 1 1 calc R U . . .
C6 C 0.3403(3) 0.1768(6) 0.6495(3) 0.0258(12) Uani 1 1 d . . . . .
H6 H 0.3998 0.1780 0.6333 0.034 Uiso 1 1 calc R U . . .
C7 C 0.2640(3) 0.5723(6) 0.5509(2) 0.0249(12) Uani 1 1 d . . . . .
C8 C 0.1939(4) 0.5934(9) 0.4594(3) 0.0549(19) Uani 1 1 d . . . . .
H8 H 0.1959 0.5954 0.4167 0.071 Uiso 1 1 calc R U . . .
C9 C 0.1105(4) 0.6152(8) 0.4881(3) 0.0492(17) Uani 1 1 d . . . . .
H9 H 0.0567 0.6313 0.4655 0.064 Uiso 1 1 calc R U . . .
C10 C 0.1085(3) 0.6125(7) 0.5504(3) 0.0328(13) Uani 1 1 d . . . . .
C11 C 0.0222(3) 0.6316(7) 0.5867(3) 0.0438(15) Uani 1 1 d . . . . .
H11A H 0.0207 0.7386 0.6047 0.057 Uiso 1 1 calc R U . . .
H11B H 0.0204 0.5505 0.6184 0.057 Uiso 1 1 calc R U . . .
H11C H -0.0303 0.6181 0.5602 0.057 Uiso 1 1 calc R U . . .
C12 C 0.4812(3) 0.6830(6) 0.3341(2) 0.0223(11) Uani 1 1 d . . . . .
C13 C 0.4364(3) 0.8304(6) 0.3442(3) 0.0299(13) Uani 1 1 d . . . . .
H13 H 0.3752 0.8309 0.3572 0.039 Uiso 1 1 calc R U . . .
C14 C 0.4819(3) 0.9752(6) 0.3353(3) 0.0325(13) Uani 1 1 d . . . . .
H14 H 0.4517 1.0734 0.3431 0.042 Uiso 1 1 calc R U . . .
C15 C 0.5738(3) 0.9765(6) 0.3144(2) 0.0280(12) Uani 1 1 d . . . . .
C16 C 0.6179(3) 0.8267(6) 0.3035(2) 0.0260(12) Uani 1 1 d . . . . .
H16 H 0.6788 0.8253 0.2898 0.034 Uiso 1 1 calc R U . . .
C17 C 0.5717(3) 0.6819(6) 0.3130(3) 0.0240(13) Uani 1 1 d . . . . .
H17 H 0.6012 0.5831 0.3053 0.031 Uiso 1 1 calc R U . . .
C18 C 0.5144(3) 0.4330(6) 0.4516(3) 0.0263(12) Uani 1 1 d . . . . .
C19 C 0.5828(4) 0.4042(9) 0.5436(3) 0.0536(19) Uani 1 1 d . . . . .
H19 H 0.5808 0.4015 0.5862 0.070 Uiso 1 1 calc R U . . .
C20 C 0.6657(4) 0.3771(8) 0.5147(3) 0.0522(18) Uani 1 1 d . . . . .
H20 H 0.7188 0.3539 0.5370 0.068 Uiso 1 1 calc R U . . .
C21 C 0.6682(4) 0.3852(7) 0.4515(3) 0.0331(13) Uani 1 1 d . . . . .
C22 C 0.7544(3) 0.3630(8) 0.4141(3) 0.0492(17) Uani 1 1 d . . . . .
H22A H 0.8073 0.3626 0.4407 0.064 Uiso 1 1 calc R U . . .
H22B H 0.7599 0.4512 0.3853 0.064 Uiso 1 1 calc R U . . .
H22C H 0.7513 0.2611 0.3924 0.064 Uiso 1 1 calc R U . . .
H1N1 H 0.109(2) -0.117(6) 0.711(2) 0.039(15) Uiso 1 1 d D . . . .
H2N1 H 0.193(3) -0.205(5) 0.682(3) 0.07(2) Uiso 1 1 d D . . . .
H1N2 H 0.393(2) 0.517(5) 0.559(2) 0.029(14) Uiso 1 1 d D . . . .
H1N6 H 0.378(3) 0.494(7) 0.438(3) 0.060(19) Uiso 1 1 d D . . . .
loop_
_atom_site_aniso_label
_atom_site_aniso_U_11
_atom_site_aniso_U_22
_atom_site_aniso_U_33
_atom_site_aniso_U_23
_atom_site_aniso_U_13
_atom_site_aniso_U_12
S1 0.0215(5) 0.0264(7) 0.0208(6) 0.0030(7) -0.0008(5) -0.0018(6)
S2 0.0205(5) 0.0256(7) 0.0204(7) 0.0022(7) -0.0009(5) -0.0020(6)
O1 0.0370(19) 0.0253(19) 0.028(2) -0.0005(18) -0.0014(17) -0.0017(15)
O2 0.0228(15) 0.036(2) 0.028(2) 0.006(2) -0.0048(16) -0.0030(15)
O3 0.0193(15) 0.041(2) 0.029(2) 0.004(2) -0.0024(16) -0.0032(14)
O4 0.0310(19) 0.025(2) 0.028(2) -0.0029(17) -0.0033(16) 0.0000(15)
N1 0.029(2) 0.026(2) 0.051(3) -0.004(2) 0.016(2) -0.002(2)
N2 0.017(2) 0.037(3) 0.021(3) 0.005(2) 0.0003(18) 0.0013(17)
N3 0.023(2) 0.027(2) 0.032(3) 0.001(2) 0.002(2) 0.0007(19)
N4 0.026(2) 0.062(3) 0.023(3) 0.005(2) -0.001(2) 0.011(2)
N5 0.038(2) 0.023(2) 0.066(4) -0.005(2) 0.014(3) -0.0056(19)
N6 0.022(2) 0.041(3) 0.020(3) 0.008(2) 0.0028(18) 0.004(2)
N7 0.025(2) 0.033(3) 0.023(3) 0.001(2) 0.0010(18) 0.0027(19)
N8 0.030(2) 0.054(3) 0.021(3) 0.003(2) -0.004(2) 0.010(2)
C1 0.021(2) 0.023(3) 0.020(3) 0.000(2) -0.001(2) 0.000(2)
C2 0.025(3) 0.026(3) 0.017(3) 0.000(2) -0.002(2) 0.004(2)
C3 0.018(2) 0.033(3) 0.015(3) -0.004(3) 0.004(2) 0.001(2)
C4 0.023(2) 0.030(3) 0.020(3) 0.000(2) 0.0000(19) 0.000(2)
C5 0.030(3) 0.023(3) 0.038(3) -0.004(3) 0.007(3) 0.003(2)
C6 0.019(2) 0.031(3) 0.027(3) 0.002(3) 0.006(2) 0.004(2)
C7 0.025(3) 0.025(3) 0.025(3) 0.005(2) -0.002(2) 0.000(2)
C8 0.038(4) 0.098(6) 0.029(4) 0.005(4) -0.003(3) 0.022(3)
C9 0.029(3) 0.086(5) 0.033(4) -0.001(4) -0.010(3) 0.016(3)
C10 0.023(3) 0.036(3) 0.039(4) -0.001(3) -0.001(3) 0.004(2)
C11 0.028(3) 0.056(4) 0.048(4) -0.006(3) 0.003(3) 0.004(3)
C12 0.024(2) 0.024(3) 0.019(3) 0.003(2) -0.001(2) -0.002(2)
C13 0.022(3) 0.028(3) 0.040(4) -0.001(3) 0.007(3) 0.002(2)
C14 0.030(2) 0.023(3) 0.045(4) -0.001(3) 0.002(2) 0.007(2)
C15 0.031(3) 0.029(3) 0.025(3) -0.004(2) 0.003(2) -0.002(2)
C16 0.025(3) 0.028(3) 0.026(3) -0.001(3) 0.004(2) -0.004(2)
C17 0.023(3) 0.023(3) 0.026(3) -0.004(3) 0.000(2) 0.003(2)
C18 0.023(3) 0.027(3) 0.029(3) 0.005(2) -0.005(2) 0.001(2)
C19 0.034(3) 0.095(5) 0.032(4) -0.002(4) -0.008(3) 0.015(3)
C20 0.028(3) 0.085(5) 0.043(4) -0.003(4) -0.008(3) 0.023(3)
C21 0.027(3) 0.039(3) 0.034(4) -0.003(3) 0.000(3) 0.005(2)
C22 0.025(3) 0.065(4) 0.058(4) -0.008(4) 0.001(3) 0.010(3)
loop_
_atom_type_symbol
_atom_type_description
_atom_type_scat_dispersion_real
_atom_type_scat_dispersion_imag
_atom_type_scat_source
C C 0.0033 0.0016 'International Tables Vol C Tables 4.2.6.8 and 6.1.1.4'
H H 0.0000 0.0000 'International Tables Vol C Tables 4.2.6.8 and 6.1.1.4'
N N 0.0061 0.0033 'International Tables Vol C Tables 4.2.6.8 and 6.1.1.4'
O O 0.0106 0.0060 'International Tables Vol C Tables 4.2.6.8 and 6.1.1.4'
S S 0.1246 0.1234 'International Tables Vol C Tables 4.2.6.8 and 6.1.1.4'
loop_
_geom_angle_atom_site_label_1
_geom_angle_atom_site_label_2
_geom_angle_atom_site_label_3
_geom_angle
_geom_angle_site_symmetry_1
_geom_angle_site_symmetry_3
O1 S1 O2 119.2(2) . .
O1 S1 N2 109.0(2) . .
O2 S1 N2 102.2(2) . .
O1 S1 C1 109.8(2) . .
O2 S1 C1 109.5(2) . .
N2 S1 C1 106.2(3) . .
O3 S2 O4 118.5(2) . .
O3 S2 N6 102.7(2) . .
O4 S2 N6 109.2(2) . .
O3 S2 C12 109.7(2) . .
O4 S2 C12 108.8(2) . .
N6 S2 C12 107.4(2) . .
C4 N1 H1N1 117(3) . .
C4 N1 H2N1 115(4) . .
H1N1 N1 H2N1 123(5) . .
C7 N2 S1 125.8(3) . .
C7 N2 H1N2 112(3) . .
S1 N2 H1N2 115(3) . .
C7 N3 C10 115.7(5) . .
C7 N4 C8 114.9(5) . .
C15 N5 H5A 120.0 . .
C15 N5 H5B 120.0 . .
H5A N5 H5B 120.0 . .
C18 N6 S2 125.8(4) . .
C18 N6 H1N6 124(4) . .
S2 N6 H1N6 106(4) . .
C18 N7 C21 115.7(5) . .
C18 N8 C19 114.4(5) . .
C6 C1 C2 120.0(4) . .
C6 C1 S1 119.2(3) . .
C2 C1 S1 120.8(4) . .
C3 C2 C1 119.9(4) . .
C3 C2 H2 120.0 . .
C1 C2 H2 120.0 . .
C2 C3 C4 120.8(4) . .
C2 C3 H3 119.6 . .
C4 C3 H3 119.6 . .
N1 C4 C5 120.8(4) . .
N1 C4 C3 120.4(4) . .
C5 C4 C3 118.8(4) . .
C6 C5 C4 121.0(4) . .
C6 C5 H5 119.5 . .
C4 C5 H5 119.5 . .
C5 C6 C1 119.5(4) . .
C5 C6 H6 120.3 . .
C1 C6 H6 120.3 . .
N4 C7 N3 127.7(5) . .
N4 C7 N2 114.7(5) . .
N3 C7 N2 117.7(5) . .
N4 C8 C9 122.4(6) . .
N4 C8 H8 118.8 . .
C9 C8 H8 118.8 . .
C10 C9 C8 118.2(6) . .
C10 C9 H9 120.9 . .
C8 C9 H9 120.9 . .
N3 C10 C9 121.0(5) . .
N3 C10 C11 115.8(5) . .
C9 C10 C11 123.2(5) . .
C10 C11 H11A 109.5 . .
C10 C11 H11B 109.5 . .
H11A C11 H11B 109.5 . .
C10 C11 H11C 109.5 . .
H11A C11 H11C 109.5 . .
H11B C11 H11C 109.5 . .
C13 C12 C17 120.0(4) . .
C13 C12 S2 119.1(3) . .
C17 C12 S2 120.9(4) . .
C14 C13 C12 120.4(4) . .
C14 C13 H13 119.8 . .
C12 C13 H13 119.8 . .
C13 C14 C15 120.5(4) . .
C13 C14 H14 119.8 . .
C15 C14 H14 119.8 . .
N5 C15 C16 120.4(4) . .
N5 C15 C14 120.9(4) . .
C16 C15 C14 118.6(4) . .
C17 C16 C15 120.4(4) . .
C17 C16 H16 119.8 . .
C15 C16 H16 119.8 . .
C16 C17 C12 120.2(4) . .
C16 C17 H17 119.9 . .
C12 C17 H17 119.9 . .
N7 C18 N8 128.5(5) . .
N7 C18 N6 118.1(5) . .
N8 C18 N6 113.4(4) . .
N8 C19 C20 122.2(6) . .
N8 C19 H19 118.9 . .
C20 C19 H19 118.9 . .
C19 C20 C21 118.3(6) . .
C19 C20 H20 120.9 . .
C21 C20 H20 120.9 . .
N7 C21 C20 120.7(5) . .
N7 C21 C22 115.3(5) . .
C20 C21 C22 123.9(5) . .
C21 C22 H22A 109.5 . .
C21 C22 H22B 109.5 . .
H22A C22 H22B 109.5 . .
C21 C22 H22C 109.5 . .
H22A C22 H22C 109.5 . .
H22B C22 H22C 109.5 . .
loop_
_geom_bond_atom_site_label_1
_geom_bond_atom_site_label_2
_geom_bond_distance
_geom_bond_site_symmetry_2
S1 O1 1.429(3) .
S1 O2 1.435(3) .
S1 N2 1.654(5) .
S1 C1 1.734(5) .
S2 O3 1.439(3) .
S2 O4 1.441(3) .
S2 N6 1.652(5) .
S2 C12 1.733(5) .
N1 C4 1.354(6) .
N1 H1N1 0.88(2) .
N1 H2N1 0.88(2) .
N2 C7 1.389(6) .
N2 H1N2 0.90(2) .
N3 C7 1.330(6) .
N3 C10 1.355(7) .
N4 C7 1.327(7) .
N4 C8 1.338(7) .
N5 C15 1.365(6) .
N5 H5A 0.8600 .
N5 H5B 0.8600 .
N6 C18 1.387(6) .
N6 H1N6 0.92(2) .
N7 C18 1.320(6) .
N7 C21 1.347(7) .
N8 C18 1.337(7) .
N8 C19 1.340(7) .
C1 C6 1.391(7) .
C1 C2 1.404(6) .
C2 C3 1.370(7) .
C2 H2 0.9300 .
C3 C4 1.396(7) .
C3 H3 0.9300 .
C4 C5 1.398(6) .
C5 C6 1.380(7) .
C5 H5 0.9300 .
C6 H6 0.9300 .
C8 C9 1.371(7) .
C8 H8 0.9300 .
C9 C10 1.360(9) .
C9 H9 0.9300 .
C10 C11 1.487(7) .
C11 H11A 0.9600 .
C11 H11B 0.9600 .
C11 H11C 0.9600 .
C12 C13 1.387(7) .
C12 C17 1.388(6) .
C13 C14 1.369(7) .
C13 H13 0.9300 .
C14 C15 1.406(6) .
C14 H14 0.9300 .
C15 C16 1.403(7) .
C16 C17 1.376(7) .
C16 H16 0.9300 .
C17 H17 0.9300 .
C19 C20 1.373(8) .
C19 H19 0.9300 .
C20 C21 1.379(9) .
C20 H20 0.9300 .
C21 C22 1.502(7) .
C22 H22A 0.9600 .
C22 H22B 0.9600 .
C22 H22C 0.9600 .
loop_
_geom_torsion_atom_site_label_1
_geom_torsion_atom_site_label_2
_geom_torsion_atom_site_label_3
_geom_torsion_atom_site_label_4
_geom_torsion
_geom_torsion_site_symmetry_1
_geom_torsion_site_symmetry_2
_geom_torsion_site_symmetry_3
_geom_torsion_site_symmetry_4
O1 S1 N2 C7 -61.0(5) . . . .
O2 S1 N2 C7 171.9(4) . . . .
C1 S1 N2 C7 57.2(5) . . . .
O3 S2 N6 C18 -174.9(4) . . . .
O4 S2 N6 C18 58.5(5) . . . .
C12 S2 N6 C18 -59.3(5) . . . .
O1 S1 C1 C6 -162.6(4) . . . .
O2 S1 C1 C6 -29.9(5) . . . .
N2 S1 C1 C6 79.8(5) . . . .
O1 S1 C1 C2 18.0(5) . . . .
O2 S1 C1 C2 150.7(4) . . . .
N2 S1 C1 C2 -99.7(5) . . . .
C6 C1 C2 C3 0.6(8) . . . .
S1 C1 C2 C3 180.0(4) . . . .
C1 C2 C3 C4 0.5(7) . . . .
C2 C3 C4 N1 -178.8(5) . . . .
C2 C3 C4 C5 -1.3(8) . . . .
N1 C4 C5 C6 178.4(5) . . . .
C3 C4 C5 C6 0.9(9) . . . .
C4 C5 C6 C1 0.2(9) . . . .
C2 C1 C6 C5 -0.9(8) . . . .
S1 C1 C6 C5 179.6(5) . . . .
C8 N4 C7 N3 1.7(9) . . . .
C8 N4 C7 N2 -177.9(5) . . . .
C10 N3 C7 N4 -0.4(8) . . . .
C10 N3 C7 N2 179.3(4) . . . .
S1 N2 C7 N4 -163.8(4) . . . .
S1 N2 C7 N3 16.5(7) . . . .
C7 N4 C8 C9 -1.6(9) . . . .
N4 C8 C9 C10 0.2(11) . . . .
C7 N3 C10 C9 -1.2(8) . . . .
C7 N3 C10 C11 178.9(5) . . . .
C8 C9 C10 N3 1.3(10) . . . .
C8 C9 C10 C11 -178.8(6) . . . .
O3 S2 C12 C13 25.6(5) . . . .
O4 S2 C12 C13 156.6(4) . . . .
N6 S2 C12 C13 -85.3(5) . . . .
O3 S2 C12 C17 -153.3(4) . . . .
O4 S2 C12 C17 -22.3(5) . . . .
N6 S2 C12 C17 95.8(5) . . . .
C17 C12 C13 C14 -1.9(9) . . . .
S2 C12 C13 C14 179.1(5) . . . .
C12 C13 C14 C15 1.4(9) . . . .
C13 C14 C15 N5 -179.6(6) . . . .
C13 C14 C15 C16 -0.6(9) . . . .
N5 C15 C16 C17 179.2(5) . . . .
C14 C15 C16 C17 0.1(8) . . . .
C15 C16 C17 C12 -0.6(8) . . . .
C13 C12 C17 C16 1.5(8) . . . .
S2 C12 C17 C16 -179.6(4) . . . .
C21 N7 C18 N8 1.8(8) . . . .
C21 N7 C18 N6 -178.7(5) . . . .
C19 N8 C18 N7 -3.0(9) . . . .
C19 N8 C18 N6 177.5(5) . . . .
S2 N6 C18 N7 -13.4(7) . . . .
S2 N6 C18 N8 166.1(4) . . . .
C18 N8 C19 C20 1.2(9) . . . .
N8 C19 C20 C21 1.4(11) . . . .
C18 N7 C21 C20 1.2(8) . . . .
C18 N7 C21 C22 -179.6(5) . . . .
C19 C20 C21 N7 -2.7(10) . . . .
C19 C20 C21 C22 178.1(6) . . . .
